MODEL 1
REMARK VINA RESULT:     -12.5      0.000      0.000
REMARK SMILES O=C(OCCOC(=O)[C@H](c1c[nH]c2cc(F)ccc12)[NH+]1CCN(c2ccccc2)CC1)c1ccc(-c2c3nc(c(-c4c(F)cccc4F)c4ccc([nH]4)c(-c4c(F)cccc4F)c4nc(c(-c5c(F)cccc5F)c5ccc2[nH]5)C=C4)C=C3)cc1
REMARK SMILES IDX 4 1 3 2 2 3 1 4 32 5 33 6 85 7 34 8 84 9 35 10 36 11 37 12
REMARK SMILES IDX 78 13 38 14 83 15 77 16 79 17 39 18 82 19 76 20 75 21 40 23
REMARK SMILES IDX 66 24 49 25 65 26 50 27 53 28 64 29 80 30 51 31 52 32 63 34
REMARK SMILES IDX 81 35 54 36 41 37 42 38 47 39 43 40 44 41 46 42 48 43 45 44
REMARK SMILES IDX 67 45 68 46 73 47 69 48 70 49 72 50 74 51 71 52 55 53 56 54
REMARK SMILES IDX 61 55 57 56 58 57 60 58 62 59 59 60 5 61 6 62 7 63 8 64 9 65
REMARK SMILES IDX 20 66 21 67 31 68 22 70 30 71 23 72 24 73 25 74 29 75 26 76
REMARK SMILES IDX 28 77 27 78 10 79 11 80 19 81 12 82 13 83 18 84 14 86 17 87
REMARK SMILES IDX 15 88 16 89
REMARK H PARENT 79 22 53 33 20 69 12 85
REMARK Flexibility Score: inf
ROOT
ATOM      1  C   UNL A   1      33.154  30.148  26.967  1.00  0.00     0.275 C 
ENDROOT
BRANCH   1   2
ATOM      2  O   UNL A   1      34.240  29.657  27.778  1.00  0.00    -0.458 OA
BRANCH   2   3
ATOM      3  C   UNL A   1      35.286  30.289  28.360  1.00  0.00     0.338 C 
ATOM      4  O   UNL A   1      35.104  31.420  28.808  1.00  0.00    -0.246 OA
BRANCH   3   5
ATOM      5  C   UNL A   1      36.681  29.741  28.447  1.00  0.00     0.060 A 
ATOM      6  C   UNL A   1      37.280  29.197  29.582  1.00  0.00     0.016 A 
ATOM      7  C   UNL A   1      37.462  29.809  27.275  1.00  0.00     0.016 A 
ATOM      8  C   UNL A   1      38.570  28.655  29.527  1.00  0.00     0.010 A 
ATOM      9  C   UNL A   1      38.765  29.284  27.214  1.00  0.00     0.010 A 
ATOM     10  C   UNL A   1      39.324  28.688  28.342  1.00  0.00    -0.014 A 
BRANCH  10  11
ATOM     11  C   UNL A   1      40.773  28.378  28.449  1.00  0.00     0.031 A 
ATOM     12  C   UNL A   1      41.159  26.985  28.067  1.00  0.00     0.074 A 
ATOM     13  C   UNL A   1      41.716  29.303  28.713  1.00  0.00     0.049 A 
ATOM     14  N   UNL A   1      42.336  26.489  27.807  1.00  0.00    -0.248 NA
ATOM     15  C   UNL A   1      40.050  26.019  27.968  1.00  0.00     0.031 C 
ATOM     16  C   UNL A   1      41.469  30.658  29.179  1.00  0.00     0.029 A 
ATOM     17  N   UNL A   1      43.082  29.260  28.559  1.00  0.00    -0.354 N 
ATOM     18  C   UNL A   1      42.110  25.152  27.525  1.00  0.00     0.074 A 
ATOM     19  C   UNL A   1      40.690  24.914  27.630  1.00  0.00     0.031 C 
ATOM     20  C   UNL A   1      42.605  31.375  29.098  1.00  0.00     0.029 A 
ATOM     21  C   UNL A   1      43.693  30.492  28.695  1.00  0.00     0.049 A 
ATOM     22  H   UNL A   1      43.577  28.431  28.370  1.00  0.00     0.167 HD
ATOM     23  C   UNL A   1      43.017  24.192  27.240  1.00  0.00     0.037 A 
ATOM     24  C   UNL A   1      44.983  30.848  28.524  1.00  0.00     0.037 A 
ATOM     25  C   UNL A   1      44.432  24.418  27.232  1.00  0.00     0.049 A 
ATOM     26  C   UNL A   1      45.978  29.752  28.226  1.00  0.00     0.074 A 
ATOM     27  C   UNL A   1      45.452  23.504  27.058  1.00  0.00     0.029 A 
ATOM     28  N   UNL A   1      45.026  25.656  27.441  1.00  0.00    -0.354 N 
ATOM     29  N   UNL A   1      45.761  28.486  27.959  1.00  0.00    -0.248 NA
ATOM     30  C   UNL A   1      47.401  30.121  28.259  1.00  0.00     0.031 C 
ATOM     31  C   UNL A   1      46.666  24.181  27.216  1.00  0.00     0.029 A 
ATOM     32  C   UNL A   1      46.401  25.528  27.414  1.00  0.00     0.049 A 
ATOM     33  H   UNL A   1      44.538  26.500  27.586  1.00  0.00     0.167 HD
ATOM     34  C   UNL A   1      47.014  27.909  27.794  1.00  0.00     0.074 A 
ATOM     35  C   UNL A   1      47.985  28.972  27.949  1.00  0.00     0.031 C 
ATOM     36  C   UNL A   1      47.339  26.614  27.557  1.00  0.00     0.037 A 
BRANCH  23  37
ATOM     37  C   UNL A   1      42.470  22.812  27.052  1.00  0.00     0.057 A 
ATOM     38  C   UNL A   1      42.286  22.251  25.780  1.00  0.00     0.134 A 
ATOM     39  C   UNL A   1      42.015  22.083  28.157  1.00  0.00     0.134 A 
ATOM     40  F   UNL A   1      42.654  22.926  24.679  1.00  0.00    -0.206 F 
ATOM     41  C   UNL A   1      41.633  21.029  25.613  1.00  0.00     0.040 A 
ATOM     42  C   UNL A   1      41.386  20.847  28.004  1.00  0.00     0.040 A 
ATOM     43  F   UNL A   1      42.140  22.577  29.397  1.00  0.00    -0.206 F 
ATOM     44  C   UNL A   1      41.183  20.323  26.728  1.00  0.00     0.006 A 
ENDBRANCH  23  37
BRANCH  24  45
ATOM     45  C   UNL A   1      45.448  32.261  28.670  1.00  0.00     0.057 A 
ATOM     46  C   UNL A   1      45.806  32.784  29.923  1.00  0.00     0.134 A 
ATOM     47  C   UNL A   1      45.471  33.151  27.590  1.00  0.00     0.134 A 
ATOM     48  F   UNL A   1      45.777  32.004  31.015  1.00  0.00    -0.206 F 
ATOM     49  C   UNL A   1      46.142  34.132  30.097  1.00  0.00     0.040 A 
ATOM     50  C   UNL A   1      45.841  34.492  27.741  1.00  0.00     0.040 A 
ATOM     51  F   UNL A   1      45.124  32.737  26.363  1.00  0.00    -0.206 F 
ATOM     52  C   UNL A   1      46.165  34.989  29.000  1.00  0.00     0.006 A 
ENDBRANCH  24  45
BRANCH  36  53
ATOM     53  C   UNL A   1      48.794  26.288  27.401  1.00  0.00     0.057 A 
ATOM     54  C   UNL A   1      49.595  25.909  28.486  1.00  0.00     0.134 A 
ATOM     55  C   UNL A   1      49.384  26.301  26.131  1.00  0.00     0.134 A 
ATOM     56  F   UNL A   1      49.091  25.885  29.729  1.00  0.00    -0.206 F 
ATOM     57  C   UNL A   1      50.940  25.578  28.315  1.00  0.00     0.040 A 
ATOM     58  C   UNL A   1      50.718  25.941  25.943  1.00  0.00     0.040 A 
ATOM     59  F   UNL A   1      48.667  26.643  25.049  1.00  0.00    -0.206 F 
ATOM     60  C   UNL A   1      51.501  25.585  27.039  1.00  0.00     0.006 A 
ENDBRANCH  36  53
ENDBRANCH  10  11
ENDBRANCH   3   5
ENDBRANCH   2   3
ENDBRANCH   1   2
BRANCH   1  61
ATOM     61  C   UNL A   1      32.952  29.376  25.669  1.00  0.00     0.274 C 
BRANCH  61  62
ATOM     62  O   UNL A   1      32.961  27.960  25.896  1.00  0.00    -0.457 OA
BRANCH  62  63
ATOM     63  C   UNL A   1      31.746  27.332  25.947  1.00  0.00     0.370 C 
ATOM     64  O   UNL A   1      31.038  27.315  26.940  1.00  0.00    -0.245 OA
BRANCH  63  65
ATOM     65  C   UNL A   1      31.450  26.630  24.600  1.00  0.00     0.328 C 
BRANCH  65  66
ATOM     66  N   UNL A   1      31.615  25.150  24.616  1.00  0.00    -0.316 N 
ATOM     67  C   UNL A   1      32.353  24.585  23.475  1.00  0.00     0.284 C 
ATOM     68  C   UNL A   1      32.120  24.520  25.842  1.00  0.00     0.284 C 
ATOM     69  H   UNL A   1      30.626  24.906  24.551  1.00  0.00     0.349 HD
ATOM     70  C   UNL A   1      33.881  24.406  23.529  1.00  0.00     0.178 C 
ATOM     71  C   UNL A   1      33.652  24.522  26.033  1.00  0.00     0.178 C 
ATOM     72  N   UNL A   1      34.338  23.993  24.850  1.00  0.00    -0.360 N 
BRANCH  72  73
ATOM     73  C   UNL A   1      35.571  23.376  24.973  1.00  0.00     0.037 A 
ATOM     74  C   UNL A   1      35.847  22.123  24.404  1.00  0.00     0.026 A 
ATOM     75  C   UNL A   1      36.577  23.969  25.747  1.00  0.00     0.026 A 
ATOM     76  C   UNL A   1      37.074  21.484  24.610  1.00  0.00     0.002 A 
ATOM     77  C   UNL A   1      37.799  23.332  25.969  1.00  0.00     0.002 A 
ATOM     78  C   UNL A   1      38.046  22.087  25.401  1.00  0.00     0.000 A 
ENDBRANCH  72  73
ENDBRANCH  65  66
BRANCH  65  79
ATOM     79  C   UNL A   1      30.072  27.013  24.058  1.00  0.00     0.046 A 
ATOM     80  C   UNL A   1      28.885  26.329  24.270  1.00  0.00     0.094 A 
ATOM     81  C   UNL A   1      29.699  28.207  23.323  1.00  0.00     0.009 A 
ATOM     82  N   UNL A   1      27.859  27.000  23.675  1.00  0.00    -0.361 N 
ATOM     83  C   UNL A   1      28.316  28.167  23.121  1.00  0.00     0.049 A 
ATOM     84  C   UNL A   1      30.385  29.340  22.830  1.00  0.00     0.014 A 
ATOM     85  H   UNL A   1      26.924  26.692  23.647  1.00  0.00     0.166 HD
ATOM     86  C   UNL A   1      27.601  29.183  22.473  1.00  0.00     0.065 A 
ATOM     87  C   UNL A   1      29.686  30.383  22.204  1.00  0.00     0.040 A 
ATOM     88  C   UNL A   1      28.316  30.292  22.034  1.00  0.00     0.125 A 
ATOM     89  F   UNL A   1      27.660  31.294  21.432  1.00  0.00    -0.207 F 
ENDBRANCH  65  79
ENDBRANCH  63  65
ENDBRANCH  62  63
ENDBRANCH  61  62
ENDBRANCH   1  61
TORSDOF 14
ENDMDL
MODEL 2
REMARK VINA RESULT:     -12.4      5.497     10.088
REMARK SMILES O=C(OCCOC(=O)[C@H](c1c[nH]c2cc(F)ccc12)[NH+]1CCN(c2ccccc2)CC1)c1ccc(-c2c3nc(c(-c4c(F)cccc4F)c4ccc([nH]4)c(-c4c(F)cccc4F)c4nc(c(-c5c(F)cccc5F)c5ccc2[nH]5)C=C4)C=C3)cc1
REMARK SMILES IDX 4 1 3 2 2 3 1 4 32 5 33 6 85 7 34 8 84 9 35 10 36 11 37 12
REMARK SMILES IDX 78 13 38 14 83 15 77 16 79 17 39 18 82 19 76 20 75 21 40 23
REMARK SMILES IDX 66 24 49 25 65 26 50 27 53 28 64 29 80 30 51 31 52 32 63 34
REMARK SMILES IDX 81 35 54 36 41 37 42 38 47 39 43 40 44 41 46 42 48 43 45 44
REMARK SMILES IDX 67 45 68 46 73 47 69 48 70 49 72 50 74 51 71 52 55 53 56 54
REMARK SMILES IDX 61 55 57 56 58 57 60 58 62 59 59 60 5 61 6 62 7 63 8 64 9 65
REMARK SMILES IDX 20 66 21 67 31 68 22 70 30 71 23 72 24 73 25 74 29 75 26 76
REMARK SMILES IDX 28 77 27 78 10 79 11 80 19 81 12 82 13 83 18 84 14 86 17 87
REMARK SMILES IDX 15 88 16 89
REMARK H PARENT 79 22 53 33 20 69 12 85
REMARK Flexibility Score: inf
ROOT
ATOM      1  C   UNL A   1      37.646  23.619  25.436  1.00  0.00     0.275 C 
ENDROOT
BRANCH   1   2
ATOM      2  O   UNL A   1      38.643  23.299  26.427  1.00  0.00    -0.458 OA
BRANCH   2   3
ATOM      3  C   UNL A   1      39.793  23.919  26.780  1.00  0.00     0.338 C 
ATOM      4  O   UNL A   1      40.858  23.398  26.452  1.00  0.00    -0.246 OA
BRANCH   3   5
ATOM      5  C   UNL A   1      39.876  25.171  27.604  1.00  0.00     0.060 A 
ATOM      6  C   UNL A   1      40.728  26.250  27.374  1.00  0.00     0.016 A 
ATOM      7  C   UNL A   1      39.030  25.246  28.730  1.00  0.00     0.016 A 
ATOM      8  C   UNL A   1      40.672  27.398  28.175  1.00  0.00     0.010 A 
ATOM      9  C   UNL A   1      38.979  26.386  29.551  1.00  0.00     0.010 A 
ATOM     10  C   UNL A   1      39.793  27.480  29.268  1.00  0.00    -0.014 A 
BRANCH  10  11
ATOM     11  C   UNL A   1      40.013  28.586  30.234  1.00  0.00     0.031 A 
ATOM     12  C   UNL A   1      39.007  29.692  30.181  1.00  0.00     0.074 A 
ATOM     13  C   UNL A   1      40.944  28.554  31.208  1.00  0.00     0.049 A 
ATOM     14  N   UNL A   1      38.770  30.644  31.038  1.00  0.00    -0.248 NA
ATOM     15  C   UNL A   1      38.150  29.718  28.982  1.00  0.00     0.031 C 
ATOM     16  C   UNL A   1      42.024  27.587  31.316  1.00  0.00     0.029 A 
ATOM     17  N   UNL A   1      41.086  29.323  32.339  1.00  0.00    -0.354 N 
ATOM     18  C   UNL A   1      37.746  31.390  30.477  1.00  0.00     0.074 A 
ATOM     19  C   UNL A   1      37.395  30.776  29.218  1.00  0.00     0.031 C 
ATOM     20  C   UNL A   1      42.603  27.694  32.526  1.00  0.00     0.029 A 
ATOM     21  C   UNL A   1      42.016  28.827  33.231  1.00  0.00     0.049 A 
ATOM     22  H   UNL A   1      40.575  30.149  32.497  1.00  0.00     0.167 HD
ATOM     23  C   UNL A   1      37.171  32.515  30.954  1.00  0.00     0.037 A 
ATOM     24  C   UNL A   1      42.354  29.255  34.466  1.00  0.00     0.037 A 
ATOM     25  C   UNL A   1      37.593  33.169  32.157  1.00  0.00     0.049 A 
ATOM     26  C   UNL A   1      41.711  30.527  34.965  1.00  0.00     0.074 A 
ATOM     27  C   UNL A   1      37.157  34.367  32.687  1.00  0.00     0.029 A 
ATOM     28  N   UNL A   1      38.581  32.684  33.004  1.00  0.00    -0.354 N 
ATOM     29  N   UNL A   1      40.741  31.231  34.431  1.00  0.00    -0.248 NA
ATOM     30  C   UNL A   1      42.247  31.095  36.211  1.00  0.00     0.031 C 
ATOM     31  C   UNL A   1      37.921  34.634  33.829  1.00  0.00     0.029 A 
ATOM     32  C   UNL A   1      38.780  33.567  34.048  1.00  0.00     0.049 A 
ATOM     33  H   UNL A   1      39.067  31.837  32.879  1.00  0.00     0.167 HD
ATOM     34  C   UNL A   1      40.550  32.321  35.272  1.00  0.00     0.074 A 
ATOM     35  C   UNL A   1      41.478  32.163  36.373  1.00  0.00     0.031 C 
ATOM     36  C   UNL A   1      39.703  33.370  35.138  1.00  0.00     0.037 A 
BRANCH  23  37
ATOM     37  C   UNL A   1      36.130  33.138  30.078  1.00  0.00     0.057 A 
ATOM     38  C   UNL A   1      34.759  32.999  30.339  1.00  0.00     0.134 A 
ATOM     39  C   UNL A   1      36.506  33.788  28.897  1.00  0.00     0.134 A 
ATOM     40  F   UNL A   1      34.337  32.340  31.428  1.00  0.00    -0.206 F 
ATOM     41  C   UNL A   1      33.800  33.452  29.432  1.00  0.00     0.040 A 
ATOM     42  C   UNL A   1      35.555  34.269  27.998  1.00  0.00     0.040 A 
ATOM     43  F   UNL A   1      37.801  33.930  28.580  1.00  0.00    -0.206 F 
ATOM     44  C   UNL A   1      34.198  34.091  28.259  1.00  0.00     0.006 A 
ENDBRANCH  23  37
BRANCH  24  45
ATOM     45  C   UNL A   1      43.363  28.545  35.309  1.00  0.00     0.057 A 
ATOM     46  C   UNL A   1      44.740  28.753  35.129  1.00  0.00     0.134 A 
ATOM     47  C   UNL A   1      42.994  27.584  36.258  1.00  0.00     0.134 A 
ATOM     48  F   UNL A   1      45.176  29.634  34.215  1.00  0.00    -0.206 F 
ATOM     49  C   UNL A   1      45.701  28.021  35.835  1.00  0.00     0.040 A 
ATOM     50  C   UNL A   1      43.943  26.870  36.999  1.00  0.00     0.040 A 
ATOM     51  F   UNL A   1      41.700  27.310  36.478  1.00  0.00    -0.206 F 
ATOM     52  C   UNL A   1      45.301  27.079  36.779  1.00  0.00     0.006 A 
ENDBRANCH  24  45
BRANCH  36  53
ATOM     53  C   UNL A   1      39.705  34.398  36.230  1.00  0.00     0.057 A 
ATOM     54  C   UNL A   1      39.009  34.214  37.431  1.00  0.00     0.134 A 
ATOM     55  C   UNL A   1      40.465  35.566  36.091  1.00  0.00     0.134 A 
ATOM     56  F   UNL A   1      38.256  33.120  37.621  1.00  0.00    -0.206 F 
ATOM     57  C   UNL A   1      39.050  35.168  38.447  1.00  0.00     0.040 A 
ATOM     58  C   UNL A   1      40.540  36.512  37.113  1.00  0.00     0.040 A 
ATOM     59  F   UNL A   1      41.164  35.796  34.969  1.00  0.00    -0.206 F 
ATOM     60  C   UNL A   1      39.825  36.317  38.293  1.00  0.00     0.006 A 
ENDBRANCH  36  53
ENDBRANCH  10  11
ENDBRANCH   3   5
ENDBRANCH   2   3
ENDBRANCH   1   2
BRANCH   1  61
ATOM     61  C   UNL A   1      36.272  23.028  25.727  1.00  0.00     0.274 C 
BRANCH  61  62
ATOM     62  O   UNL A   1      35.225  23.855  25.201  1.00  0.00    -0.457 OA
BRANCH  62  63
ATOM     63  C   UNL A   1      34.580  23.403  24.082  1.00  0.00     0.370 C 
ATOM     64  O   UNL A   1      35.099  23.355  22.979  1.00  0.00    -0.245 OA
BRANCH  63  65
ATOM     65  C   UNL A   1      33.119  23.023  24.423  1.00  0.00     0.328 C 
BRANCH  65  66
ATOM     66  N   UNL A   1      32.140  24.140  24.314  1.00  0.00    -0.316 N 
ATOM     67  C   UNL A   1      31.508  24.551  25.578  1.00  0.00     0.284 C 
ATOM     68  C   UNL A   1      32.546  25.351  23.591  1.00  0.00     0.284 C 
ATOM     69  H   UNL A   1      31.460  23.662  23.721  1.00  0.00     0.349 HD
ATOM     70  C   UNL A   1      32.135  25.649  26.457  1.00  0.00     0.178 C 
ATOM     71  C   UNL A   1      33.373  26.381  24.391  1.00  0.00     0.178 C 
ATOM     72  N   UNL A   1      32.721  26.720  25.661  1.00  0.00    -0.360 N 
BRANCH  72  73
ATOM     73  C   UNL A   1      32.926  27.958  26.244  1.00  0.00     0.037 A 
ATOM     74  C   UNL A   1      31.913  28.925  26.336  1.00  0.00     0.026 A 
ATOM     75  C   UNL A   1      34.200  28.313  26.706  1.00  0.00     0.026 A 
ATOM     76  C   UNL A   1      32.165  30.197  26.857  1.00  0.00     0.002 A 
ATOM     77  C   UNL A   1      34.464  29.585  27.215  1.00  0.00     0.002 A 
ATOM     78  C   UNL A   1      33.445  30.529  27.289  1.00  0.00     0.000 A 
ENDBRANCH  72  73
ENDBRANCH  65  66
BRANCH  65  79
ATOM     79  C   UNL A   1      32.651  21.813  23.614  1.00  0.00     0.046 A 
ATOM     80  C   UNL A   1      31.945  21.844  22.420  1.00  0.00     0.094 A 
ATOM     81  C   UNL A   1      32.936  20.411  23.852  1.00  0.00     0.009 A 
ATOM     82  N   UNL A   1      31.753  20.572  21.970  1.00  0.00    -0.361 N 
ATOM     83  C   UNL A   1      32.376  19.678  22.801  1.00  0.00     0.049 A 
ATOM     84  C   UNL A   1      33.640  19.681  24.836  1.00  0.00     0.014 A 
ATOM     85  H   UNL A   1      31.240  20.330  21.165  1.00  0.00     0.166 HD
ATOM     86  C   UNL A   1      32.489  18.286  22.684  1.00  0.00     0.065 A 
ATOM     87  C   UNL A   1      33.791  18.291  24.724  1.00  0.00     0.040 A 
ATOM     88  C   UNL A   1      33.218  17.617  23.660  1.00  0.00     0.125 A 
ATOM     89  F   UNL A   1      33.367  16.288  23.566  1.00  0.00    -0.207 F 
ENDBRANCH  65  79
ENDBRANCH  63  65
ENDBRANCH  62  63
ENDBRANCH  61  62
ENDBRANCH   1  61
TORSDOF 14
ENDMDL
MODEL 3
REMARK VINA RESULT:     -12.4      0.472      1.622
REMARK SMILES O=C(OCCOC(=O)[C@H](c1c[nH]c2cc(F)ccc12)[NH+]1CCN(c2ccccc2)CC1)c1ccc(-c2c3nc(c(-c4c(F)cccc4F)c4ccc([nH]4)c(-c4c(F)cccc4F)c4nc(c(-c5c(F)cccc5F)c5ccc2[nH]5)C=C4)C=C3)cc1
REMARK SMILES IDX 4 1 3 2 2 3 1 4 32 5 33 6 85 7 34 8 84 9 35 10 36 11 37 12
REMARK SMILES IDX 78 13 38 14 83 15 77 16 79 17 39 18 82 19 76 20 75 21 40 23
REMARK SMILES IDX 66 24 49 25 65 26 50 27 53 28 64 29 80 30 51 31 52 32 63 34
REMARK SMILES IDX 81 35 54 36 41 37 42 38 47 39 43 40 44 41 46 42 48 43 45 44
REMARK SMILES IDX 67 45 68 46 73 47 69 48 70 49 72 50 74 51 71 52 55 53 56 54
REMARK SMILES IDX 61 55 57 56 58 57 60 58 62 59 59 60 5 61 6 62 7 63 8 64 9 65
REMARK SMILES IDX 20 66 21 67 31 68 22 70 30 71 23 72 24 73 25 74 29 75 26 76
REMARK SMILES IDX 28 77 27 78 10 79 11 80 19 81 12 82 13 83 18 84 14 86 17 87
REMARK SMILES IDX 15 88 16 89
REMARK H PARENT 79 22 53 33 20 69 12 85
REMARK Flexibility Score: inf
ROOT
ATOM      1  C   UNL A   1      33.626  29.730  27.178  1.00  0.00     0.275 C 
ENDROOT
BRANCH   1   2
ATOM      2  O   UNL A   1      34.743  30.579  27.508  1.00  0.00    -0.458 OA
BRANCH   2   3
ATOM      3  C   UNL A   1      35.567  30.606  28.582  1.00  0.00     0.338 C 
ATOM      4  O   UNL A   1      35.190  31.204  29.588  1.00  0.00    -0.246 OA
BRANCH   3   5
ATOM      5  C   UNL A   1      36.947  30.015  28.622  1.00  0.00     0.060 A 
ATOM      6  C   UNL A   1      37.622  29.584  29.763  1.00  0.00     0.016 A 
ATOM      7  C   UNL A   1      37.628  29.911  27.392  1.00  0.00     0.016 A 
ATOM      8  C   UNL A   1      38.886  28.987  29.670  1.00  0.00     0.010 A 
ATOM      9  C   UNL A   1      38.904  29.329  27.290  1.00  0.00     0.010 A 
ATOM     10  C   UNL A   1      39.537  28.847  28.433  1.00  0.00    -0.014 A 
BRANCH  10  11
ATOM     11  C   UNL A   1      40.979  28.493  28.461  1.00  0.00     0.031 A 
ATOM     12  C   UNL A   1      41.299  27.084  28.073  1.00  0.00     0.074 A 
ATOM     13  C   UNL A   1      41.965  29.389  28.660  1.00  0.00     0.049 A 
ATOM     14  N   UNL A   1      42.442  26.549  27.751  1.00  0.00    -0.248 NA
ATOM     15  C   UNL A   1      40.156  26.153  28.048  1.00  0.00     0.031 C 
ATOM     16  C   UNL A   1      41.788  30.756  29.124  1.00  0.00     0.029 A 
ATOM     17  N   UNL A   1      43.318  29.302  28.428  1.00  0.00    -0.354 N 
ATOM     18  C   UNL A   1      42.159  25.217  27.497  1.00  0.00     0.074 A 
ATOM     19  C   UNL A   1      40.740  25.026  27.686  1.00  0.00     0.031 C 
ATOM     20  C   UNL A   1      42.939  31.435  28.970  1.00  0.00     0.029 A 
ATOM     21  C   UNL A   1      43.973  30.514  28.516  1.00  0.00     0.049 A 
ATOM     22  H   UNL A   1      43.775  28.455  28.220  1.00  0.00     0.167 HD
ATOM     23  C   UNL A   1      43.017  24.226  27.171  1.00  0.00     0.037 A 
ATOM     24  C   UNL A   1      45.262  30.827  28.267  1.00  0.00     0.037 A 
ATOM     25  C   UNL A   1      44.435  24.407  27.080  1.00  0.00     0.049 A 
ATOM     26  C   UNL A   1      46.204  29.697  27.925  1.00  0.00     0.074 A 
ATOM     27  C   UNL A   1      45.415  23.459  26.857  1.00  0.00     0.029 A 
ATOM     28  N   UNL A   1      45.079  25.627  27.240  1.00  0.00    -0.354 N 
ATOM     29  N   UNL A   1      45.932  28.436  27.685  1.00  0.00    -0.248 NA
ATOM     30  C   UNL A   1      47.637  30.021  27.871  1.00  0.00     0.031 C 
ATOM     31  C   UNL A   1      46.657  24.098  26.937  1.00  0.00     0.029 A 
ATOM     32  C   UNL A   1      46.446  25.455  27.136  1.00  0.00     0.049 A 
ATOM     33  H   UNL A   1      44.628  26.487  27.403  1.00  0.00     0.167 HD
ATOM     34  C   UNL A   1      47.154  27.818  27.454  1.00  0.00     0.074 A 
ATOM     35  C   UNL A   1      48.166  28.851  27.541  1.00  0.00     0.031 C 
ATOM     36  C   UNL A   1      47.424  26.511  27.213  1.00  0.00     0.037 A 
BRANCH  23  37
ATOM     37  C   UNL A   1      42.417  22.862  27.029  1.00  0.00     0.057 A 
ATOM     38  C   UNL A   1      42.058  22.089  28.142  1.00  0.00     0.134 A 
ATOM     39  C   UNL A   1      42.305  22.275  25.764  1.00  0.00     0.134 A 
ATOM     40  F   UNL A   1      42.194  22.579  29.384  1.00  0.00    -0.206 F 
ATOM     41  C   UNL A   1      41.646  20.763  28.001  1.00  0.00     0.040 A 
ATOM     42  C   UNL A   1      41.866  20.960  25.609  1.00  0.00     0.040 A 
ATOM     43  F   UNL A   1      42.655  22.956  24.663  1.00  0.00    -0.206 F 
ATOM     44  C   UNL A   1      41.547  20.197  26.730  1.00  0.00     0.006 A 
ENDBRANCH  23  37
BRANCH  24  45
ATOM     45  C   UNL A   1      45.779  32.226  28.371  1.00  0.00     0.057 A 
ATOM     46  C   UNL A   1      45.852  33.061  27.244  1.00  0.00     0.134 A 
ATOM     47  C   UNL A   1      46.287  32.744  29.568  1.00  0.00     0.134 A 
ATOM     48  F   UNL A   1      45.416  32.626  26.052  1.00  0.00    -0.206 F 
ATOM     49  C   UNL A   1      46.428  34.335  27.300  1.00  0.00     0.040 A 
ATOM     50  C   UNL A   1      46.833  34.030  29.648  1.00  0.00     0.040 A 
ATOM     51  F   UNL A   1      46.274  32.004  30.687  1.00  0.00    -0.206 F 
ATOM     52  C   UNL A   1      46.916  34.824  28.508  1.00  0.00     0.006 A 
ENDBRANCH  24  45
BRANCH  36  53
ATOM     53  C   UNL A   1      48.857  26.137  26.978  1.00  0.00     0.057 A 
ATOM     54  C   UNL A   1      49.439  26.170  25.705  1.00  0.00     0.134 A 
ATOM     55  C   UNL A   1      49.679  25.794  28.059  1.00  0.00     0.134 A 
ATOM     56  F   UNL A   1      48.704  26.483  24.627  1.00  0.00    -0.206 F 
ATOM     57  C   UNL A   1      50.783  25.850  25.512  1.00  0.00     0.040 A 
ATOM     58  C   UNL A   1      51.031  25.503  27.884  1.00  0.00     0.040 A 
ATOM     59  F   UNL A   1      49.184  25.756  29.306  1.00  0.00    -0.206 F 
ATOM     60  C   UNL A   1      51.584  25.525  26.605  1.00  0.00     0.006 A 
ENDBRANCH  36  53
ENDBRANCH  10  11
ENDBRANCH   3   5
ENDBRANCH   2   3
ENDBRANCH   1   2
BRANCH   1  61
ATOM     61  C   UNL A   1      34.017  28.302  26.820  1.00  0.00     0.274 C 
BRANCH  61  62
ATOM     62  O   UNL A   1      33.305  27.840  25.665  1.00  0.00    -0.457 OA
BRANCH  62  63
ATOM     63  C   UNL A   1      32.101  27.225  25.882  1.00  0.00     0.370 C 
ATOM     64  O   UNL A   1      31.473  27.324  26.924  1.00  0.00    -0.245 OA
BRANCH  63  65
ATOM     65  C   UNL A   1      31.704  26.374  24.652  1.00  0.00     0.328 C 
BRANCH  65  66
ATOM     66  N   UNL A   1      31.871  24.904  24.828  1.00  0.00    -0.316 N 
ATOM     67  C   UNL A   1      32.523  24.206  23.708  1.00  0.00     0.284 C 
ATOM     68  C   UNL A   1      32.467  24.418  26.078  1.00  0.00     0.284 C 
ATOM     69  H   UNL A   1      30.881  24.662  24.865  1.00  0.00     0.349 HD
ATOM     70  C   UNL A   1      34.052  24.023  23.670  1.00  0.00     0.178 C 
ATOM     71  C   UNL A   1      34.009  24.430  26.153  1.00  0.00     0.178 C 
ATOM     72  N   UNL A   1      34.606  23.762  24.991  1.00  0.00    -0.360 N 
BRANCH  72  73
ATOM     73  C   UNL A   1      35.845  23.154  25.094  1.00  0.00     0.037 A 
ATOM     74  C   UNL A   1      36.148  21.947  24.445  1.00  0.00     0.026 A 
ATOM     75  C   UNL A   1      36.829  23.705  25.925  1.00  0.00     0.026 A 
ATOM     76  C   UNL A   1      37.380  21.312  24.628  1.00  0.00     0.002 A 
ATOM     77  C   UNL A   1      38.056  23.071  26.123  1.00  0.00     0.002 A 
ATOM     78  C   UNL A   1      38.331  21.871  25.476  1.00  0.00     0.000 A 
ENDBRANCH  72  73
ENDBRANCH  65  66
BRANCH  65  79
ATOM     79  C   UNL A   1      30.289  26.703  24.175  1.00  0.00     0.046 A 
ATOM     80  C   UNL A   1      29.146  25.954  24.411  1.00  0.00     0.094 A 
ATOM     81  C   UNL A   1      29.829  27.897  23.491  1.00  0.00     0.009 A 
ATOM     82  N   UNL A   1      28.065  26.590  23.876  1.00  0.00    -0.361 N 
ATOM     83  C   UNL A   1      28.442  27.793  23.340  1.00  0.00     0.049 A 
ATOM     84  C   UNL A   1      30.439  29.076  23.006  1.00  0.00     0.014 A 
ATOM     85  H   UNL A   1      27.147  26.236  23.875  1.00  0.00     0.166 HD
ATOM     86  C   UNL A   1      27.653  28.790  22.751  1.00  0.00     0.065 A 
ATOM     87  C   UNL A   1      29.665  30.099  22.439  1.00  0.00     0.040 A 
ATOM     88  C   UNL A   1      28.295  29.945  22.318  1.00  0.00     0.125 A 
ATOM     89  F   UNL A   1      27.567  30.929  21.772  1.00  0.00    -0.207 F 
ENDBRANCH  65  79
ENDBRANCH  63  65
ENDBRANCH  62  63
ENDBRANCH  61  62
ENDBRANCH   1  61
TORSDOF 14
ENDMDL
