MODEL 1
REMARK VINA RESULT:     -13.3      0.000      0.000
REMARK SMILES O=C(OCCOC(=O)c1ccc(-n2cc(CSc3nc4ccccc4c(=O)n3-c3ccc(Cl)cc3)nn2)cc1)c1ccc(-c2c3nc(c(-c4c(F)cccc4F)c4ccc([nH]4)c(-c4c(F)cccc4F)c4nc(c(-c5c(F)cccc5F)c5ccc2[nH]5)C=C4)C=C3)cc1
REMARK SMILES IDX 6 1 5 2 4 3 3 4 2 5 1 6 40 7 41 8 93 9 42 10 92 11 43 12
REMARK SMILES IDX 44 13 45 14 86 15 46 16 91 17 85 18 87 19 47 20 90 21 84 22
REMARK SMILES IDX 83 23 48 25 74 26 57 27 73 28 58 29 61 30 72 31 88 32 59 33
REMARK SMILES IDX 60 34 71 36 89 37 62 38 49 39 50 40 55 41 51 42 52 43 54 44
REMARK SMILES IDX 56 45 53 46 75 47 76 48 81 49 77 50 78 51 80 52 82 53 79 54
REMARK SMILES IDX 63 55 64 56 69 57 65 58 66 59 68 60 70 61 67 62 7 63 8 64
REMARK SMILES IDX 9 65 10 66 39 67 11 68 38 69 12 70 13 71 14 72 37 73 15 74
REMARK SMILES IDX 36 75 16 76 17 77 18 78 19 79 28 80 20 81 26 82 21 83 25 84
REMARK SMILES IDX 27 85 22 86 24 87 23 88 29 89 30 90 35 91 31 92 34 93 32 94
REMARK SMILES IDX 33 95
REMARK H PARENT 87 24 61 35
REMARK Flexibility Score: inf
ROOT
ATOM      1  O   UNL A   1      44.130  18.807  25.196  1.00  0.00    -0.458 OA
ENDROOT
BRANCH   1   2
ATOM      2  C   UNL A   1      45.518  18.724  25.569  1.00  0.00     0.275 C 
BRANCH   2   3
ATOM      3  C   UNL A   1      46.341  19.682  24.709  1.00  0.00     0.275 C 
BRANCH   3   4
ATOM      4  O   UNL A   1      46.222  21.094  24.986  1.00  0.00    -0.458 OA
BRANCH   4   5
ATOM      5  C   UNL A   1      45.246  21.793  24.369  1.00  0.00     0.338 C 
ATOM      6  O   UNL A   1      44.679  21.444  23.347  1.00  0.00    -0.246 OA
BRANCH   5   7
ATOM      7  C   UNL A   1      44.842  22.975  25.165  1.00  0.00     0.060 A 
ATOM      8  C   UNL A   1      43.886  23.885  24.700  1.00  0.00     0.016 A 
ATOM      9  C   UNL A   1      45.418  23.146  26.430  1.00  0.00     0.016 A 
ATOM     10  C   UNL A   1      43.548  24.986  25.468  1.00  0.00     0.010 A 
ATOM     11  C   UNL A   1      45.056  24.233  27.214  1.00  0.00     0.010 A 
ATOM     12  C   UNL A   1      44.158  25.177  26.710  1.00  0.00    -0.014 A 
BRANCH  12  13
ATOM     13  C   UNL A   1      43.817  26.386  27.451  1.00  0.00     0.031 A 
ATOM     14  C   UNL A   1      44.757  27.537  27.329  1.00  0.00     0.074 A 
ATOM     15  C   UNL A   1      42.657  26.511  28.123  1.00  0.00     0.049 A 
ATOM     16  N   UNL A   1      45.411  28.149  28.264  1.00  0.00    -0.248 NA
ATOM     17  C   UNL A   1      45.043  28.034  25.977  1.00  0.00     0.031 C 
ATOM     18  C   UNL A   1      41.506  25.603  28.105  1.00  0.00     0.029 A 
ATOM     19  N   UNL A   1      42.217  27.554  28.883  1.00  0.00    -0.354 N 
ATOM     20  C   UNL A   1      46.049  29.228  27.648  1.00  0.00     0.074 A 
ATOM     21  C   UNL A   1      45.895  29.028  26.231  1.00  0.00     0.031 C 
ATOM     22  C   UNL A   1      40.432  26.239  28.620  1.00  0.00     0.029 A 
ATOM     23  C   UNL A   1      40.853  27.533  29.127  1.00  0.00     0.049 A 
ATOM     24  H   UNL A   1      42.813  28.256  29.227  1.00  0.00     0.167 HD
ATOM     25  C   UNL A   1      46.461  30.318  28.356  1.00  0.00     0.037 A 
ATOM     26  C   UNL A   1      40.106  28.536  29.646  1.00  0.00     0.037 A 
ATOM     27  C   UNL A   1      46.606  30.015  29.758  1.00  0.00     0.049 A 
ATOM     28  C   UNL A   1      41.016  29.469  30.349  1.00  0.00     0.074 A 
ATOM     29  C   UNL A   1      47.339  29.105  30.497  1.00  0.00     0.029 A 
ATOM     30  N   UNL A   1      45.684  30.528  30.634  1.00  0.00    -0.354 N 
ATOM     31  N   UNL A   1      41.639  29.190  31.461  1.00  0.00    -0.248 NA
ATOM     32  C   UNL A   1      41.552  30.595  29.600  1.00  0.00     0.031 C 
ATOM     33  C   UNL A   1      46.499  28.762  31.599  1.00  0.00     0.029 A 
ATOM     34  C   UNL A   1      45.330  29.511  31.477  1.00  0.00     0.049 A 
ATOM     35  H   UNL A   1      45.343  31.452  30.653  1.00  0.00     0.167 HD
ATOM     36  C   UNL A   1      42.874  29.808  31.337  1.00  0.00     0.074 A 
ATOM     37  C   UNL A   1      42.717  30.751  30.232  1.00  0.00     0.031 C 
ATOM     38  C   UNL A   1      43.983  29.300  31.949  1.00  0.00     0.037 A 
BRANCH  25  39
ATOM     39  C   UNL A   1      46.355  31.750  27.861  1.00  0.00     0.057 A 
ATOM     40  C   UNL A   1      45.138  32.192  27.302  1.00  0.00     0.134 A 
ATOM     41  C   UNL A   1      47.458  32.588  27.605  1.00  0.00     0.134 A 
ATOM     42  F   UNL A   1      44.002  31.500  27.483  1.00  0.00    -0.206 F 
ATOM     43  C   UNL A   1      45.057  33.299  26.448  1.00  0.00     0.040 A 
ATOM     44  C   UNL A   1      47.376  33.726  26.797  1.00  0.00     0.040 A 
ATOM     45  F   UNL A   1      48.692  32.309  28.037  1.00  0.00    -0.206 F 
ATOM     46  C   UNL A   1      46.185  34.061  26.176  1.00  0.00     0.006 A 
ENDBRANCH  25  39
BRANCH  26  47
ATOM     47  C   UNL A   1      38.698  28.869  29.346  1.00  0.00     0.057 A 
ATOM     48  C   UNL A   1      37.732  28.925  30.359  1.00  0.00     0.134 A 
ATOM     49  C   UNL A   1      38.313  29.387  28.095  1.00  0.00     0.134 A 
ATOM     50  F   UNL A   1      38.019  28.498  31.598  1.00  0.00    -0.206 F 
ATOM     51  C   UNL A   1      36.462  29.475  30.146  1.00  0.00     0.040 A 
ATOM     52  C   UNL A   1      37.046  29.929  27.865  1.00  0.00     0.040 A 
ATOM     53  F   UNL A   1      39.182  29.462  27.078  1.00  0.00    -0.206 F 
ATOM     54  C   UNL A   1      36.118  29.987  28.898  1.00  0.00     0.006 A 
ENDBRANCH  26  47
BRANCH  38  55
ATOM     55  C   UNL A   1      43.792  28.235  32.987  1.00  0.00     0.057 A 
ATOM     56  C   UNL A   1      43.737  26.864  32.697  1.00  0.00     0.134 A 
ATOM     57  C   UNL A   1      43.821  28.597  34.338  1.00  0.00     0.134 A 
ATOM     58  F   UNL A   1      43.814  26.418  31.437  1.00  0.00    -0.206 F 
ATOM     59  C   UNL A   1      43.663  25.900  33.707  1.00  0.00     0.040 A 
ATOM     60  C   UNL A   1      43.781  27.642  35.357  1.00  0.00     0.040 A 
ATOM     61  F   UNL A   1      43.935  29.887  34.693  1.00  0.00    -0.206 F 
ATOM     62  C   UNL A   1      43.692  26.288  35.042  1.00  0.00     0.006 A 
ENDBRANCH  38  55
ENDBRANCH  12  13
ENDBRANCH   5   7
ENDBRANCH   4   5
ENDBRANCH   3   4
ENDBRANCH   2   3
ENDBRANCH   1   2
BRANCH   1  63
ATOM     63  C   UNL A   1      43.261  18.383  26.151  1.00  0.00     0.338 C 
ATOM     64  O   UNL A   1      43.326  17.393  26.839  1.00  0.00    -0.246 OA
BRANCH  63  65
ATOM     65  C   UNL A   1      42.184  19.381  26.249  1.00  0.00     0.060 A 
ATOM     66  C   UNL A   1      40.872  18.992  25.967  1.00  0.00     0.018 A 
ATOM     67  C   UNL A   1      42.490  20.709  26.551  1.00  0.00     0.018 A 
ATOM     68  C   UNL A   1      39.838  19.922  26.042  1.00  0.00     0.029 A 
ATOM     69  C   UNL A   1      41.471  21.663  26.535  1.00  0.00     0.029 A 
ATOM     70  C   UNL A   1      40.148  21.262  26.283  1.00  0.00     0.066 A 
BRANCH  70  71
ATOM     71  N   UNL A   1      39.132  22.218  26.098  1.00  0.00    -0.220 N 
ATOM     72  C   UNL A   1      37.881  21.974  25.600  1.00  0.00     0.141 A 
ATOM     73  N   UNL A   1      39.200  23.487  26.556  1.00  0.00    -0.062 NA
ATOM     74  C   UNL A   1      37.159  23.118  25.866  1.00  0.00     0.093 A 
ATOM     75  N   UNL A   1      38.015  24.060  26.370  1.00  0.00    -0.134 NA
BRANCH  74  76
ATOM     76  C   UNL A   1      35.755  23.424  25.521  1.00  0.00     0.138 C 
BRANCH  76  77
ATOM     77  S   UNL A   1      35.239  23.848  23.856  1.00  0.00    -0.081 SA
BRANCH  77  78
ATOM     78  C   UNL A   1      33.550  24.273  23.751  1.00  0.00     0.176 A 
ATOM     79  N   UNL A   1      33.378  25.499  23.344  1.00  0.00    -0.223 NA
ATOM     80  N   UNL A   1      32.475  23.445  24.037  1.00  0.00    -0.255 N 
ATOM     81  C   UNL A   1      32.075  26.010  23.289  1.00  0.00     0.079 A 
ATOM     82  C   UNL A   1      31.388  24.110  24.618  1.00  0.00     0.266 A 
ATOM     83  C   UNL A   1      31.778  27.161  22.560  1.00  0.00     0.029 A 
ATOM     84  C   UNL A   1      31.067  25.421  24.038  1.00  0.00     0.066 A 
ATOM     85  O   UNL A   1      30.705  23.702  25.556  1.00  0.00    -0.268 OA
ATOM     86  C   UNL A   1      30.499  27.729  22.627  1.00  0.00     0.002 A 
ATOM     87  C   UNL A   1      29.801  25.998  24.155  1.00  0.00     0.016 A 
ATOM     88  C   UNL A   1      29.521  27.165  23.447  1.00  0.00     0.001 A 
BRANCH  80  89
ATOM     89  C   UNL A   1      32.371  22.016  23.817  1.00  0.00     0.051 A 
ATOM     90  C   UNL A   1      32.591  21.117  24.883  1.00  0.00     0.028 A 
ATOM     91  C   UNL A   1      32.013  21.427  22.596  1.00  0.00     0.028 A 
ATOM     92  C   UNL A   1      32.679  19.733  24.694  1.00  0.00     0.022 A 
ATOM     93  C   UNL A   1      32.148  20.046  22.381  1.00  0.00     0.022 A 
ATOM     94  C   UNL A   1      32.521  19.209  23.424  1.00  0.00     0.041 A 
ATOM     95  Cl  UNL A   1      32.800  17.540  23.140  1.00  0.00    -0.084 Cl
ENDBRANCH  80  89
ENDBRANCH  77  78
ENDBRANCH  76  77
ENDBRANCH  74  76
ENDBRANCH  70  71
ENDBRANCH  63  65
ENDBRANCH   1  63
TORSDOF 16
ENDMDL
MODEL 2
REMARK VINA RESULT:     -12.8      4.637     10.294
REMARK SMILES O=C(OCCOC(=O)c1ccc(-n2cc(CSc3nc4ccccc4c(=O)n3-c3ccc(Cl)cc3)nn2)cc1)c1ccc(-c2c3nc(c(-c4c(F)cccc4F)c4ccc([nH]4)c(-c4c(F)cccc4F)c4nc(c(-c5c(F)cccc5F)c5ccc2[nH]5)C=C4)C=C3)cc1
REMARK SMILES IDX 6 1 5 2 4 3 3 4 2 5 1 6 40 7 41 8 93 9 42 10 92 11 43 12
REMARK SMILES IDX 44 13 45 14 86 15 46 16 91 17 85 18 87 19 47 20 90 21 84 22
REMARK SMILES IDX 83 23 48 25 74 26 57 27 73 28 58 29 61 30 72 31 88 32 59 33
REMARK SMILES IDX 60 34 71 36 89 37 62 38 49 39 50 40 55 41 51 42 52 43 54 44
REMARK SMILES IDX 56 45 53 46 75 47 76 48 81 49 77 50 78 51 80 52 82 53 79 54
REMARK SMILES IDX 63 55 64 56 69 57 65 58 66 59 68 60 70 61 67 62 7 63 8 64
REMARK SMILES IDX 9 65 10 66 39 67 11 68 38 69 12 70 13 71 14 72 37 73 15 74
REMARK SMILES IDX 36 75 16 76 17 77 18 78 19 79 28 80 20 81 26 82 21 83 25 84
REMARK SMILES IDX 27 85 22 86 24 87 23 88 29 89 30 90 35 91 31 92 34 93 32 94
REMARK SMILES IDX 33 95
REMARK H PARENT 87 24 61 35
REMARK Flexibility Score: inf
ROOT
ATOM      1  O   UNL A   1      32.420  36.599  29.437  1.00  0.00    -0.458 OA
ENDROOT
BRANCH   1   2
ATOM      2  C   UNL A   1      32.465  36.061  30.770  1.00  0.00     0.275 C 
BRANCH   2   3
ATOM      3  C   UNL A   1      33.426  36.885  31.627  1.00  0.00     0.275 C 
BRANCH   3   4
ATOM      4  O   UNL A   1      34.280  36.169  32.544  1.00  0.00    -0.458 OA
BRANCH   4   5
ATOM      5  C   UNL A   1      34.027  34.863  32.777  1.00  0.00     0.338 C 
ATOM      6  O   UNL A   1      32.918  34.394  32.971  1.00  0.00    -0.246 OA
BRANCH   5   7
ATOM      7  C   UNL A   1      35.248  34.040  32.627  1.00  0.00     0.060 A 
ATOM      8  C   UNL A   1      36.518  34.618  32.515  1.00  0.00     0.016 A 
ATOM      9  C   UNL A   1      35.109  32.646  32.635  1.00  0.00     0.016 A 
ATOM     10  C   UNL A   1      37.634  33.813  32.360  1.00  0.00     0.010 A 
ATOM     11  C   UNL A   1      36.231  31.838  32.510  1.00  0.00     0.010 A 
ATOM     12  C   UNL A   1      37.485  32.425  32.325  1.00  0.00    -0.014 A 
BRANCH  12  13
ATOM     13  C   UNL A   1      38.682  31.624  32.093  1.00  0.00     0.031 A 
ATOM     14  C   UNL A   1      39.499  31.274  33.290  1.00  0.00     0.074 A 
ATOM     15  C   UNL A   1      38.983  31.119  30.881  1.00  0.00     0.049 A 
ATOM     16  N   UNL A   1      40.742  31.550  33.529  1.00  0.00    -0.248 NA
ATOM     17  C   UNL A   1      38.823  30.571  34.387  1.00  0.00     0.031 C 
ATOM     18  C   UNL A   1      38.148  31.119  29.677  1.00  0.00     0.029 A 
ATOM     19  N   UNL A   1      40.071  30.390  30.505  1.00  0.00    -0.354 N 
ATOM     20  C   UNL A   1      41.062  30.897  34.721  1.00  0.00     0.074 A 
ATOM     21  C   UNL A   1      39.815  30.426  35.266  1.00  0.00     0.031 C 
ATOM     22  C   UNL A   1      38.650  30.232  28.790  1.00  0.00     0.029 A 
ATOM     23  C   UNL A   1      39.907  29.717  29.306  1.00  0.00     0.049 A 
ATOM     24  H   UNL A   1      40.898  30.347  31.036  1.00  0.00     0.167 HD
ATOM     25  C   UNL A   1      42.350  30.601  35.054  1.00  0.00     0.037 A 
ATOM     26  C   UNL A   1      40.710  28.750  28.800  1.00  0.00     0.037 A 
ATOM     27  C   UNL A   1      43.286  31.429  34.336  1.00  0.00     0.049 A 
ATOM     28  C   UNL A   1      42.027  28.853  29.470  1.00  0.00     0.074 A 
ATOM     29  C   UNL A   1      43.502  32.788  34.210  1.00  0.00     0.029 A 
ATOM     30  N   UNL A   1      44.033  30.853  33.338  1.00  0.00    -0.354 N 
ATOM     31  N   UNL A   1      42.873  29.827  29.284  1.00  0.00    -0.248 NA
ATOM     32  C   UNL A   1      42.247  28.056  30.667  1.00  0.00     0.031 C 
ATOM     33  C   UNL A   1      43.939  32.970  32.864  1.00  0.00     0.029 A 
ATOM     34  C   UNL A   1      43.994  31.709  32.272  1.00  0.00     0.049 A 
ATOM     35  H   UNL A   1      44.506  29.991  33.382  1.00  0.00     0.167 HD
ATOM     36  C   UNL A   1      43.449  30.035  30.528  1.00  0.00     0.074 A 
ATOM     37  C   UNL A   1      43.115  28.845  31.305  1.00  0.00     0.031 C 
ATOM     38  C   UNL A   1      43.898  31.270  30.902  1.00  0.00     0.037 A 
BRANCH  25  39
ATOM     39  C   UNL A   1      42.786  29.309  35.724  1.00  0.00     0.057 A 
ATOM     40  C   UNL A   1      43.718  29.366  36.782  1.00  0.00     0.134 A 
ATOM     41  C   UNL A   1      42.599  28.025  35.174  1.00  0.00     0.134 A 
ATOM     42  F   UNL A   1      43.979  30.524  37.410  1.00  0.00    -0.206 F 
ATOM     43  C   UNL A   1      44.495  28.267  37.164  1.00  0.00     0.040 A 
ATOM     44  C   UNL A   1      43.333  26.908  35.586  1.00  0.00     0.040 A 
ATOM     45  F   UNL A   1      41.774  27.792  34.149  1.00  0.00    -0.206 F 
ATOM     46  C   UNL A   1      44.317  27.034  36.551  1.00  0.00     0.006 A 
ENDBRANCH  25  39
BRANCH  26  47
ATOM     47  C   UNL A   1      40.324  27.591  27.970  1.00  0.00     0.057 A 
ATOM     48  C   UNL A   1      40.888  27.381  26.705  1.00  0.00     0.134 A 
ATOM     49  C   UNL A   1      39.579  26.520  28.500  1.00  0.00     0.134 A 
ATOM     50  F   UNL A   1      41.653  28.325  26.136  1.00  0.00    -0.206 F 
ATOM     51  C   UNL A   1      40.733  26.174  26.012  1.00  0.00     0.040 A 
ATOM     52  C   UNL A   1      39.407  25.315  27.815  1.00  0.00     0.040 A 
ATOM     53  F   UNL A   1      39.066  26.577  29.737  1.00  0.00    -0.206 F 
ATOM     54  C   UNL A   1      39.996  25.133  26.571  1.00  0.00     0.006 A 
ENDBRANCH  26  47
BRANCH  38  55
ATOM     55  C   UNL A   1      44.022  32.326  29.844  1.00  0.00     0.057 A 
ATOM     56  C   UNL A   1      42.986  33.203  29.492  1.00  0.00     0.134 A 
ATOM     57  C   UNL A   1      45.277  32.566  29.274  1.00  0.00     0.134 A 
ATOM     58  F   UNL A   1      41.779  33.118  30.068  1.00  0.00    -0.206 F 
ATOM     59  C   UNL A   1      43.179  34.240  28.576  1.00  0.00     0.040 A 
ATOM     60  C   UNL A   1      45.491  33.620  28.383  1.00  0.00     0.040 A 
ATOM     61  F   UNL A   1      46.331  31.806  29.612  1.00  0.00    -0.206 F 
ATOM     62  C   UNL A   1      44.436  34.455  28.023  1.00  0.00     0.006 A 
ENDBRANCH  38  55
ENDBRANCH  12  13
ENDBRANCH   5   7
ENDBRANCH   4   5
ENDBRANCH   3   4
ENDBRANCH   2   3
ENDBRANCH   1   2
BRANCH   1  63
ATOM     63  C   UNL A   1      33.518  36.333  28.680  1.00  0.00     0.338 C 
ATOM     64  O   UNL A   1      34.330  37.108  28.238  1.00  0.00    -0.246 OA
BRANCH  63  65
ATOM     65  C   UNL A   1      33.590  34.874  28.498  1.00  0.00     0.060 A 
ATOM     66  C   UNL A   1      34.731  34.194  28.927  1.00  0.00     0.018 A 
ATOM     67  C   UNL A   1      32.557  34.202  27.841  1.00  0.00     0.018 A 
ATOM     68  C   UNL A   1      34.827  32.815  28.755  1.00  0.00     0.029 A 
ATOM     69  C   UNL A   1      32.690  32.837  27.582  1.00  0.00     0.029 A 
ATOM     70  C   UNL A   1      33.825  32.150  28.045  1.00  0.00     0.066 A 
BRANCH  70  71
ATOM     71  N   UNL A   1      34.063  30.818  27.658  1.00  0.00    -0.220 N 
ATOM     72  C   UNL A   1      33.219  30.032  26.922  1.00  0.00     0.141 A 
ATOM     73  N   UNL A   1      35.248  30.189  27.816  1.00  0.00    -0.062 NA
ATOM     74  C   UNL A   1      33.975  28.940  26.552  1.00  0.00     0.093 A 
ATOM     75  N   UNL A   1      35.185  29.019  27.188  1.00  0.00    -0.134 NA
BRANCH  74  76
ATOM     76  C   UNL A   1      33.563  27.755  25.772  1.00  0.00     0.138 C 
BRANCH  76  77
ATOM     77  S   UNL A   1      32.488  26.483  26.440  1.00  0.00    -0.081 SA
BRANCH  77  78
ATOM     78  C   UNL A   1      32.142  25.210  25.297  1.00  0.00     0.176 A 
ATOM     79  N   UNL A   1      32.452  24.034  25.765  1.00  0.00    -0.223 NA
ATOM     80  N   UNL A   1      31.588  25.368  24.035  1.00  0.00    -0.255 N 
ATOM     81  C   UNL A   1      32.306  22.921  24.928  1.00  0.00     0.079 A 
ATOM     82  C   UNL A   1      32.087  24.471  23.083  1.00  0.00     0.266 A 
ATOM     83  C   UNL A   1      32.287  21.625  25.442  1.00  0.00     0.029 A 
ATOM     84  C   UNL A   1      32.265  23.089  23.552  1.00  0.00     0.066 A 
ATOM     85  O   UNL A   1      32.389  24.738  21.922  1.00  0.00    -0.268 OA
ATOM     86  C   UNL A   1      32.274  20.522  24.578  1.00  0.00     0.002 A 
ATOM     87  C   UNL A   1      32.301  22.003  22.674  1.00  0.00     0.016 A 
ATOM     88  C   UNL A   1      32.312  20.712  23.195  1.00  0.00     0.001 A 
BRANCH  80  89
ATOM     89  C   UNL A   1      30.595  26.338  23.615  1.00  0.00     0.051 A 
ATOM     90  C   UNL A   1      30.986  27.478  22.879  1.00  0.00     0.028 A 
ATOM     91  C   UNL A   1      29.219  26.212  23.848  1.00  0.00     0.028 A 
ATOM     92  C   UNL A   1      30.107  28.530  22.600  1.00  0.00     0.022 A 
ATOM     93  C   UNL A   1      28.337  27.282  23.621  1.00  0.00     0.022 A 
ATOM     94  C   UNL A   1      28.795  28.454  23.034  1.00  0.00     0.041 A 
ATOM     95  Cl  UNL A   1      27.751  29.803  22.860  1.00  0.00    -0.084 Cl
ENDBRANCH  80  89
ENDBRANCH  77  78
ENDBRANCH  76  77
ENDBRANCH  74  76
ENDBRANCH  70  71
ENDBRANCH  63  65
ENDBRANCH   1  63
TORSDOF 16
ENDMDL
MODEL 3
REMARK VINA RESULT:     -12.5      1.441      2.157
REMARK SMILES O=C(OCCOC(=O)c1ccc(-n2cc(CSc3nc4ccccc4c(=O)n3-c3ccc(Cl)cc3)nn2)cc1)c1ccc(-c2c3nc(c(-c4c(F)cccc4F)c4ccc([nH]4)c(-c4c(F)cccc4F)c4nc(c(-c5c(F)cccc5F)c5ccc2[nH]5)C=C4)C=C3)cc1
REMARK SMILES IDX 6 1 5 2 4 3 3 4 2 5 1 6 40 7 41 8 93 9 42 10 92 11 43 12
REMARK SMILES IDX 44 13 45 14 86 15 46 16 91 17 85 18 87 19 47 20 90 21 84 22
REMARK SMILES IDX 83 23 48 25 74 26 57 27 73 28 58 29 61 30 72 31 88 32 59 33
REMARK SMILES IDX 60 34 71 36 89 37 62 38 49 39 50 40 55 41 51 42 52 43 54 44
REMARK SMILES IDX 56 45 53 46 75 47 76 48 81 49 77 50 78 51 80 52 82 53 79 54
REMARK SMILES IDX 63 55 64 56 69 57 65 58 66 59 68 60 70 61 67 62 7 63 8 64
REMARK SMILES IDX 9 65 10 66 39 67 11 68 38 69 12 70 13 71 14 72 37 73 15 74
REMARK SMILES IDX 36 75 16 76 17 77 18 78 19 79 28 80 20 81 26 82 21 83 25 84
REMARK SMILES IDX 27 85 22 86 24 87 23 88 29 89 30 90 35 91 31 92 34 93 32 94
REMARK SMILES IDX 33 95
REMARK H PARENT 87 24 61 35
REMARK Flexibility Score: inf
ROOT
ATOM      1  O   UNL A   1      44.075  18.897  24.965  1.00  0.00    -0.458 OA
ENDROOT
BRANCH   1   2
ATOM      2  C   UNL A   1      45.460  19.036  25.329  1.00  0.00     0.275 C 
BRANCH   2   3
ATOM      3  C   UNL A   1      46.190  19.862  24.271  1.00  0.00     0.275 C 
BRANCH   3   4
ATOM      4  O   UNL A   1      46.318  21.281  24.507  1.00  0.00    -0.458 OA
BRANCH   4   5
ATOM      5  C   UNL A   1      45.286  22.086  24.178  1.00  0.00     0.338 C 
ATOM      6  O   UNL A   1      44.579  21.945  23.194  1.00  0.00    -0.246 OA
BRANCH   5   7
ATOM      7  C   UNL A   1      45.020  23.085  25.239  1.00  0.00     0.060 A 
ATOM      8  C   UNL A   1      44.299  24.257  24.984  1.00  0.00     0.016 A 
ATOM      9  C   UNL A   1      45.481  22.811  26.532  1.00  0.00     0.016 A 
ATOM     10  C   UNL A   1      44.086  25.173  26.000  1.00  0.00     0.010 A 
ATOM     11  C   UNL A   1      45.241  23.715  27.559  1.00  0.00     0.010 A 
ATOM     12  C   UNL A   1      44.586  24.916  27.278  1.00  0.00    -0.014 A 
BRANCH  12  13
ATOM     13  C   UNL A   1      44.393  25.942  28.297  1.00  0.00     0.031 A 
ATOM     14  C   UNL A   1      45.552  26.836  28.580  1.00  0.00     0.074 A 
ATOM     15  C   UNL A   1      43.198  26.158  28.879  1.00  0.00     0.049 A 
ATOM     16  N   UNL A   1      46.176  27.021  29.700  1.00  0.00    -0.248 NA
ATOM     17  C   UNL A   1      46.122  27.580  27.449  1.00  0.00     0.031 C 
ATOM     18  C   UNL A   1      41.903  25.576  28.513  1.00  0.00     0.029 A 
ATOM     19  N   UNL A   1      42.873  27.045  29.861  1.00  0.00    -0.354 N 
ATOM     20  C   UNL A   1      47.099  28.043  29.464  1.00  0.00     0.074 A 
ATOM     21  C   UNL A   1      47.111  28.251  28.040  1.00  0.00     0.031 C 
ATOM     22  C   UNL A   1      40.916  26.291  29.095  1.00  0.00     0.029 A 
ATOM     23  C   UNL A   1      41.512  27.280  29.977  1.00  0.00     0.049 A 
ATOM     24  H   UNL A   1      43.543  27.479  30.436  1.00  0.00     0.167 HD
ATOM     25  C   UNL A   1      47.617  28.790  30.480  1.00  0.00     0.037 A 
ATOM     26  C   UNL A   1      40.915  28.263  30.692  1.00  0.00     0.037 A 
ATOM     27  C   UNL A   1      47.497  28.116  31.748  1.00  0.00     0.049 A 
ATOM     28  C   UNL A   1      41.885  28.749  31.701  1.00  0.00     0.074 A 
ATOM     29  C   UNL A   1      47.919  26.904  32.262  1.00  0.00     0.029 A 
ATOM     30  N   UNL A   1      46.581  28.589  32.654  1.00  0.00    -0.354 N 
ATOM     31  N   UNL A   1      42.275  28.060  32.737  1.00  0.00    -0.248 NA
ATOM     32  C   UNL A   1      42.737  29.873  31.343  1.00  0.00     0.031 C 
ATOM     33  C   UNL A   1      46.880  26.496  33.150  1.00  0.00     0.029 A 
ATOM     34  C   UNL A   1      45.914  27.502  33.147  1.00  0.00     0.049 A 
ATOM     35  H   UNL A   1      46.434  29.530  32.902  1.00  0.00     0.167 HD
ATOM     36  C   UNL A   1      43.613  28.386  32.893  1.00  0.00     0.074 A 
ATOM     37  C   UNL A   1      43.808  29.588  32.087  1.00  0.00     0.031 C 
ATOM     38  C   UNL A   1      44.499  27.495  33.428  1.00  0.00     0.037 A 
BRANCH  25  39
ATOM     39  C   UNL A   1      47.871  30.286  30.399  1.00  0.00     0.057 A 
ATOM     40  C   UNL A   1      49.065  30.808  30.941  1.00  0.00     0.134 A 
ATOM     41  C   UNL A   1      46.879  31.248  30.127  1.00  0.00     0.134 A 
ATOM     42  F   UNL A   1      50.101  30.005  31.230  1.00  0.00    -0.206 F 
ATOM     43  C   UNL A   1      49.204  32.152  31.306  1.00  0.00     0.040 A 
ATOM     44  C   UNL A   1      47.029  32.603  30.439  1.00  0.00     0.040 A 
ATOM     45  F   UNL A   1      45.678  30.928  29.635  1.00  0.00    -0.206 F 
ATOM     46  C   UNL A   1      48.174  33.053  31.073  1.00  0.00     0.006 A 
ENDBRANCH  25  39
BRANCH  26  47
ATOM     47  C   UNL A   1      39.660  28.978  30.382  1.00  0.00     0.057 A 
ATOM     48  C   UNL A   1      39.610  29.963  29.387  1.00  0.00     0.134 A 
ATOM     49  C   UNL A   1      38.419  28.537  30.879  1.00  0.00     0.134 A 
ATOM     50  F   UNL A   1      40.738  30.414  28.819  1.00  0.00    -0.206 F 
ATOM     51  C   UNL A   1      38.398  30.471  28.905  1.00  0.00     0.040 A 
ATOM     52  C   UNL A   1      37.203  29.044  30.415  1.00  0.00     0.040 A 
ATOM     53  F   UNL A   1      38.343  27.539  31.771  1.00  0.00    -0.206 F 
ATOM     54  C   UNL A   1      37.188  30.006  29.413  1.00  0.00     0.006 A 
ENDBRANCH  26  47
BRANCH  38  55
ATOM     55  C   UNL A   1      43.952  26.276  34.108  1.00  0.00     0.057 A 
ATOM     56  C   UNL A   1      43.789  25.036  33.473  1.00  0.00     0.134 A 
ATOM     57  C   UNL A   1      43.731  26.315  35.489  1.00  0.00     0.134 A 
ATOM     58  F   UNL A   1      44.082  24.878  32.176  1.00  0.00    -0.206 F 
ATOM     59  C   UNL A   1      43.375  23.899  34.172  1.00  0.00     0.040 A 
ATOM     60  C   UNL A   1      43.349  25.178  36.206  1.00  0.00     0.040 A 
ATOM     61  F   UNL A   1      43.928  27.452  36.175  1.00  0.00    -0.206 F 
ATOM     62  C   UNL A   1      43.159  23.967  35.544  1.00  0.00     0.006 A 
ENDBRANCH  38  55
ENDBRANCH  12  13
ENDBRANCH   5   7
ENDBRANCH   4   5
ENDBRANCH   3   4
ENDBRANCH   2   3
ENDBRANCH   1   2
BRANCH   1  63
ATOM     63  C   UNL A   1      43.263  18.485  25.974  1.00  0.00     0.338 C 
ATOM     64  O   UNL A   1      43.356  17.493  26.656  1.00  0.00    -0.246 OA
BRANCH  63  65
ATOM     65  C   UNL A   1      42.212  19.501  26.144  1.00  0.00     0.060 A 
ATOM     66  C   UNL A   1      40.875  19.122  26.002  1.00  0.00     0.018 A 
ATOM     67  C   UNL A   1      42.561  20.833  26.372  1.00  0.00     0.018 A 
ATOM     68  C   UNL A   1      39.863  20.069  26.147  1.00  0.00     0.029 A 
ATOM     69  C   UNL A   1      41.556  21.801  26.424  1.00  0.00     0.029 A 
ATOM     70  C   UNL A   1      40.211  21.412  26.315  1.00  0.00     0.066 A 
BRANCH  70  71
ATOM     71  N   UNL A   1      39.193  22.376  26.198  1.00  0.00    -0.220 N 
ATOM     72  C   UNL A   1      37.952  22.172  25.658  1.00  0.00     0.141 A 
ATOM     73  N   UNL A   1      39.245  23.599  26.769  1.00  0.00    -0.062 NA
ATOM     74  C   UNL A   1      37.219  23.284  26.012  1.00  0.00     0.093 A 
ATOM     75  N   UNL A   1      38.060  24.181  26.615  1.00  0.00    -0.134 NA
BRANCH  74  76
ATOM     76  C   UNL A   1      35.819  23.614  25.671  1.00  0.00     0.138 C 
BRANCH  76  77
ATOM     77  S   UNL A   1      35.264  23.840  23.980  1.00  0.00    -0.081 SA
BRANCH  77  78
ATOM     78  C   UNL A   1      33.567  24.233  23.864  1.00  0.00     0.176 A 
ATOM     79  N   UNL A   1      33.374  25.445  23.427  1.00  0.00    -0.223 NA
ATOM     80  N   UNL A   1      32.507  23.392  24.169  1.00  0.00    -0.255 N 
ATOM     81  C   UNL A   1      32.063  25.931  23.359  1.00  0.00     0.079 A 
ATOM     82  C   UNL A   1      31.408  24.052  24.734  1.00  0.00     0.266 A 
ATOM     83  C   UNL A   1      31.745  27.059  22.602  1.00  0.00     0.029 A 
ATOM     84  C   UNL A   1      31.065  25.342  24.122  1.00  0.00     0.066 A 
ATOM     85  O   UNL A   1      30.731  23.655  25.681  1.00  0.00    -0.268 OA
ATOM     86  C   UNL A   1      30.456  27.606  22.655  1.00  0.00     0.002 A 
ATOM     87  C   UNL A   1      29.788  25.900  24.224  1.00  0.00     0.016 A 
ATOM     88  C   UNL A   1      29.488  27.044  23.488  1.00  0.00     0.001 A 
BRANCH  80  89
ATOM     89  C   UNL A   1      32.429  21.957  23.984  1.00  0.00     0.051 A 
ATOM     90  C   UNL A   1      32.686  21.088  25.066  1.00  0.00     0.028 A 
ATOM     91  C   UNL A   1      32.062  21.333  22.783  1.00  0.00     0.028 A 
ATOM     92  C   UNL A   1      32.799  19.702  24.908  1.00  0.00     0.022 A 
ATOM     93  C   UNL A   1      32.223  19.950  22.598  1.00  0.00     0.022 A 
ATOM     94  C   UNL A   1      32.631  19.145  23.653  1.00  0.00     0.041 A 
ATOM     95  Cl  UNL A   1      32.939  17.477  23.402  1.00  0.00    -0.084 Cl
ENDBRANCH  80  89
ENDBRANCH  77  78
ENDBRANCH  76  77
ENDBRANCH  74  76
ENDBRANCH  70  71
ENDBRANCH  63  65
ENDBRANCH   1  63
TORSDOF 16
ENDMDL
