MODEL 1
REMARK VINA RESULT:      -9.7      0.000      0.000
REMARK SMILES O=C(OCCOC(=O)C1([C@H]2CCC[C@H]2O)CCCCC1)c1ccc(-c2c3nc(c(-c4c(F)cccc4F)c4ccc([nH]4)c(-c4c(F)cccc4F)c4nc(c(-c5c(F)cccc5F)c5ccc2[nH]5)C=C4)C=C3)cc1
REMARK SMILES IDX 4 1 3 2 2 3 1 4 21 5 22 6 74 7 23 8 73 9 24 10 25 11 26 12
REMARK SMILES IDX 67 13 27 14 72 15 66 16 68 17 28 18 71 19 65 20 64 21 29 23
REMARK SMILES IDX 55 24 38 25 54 26 39 27 42 28 53 29 69 30 40 31 41 32 52 34
REMARK SMILES IDX 70 35 43 36 30 37 31 38 36 39 32 40 33 41 35 42 37 43 34 44
REMARK SMILES IDX 56 45 57 46 62 47 58 48 59 49 61 50 63 51 60 52 44 53 45 54
REMARK SMILES IDX 50 55 46 56 47 57 49 58 51 59 48 60 5 61 6 62 7 63 8 64 9 65
REMARK SMILES IDX 16 66 20 67 17 68 19 69 18 70 10 71 11 72 14 73 12 74 13 75
REMARK SMILES IDX 15 76
REMARK H PARENT 68 22 42 33 15 77
REMARK Flexibility Score: inf
ROOT
ATOM      1  C   UNL A   1      33.968  32.946  28.184  1.00  0.00     0.275 C 
ENDROOT
BRANCH   1   2
ATOM      2  O   UNL A   1      34.048  31.568  28.584  1.00  0.00    -0.458 OA
BRANCH   2   3
ATOM      3  C   UNL A   1      34.675  30.514  28.016  1.00  0.00     0.338 C 
ATOM      4  O   UNL A   1      34.046  29.853  27.188  1.00  0.00    -0.246 OA
BRANCH   3   5
ATOM      5  C   UNL A   1      36.052  30.028  28.366  1.00  0.00     0.060 A 
ATOM      6  C   UNL A   1      36.473  29.487  29.584  1.00  0.00     0.016 A 
ATOM      7  C   UNL A   1      37.020  30.153  27.348  1.00  0.00     0.016 A 
ATOM      8  C   UNL A   1      37.784  29.000  29.752  1.00  0.00     0.010 A 
ATOM      9  C   UNL A   1      38.324  29.668  27.510  1.00  0.00     0.010 A 
ATOM     10  C   UNL A   1      38.709  29.059  28.709  1.00  0.00    -0.014 A 
BRANCH  10  11
ATOM     11  C   UNL A   1      40.117  28.625  28.895  1.00  0.00     0.031 A 
ATOM     12  C   UNL A   1      41.076  29.603  29.479  1.00  0.00     0.074 A 
ATOM     13  C   UNL A   1      40.577  27.438  28.458  1.00  0.00     0.049 A 
ATOM     14  N   UNL A   1      42.365  29.494  29.642  1.00  0.00    -0.248 NA
ATOM     15  C   UNL A   1      40.507  30.898  29.877  1.00  0.00     0.031 C 
ATOM     16  C   UNL A   1      39.769  26.449  27.775  1.00  0.00     0.029 A 
ATOM     17  N   UNL A   1      41.828  26.869  28.480  1.00  0.00    -0.354 N 
ATOM     18  C   UNL A   1      42.777  30.731  30.103  1.00  0.00     0.074 A 
ATOM     19  C   UNL A   1      41.601  31.573  30.180  1.00  0.00     0.031 C 
ATOM     20  C   UNL A   1      40.528  25.400  27.428  1.00  0.00     0.029 A 
ATOM     21  C   UNL A   1      41.879  25.621  27.902  1.00  0.00     0.049 A 
ATOM     22  H   UNL A   1      42.615  27.313  28.871  1.00  0.00     0.167 HD
ATOM     23  C   UNL A   1      44.028  31.133  30.418  1.00  0.00     0.037 A 
ATOM     24  C   UNL A   1      42.885  24.734  27.775  1.00  0.00     0.037 A 
ATOM     25  C   UNL A   1      45.190  30.294  30.326  1.00  0.00     0.049 A 
ATOM     26  C   UNL A   1      44.235  25.136  28.279  1.00  0.00     0.074 A 
ATOM     27  C   UNL A   1      46.503  30.596  30.631  1.00  0.00     0.029 A 
ATOM     28  N   UNL A   1      45.171  28.977  29.885  1.00  0.00    -0.354 N 
ATOM     29  N   UNL A   1      44.601  26.285  28.791  1.00  0.00    -0.248 NA
ATOM     30  C   UNL A   1      45.311  24.142  28.183  1.00  0.00     0.031 C 
ATOM     31  C   UNL A   1      47.282  29.464  30.362  1.00  0.00     0.029 A 
ATOM     32  C   UNL A   1      46.450  28.448  29.915  1.00  0.00     0.049 A 
ATOM     33  H   UNL A   1      44.366  28.491  29.592  1.00  0.00     0.167 HD
ATOM     34  C   UNL A   1      45.952  26.162  29.068  1.00  0.00     0.074 A 
ATOM     35  C   UNL A   1      46.332  24.810  28.705  1.00  0.00     0.031 C 
ATOM     36  C   UNL A   1      46.801  27.096  29.555  1.00  0.00     0.037 A 
BRANCH  23  37
ATOM     37  C   UNL A   1      44.148  32.567  30.826  1.00  0.00     0.057 A 
ATOM     38  C   UNL A   1      43.924  32.973  32.149  1.00  0.00     0.134 A 
ATOM     39  C   UNL A   1      44.306  33.563  29.856  1.00  0.00     0.134 A 
ATOM     40  F   UNL A   1      43.720  32.061  33.114  1.00  0.00    -0.206 F 
ATOM     41  C   UNL A   1      43.778  34.320  32.480  1.00  0.00     0.040 A 
ATOM     42  C   UNL A   1      44.192  34.915  30.181  1.00  0.00     0.040 A 
ATOM     43  F   UNL A   1      44.513  33.237  28.571  1.00  0.00    -0.206 F 
ATOM     44  C   UNL A   1      43.903  35.295  31.491  1.00  0.00     0.006 A 
ENDBRANCH  23  37
BRANCH  24  45
ATOM     45  C   UNL A   1      42.633  23.372  27.230  1.00  0.00     0.057 A 
ATOM     46  C   UNL A   1      42.174  22.347  28.068  1.00  0.00     0.134 A 
ATOM     47  C   UNL A   1      42.805  23.059  25.877  1.00  0.00     0.134 A 
ATOM     48  F   UNL A   1      41.992  22.580  29.377  1.00  0.00    -0.206 F 
ATOM     49  C   UNL A   1      41.913  21.062  27.588  1.00  0.00     0.040 A 
ATOM     50  C   UNL A   1      42.527  21.784  25.377  1.00  0.00     0.040 A 
ATOM     51  F   UNL A   1      43.220  23.998  25.012  1.00  0.00    -0.206 F 
ATOM     52  C   UNL A   1      42.084  20.779  26.235  1.00  0.00     0.006 A 
ENDBRANCH  24  45
BRANCH  36  53
ATOM     53  C   UNL A   1      48.228  26.687  29.723  1.00  0.00     0.057 A 
ATOM     54  C   UNL A   1      49.181  26.944  28.730  1.00  0.00     0.134 A 
ATOM     55  C   UNL A   1      48.664  26.100  30.915  1.00  0.00     0.134 A 
ATOM     56  F   UNL A   1      48.814  27.487  27.560  1.00  0.00    -0.206 F 
ATOM     57  C   UNL A   1      50.526  26.634  28.920  1.00  0.00     0.040 A 
ATOM     58  C   UNL A   1      50.009  25.801  31.123  1.00  0.00     0.040 A 
ATOM     59  F   UNL A   1      47.793  25.827  31.898  1.00  0.00    -0.206 F 
ATOM     60  C   UNL A   1      50.945  26.071  30.125  1.00  0.00     0.006 A 
ENDBRANCH  36  53
ENDBRANCH  10  11
ENDBRANCH   3   5
ENDBRANCH   2   3
ENDBRANCH   1   2
BRANCH   1  61
ATOM     61  C   UNL A   1      35.328  33.620  28.055  1.00  0.00     0.274 C 
BRANCH  61  62
ATOM     62  O   UNL A   1      35.844  34.039  29.324  1.00  0.00    -0.462 OA
BRANCH  62  63
ATOM     63  C   UNL A   1      37.074  33.544  29.658  1.00  0.00     0.312 C 
ATOM     64  O   UNL A   1      37.825  32.985  28.869  1.00  0.00    -0.252 OA
BRANCH  63  65
ATOM     65  C   UNL A   1      37.336  33.612  31.182  1.00  0.00     0.073 C 
ATOM     66  C   UNL A   1      37.792  32.186  31.629  1.00  0.00     0.019 C 
ATOM     67  C   UNL A   1      38.515  34.579  31.428  1.00  0.00     0.019 C 
ATOM     68  C   UNL A   1      38.557  32.105  32.953  1.00  0.00     0.001 C 
ATOM     69  C   UNL A   1      39.307  34.447  32.728  1.00  0.00     0.001 C 
ATOM     70  C   UNL A   1      39.763  33.026  32.963  1.00  0.00     0.000 C 
BRANCH  65  71
ATOM     71  C   UNL A   1      35.917  33.961  31.768  1.00  0.00     0.035 C 
ATOM     72  C   UNL A   1      35.055  32.817  32.306  1.00  0.00     0.007 C 
ATOM     73  C   UNL A   1      35.793  35.052  32.858  1.00  0.00     0.118 C 
ATOM     74  C   UNL A   1      34.029  33.455  33.250  1.00  0.00     0.003 C 
ATOM     75  C   UNL A   1      34.339  34.943  33.305  1.00  0.00     0.032 C 
BRANCH  73  76
ATOM     76  O   UNL A   1      36.670  34.853  33.947  1.00  0.00    -0.393 OA
ATOM     77  H   UNL A   1      36.227  34.319  34.625  1.00  0.00     0.210 HD
ENDBRANCH  73  76
ENDBRANCH  65  71
ENDBRANCH  63  65
ENDBRANCH  62  63
ENDBRANCH  61  62
ENDBRANCH   1  61
TORSDOF 13
ENDMDL
MODEL 2
REMARK VINA RESULT:      -9.7      4.416      9.456
REMARK SMILES O=C(OCCOC(=O)C1([C@H]2CCC[C@H]2O)CCCCC1)c1ccc(-c2c3nc(c(-c4c(F)cccc4F)c4ccc([nH]4)c(-c4c(F)cccc4F)c4nc(c(-c5c(F)cccc5F)c5ccc2[nH]5)C=C4)C=C3)cc1
REMARK SMILES IDX 4 1 3 2 2 3 1 4 21 5 22 6 74 7 23 8 73 9 24 10 25 11 26 12
REMARK SMILES IDX 67 13 27 14 72 15 66 16 68 17 28 18 71 19 65 20 64 21 29 23
REMARK SMILES IDX 55 24 38 25 54 26 39 27 42 28 53 29 69 30 40 31 41 32 52 34
REMARK SMILES IDX 70 35 43 36 30 37 31 38 36 39 32 40 33 41 35 42 37 43 34 44
REMARK SMILES IDX 56 45 57 46 62 47 58 48 59 49 61 50 63 51 60 52 44 53 45 54
REMARK SMILES IDX 50 55 46 56 47 57 49 58 51 59 48 60 5 61 6 62 7 63 8 64 9 65
REMARK SMILES IDX 16 66 20 67 17 68 19 69 18 70 10 71 11 72 14 73 12 74 13 75
REMARK SMILES IDX 15 76
REMARK H PARENT 68 22 42 33 15 77
REMARK Flexibility Score: inf
ROOT
ATOM      1  C   UNL A   1      31.354  32.275  26.876  1.00  0.00     0.275 C 
ENDROOT
BRANCH   1   2
ATOM      2  O   UNL A   1      32.283  33.371  26.928  1.00  0.00    -0.458 OA
BRANCH   2   3
ATOM      3  C   UNL A   1      32.892  33.969  27.975  1.00  0.00     0.338 C 
ATOM      4  O   UNL A   1      32.385  35.000  28.420  1.00  0.00    -0.246 OA
BRANCH   3   5
ATOM      5  C   UNL A   1      34.187  33.529  28.596  1.00  0.00     0.060 A 
ATOM      6  C   UNL A   1      35.423  34.175  28.520  1.00  0.00     0.016 A 
ATOM      7  C   UNL A   1      34.135  32.320  29.320  1.00  0.00     0.016 A 
ATOM      8  C   UNL A   1      36.546  33.687  29.216  1.00  0.00     0.010 A 
ATOM      9  C   UNL A   1      35.248  31.832  30.015  1.00  0.00     0.010 A 
ATOM     10  C   UNL A   1      36.460  32.530  29.992  1.00  0.00    -0.014 A 
BRANCH  10  11
ATOM     11  C   UNL A   1      37.653  31.958  30.667  1.00  0.00     0.031 A 
ATOM     12  C   UNL A   1      38.462  30.957  29.919  1.00  0.00     0.074 A 
ATOM     13  C   UNL A   1      37.960  32.221  31.951  1.00  0.00     0.049 A 
ATOM     14  N   UNL A   1      39.477  30.248  30.329  1.00  0.00    -0.248 NA
ATOM     15  C   UNL A   1      38.027  30.681  28.544  1.00  0.00     0.031 C 
ATOM     16  C   UNL A   1      37.187  33.089  32.816  1.00  0.00     0.029 A 
ATOM     17  N   UNL A   1      38.966  31.768  32.769  1.00  0.00    -0.354 N 
ATOM     18  C   UNL A   1      39.766  29.392  29.282  1.00  0.00     0.074 A 
ATOM     19  C   UNL A   1      38.810  29.664  28.228  1.00  0.00     0.031 C 
ATOM     20  C   UNL A   1      37.725  33.107  34.042  1.00  0.00     0.029 A 
ATOM     21  C   UNL A   1      38.914  32.280  34.047  1.00  0.00     0.049 A 
ATOM     22  H   UNL A   1      39.659  31.136  32.472  1.00  0.00     0.167 HD
ATOM     23  C   UNL A   1      40.733  28.450  29.213  1.00  0.00     0.037 A 
ATOM     24  C   UNL A   1      39.731  32.125  35.106  1.00  0.00     0.037 A 
ATOM     25  C   UNL A   1      41.667  28.178  30.269  1.00  0.00     0.049 A 
ATOM     26  C   UNL A   1      40.895  31.197  34.959  1.00  0.00     0.074 A 
ATOM     27  C   UNL A   1      42.694  27.253  30.299  1.00  0.00     0.029 A 
ATOM     28  N   UNL A   1      41.679  28.835  31.492  1.00  0.00    -0.354 N 
ATOM     29  N   UNL A   1      41.210  30.447  33.931  1.00  0.00    -0.248 NA
ATOM     30  C   UNL A   1      41.808  31.077  36.102  1.00  0.00     0.031 C 
ATOM     31  C   UNL A   1      43.320  27.343  31.550  1.00  0.00     0.029 A 
ATOM     32  C   UNL A   1      42.701  28.342  32.286  1.00  0.00     0.049 A 
ATOM     33  H   UNL A   1      41.052  29.547  31.757  1.00  0.00     0.167 HD
ATOM     34  C   UNL A   1      42.349  29.754  34.304  1.00  0.00     0.074 A 
ATOM     35  C   UNL A   1      42.695  30.205  35.639  1.00  0.00     0.031 C 
ATOM     36  C   UNL A   1      43.028  28.813  33.609  1.00  0.00     0.037 A 
BRANCH  23  37
ATOM     37  C   UNL A   1      40.737  27.638  27.956  1.00  0.00     0.057 A 
ATOM     38  C   UNL A   1      40.109  26.387  27.891  1.00  0.00     0.134 A 
ATOM     39  C   UNL A   1      41.529  28.028  26.870  1.00  0.00     0.134 A 
ATOM     40  F   UNL A   1      39.374  25.941  28.923  1.00  0.00    -0.206 F 
ATOM     41  C   UNL A   1      40.329  25.520  26.821  1.00  0.00     0.040 A 
ATOM     42  C   UNL A   1      41.732  27.181  25.781  1.00  0.00     0.040 A 
ATOM     43  F   UNL A   1      42.164  29.210  26.878  1.00  0.00    -0.206 F 
ATOM     44  C   UNL A   1      41.150  25.914  25.766  1.00  0.00     0.006 A 
ENDBRANCH  23  37
BRANCH  24  45
ATOM     45  C   UNL A   1      39.524  32.920  36.347  1.00  0.00     0.057 A 
ATOM     46  C   UNL A   1      40.184  34.144  36.522  1.00  0.00     0.134 A 
ATOM     47  C   UNL A   1      38.655  32.513  37.366  1.00  0.00     0.134 A 
ATOM     48  F   UNL A   1      41.034  34.590  35.585  1.00  0.00    -0.206 F 
ATOM     49  C   UNL A   1      40.002  34.923  37.667  1.00  0.00     0.040 A 
ATOM     50  C   UNL A   1      38.446  33.292  38.507  1.00  0.00     0.040 A 
ATOM     51  F   UNL A   1      37.974  31.363  37.255  1.00  0.00    -0.206 F 
ATOM     52  C   UNL A   1      39.125  34.500  38.663  1.00  0.00     0.006 A 
ENDBRANCH  24  45
BRANCH  36  53
ATOM     53  C   UNL A   1      44.215  28.204  34.282  1.00  0.00     0.057 A 
ATOM     54  C   UNL A   1      45.486  28.784  34.184  1.00  0.00     0.134 A 
ATOM     55  C   UNL A   1      44.071  27.074  35.092  1.00  0.00     0.134 A 
ATOM     56  F   UNL A   1      45.685  29.858  33.405  1.00  0.00    -0.206 F 
ATOM     57  C   UNL A   1      46.576  28.261  34.877  1.00  0.00     0.040 A 
ATOM     58  C   UNL A   1      45.150  26.551  35.803  1.00  0.00     0.040 A 
ATOM     59  F   UNL A   1      42.877  26.474  35.219  1.00  0.00    -0.206 F 
ATOM     60  C   UNL A   1      46.407  27.147  35.698  1.00  0.00     0.006 A 
ENDBRANCH  36  53
ENDBRANCH  10  11
ENDBRANCH   3   5
ENDBRANCH   2   3
ENDBRANCH   1   2
BRANCH   1  61
ATOM     61  C   UNL A   1      31.991  30.962  26.436  1.00  0.00     0.274 C 
BRANCH  61  62
ATOM     62  O   UNL A   1      31.250  30.331  25.386  1.00  0.00    -0.462 OA
BRANCH  62  63
ATOM     63  C   UNL A   1      31.929  29.390  24.663  1.00  0.00     0.312 C 
ATOM     64  O   UNL A   1      33.145  29.380  24.522  1.00  0.00    -0.252 OA
BRANCH  63  65
ATOM     65  C   UNL A   1      30.975  28.442  23.897  1.00  0.00     0.073 C 
ATOM     66  C   UNL A   1      31.787  27.846  22.703  1.00  0.00     0.019 C 
ATOM     67  C   UNL A   1      30.597  27.275  24.835  1.00  0.00     0.019 C 
ATOM     68  C   UNL A   1      31.244  26.550  22.096  1.00  0.00     0.001 C 
ATOM     69  C   UNL A   1      30.113  25.965  24.212  1.00  0.00     0.001 C 
ATOM     70  C   UNL A   1      31.062  25.469  23.146  1.00  0.00     0.000 C 
BRANCH  65  71
ATOM     71  C   UNL A   1      29.848  29.415  23.384  1.00  0.00     0.035 C 
ATOM     72  C   UNL A   1      29.938  29.932  21.947  1.00  0.00     0.007 C 
ATOM     73  C   UNL A   1      28.364  29.002  23.529  1.00  0.00     0.118 C 
ATOM     74  C   UNL A   1      28.525  30.387  21.561  1.00  0.00     0.003 C 
ATOM     75  C   UNL A   1      27.618  30.075  22.743  1.00  0.00     0.032 C 
BRANCH  73  76
ATOM     76  O   UNL A   1      28.091  27.717  23.009  1.00  0.00    -0.393 OA
ATOM     77  H   UNL A   1      27.135  27.620  22.873  1.00  0.00     0.210 HD
ENDBRANCH  73  76
ENDBRANCH  65  71
ENDBRANCH  63  65
ENDBRANCH  62  63
ENDBRANCH  61  62
ENDBRANCH   1  61
TORSDOF 13
ENDMDL
MODEL 3
REMARK VINA RESULT:      -9.6      4.296      9.225
REMARK SMILES O=C(OCCOC(=O)C1([C@H]2CCC[C@H]2O)CCCCC1)c1ccc(-c2c3nc(c(-c4c(F)cccc4F)c4ccc([nH]4)c(-c4c(F)cccc4F)c4nc(c(-c5c(F)cccc5F)c5ccc2[nH]5)C=C4)C=C3)cc1
REMARK SMILES IDX 4 1 3 2 2 3 1 4 21 5 22 6 74 7 23 8 73 9 24 10 25 11 26 12
REMARK SMILES IDX 67 13 27 14 72 15 66 16 68 17 28 18 71 19 65 20 64 21 29 23
REMARK SMILES IDX 55 24 38 25 54 26 39 27 42 28 53 29 69 30 40 31 41 32 52 34
REMARK SMILES IDX 70 35 43 36 30 37 31 38 36 39 32 40 33 41 35 42 37 43 34 44
REMARK SMILES IDX 56 45 57 46 62 47 58 48 59 49 61 50 63 51 60 52 44 53 45 54
REMARK SMILES IDX 50 55 46 56 47 57 49 58 51 59 48 60 5 61 6 62 7 63 8 64 9 65
REMARK SMILES IDX 16 66 20 67 17 68 19 69 18 70 10 71 11 72 14 73 12 74 13 75
REMARK SMILES IDX 15 76
REMARK H PARENT 68 22 42 33 15 77
REMARK Flexibility Score: inf
ROOT
ATOM      1  C   UNL A   1      38.294  19.909  24.806  1.00  0.00     0.275 C 
ENDROOT
BRANCH   1   2
ATOM      2  O   UNL A   1      39.290  19.294  25.639  1.00  0.00    -0.458 OA
BRANCH   2   3
ATOM      3  C   UNL A   1      40.574  19.635  25.887  1.00  0.00     0.338 C 
ATOM      4  O   UNL A   1      41.452  18.834  25.560  1.00  0.00    -0.246 OA
BRANCH   3   5
ATOM      5  C   UNL A   1      41.022  20.877  26.603  1.00  0.00     0.060 A 
ATOM      6  C   UNL A   1      41.047  21.095  27.982  1.00  0.00     0.016 A 
ATOM      7  C   UNL A   1      41.448  21.937  25.775  1.00  0.00     0.016 A 
ATOM      8  C   UNL A   1      41.565  22.287  28.524  1.00  0.00     0.010 A 
ATOM      9  C   UNL A   1      41.965  23.124  26.309  1.00  0.00     0.010 A 
ATOM     10  C   UNL A   1      42.054  23.297  27.694  1.00  0.00    -0.014 A 
BRANCH  10  11
ATOM     11  C   UNL A   1      42.528  24.592  28.245  1.00  0.00     0.031 A 
ATOM     12  C   UNL A   1      41.511  25.643  28.525  1.00  0.00     0.074 A 
ATOM     13  C   UNL A   1      43.833  24.889  28.391  1.00  0.00     0.049 A 
ATOM     14  N   UNL A   1      41.688  26.877  28.908  1.00  0.00    -0.248 NA
ATOM     15  C   UNL A   1      40.113  25.262  28.285  1.00  0.00     0.031 C 
ATOM     16  C   UNL A   1      44.918  23.993  28.046  1.00  0.00     0.029 A 
ATOM     17  N   UNL A   1      44.479  26.022  28.823  1.00  0.00    -0.354 N 
ATOM     18  C   UNL A   1      40.427  27.444  28.893  1.00  0.00     0.074 A 
ATOM     19  C   UNL A   1      39.501  26.421  28.453  1.00  0.00     0.031 C 
ATOM     20  C   UNL A   1      46.094  24.597  28.263  1.00  0.00     0.029 A 
ATOM     21  C   UNL A   1      45.851  25.918  28.805  1.00  0.00     0.049 A 
ATOM     22  H   UNL A   1      44.004  26.833  29.117  1.00  0.00     0.167 HD
ATOM     23  C   UNL A   1      40.074  28.711  29.205  1.00  0.00     0.037 A 
ATOM     24  C   UNL A   1      46.818  26.772  29.193  1.00  0.00     0.037 A 
ATOM     25  C   UNL A   1      41.001  29.723  29.628  1.00  0.00     0.049 A 
ATOM     26  C   UNL A   1      46.399  28.120  29.689  1.00  0.00     0.074 A 
ATOM     27  C   UNL A   1      40.750  31.035  29.979  1.00  0.00     0.029 A 
ATOM     28  N   UNL A   1      42.371  29.527  29.751  1.00  0.00    -0.354 N 
ATOM     29  N   UNL A   1      45.190  28.623  29.749  1.00  0.00    -0.248 NA
ATOM     30  C   UNL A   1      47.457  29.022  30.159  1.00  0.00     0.031 C 
ATOM     31  C   UNL A   1      41.972  31.639  30.302  1.00  0.00     0.029 A 
ATOM     32  C   UNL A   1      42.980  30.694  30.180  1.00  0.00     0.049 A 
ATOM     33  H   UNL A   1      42.840  28.682  29.561  1.00  0.00     0.167 HD
ATOM     34  C   UNL A   1      45.339  29.904  30.250  1.00  0.00     0.074 A 
ATOM     35  C   UNL A   1      46.753  30.088  30.517  1.00  0.00     0.031 C 
ATOM     36  C   UNL A   1      44.389  30.848  30.445  1.00  0.00     0.037 A 
BRANCH  23  37
ATOM     37  C   UNL A   1      38.624  29.028  29.020  1.00  0.00     0.057 A 
ATOM     38  C   UNL A   1      38.136  29.547  27.813  1.00  0.00     0.134 A 
ATOM     39  C   UNL A   1      37.751  28.988  30.113  1.00  0.00     0.134 A 
ATOM     40  F   UNL A   1      38.943  29.652  26.744  1.00  0.00    -0.206 F 
ATOM     41  C   UNL A   1      36.853  30.084  27.720  1.00  0.00     0.040 A 
ATOM     42  C   UNL A   1      36.454  29.495  30.022  1.00  0.00     0.040 A 
ATOM     43  F   UNL A   1      38.162  28.512  31.298  1.00  0.00    -0.206 F 
ATOM     44  C   UNL A   1      36.011  30.067  28.831  1.00  0.00     0.006 A 
ENDBRANCH  23  37
BRANCH  24  45
ATOM     45  C   UNL A   1      48.245  26.350  29.205  1.00  0.00     0.057 A 
ATOM     46  C   UNL A   1      49.061  26.583  28.090  1.00  0.00     0.134 A 
ATOM     47  C   UNL A   1      48.842  25.744  30.316  1.00  0.00     0.134 A 
ATOM     48  F   UNL A   1      48.550  27.157  26.990  1.00  0.00    -0.206 F 
ATOM     49  C   UNL A   1      50.408  26.215  28.071  1.00  0.00     0.040 A 
ATOM     50  C   UNL A   1      50.194  25.389  30.321  1.00  0.00     0.040 A 
ATOM     51  F   UNL A   1      48.127  25.511  31.426  1.00  0.00    -0.206 F 
ATOM     52  C   UNL A   1      50.981  25.620  29.193  1.00  0.00     0.006 A 
ENDBRANCH  24  45
BRANCH  36  53
ATOM     53  C   UNL A   1      44.850  32.168  30.972  1.00  0.00     0.057 A 
ATOM     54  C   UNL A   1      45.215  33.210  30.109  1.00  0.00     0.134 A 
ATOM     55  C   UNL A   1      44.858  32.422  32.347  1.00  0.00     0.134 A 
ATOM     56  F   UNL A   1      45.245  33.016  28.783  1.00  0.00    -0.206 F 
ATOM     57  C   UNL A   1      45.568  34.465  30.601  1.00  0.00     0.040 A 
ATOM     58  C   UNL A   1      45.193  33.678  32.849  1.00  0.00     0.040 A 
ATOM     59  F   UNL A   1      44.522  31.459  33.219  1.00  0.00    -0.206 F 
ATOM     60  C   UNL A   1      45.547  34.706  31.974  1.00  0.00     0.006 A 
ENDBRANCH  36  53
ENDBRANCH  10  11
ENDBRANCH   3   5
ENDBRANCH   2   3
ENDBRANCH   1   2
BRANCH   1  61
ATOM     61  C   UNL A   1      37.814  21.257  25.331  1.00  0.00     0.274 C 
BRANCH  61  62
ATOM     62  O   UNL A   1      36.715  21.771  24.570  1.00  0.00    -0.462 OA
BRANCH  62  63
ATOM     63  C   UNL A   1      36.346  23.056  24.854  1.00  0.00     0.312 C 
ATOM     64  O   UNL A   1      37.077  23.876  25.395  1.00  0.00    -0.252 OA
BRANCH  63  65
ATOM     65  C   UNL A   1      34.845  23.307  24.575  1.00  0.00     0.073 C 
ATOM     66  C   UNL A   1      34.727  24.747  23.980  1.00  0.00     0.019 C 
ATOM     67  C   UNL A   1      34.382  22.313  23.487  1.00  0.00     0.019 C 
ATOM     68  C   UNL A   1      33.451  25.050  23.189  1.00  0.00     0.001 C 
ATOM     69  C   UNL A   1      33.140  22.657  22.665  1.00  0.00     0.001 C 
ATOM     70  C   UNL A   1      33.229  24.045  22.074  1.00  0.00     0.000 C 
BRANCH  65  71
ATOM     71  C   UNL A   1      34.202  23.235  26.010  1.00  0.00     0.035 C 
ATOM     72  C   UNL A   1      32.690  23.434  26.137  1.00  0.00     0.007 C 
ATOM     73  C   UNL A   1      34.482  22.005  26.907  1.00  0.00     0.118 C 
ATOM     74  C   UNL A   1      32.282  22.812  27.478  1.00  0.00     0.003 C 
ATOM     75  C   UNL A   1      33.537  22.204  28.087  1.00  0.00     0.032 C 
BRANCH  73  76
ATOM     76  O   UNL A   1      34.228  20.776  26.260  1.00  0.00    -0.393 OA
ATOM     77  H   UNL A   1      33.965  20.943  25.341  1.00  0.00     0.210 HD
ENDBRANCH  73  76
ENDBRANCH  65  71
ENDBRANCH  63  65
ENDBRANCH  62  63
ENDBRANCH  61  62
ENDBRANCH   1  61
TORSDOF 13
ENDMDL
