MODEL 1
REMARK VINA RESULT:     -11.4      0.000      0.000
REMARK SMILES Cc1cc(C)cc(-c2cccc(Cl)c2C(=O)OCCOC(=O)c2ccc(-c3c4nc(c(-c5c(F)cccc5F)c5ccc([nH]5)c(-c5c(F)cccc5F)c5nc(c(-c6c(F)cccc6F)c6ccc3[nH]6)C=C5)C=C4)cc2)c1
REMARK SMILES IDX 19 1 18 2 17 3 15 4 16 5 14 6 8 7 9 8 10 9 12 10 11 11 13 12
REMARK SMILES IDX 7 13 1 14 2 15 3 16 77 17 4 18 5 19 6 20 20 21 21 22 22 23
REMARK SMILES IDX 23 24 24 25 76 26 25 27 75 28 26 29 27 30 28 31 69 32 29 33
REMARK SMILES IDX 74 34 68 35 70 36 30 37 73 38 67 39 66 40 31 42 57 43 40 44
REMARK SMILES IDX 56 45 41 46 44 47 55 48 71 49 42 50 43 51 54 53 72 54 45 55
REMARK SMILES IDX 32 56 33 57 38 58 34 59 35 60 37 61 39 62 36 63 58 64 59 65
REMARK SMILES IDX 64 66 60 67 61 68 63 69 65 70 62 71 46 72 47 73 52 74 48 75
REMARK SMILES IDX 49 76 51 77 53 78 50 79
REMARK H PARENT 70 41 44 52
REMARK Flexibility Score: inf
ROOT
ATOM      1  C   UNL A   1      34.019  28.774  27.530  1.00  0.00     0.275 C 
ENDROOT
BRANCH   1   2
ATOM      2  C   UNL A   1      32.791  28.212  26.824  1.00  0.00     0.275 C 
BRANCH   2   3
ATOM      3  O   UNL A   1      33.129  26.980  26.144  1.00  0.00    -0.458 OA
BRANCH   3   4
ATOM      4  C   UNL A   1      32.093  26.166  25.818  1.00  0.00     0.340 C 
ATOM      5  O   UNL A   1      31.331  25.616  26.597  1.00  0.00    -0.246 OA
BRANCH   4   6
ATOM      6  C   UNL A   1      32.063  25.914  24.358  1.00  0.00     0.086 A 
ATOM      7  C   UNL A   1      32.877  24.915  23.736  1.00  0.00    -0.002 A 
ATOM      8  C   UNL A   1      32.992  24.946  22.337  1.00  0.00     0.010 A 
ATOM      9  C   UNL A   1      32.324  25.911  21.576  1.00  0.00     0.002 A 
ATOM     10  C   UNL A   1      31.374  26.862  23.579  1.00  0.00     0.056 A 
ATOM     11  C   UNL A   1      31.507  26.855  22.191  1.00  0.00     0.021 A 
ATOM     12  Cl  UNL A   1      30.419  28.143  24.258  1.00  0.00    -0.083 Cl
BRANCH   7  13
ATOM     13  C   UNL A   1      33.771  24.014  24.495  1.00  0.00    -0.017 A 
ATOM     14  C   UNL A   1      33.922  19.639  24.997  1.00  0.00     0.044 C 
ATOM     15  C   UNL A   1      34.516  21.005  24.769  1.00  0.00    -0.050 A 
ATOM     16  C   UNL A   1      36.150  21.289  25.324  1.00  0.00     0.006 A 
ATOM     17  C   UNL A   1      33.390  22.300  24.361  1.00  0.00     0.012 A 
ATOM     18  C   UNL A   1      36.719  22.989  25.584  1.00  0.00    -0.050 A 
ATOM     19  C   UNL A   1      38.175  22.774  26.122  1.00  0.00     0.044 C 
ATOM     20  C   UNL A   1      35.396  24.477  25.168  1.00  0.00     0.012 A 
ENDBRANCH   7  13
ENDBRANCH   4   6
ENDBRANCH   3   4
ENDBRANCH   2   3
ENDBRANCH   1   2
BRANCH   1  21
ATOM     21  O   UNL A   1      33.729  30.123  27.930  1.00  0.00    -0.458 OA
BRANCH  21  22
ATOM     22  C   UNL A   1      34.722  30.666  28.653  1.00  0.00     0.338 C 
ATOM     23  O   UNL A   1      34.696  31.705  29.298  1.00  0.00    -0.246 OA
BRANCH  22  24
ATOM     24  C   UNL A   1      35.912  29.826  28.671  1.00  0.00     0.060 A 
ATOM     25  C   UNL A   1      36.705  29.328  30.211  1.00  0.00     0.016 A 
ATOM     26  C   UNL A   1      36.915  30.023  27.245  1.00  0.00     0.016 A 
ATOM     27  C   UNL A   1      38.715  29.063  30.189  1.00  0.00     0.010 A 
ATOM     28  C   UNL A   1      38.664  29.720  27.228  1.00  0.00     0.010 A 
ATOM     29  C   UNL A   1      39.615  29.232  28.633  1.00  0.00    -0.014 A 
BRANCH  29  30
ATOM     30  C   UNL A   1      41.058  28.763  28.464  1.00  0.00     0.031 A 
ATOM     31  C   UNL A   1      42.239  29.713  28.579  1.00  0.00     0.074 A 
ATOM     32  C   UNL A   1      41.354  27.508  28.048  1.00  0.00     0.049 A 
ATOM     33  N   UNL A   1      43.481  29.545  28.180  1.00  0.00    -0.248 NA
ATOM     34  C   UNL A   1      41.984  31.054  29.117  1.00  0.00     0.031 C 
ATOM     35  C   UNL A   1      40.390  26.492  27.669  1.00  0.00     0.029 A 
ATOM     36  N   UNL A   1      42.555  26.853  27.856  1.00  0.00    -0.354 N 
ATOM     37  C   UNL A   1      44.101  30.787  28.298  1.00  0.00     0.074 A 
ATOM     38  C   UNL A   1      43.078  31.707  28.750  1.00  0.00     0.031 C 
ATOM     39  C   UNL A   1      40.984  25.319  27.450  1.00  0.00     0.029 A 
ATOM     40  C   UNL A   1      42.415  25.518  27.528  1.00  0.00     0.049 A 
ATOM     41  H   UNL A   1      43.430  27.295  27.945  1.00  0.00     0.167 HD
ATOM     42  C   UNL A   1      45.400  31.129  28.096  1.00  0.00     0.037 A 
ATOM     43  C   UNL A   1      43.308  24.544  27.275  1.00  0.00     0.037 A 
ATOM     44  C   UNL A   1      46.454  30.182  27.812  1.00  0.00     0.049 A 
ATOM     45  C   UNL A   1      44.758  24.896  27.254  1.00  0.00     0.074 A 
ATOM     46  C   UNL A   1      47.819  30.407  27.720  1.00  0.00     0.029 A 
ATOM     47  N   UNL A   1      46.268  28.820  27.624  1.00  0.00    -0.354 N 
ATOM     48  N   UNL A   1      45.312  26.074  27.377  1.00  0.00    -0.248 NA
ATOM     49  C   UNL A   1      45.703  23.794  27.044  1.00  0.00     0.031 C 
ATOM     50  C   UNL A   1      48.456  29.184  27.477  1.00  0.00     0.029 A 
ATOM     51  C   UNL A   1      47.493  28.190  27.450  1.00  0.00     0.049 A 
ATOM     52  H   UNL A   1      45.394  28.365  27.617  1.00  0.00     0.167 HD
ATOM     53  C   UNL A   1      46.675  25.859  27.270  1.00  0.00     0.074 A 
ATOM     54  C   UNL A   1      46.863  24.431  27.106  1.00  0.00     0.031 C 
ATOM     55  C   UNL A   1      47.676  26.770  27.293  1.00  0.00     0.037 A 
BRANCH  42  56
ATOM     56  C   UNL A   1      45.770  32.589  28.218  1.00  0.00     0.057 A 
ATOM     57  C   UNL A   1      46.172  33.162  29.433  1.00  0.00     0.134 A 
ATOM     58  C   UNL A   1      45.735  33.436  27.100  1.00  0.00     0.134 A 
ATOM     59  F   UNL A   1      46.241  32.414  30.546  1.00  0.00    -0.206 F 
ATOM     60  C   UNL A   1      46.454  34.524  29.549  1.00  0.00     0.040 A 
ATOM     61  C   UNL A   1      46.058  34.793  27.194  1.00  0.00     0.040 A 
ATOM     62  F   UNL A   1      45.393  32.961  25.893  1.00  0.00    -0.206 F 
ATOM     63  C   UNL A   1      46.399  35.345  28.426  1.00  0.00     0.006 A 
ENDBRANCH  42  56
BRANCH  43  64
ATOM     64  C   UNL A   1      42.849  23.143  27.064  1.00  0.00     0.057 A 
ATOM     65  C   UNL A   1      42.476  22.347  28.156  1.00  0.00     0.134 A 
ATOM     66  C   UNL A   1      42.720  22.578  25.789  1.00  0.00     0.134 A 
ATOM     67  F   UNL A   1      42.588  22.824  29.405  1.00  0.00    -0.206 F 
ATOM     68  C   UNL A   1      42.008  21.044  27.990  1.00  0.00     0.040 A 
ATOM     69  C   UNL A   1      42.217  21.288  25.606  1.00  0.00     0.040 A 
ATOM     70  F   UNL A   1      43.036  23.291  24.697  1.00  0.00    -0.206 F 
ATOM     71  C   UNL A   1      41.866  20.514  26.710  1.00  0.00     0.006 A 
ENDBRANCH  43  64
BRANCH  55  72
ATOM     72  C   UNL A   1      49.069  26.226  27.193  1.00  0.00     0.057 A 
ATOM     73  C   UNL A   1      49.834  25.929  28.329  1.00  0.00     0.134 A 
ATOM     74  C   UNL A   1      49.664  26.035  25.941  1.00  0.00     0.134 A 
ATOM     75  F   UNL A   1      49.327  26.116  29.557  1.00  0.00    -0.206 F 
ATOM     76  C   UNL A   1      51.156  25.499  28.223  1.00  0.00     0.040 A 
ATOM     77  C   UNL A   1      50.977  25.578  25.822  1.00  0.00     0.040 A 
ATOM     78  F   UNL A   1      48.985  26.301  24.815  1.00  0.00    -0.206 F 
ATOM     79  C   UNL A   1      51.730  25.320  26.965  1.00  0.00     0.006 A 
ENDBRANCH  55  72
ENDBRANCH  29  30
ENDBRANCH  22  24
ENDBRANCH  21  22
ENDBRANCH   1  21
TORSDOF 12
ENDMDL
MODEL 2
REMARK VINA RESULT:     -11.3      4.104      7.527
REMARK SMILES Cc1cc(C)cc(-c2cccc(Cl)c2C(=O)OCCOC(=O)c2ccc(-c3c4nc(c(-c5c(F)cccc5F)c5ccc([nH]5)c(-c5c(F)cccc5F)c5nc(c(-c6c(F)cccc6F)c6ccc3[nH]6)C=C5)C=C4)cc2)c1
REMARK SMILES IDX 19 1 18 2 17 3 15 4 16 5 14 6 8 7 9 8 10 9 12 10 11 11 13 12
REMARK SMILES IDX 7 13 1 14 2 15 3 16 77 17 4 18 5 19 6 20 20 21 21 22 22 23
REMARK SMILES IDX 23 24 24 25 76 26 25 27 75 28 26 29 27 30 28 31 69 32 29 33
REMARK SMILES IDX 74 34 68 35 70 36 30 37 73 38 67 39 66 40 31 42 57 43 40 44
REMARK SMILES IDX 56 45 41 46 44 47 55 48 71 49 42 50 43 51 54 53 72 54 45 55
REMARK SMILES IDX 32 56 33 57 38 58 34 59 35 60 37 61 39 62 36 63 58 64 59 65
REMARK SMILES IDX 64 66 60 67 61 68 63 69 65 70 62 71 46 72 47 73 52 74 48 75
REMARK SMILES IDX 49 76 51 77 53 78 50 79
REMARK H PARENT 70 41 44 52
REMARK Flexibility Score: inf
ROOT
ATOM      1  C   UNL A   1      31.532  29.267  25.000  1.00  0.00     0.275 C 
ENDROOT
BRANCH   1   2
ATOM      2  C   UNL A   1      31.443  28.084  25.957  1.00  0.00     0.275 C 
BRANCH   2   3
ATOM      3  O   UNL A   1      32.199  26.965  25.436  1.00  0.00    -0.458 OA
BRANCH   3   4
ATOM      4  C   UNL A   1      31.482  25.889  25.026  1.00  0.00     0.340 C 
ATOM      5  O   UNL A   1      30.778  25.178  25.725  1.00  0.00    -0.246 OA
BRANCH   4   6
ATOM      6  C   UNL A   1      31.754  25.590  23.600  1.00  0.00     0.086 A 
ATOM      7  C   UNL A   1      32.843  24.761  23.186  1.00  0.00    -0.002 A 
ATOM      8  C   UNL A   1      33.189  24.770  21.825  1.00  0.00     0.010 A 
ATOM      9  C   UNL A   1      32.486  25.553  20.903  1.00  0.00     0.002 A 
ATOM     10  C   UNL A   1      31.036  26.352  22.658  1.00  0.00     0.056 A 
ATOM     11  C   UNL A   1      31.405  26.328  21.314  1.00  0.00     0.021 A 
ATOM     12  Cl  UNL A   1      29.745  27.429  23.088  1.00  0.00    -0.083 Cl
BRANCH   7  13
ATOM     13  C   UNL A   1      33.753  24.087  24.137  1.00  0.00    -0.017 A 
ATOM     14  C   UNL A   1      34.615  19.853  25.001  1.00  0.00     0.044 C 
ATOM     15  C   UNL A   1      34.979  21.295  24.756  1.00  0.00    -0.050 A 
ATOM     16  C   UNL A   1      36.424  21.914  25.523  1.00  0.00     0.006 A 
ATOM     17  C   UNL A   1      33.717  22.328  24.085  1.00  0.00     0.012 A 
ATOM     18  C   UNL A   1      36.626  23.703  25.727  1.00  0.00    -0.050 A 
ATOM     19  C   UNL A   1      37.991  23.799  26.491  1.00  0.00     0.044 C 
ATOM     20  C   UNL A   1      35.137  24.886  25.005  1.00  0.00     0.012 A 
ENDBRANCH   7  13
ENDBRANCH   4   6
ENDBRANCH   3   4
ENDBRANCH   2   3
ENDBRANCH   1   2
BRANCH   1  21
ATOM     21  O   UNL A   1      32.668  30.062  25.373  1.00  0.00    -0.458 OA
BRANCH  21  22
ATOM     22  C   UNL A   1      32.376  30.949  26.339  1.00  0.00     0.338 C 
ATOM     23  O   UNL A   1      31.381  31.655  26.428  1.00  0.00    -0.246 OA
BRANCH  22  24
ATOM     24  C   UNL A   1      33.378  30.964  27.395  1.00  0.00     0.060 A 
ATOM     25  C   UNL A   1      34.360  32.429  27.759  1.00  0.00     0.016 A 
ATOM     26  C   UNL A   1      34.097  29.388  27.682  1.00  0.00     0.016 A 
ATOM     27  C   UNL A   1      36.248  32.148  28.446  1.00  0.00     0.010 A 
ATOM     28  C   UNL A   1      35.727  29.162  28.348  1.00  0.00     0.010 A 
ATOM     29  C   UNL A   1      36.836  30.471  28.761  1.00  0.00    -0.014 A 
BRANCH  29  30
ATOM     30  C   UNL A   1      38.111  30.183  29.549  1.00  0.00     0.031 A 
ATOM     31  C   UNL A   1      39.246  29.346  28.981  1.00  0.00     0.074 A 
ATOM     32  C   UNL A   1      38.234  30.527  30.854  1.00  0.00     0.049 A 
ATOM     33  N   UNL A   1      40.248  28.769  29.609  1.00  0.00    -0.248 NA
ATOM     34  C   UNL A   1      39.206  29.030  27.549  1.00  0.00     0.031 C 
ATOM     35  C   UNL A   1      37.202  31.141  31.669  1.00  0.00     0.029 A 
ATOM     36  N   UNL A   1      39.278  30.407  31.751  1.00  0.00    -0.354 N 
ATOM     37  C   UNL A   1      40.862  27.933  28.680  1.00  0.00     0.074 A 
ATOM     38  C   UNL A   1      40.080  28.036  27.466  1.00  0.00     0.031 C 
ATOM     39  C   UNL A   1      37.675  31.492  32.864  1.00  0.00     0.029 A 
ATOM     40  C   UNL A   1      39.029  30.996  32.976  1.00  0.00     0.049 A 
ATOM     41  H   UNL A   1      40.120  29.944  31.539  1.00  0.00     0.167 HD
ATOM     42  C   UNL A   1      41.988  27.183  28.802  1.00  0.00     0.037 A 
ATOM     43  C   UNL A   1      39.765  31.113  34.096  1.00  0.00     0.037 A 
ATOM     44  C   UNL A   1      42.862  27.212  29.953  1.00  0.00     0.049 A 
ATOM     45  C   UNL A   1      41.099  30.447  34.144  1.00  0.00     0.074 A 
ATOM     46  C   UNL A   1      44.091  26.594  30.123  1.00  0.00     0.029 A 
ATOM     47  N   UNL A   1      42.624  27.936  31.113  1.00  0.00    -0.354 N 
ATOM     48  N   UNL A   1      41.655  29.671  33.249  1.00  0.00    -0.248 NA
ATOM     49  C   UNL A   1      41.901  30.655  35.355  1.00  0.00     0.031 C 
ATOM     50  C   UNL A   1      44.594  26.943  31.382  1.00  0.00     0.029 A 
ATOM     51  C   UNL A   1      43.696  27.806  31.985  1.00  0.00     0.049 A 
ATOM     52  H   UNL A   1      41.813  28.467  31.290  1.00  0.00     0.167 HD
ATOM     53  C   UNL A   1      42.879  29.303  33.781  1.00  0.00     0.074 A 
ATOM     54  C   UNL A   1      42.996  29.970  35.063  1.00  0.00     0.031 C 
ATOM     55  C   UNL A   1      43.812  28.475  33.256  1.00  0.00     0.037 A 
BRANCH  42  56
ATOM     56  C   UNL A   1      42.371  26.296  27.641  1.00  0.00     0.057 A 
ATOM     57  C   UNL A   1      41.916  24.975  27.524  1.00  0.00     0.134 A 
ATOM     58  C   UNL A   1      43.201  26.773  26.614  1.00  0.00     0.134 A 
ATOM     59  F   UNL A   1      41.110  24.449  28.460  1.00  0.00    -0.206 F 
ATOM     60  C   UNL A   1      42.323  24.143  26.478  1.00  0.00     0.040 A 
ATOM     61  C   UNL A   1      43.581  25.963  25.539  1.00  0.00     0.040 A 
ATOM     62  F   UNL A   1      43.654  28.035  26.633  1.00  0.00    -0.206 F 
ATOM     63  C   UNL A   1      43.158  24.638  25.480  1.00  0.00     0.006 A 
ENDBRANCH  42  56
BRANCH  43  64
ATOM     64  C   UNL A   1      39.266  31.926  35.240  1.00  0.00     0.057 A 
ATOM     65  C   UNL A   1      39.538  33.300  35.305  1.00  0.00     0.134 A 
ATOM     66  C   UNL A   1      38.472  31.383  36.258  1.00  0.00     0.134 A 
ATOM     67  F   UNL A   1      40.304  33.879  34.368  1.00  0.00    -0.206 F 
ATOM     68  C   UNL A   1      39.055  34.097  36.343  1.00  0.00     0.040 A 
ATOM     69  C   UNL A   1      37.951  32.177  37.283  1.00  0.00     0.040 A 
ATOM     70  F   UNL A   1      38.152  30.081  36.246  1.00  0.00    -0.206 F 
ATOM     71  C   UNL A   1      38.248  33.537  37.331  1.00  0.00     0.006 A 
ENDBRANCH  43  64
BRANCH  55  72
ATOM     72  C   UNL A   1      45.066  28.299  34.055  1.00  0.00     0.057 A 
ATOM     73  C   UNL A   1      46.186  29.120  33.871  1.00  0.00     0.134 A 
ATOM     74  C   UNL A   1      45.166  27.266  34.995  1.00  0.00     0.134 A 
ATOM     75  F   UNL A   1      46.161  30.111  32.966  1.00  0.00    -0.206 F 
ATOM     76  C   UNL A   1      47.375  28.895  34.565  1.00  0.00     0.040 A 
ATOM     77  C   UNL A   1      46.340  27.050  35.715  1.00  0.00     0.040 A 
ATOM     78  F   UNL A   1      44.128  26.445  35.218  1.00  0.00    -0.206 F 
ATOM     79  C   UNL A   1      47.453  27.858  35.493  1.00  0.00     0.006 A 
ENDBRANCH  55  72
ENDBRANCH  29  30
ENDBRANCH  22  24
ENDBRANCH  21  22
ENDBRANCH   1  21
TORSDOF 12
ENDMDL
MODEL 3
REMARK VINA RESULT:     -11.2      0.458      6.318
REMARK SMILES Cc1cc(C)cc(-c2cccc(Cl)c2C(=O)OCCOC(=O)c2ccc(-c3c4nc(c(-c5c(F)cccc5F)c5ccc([nH]5)c(-c5c(F)cccc5F)c5nc(c(-c6c(F)cccc6F)c6ccc3[nH]6)C=C5)C=C4)cc2)c1
REMARK SMILES IDX 19 1 18 2 17 3 15 4 16 5 14 6 8 7 9 8 10 9 12 10 11 11 13 12
REMARK SMILES IDX 7 13 1 14 2 15 3 16 77 17 4 18 5 19 6 20 20 21 21 22 22 23
REMARK SMILES IDX 23 24 24 25 76 26 25 27 75 28 26 29 27 30 28 31 69 32 29 33
REMARK SMILES IDX 74 34 68 35 70 36 30 37 73 38 67 39 66 40 31 42 57 43 40 44
REMARK SMILES IDX 56 45 41 46 44 47 55 48 71 49 42 50 43 51 54 53 72 54 45 55
REMARK SMILES IDX 32 56 33 57 38 58 34 59 35 60 37 61 39 62 36 63 58 64 59 65
REMARK SMILES IDX 64 66 60 67 61 68 63 69 65 70 62 71 46 72 47 73 52 74 48 75
REMARK SMILES IDX 49 76 51 77 53 78 50 79
REMARK H PARENT 70 41 44 52
REMARK Flexibility Score: inf
ROOT
ATOM      1  C   UNL A   1      34.083  28.723  27.297  1.00  0.00     0.275 C 
ENDROOT
BRANCH   1   2
ATOM      2  C   UNL A   1      32.787  28.042  26.873  1.00  0.00     0.275 C 
BRANCH   2   3
ATOM      3  O   UNL A   1      33.077  26.892  26.043  1.00  0.00    -0.458 OA
BRANCH   3   4
ATOM      4  C   UNL A   1      32.026  26.098  25.720  1.00  0.00     0.340 C 
ATOM      5  O   UNL A   1      31.269  25.544  26.502  1.00  0.00    -0.246 OA
BRANCH   4   6
ATOM      6  C   UNL A   1      31.968  25.874  24.257  1.00  0.00     0.086 A 
ATOM      7  C   UNL A   1      32.746  24.865  23.605  1.00  0.00    -0.002 A 
ATOM      8  C   UNL A   1      32.842  24.918  22.205  1.00  0.00     0.010 A 
ATOM      9  C   UNL A   1      32.189  25.914  21.471  1.00  0.00     0.002 A 
ATOM     10  C   UNL A   1      31.293  26.853  23.504  1.00  0.00     0.056 A 
ATOM     11  C   UNL A   1      31.405  26.868  22.115  1.00  0.00     0.021 A 
ATOM     12  Cl  UNL A   1      30.382  28.146  24.220  1.00  0.00    -0.083 Cl
BRANCH   7  13
ATOM     13  C   UNL A   1      33.627  23.928  24.334  1.00  0.00    -0.017 A 
ATOM     14  C   UNL A   1      33.556  19.561  24.920  1.00  0.00     0.044 C 
ATOM     15  C   UNL A   1      34.213  20.886  24.633  1.00  0.00    -0.050 A 
ATOM     16  C   UNL A   1      35.888  21.085  25.095  1.00  0.00     0.006 A 
ATOM     17  C   UNL A   1      33.142  22.237  24.257  1.00  0.00     0.012 A 
ATOM     18  C   UNL A   1      36.567  22.753  25.288  1.00  0.00    -0.050 A 
ATOM     19  C   UNL A   1      38.035  22.464  25.753  1.00  0.00     0.044 C 
ATOM     20  C   UNL A   1      35.309  24.308  24.911  1.00  0.00     0.012 A 
ENDBRANCH   7  13
ENDBRANCH   4   6
ENDBRANCH   3   4
ENDBRANCH   2   3
ENDBRANCH   1   2
BRANCH   1  21
ATOM     21  O   UNL A   1      33.768  30.057  27.728  1.00  0.00    -0.458 OA
BRANCH  21  22
ATOM     22  C   UNL A   1      34.788  30.634  28.386  1.00  0.00     0.338 C 
ATOM     23  O   UNL A   1      34.781  31.697  28.991  1.00  0.00    -0.246 OA
BRANCH  22  24
ATOM     24  C   UNL A   1      35.984  29.803  28.385  1.00  0.00     0.060 A 
ATOM     25  C   UNL A   1      36.818  29.328  29.910  1.00  0.00     0.016 A 
ATOM     26  C   UNL A   1      36.951  29.992  26.932  1.00  0.00     0.016 A 
ATOM     27  C   UNL A   1      38.829  29.078  29.842  1.00  0.00     0.010 A 
ATOM     28  C   UNL A   1      38.701  29.702  26.877  1.00  0.00     0.010 A 
ATOM     29  C   UNL A   1      39.690  29.236  28.263  1.00  0.00    -0.014 A 
BRANCH  29  30
ATOM     30  C   UNL A   1      41.131  28.777  28.065  1.00  0.00     0.031 A 
ATOM     31  C   UNL A   1      41.483  27.355  27.658  1.00  0.00     0.074 A 
ATOM     32  C   UNL A   1      42.182  29.568  28.392  1.00  0.00     0.049 A 
ATOM     33  N   UNL A   1      42.639  26.731  27.732  1.00  0.00    -0.248 NA
ATOM     34  C   UNL A   1      40.390  26.489  27.202  1.00  0.00     0.031 C 
ATOM     35  C   UNL A   1      42.094  30.884  29.000  1.00  0.00     0.029 A 
ATOM     36  N   UNL A   1      43.547  29.394  28.276  1.00  0.00    -0.354 N 
ATOM     37  C   UNL A   1      42.377  25.390  27.463  1.00  0.00     0.074 A 
ATOM     38  C   UNL A   1      40.944  25.287  27.283  1.00  0.00     0.031 C 
ATOM     39  C   UNL A   1      43.290  31.468  29.062  1.00  0.00     0.029 A 
ATOM     40  C   UNL A   1      44.282  30.510  28.628  1.00  0.00     0.049 A 
ATOM     41  H   UNL A   1      43.959  28.554  27.971  1.00  0.00     0.167 HD
ATOM     42  C   UNL A   1      43.240  24.349  27.334  1.00  0.00     0.037 A 
ATOM     43  C   UNL A   1      45.604  30.760  28.649  1.00  0.00     0.037 A 
ATOM     44  C   UNL A   1      44.679  24.482  27.343  1.00  0.00     0.049 A 
ATOM     45  C   UNL A   1      46.543  29.652  28.306  1.00  0.00     0.074 A 
ATOM     46  C   UNL A   1      45.639  23.514  27.090  1.00  0.00     0.029 A 
ATOM     47  N   UNL A   1      45.366  25.666  27.571  1.00  0.00    -0.354 N 
ATOM     48  N   UNL A   1      46.266  28.400  28.048  1.00  0.00    -0.248 NA
ATOM     49  C   UNL A   1      47.972  29.982  28.271  1.00  0.00     0.031 C 
ATOM     50  C   UNL A   1      46.903  24.112  27.166  1.00  0.00     0.029 A 
ATOM     51  C   UNL A   1      46.732  25.459  27.432  1.00  0.00     0.049 A 
ATOM     52  H   UNL A   1      44.946  26.527  27.796  1.00  0.00     0.167 HD
ATOM     53  C   UNL A   1      47.486  27.789  27.810  1.00  0.00     0.074 A 
ATOM     54  C   UNL A   1      48.499  28.818  27.921  1.00  0.00     0.031 C 
ATOM     55  C   UNL A   1      47.737  26.487  27.537  1.00  0.00     0.037 A 
BRANCH  42  56
ATOM     56  C   UNL A   1      42.655  22.972  27.124  1.00  0.00     0.057 A 
ATOM     57  C   UNL A   1      42.171  22.193  28.184  1.00  0.00     0.134 A 
ATOM     58  C   UNL A   1      42.560  22.419  25.837  1.00  0.00     0.134 A 
ATOM     59  F   UNL A   1      42.216  22.657  29.444  1.00  0.00    -0.206 F 
ATOM     60  C   UNL A   1      41.687  20.898  27.988  1.00  0.00     0.040 A 
ATOM     61  C   UNL A   1      42.037  21.140  25.623  1.00  0.00     0.040 A 
ATOM     62  F   UNL A   1      42.970  23.111  24.764  1.00  0.00    -0.206 F 
ATOM     63  C   UNL A   1      41.617  20.368  26.702  1.00  0.00     0.006 A 
ENDBRANCH  42  56
BRANCH  43  64
ATOM     64  C   UNL A   1      46.104  32.126  28.967  1.00  0.00     0.057 A 
ATOM     65  C   UNL A   1      46.230  33.088  27.955  1.00  0.00     0.134 A 
ATOM     66  C   UNL A   1      46.417  32.527  30.272  1.00  0.00     0.134 A 
ATOM     67  F   UNL A   1      45.959  32.765  26.682  1.00  0.00    -0.206 F 
ATOM     68  C   UNL A   1      46.660  34.388  28.226  1.00  0.00     0.040 A 
ATOM     69  C   UNL A   1      46.813  33.835  30.562  1.00  0.00     0.040 A 
ATOM     70  F   UNL A   1      46.297  31.665  31.293  1.00  0.00    -0.206 F 
ATOM     71  C   UNL A   1      46.942  34.767  29.536  1.00  0.00     0.006 A 
ENDBRANCH  43  64
BRANCH  55  72
ATOM     72  C   UNL A   1      49.169  26.128  27.284  1.00  0.00     0.057 A 
ATOM     73  C   UNL A   1      50.056  25.832  28.327  1.00  0.00     0.134 A 
ATOM     74  C   UNL A   1      49.675  26.118  25.979  1.00  0.00     0.134 A 
ATOM     75  F   UNL A   1      49.637  25.850  29.602  1.00  0.00    -0.206 F 
ATOM     76  C   UNL A   1      51.406  25.578  28.084  1.00  0.00     0.040 A 
ATOM     77  C   UNL A   1      51.016  25.838  25.721  1.00  0.00     0.040 A 
ATOM     78  F   UNL A   1      48.876  26.394  24.936  1.00  0.00    -0.206 F 
ATOM     79  C   UNL A   1      51.889  25.578  26.776  1.00  0.00     0.006 A 
ENDBRANCH  55  72
ENDBRANCH  29  30
ENDBRANCH  22  24
ENDBRANCH  21  22
ENDBRANCH   1  21
TORSDOF 12
ENDMDL
