MODEL 1
REMARK VINA RESULT:     -12.5      0.000      0.000
REMARK SMILES Cc1ccc(-c2cc(Cl)ccc2Cl)c(C(=O)OCCOC(=O)c2ccc(-c3c4nc(c(-c5c(F)cccc5F)c5ccc([nH]5)c(-c5c(F)cccc5F)c5nc(c(-c6c(F)cccc6F)c6ccc3[nH]6)C=C5)C=C4)cc2)c1
REMARK SMILES IDX 19 1 18 2 17 3 15 4 16 5 14 6 1 7 2 8 3 9 77 10 4 11 5 12
REMARK SMILES IDX 6 13 7 14 12 15 8 16 11 17 13 18 9 19 10 20 20 21 21 22
REMARK SMILES IDX 22 23 23 24 24 25 76 26 25 27 75 28 26 29 27 30 28 31 69 32
REMARK SMILES IDX 29 33 74 34 68 35 70 36 30 37 73 38 67 39 66 40 31 42 57 43
REMARK SMILES IDX 40 44 56 45 41 46 44 47 55 48 71 49 42 50 43 51 54 53 72 54
REMARK SMILES IDX 45 55 32 56 33 57 38 58 34 59 35 60 37 61 39 62 36 63 58 64
REMARK SMILES IDX 59 65 64 66 60 67 61 68 63 69 65 70 62 71 46 72 47 73 52 74
REMARK SMILES IDX 48 75 49 76 51 77 53 78 50 79
REMARK H PARENT 70 41 44 52
REMARK Flexibility Score: inf
ROOT
ATOM      1  C   UNL A   1      33.348  30.426  26.876  1.00  0.00     0.275 C 
ENDROOT
BRANCH   1   2
ATOM      2  C   UNL A   1      32.095  29.556  27.091  1.00  0.00     0.275 C 
BRANCH   2   3
ATOM      3  O   UNL A   1      32.319  28.121  27.181  1.00  0.00    -0.458 OA
BRANCH   3   4
ATOM      4  C   UNL A   1      31.502  27.431  26.332  1.00  0.00     0.338 C 
ATOM      5  O   UNL A   1      30.615  26.674  26.718  1.00  0.00    -0.246 OA
BRANCH   4   6
ATOM      6  C   UNL A   1      31.890  27.329  24.903  1.00  0.00     0.068 A 
ATOM      7  C   UNL A   1      34.323  24.693  23.565  1.00  0.00     0.044 C 
ATOM      8  C   UNL A   1      33.333  25.815  23.594  1.00  0.00    -0.050 A 
ATOM      9  C   UNL A   1      32.719  26.256  22.435  1.00  0.00     0.004 A 
ATOM     10  C   UNL A   1      32.967  26.409  24.800  1.00  0.00     0.019 A 
ATOM     11  C   UNL A   1      31.715  27.221  22.506  1.00  0.00     0.010 A 
ATOM     12  C   UNL A   1      31.197  27.723  23.732  1.00  0.00    -0.002 A 
BRANCH  12  13
ATOM     13  C   UNL A   1      29.942  28.519  23.586  1.00  0.00     0.003 A 
ATOM     14  C   UNL A   1      29.971  29.913  23.380  1.00  0.00     0.030 A 
ATOM     15  C   UNL A   1      28.662  27.893  23.484  1.00  0.00     0.049 A 
ATOM     16  C   UNL A   1      28.793  30.633  23.099  1.00  0.00     0.041 A 
ATOM     17  C   UNL A   1      27.501  28.615  23.165  1.00  0.00     0.023 A 
ATOM     18  Cl  UNL A   1      28.416  26.197  23.784  1.00  0.00    -0.084 Cl
ATOM     19  Cl  UNL A   1      28.842  32.339  22.876  1.00  0.00    -0.084 Cl
ATOM     20  C   UNL A   1      27.564  29.990  22.986  1.00  0.00     0.022 A 
ENDBRANCH  12  13
ENDBRANCH   4   6
ENDBRANCH   3   4
ENDBRANCH   2   3
ENDBRANCH   1   2
BRANCH   1  21
ATOM     21  O   UNL A   1      34.657  29.952  27.267  1.00  0.00    -0.458 OA
BRANCH  21  22
ATOM     22  C   UNL A   1      35.551  30.815  27.779  1.00  0.00     0.338 C 
ATOM     23  O   UNL A   1      35.372  32.022  27.866  1.00  0.00    -0.246 OA
BRANCH  22  24
ATOM     24  C   UNL A   1      36.786  30.144  28.204  1.00  0.00     0.060 A 
ATOM     25  C   UNL A   1      36.733  29.349  29.356  1.00  0.00     0.016 A 
ATOM     26  C   UNL A   1      37.901  30.148  27.370  1.00  0.00     0.016 A 
ATOM     27  C   UNL A   1      37.744  28.456  29.645  1.00  0.00     0.010 A 
ATOM     28  C   UNL A   1      38.893  29.241  27.626  1.00  0.00     0.010 A 
ATOM     29  C   UNL A   1      38.818  28.434  28.778  1.00  0.00    -0.014 A 
BRANCH  29  30
ATOM     30  C   UNL A   1      40.072  27.828  29.147  1.00  0.00     0.031 A 
ATOM     31  C   UNL A   1      40.427  26.485  28.676  1.00  0.00     0.074 A 
ATOM     32  C   UNL A   1      40.879  28.788  29.645  1.00  0.00     0.049 A 
ATOM     33  N   UNL A   1      41.504  25.873  29.015  1.00  0.00    -0.248 NA
ATOM     34  C   UNL A   1      39.564  25.652  27.840  1.00  0.00     0.031 C 
ATOM     35  C   UNL A   1      42.310  28.977  29.547  1.00  0.00     0.029 A 
ATOM     36  N   UNL A   1      40.455  29.877  30.412  1.00  0.00    -0.354 N 
ATOM     37  C   UNL A   1      41.664  24.827  28.128  1.00  0.00     0.074 A 
ATOM     38  C   UNL A   1      40.355  24.604  27.583  1.00  0.00     0.031 C 
ATOM     39  C   UNL A   1      42.678  29.942  30.416  1.00  0.00     0.029 A 
ATOM     40  C   UNL A   1      41.512  30.276  31.227  1.00  0.00     0.049 A 
ATOM     41  H   UNL A   1      39.562  30.291  30.382  1.00  0.00     0.167 HD
ATOM     42  C   UNL A   1      42.941  24.459  27.817  1.00  0.00     0.037 A 
ATOM     43  C   UNL A   1      41.406  30.025  32.571  1.00  0.00     0.037 A 
ATOM     44  C   UNL A   1      43.862  25.206  28.680  1.00  0.00     0.049 A 
ATOM     45  C   UNL A   1      42.325  28.896  32.966  1.00  0.00     0.074 A 
ATOM     46  C   UNL A   1      44.568  26.378  28.470  1.00  0.00     0.029 A 
ATOM     47  N   UNL A   1      43.807  25.014  30.058  1.00  0.00    -0.354 N 
ATOM     48  N   UNL A   1      42.670  27.912  32.179  1.00  0.00    -0.248 NA
ATOM     49  C   UNL A   1      42.993  28.861  34.258  1.00  0.00     0.031 C 
ATOM     50  C   UNL A   1      44.840  26.948  29.744  1.00  0.00     0.029 A 
ATOM     51  C   UNL A   1      44.307  26.120  30.720  1.00  0.00     0.049 A 
ATOM     52  H   UNL A   1      43.461  24.204  30.498  1.00  0.00     0.167 HD
ATOM     53  C   UNL A   1      43.659  27.187  32.784  1.00  0.00     0.074 A 
ATOM     54  C   UNL A   1      43.810  27.809  34.090  1.00  0.00     0.031 C 
ATOM     55  C   UNL A   1      44.325  26.162  32.175  1.00  0.00     0.037 A 
BRANCH  42  56
ATOM     56  C   UNL A   1      43.411  23.707  26.583  1.00  0.00     0.057 A 
ATOM     57  C   UNL A   1      43.355  22.294  26.570  1.00  0.00     0.134 A 
ATOM     58  C   UNL A   1      43.997  24.258  25.429  1.00  0.00     0.134 A 
ATOM     59  F   UNL A   1      42.790  21.605  27.571  1.00  0.00    -0.206 F 
ATOM     60  C   UNL A   1      43.880  21.507  25.534  1.00  0.00     0.040 A 
ATOM     61  C   UNL A   1      44.517  23.481  24.379  1.00  0.00     0.040 A 
ATOM     62  F   UNL A   1      44.106  25.574  25.234  1.00  0.00    -0.206 F 
ATOM     63  C   UNL A   1      44.471  22.100  24.433  1.00  0.00     0.006 A 
ENDBRANCH  42  56
BRANCH  43  64
ATOM     64  C   UNL A   1      40.000  30.191  33.061  1.00  0.00     0.057 A 
ATOM     65  C   UNL A   1      39.471  31.499  33.085  1.00  0.00     0.134 A 
ATOM     66  C   UNL A   1      39.091  29.137  32.955  1.00  0.00     0.134 A 
ATOM     67  F   UNL A   1      40.289  32.552  33.232  1.00  0.00    -0.206 F 
ATOM     68  C   UNL A   1      38.136  31.757  32.773  1.00  0.00     0.040 A 
ATOM     69  C   UNL A   1      37.754  29.389  32.652  1.00  0.00     0.040 A 
ATOM     70  F   UNL A   1      39.498  27.861  32.978  1.00  0.00    -0.206 F 
ATOM     71  C   UNL A   1      37.290  30.696  32.495  1.00  0.00     0.006 A 
ENDBRANCH  43  64
BRANCH  55  72
ATOM     72  C   UNL A   1      45.174  25.160  32.908  1.00  0.00     0.057 A 
ATOM     73  C   UNL A   1      46.491  25.413  33.316  1.00  0.00     0.134 A 
ATOM     74  C   UNL A   1      44.626  23.940  33.361  1.00  0.00     0.134 A 
ATOM     75  F   UNL A   1      47.083  26.595  33.101  1.00  0.00    -0.206 F 
ATOM     76  C   UNL A   1      47.247  24.472  34.020  1.00  0.00     0.040 A 
ATOM     77  C   UNL A   1      45.345  23.031  34.134  1.00  0.00     0.040 A 
ATOM     78  F   UNL A   1      43.359  23.587  33.100  1.00  0.00    -0.206 F 
ATOM     79  C   UNL A   1      46.672  23.281  34.439  1.00  0.00     0.006 A 
ENDBRANCH  55  72
ENDBRANCH  29  30
ENDBRANCH  22  24
ENDBRANCH  21  22
ENDBRANCH   1  21
TORSDOF 12
ENDMDL
MODEL 2
REMARK VINA RESULT:     -12.4      0.784      1.553
REMARK SMILES Cc1ccc(-c2cc(Cl)ccc2Cl)c(C(=O)OCCOC(=O)c2ccc(-c3c4nc(c(-c5c(F)cccc5F)c5ccc([nH]5)c(-c5c(F)cccc5F)c5nc(c(-c6c(F)cccc6F)c6ccc3[nH]6)C=C5)C=C4)cc2)c1
REMARK SMILES IDX 19 1 18 2 17 3 15 4 16 5 14 6 1 7 2 8 3 9 77 10 4 11 5 12
REMARK SMILES IDX 6 13 7 14 12 15 8 16 11 17 13 18 9 19 10 20 20 21 21 22
REMARK SMILES IDX 22 23 23 24 24 25 76 26 25 27 75 28 26 29 27 30 28 31 69 32
REMARK SMILES IDX 29 33 74 34 68 35 70 36 30 37 73 38 67 39 66 40 31 42 57 43
REMARK SMILES IDX 40 44 56 45 41 46 44 47 55 48 71 49 42 50 43 51 54 53 72 54
REMARK SMILES IDX 45 55 32 56 33 57 38 58 34 59 35 60 37 61 39 62 36 63 58 64
REMARK SMILES IDX 59 65 64 66 60 67 61 68 63 69 65 70 62 71 46 72 47 73 52 74
REMARK SMILES IDX 48 75 49 76 51 77 53 78 50 79
REMARK H PARENT 70 41 44 52
REMARK Flexibility Score: inf
ROOT
ATOM      1  C   UNL A   1      32.904  30.465  26.975  1.00  0.00     0.275 C 
ENDROOT
BRANCH   1   2
ATOM      2  C   UNL A   1      31.744  29.449  26.968  1.00  0.00     0.275 C 
BRANCH   2   3
ATOM      3  O   UNL A   1      32.118  28.050  27.117  1.00  0.00    -0.458 OA
BRANCH   3   4
ATOM      4  C   UNL A   1      31.434  27.252  26.245  1.00  0.00     0.338 C 
ATOM      5  O   UNL A   1      30.650  26.378  26.606  1.00  0.00    -0.246 OA
BRANCH   4   6
ATOM      6  C   UNL A   1      31.880  27.206  24.830  1.00  0.00     0.068 A 
ATOM      7  C   UNL A   1      34.330  24.591  23.480  1.00  0.00     0.044 C 
ATOM      8  C   UNL A   1      33.356  25.726  23.518  1.00  0.00    -0.050 A 
ATOM      9  C   UNL A   1      32.797  26.226  22.355  1.00  0.00     0.004 A 
ATOM     10  C   UNL A   1      32.948  26.274  24.732  1.00  0.00     0.019 A 
ATOM     11  C   UNL A   1      31.804  27.203  22.425  1.00  0.00     0.010 A 
ATOM     12  C   UNL A   1      31.243  27.660  23.650  1.00  0.00    -0.002 A 
BRANCH  12  13
ATOM     13  C   UNL A   1      30.006  28.481  23.487  1.00  0.00     0.003 A 
ATOM     14  C   UNL A   1      30.067  29.858  23.190  1.00  0.00     0.030 A 
ATOM     15  C   UNL A   1      28.707  27.887  23.461  1.00  0.00     0.049 A 
ATOM     16  C   UNL A   1      28.902  30.592  22.896  1.00  0.00     0.041 A 
ATOM     17  C   UNL A   1      27.557  28.622  23.127  1.00  0.00     0.023 A 
ATOM     18  Cl  UNL A   1      28.424  26.222  23.876  1.00  0.00    -0.084 Cl
ATOM     19  Cl  UNL A   1      28.991  32.279  22.562  1.00  0.00    -0.084 Cl
ATOM     20  C   UNL A   1      27.653  29.980  22.858  1.00  0.00     0.022 A 
ENDBRANCH  12  13
ENDBRANCH   4   6
ENDBRANCH   3   4
ENDBRANCH   2   3
ENDBRANCH   1   2
BRANCH   1  21
ATOM     21  O   UNL A   1      34.237  30.066  27.367  1.00  0.00    -0.458 OA
BRANCH  21  22
ATOM     22  C   UNL A   1      35.121  31.000  27.759  1.00  0.00     0.338 C 
ATOM     23  O   UNL A   1      34.898  32.203  27.763  1.00  0.00    -0.246 OA
BRANCH  22  24
ATOM     24  C   UNL A   1      36.404  30.411  28.165  1.00  0.00     0.060 A 
ATOM     25  C   UNL A   1      36.462  29.767  29.408  1.00  0.00     0.016 A 
ATOM     26  C   UNL A   1      37.449  30.327  27.250  1.00  0.00     0.016 A 
ATOM     27  C   UNL A   1      37.516  28.936  29.725  1.00  0.00     0.010 A 
ATOM     28  C   UNL A   1      38.483  29.479  27.537  1.00  0.00     0.010 A 
ATOM     29  C   UNL A   1      38.520  28.823  28.784  1.00  0.00    -0.014 A 
BRANCH  29  30
ATOM     30  C   UNL A   1      39.816  28.291  29.123  1.00  0.00     0.031 A 
ATOM     31  C   UNL A   1      40.168  26.904  28.804  1.00  0.00     0.074 A 
ATOM     32  C   UNL A   1      40.634  29.321  29.423  1.00  0.00     0.049 A 
ATOM     33  N   UNL A   1      41.284  26.359  29.130  1.00  0.00    -0.248 NA
ATOM     34  C   UNL A   1      39.263  25.954  28.158  1.00  0.00     0.031 C 
ATOM     35  C   UNL A   1      42.047  29.519  29.184  1.00  0.00     0.029 A 
ATOM     36  N   UNL A   1      40.244  30.496  30.074  1.00  0.00    -0.354 N 
ATOM     37  C   UNL A   1      41.401  25.208  28.377  1.00  0.00     0.074 A 
ATOM     38  C   UNL A   1      40.059  24.894  27.976  1.00  0.00     0.031 C 
ATOM     39  C   UNL A   1      42.458  30.597  29.885  1.00  0.00     0.029 A 
ATOM     40  C   UNL A   1      41.352  31.016  30.740  1.00  0.00     0.049 A 
ATOM     41  H   UNL A   1      39.341  30.888  30.064  1.00  0.00     0.167 HD
ATOM     42  C   UNL A   1      42.658  24.822  28.012  1.00  0.00     0.037 A 
ATOM     43  C   UNL A   1      41.360  30.944  32.109  1.00  0.00     0.037 A 
ATOM     44  C   UNL A   1      43.625  25.692  28.691  1.00  0.00     0.049 A 
ATOM     45  C   UNL A   1      42.337  29.891  32.571  1.00  0.00     0.074 A 
ATOM     46  C   UNL A   1      44.280  26.836  28.272  1.00  0.00     0.029 A 
ATOM     47  N   UNL A   1      43.685  25.682  30.082  1.00  0.00    -0.354 N 
ATOM     48  N   UNL A   1      42.644  28.818  31.893  1.00  0.00    -0.248 NA
ATOM     49  C   UNL A   1      43.107  30.038  33.796  1.00  0.00     0.031 C 
ATOM     50  C   UNL A   1      44.638  27.574  29.434  1.00  0.00     0.029 A 
ATOM     51  C   UNL A   1      44.206  26.875  30.550  1.00  0.00     0.049 A 
ATOM     52  H   UNL A   1      43.397  24.933  30.651  1.00  0.00     0.167 HD
ATOM     53  C   UNL A   1      43.698  28.195  32.504  1.00  0.00     0.074 A 
ATOM     54  C   UNL A   1      43.936  28.987  33.700  1.00  0.00     0.031 C 
ATOM     55  C   UNL A   1      44.340  27.109  31.981  1.00  0.00     0.037 A 
BRANCH  42  56
ATOM     56  C   UNL A   1      43.048  23.921  26.853  1.00  0.00     0.057 A 
ATOM     57  C   UNL A   1      43.014  22.518  27.024  1.00  0.00     0.134 A 
ATOM     58  C   UNL A   1      43.537  24.324  25.596  1.00  0.00     0.134 A 
ATOM     59  F   UNL A   1      42.537  21.959  28.144  1.00  0.00    -0.206 F 
ATOM     60  C   UNL A   1      43.474  21.608  26.061  1.00  0.00     0.040 A 
ATOM     61  C   UNL A   1      43.991  23.422  24.618  1.00  0.00     0.040 A 
ATOM     62  F   UNL A   1      43.610  25.604  25.227  1.00  0.00    -0.206 F 
ATOM     63  C   UNL A   1      43.973  22.058  24.851  1.00  0.00     0.006 A 
ENDBRANCH  42  56
BRANCH  43  64
ATOM     64  C   UNL A   1      39.994  31.150  32.688  1.00  0.00     0.057 A 
ATOM     65  C   UNL A   1      39.323  30.015  33.190  1.00  0.00     0.134 A 
ATOM     66  C   UNL A   1      39.638  32.389  33.223  1.00  0.00     0.134 A 
ATOM     67  F   UNL A   1      39.586  28.801  32.684  1.00  0.00    -0.206 F 
ATOM     68  C   UNL A   1      38.522  30.080  34.330  1.00  0.00     0.040 A 
ATOM     69  C   UNL A   1      38.831  32.460  34.357  1.00  0.00     0.040 A 
ATOM     70  F   UNL A   1      40.183  33.526  32.770  1.00  0.00    -0.206 F 
ATOM     71  C   UNL A   1      38.328  31.302  34.951  1.00  0.00     0.006 A 
ENDBRANCH  43  64
BRANCH  55  72
ATOM     72  C   UNL A   1      45.271  26.227  32.765  1.00  0.00     0.057 A 
ATOM     73  C   UNL A   1      44.834  25.178  33.587  1.00  0.00     0.134 A 
ATOM     74  C   UNL A   1      46.670  26.317  32.596  1.00  0.00     0.134 A 
ATOM     75  F   UNL A   1      43.536  24.869  33.708  1.00  0.00    -0.206 F 
ATOM     76  C   UNL A   1      45.724  24.356  34.282  1.00  0.00     0.040 A 
ATOM     77  C   UNL A   1      47.563  25.449  33.221  1.00  0.00     0.040 A 
ATOM     78  F   UNL A   1      47.234  27.232  31.794  1.00  0.00    -0.206 F 
ATOM     79  C   UNL A   1      47.092  24.484  34.095  1.00  0.00     0.006 A 
ENDBRANCH  55  72
ENDBRANCH  29  30
ENDBRANCH  22  24
ENDBRANCH  21  22
ENDBRANCH   1  21
TORSDOF 12
ENDMDL
MODEL 3
REMARK VINA RESULT:     -12.3      1.678      3.019
REMARK SMILES Cc1ccc(-c2cc(Cl)ccc2Cl)c(C(=O)OCCOC(=O)c2ccc(-c3c4nc(c(-c5c(F)cccc5F)c5ccc([nH]5)c(-c5c(F)cccc5F)c5nc(c(-c6c(F)cccc6F)c6ccc3[nH]6)C=C5)C=C4)cc2)c1
REMARK SMILES IDX 19 1 18 2 17 3 15 4 16 5 14 6 1 7 2 8 3 9 77 10 4 11 5 12
REMARK SMILES IDX 6 13 7 14 12 15 8 16 11 17 13 18 9 19 10 20 20 21 21 22
REMARK SMILES IDX 22 23 23 24 24 25 76 26 25 27 75 28 26 29 27 30 28 31 69 32
REMARK SMILES IDX 29 33 74 34 68 35 70 36 30 37 73 38 67 39 66 40 31 42 57 43
REMARK SMILES IDX 40 44 56 45 41 46 44 47 55 48 71 49 42 50 43 51 54 53 72 54
REMARK SMILES IDX 45 55 32 56 33 57 38 58 34 59 35 60 37 61 39 62 36 63 58 64
REMARK SMILES IDX 59 65 64 66 60 67 61 68 63 69 65 70 62 71 46 72 47 73 52 74
REMARK SMILES IDX 48 75 49 76 51 77 53 78 50 79
REMARK H PARENT 70 41 44 52
REMARK Flexibility Score: inf
ROOT
ATOM      1  C   UNL A   1      33.644  30.072  26.764  1.00  0.00     0.275 C 
ENDROOT
BRANCH   1   2
ATOM      2  C   UNL A   1      33.743  28.691  26.087  1.00  0.00     0.275 C 
BRANCH   2   3
ATOM      3  O   UNL A   1      33.306  27.555  26.885  1.00  0.00    -0.458 OA
BRANCH   3   4
ATOM      4  C   UNL A   1      31.946  27.431  26.879  1.00  0.00     0.338 C 
ATOM      5  O   UNL A   1      31.239  27.718  27.842  1.00  0.00    -0.246 OA
BRANCH   4   6
ATOM      6  C   UNL A   1      31.314  26.624  25.805  1.00  0.00     0.068 A 
ATOM      7  C   UNL A   1      29.516  28.166  22.797  1.00  0.00     0.044 C 
ATOM      8  C   UNL A   1      30.126  27.146  23.707  1.00  0.00    -0.050 A 
ATOM      9  C   UNL A   1      30.331  25.844  23.284  1.00  0.00     0.004 A 
ATOM     10  C   UNL A   1      30.549  27.497  24.986  1.00  0.00     0.019 A 
ATOM     11  C   UNL A   1      31.009  24.945  24.108  1.00  0.00     0.010 A 
ATOM     12  C   UNL A   1      31.605  25.316  25.346  1.00  0.00    -0.002 A 
BRANCH  12  13
ATOM     13  C   UNL A   1      32.519  24.283  25.917  1.00  0.00     0.003 A 
ATOM     14  C   UNL A   1      33.915  24.352  25.738  1.00  0.00     0.030 A 
ATOM     15  C   UNL A   1      32.047  23.269  26.807  1.00  0.00     0.049 A 
ATOM     16  C   UNL A   1      34.780  23.458  26.399  1.00  0.00     0.041 A 
ATOM     17  C   UNL A   1      32.922  22.409  27.490  1.00  0.00     0.023 A 
ATOM     18  Cl  UNL A   1      30.355  22.981  27.092  1.00  0.00    -0.084 Cl
ATOM     19  Cl  UNL A   1      36.482  23.539  26.148  1.00  0.00    -0.084 Cl
ATOM     20  C   UNL A   1      34.290  22.495  27.275  1.00  0.00     0.022 A 
ENDBRANCH  12  13
ENDBRANCH   4   6
ENDBRANCH   3   4
ENDBRANCH   2   3
ENDBRANCH   1   2
BRANCH   1  21
ATOM     21  O   UNL A   1      34.367  30.354  27.985  1.00  0.00    -0.458 OA
BRANCH  21  22
ATOM     22  C   UNL A   1      35.435  31.169  27.951  1.00  0.00     0.338 C 
ATOM     23  O   UNL A   1      35.399  32.340  27.599  1.00  0.00    -0.246 OA
BRANCH  22  24
ATOM     24  C   UNL A   1      36.666  30.484  28.365  1.00  0.00     0.060 A 
ATOM     25  C   UNL A   1      36.602  29.654  29.492  1.00  0.00     0.016 A 
ATOM     26  C   UNL A   1      37.787  30.511  27.540  1.00  0.00     0.016 A 
ATOM     27  C   UNL A   1      37.610  28.750  29.762  1.00  0.00     0.010 A 
ATOM     28  C   UNL A   1      38.776  29.595  27.777  1.00  0.00     0.010 A 
ATOM     29  C   UNL A   1      38.691  28.753  28.904  1.00  0.00    -0.014 A 
BRANCH  29  30
ATOM     30  C   UNL A   1      39.941  28.134  29.263  1.00  0.00     0.031 A 
ATOM     31  C   UNL A   1      40.266  26.776  28.816  1.00  0.00     0.074 A 
ATOM     32  C   UNL A   1      40.773  29.091  29.726  1.00  0.00     0.049 A 
ATOM     33  N   UNL A   1      41.338  26.153  29.150  1.00  0.00    -0.248 NA
ATOM     34  C   UNL A   1      39.374  25.939  28.014  1.00  0.00     0.031 C 
ATOM     35  C   UNL A   1      42.204  29.254  29.599  1.00  0.00     0.029 A 
ATOM     36  N   UNL A   1      40.381  30.204  30.476  1.00  0.00    -0.354 N 
ATOM     37  C   UNL A   1      41.465  25.085  28.283  1.00  0.00     0.074 A 
ATOM     38  C   UNL A   1      40.143  24.873  27.766  1.00  0.00     0.031 C 
ATOM     39  C   UNL A   1      42.604  30.232  30.440  1.00  0.00     0.029 A 
ATOM     40  C   UNL A   1      41.458  30.602  31.263  1.00  0.00     0.049 A 
ATOM     41  H   UNL A   1      39.494  30.632  30.452  1.00  0.00     0.167 HD
ATOM     42  C   UNL A   1      42.730  24.689  27.959  1.00  0.00     0.037 A 
ATOM     43  C   UNL A   1      41.372  30.383  32.615  1.00  0.00     0.037 A 
ATOM     44  C   UNL A   1      43.679  25.439  28.788  1.00  0.00     0.049 A 
ATOM     45  C   UNL A   1      42.278  29.247  33.018  1.00  0.00     0.074 A 
ATOM     46  C   UNL A   1      44.400  26.594  28.540  1.00  0.00     0.029 A 
ATOM     47  N   UNL A   1      43.645  25.278  30.171  1.00  0.00    -0.354 N 
ATOM     48  N   UNL A   1      42.593  28.241  32.247  1.00  0.00    -0.248 NA
ATOM     49  C   UNL A   1      42.970  29.229  34.299  1.00  0.00     0.031 C 
ATOM     50  C   UNL A   1      44.703  27.187  29.797  1.00  0.00     0.029 A 
ATOM     51  C   UNL A   1      44.174  26.390  30.800  1.00  0.00     0.049 A 
ATOM     52  H   UNL A   1      43.293  24.485  30.635  1.00  0.00     0.167 HD
ATOM     53  C   UNL A   1      43.581  27.513  32.851  1.00  0.00     0.074 A 
ATOM     54  C   UNL A   1      43.766  28.160  34.140  1.00  0.00     0.031 C 
ATOM     55  C   UNL A   1      44.219  26.464  32.253  1.00  0.00     0.037 A 
BRANCH  42  56
ATOM     56  C   UNL A   1      43.166  23.903  26.734  1.00  0.00     0.057 A 
ATOM     57  C   UNL A   1      43.092  22.491  26.755  1.00  0.00     0.134 A 
ATOM     58  C   UNL A   1      43.733  24.420  25.554  1.00  0.00     0.134 A 
ATOM     59  F   UNL A   1      42.541  21.832  27.783  1.00  0.00    -0.206 F 
ATOM     60  C   UNL A   1      43.587  21.673  25.728  1.00  0.00     0.040 A 
ATOM     61  C   UNL A   1      44.223  23.612  24.513  1.00  0.00     0.040 A 
ATOM     62  F   UNL A   1      43.854  25.729  25.326  1.00  0.00    -0.206 F 
ATOM     63  C   UNL A   1      44.162  22.233  24.601  1.00  0.00     0.006 A 
ENDBRANCH  42  56
BRANCH  43  64
ATOM     64  C   UNL A   1      39.978  30.583  33.125  1.00  0.00     0.057 A 
ATOM     65  C   UNL A   1      39.473  31.901  33.134  1.00  0.00     0.134 A 
ATOM     66  C   UNL A   1      39.048  29.545  33.054  1.00  0.00     0.134 A 
ATOM     67  F   UNL A   1      40.312  32.941  33.249  1.00  0.00    -0.206 F 
ATOM     68  C   UNL A   1      38.137  32.177  32.841  1.00  0.00     0.040 A 
ATOM     69  C   UNL A   1      37.711  29.816  32.769  1.00  0.00     0.040 A 
ATOM     70  F   UNL A   1      39.432  28.262  33.093  1.00  0.00    -0.206 F 
ATOM     71  C   UNL A   1      37.268  31.127  32.596  1.00  0.00     0.006 A 
ENDBRANCH  43  64
BRANCH  55  72
ATOM     72  C   UNL A   1      45.064  25.464  32.993  1.00  0.00     0.057 A 
ATOM     73  C   UNL A   1      46.464  25.519  33.042  1.00  0.00     0.134 A 
ATOM     74  C   UNL A   1      44.471  24.480  33.814  1.00  0.00     0.134 A 
ATOM     75  F   UNL A   1      47.154  26.501  32.446  1.00  0.00    -0.206 F 
ATOM     76  C   UNL A   1      47.222  24.592  33.761  1.00  0.00     0.040 A 
ATOM     77  C   UNL A   1      45.216  23.603  34.600  1.00  0.00     0.040 A 
ATOM     78  F   UNL A   1      43.141  24.344  33.917  1.00  0.00    -0.206 F 
ATOM     79  C   UNL A   1      46.600  23.636  34.549  1.00  0.00     0.006 A 
ENDBRANCH  55  72
ENDBRANCH  29  30
ENDBRANCH  22  24
ENDBRANCH  21  22
ENDBRANCH   1  21
TORSDOF 12
ENDMDL
