MODEL 1
REMARK VINA RESULT:     -11.2      0.000      0.000
REMARK SMILES C[C@@H]1OCC[C@H]1C(=O)N[C@]1(C(=O)OCCOC(=O)c2ccc(-c3c4nc(c(-c5c(F)cccc5F)c5ccc([nH]5)c(-c5c(F)cccc5F)c5nc(c(-c6c(F)cccc6F)c6ccc3[nH]6)C=C5)C=C4)cc2)CCOC1
REMARK SMILES IDX 14 1 13 2 11 3 12 4 10 5 73 6 76 7 74 8 75 9 9 10 7 11 8 12
REMARK SMILES IDX 6 14 1 15 2 16 3 17 4 18 5 19 15 20 16 21 17 22 18 23 19 24
REMARK SMILES IDX 20 25 72 26 21 27 71 28 22 29 23 30 24 31 65 32 25 33 70 34
REMARK SMILES IDX 64 35 66 36 26 37 69 38 63 39 62 40 27 42 53 43 36 44 52 45
REMARK SMILES IDX 37 46 40 47 51 48 67 49 38 50 39 51 50 53 68 54 41 55 28 56
REMARK SMILES IDX 29 57 34 58 30 59 31 60 33 61 35 62 32 63 54 64 55 65 60 66
REMARK SMILES IDX 56 67 57 68 59 69 61 70 58 71 42 72 43 73 48 74 44 75 45 76
REMARK SMILES IDX 47 77 49 78 46 79
REMARK H PARENT 9 13 66 41 40 52
REMARK Flexibility Score: inf
ROOT
ATOM      1  C   UNL A   1      32.319  30.936  26.852  1.00  0.00     0.274 C 
ENDROOT
BRANCH   1   2
ATOM      2  O   UNL A   1      31.755  30.259  25.720  1.00  0.00    -0.460 OA
BRANCH   2   3
ATOM      3  C   UNL A   1      31.654  28.900  25.768  1.00  0.00     0.334 C 
ATOM      4  O   UNL A   1      31.390  28.248  26.767  1.00  0.00    -0.249 OA
BRANCH   3   5
ATOM      5  C   UNL A   1      31.929  28.315  24.374  1.00  0.00     0.163 C 
ATOM      6  C   UNL A   1      32.905  29.291  23.672  1.00  0.00     0.071 C 
ATOM      7  C   UNL A   1      32.848  27.091  24.465  1.00  0.00     0.200 C 
ATOM      8  C   UNL A   1      33.749  28.424  22.771  1.00  0.00     0.163 C 
ATOM      9  O   UNL A   1      33.702  27.099  23.302  1.00  0.00    -0.378 OA
BRANCH   5  10
ATOM     10  N   UNL A   1      30.767  28.067  23.449  1.00  0.00    -0.338 N 
ATOM     11  C   UNL A   1      29.588  28.658  23.151  1.00  0.00     0.226 C 
ATOM     12  O   UNL A   1      28.636  27.859  23.137  1.00  0.00    -0.275 OA
ATOM     13  H   UNL A   1      30.903  27.251  22.916  1.00  0.00     0.164 HD
BRANCH  11  14
ATOM     14  C   UNL A   1      29.311  30.060  22.598  1.00  0.00     0.109 C 
ATOM     15  C   UNL A   1      28.389  31.487  20.744  1.00  0.00     0.039 C 
ATOM     16  C   UNL A   1      28.119  30.320  21.707  1.00  0.00     0.127 C 
ATOM     17  O   UNL A   1      27.068  30.778  22.572  1.00  0.00    -0.378 OA
ATOM     18  C   UNL A   1      27.646  31.164  23.822  1.00  0.00     0.161 C 
ATOM     19  C   UNL A   1      29.138  31.101  23.677  1.00  0.00     0.044 C 
ENDBRANCH  11  14
ENDBRANCH   5  10
ENDBRANCH   3   5
ENDBRANCH   2   3
ENDBRANCH   1   2
BRANCH   1  20
ATOM     20  C   UNL A   1      31.692  32.341  26.950  1.00  0.00     0.275 C 
BRANCH  20  21
ATOM     21  O   UNL A   1      32.689  33.397  26.927  1.00  0.00    -0.458 OA
BRANCH  21  22
ATOM     22  C   UNL A   1      33.160  33.781  28.144  1.00  0.00     0.338 C 
ATOM     23  O   UNL A   1      32.562  34.459  28.968  1.00  0.00    -0.246 OA
BRANCH  22  24
ATOM     24  C   UNL A   1      34.461  33.123  28.455  1.00  0.00     0.060 A 
ATOM     25  C   UNL A   1      34.417  31.870  29.081  1.00  0.00     0.016 A 
ATOM     26  C   UNL A   1      35.705  33.686  28.149  1.00  0.00     0.016 A 
ATOM     27  C   UNL A   1      35.589  31.165  29.376  1.00  0.00     0.010 A 
ATOM     28  C   UNL A   1      36.889  32.990  28.475  1.00  0.00     0.010 A 
ATOM     29  C   UNL A   1      36.840  31.728  29.100  1.00  0.00    -0.014 A 
BRANCH  29  30
ATOM     30  C   UNL A   1      38.047  31.096  29.704  1.00  0.00     0.031 A 
ATOM     31  C   UNL A   1      38.354  31.418  31.144  1.00  0.00     0.074 A 
ATOM     32  C   UNL A   1      38.808  30.182  29.067  1.00  0.00     0.049 A 
ATOM     33  N   UNL A   1      39.269  30.921  31.937  1.00  0.00    -0.248 NA
ATOM     34  C   UNL A   1      37.495  32.431  31.776  1.00  0.00     0.031 C 
ATOM     35  C   UNL A   1      38.615  29.712  27.699  1.00  0.00     0.029 A 
ATOM     36  N   UNL A   1      39.903  29.474  29.513  1.00  0.00    -0.354 N 
ATOM     37  C   UNL A   1      39.078  31.541  33.163  1.00  0.00     0.074 A 
ATOM     38  C   UNL A   1      37.997  32.488  32.998  1.00  0.00     0.031 C 
ATOM     39  C   UNL A   1      39.562  28.796  27.414  1.00  0.00     0.029 A 
ATOM     40  C   UNL A   1      40.432  28.616  28.578  1.00  0.00     0.049 A 
ATOM     41  H   UNL A   1      40.273  29.573  30.420  1.00  0.00     0.167 HD
ATOM     42  C   UNL A   1      39.723  31.336  34.336  1.00  0.00     0.037 A 
ATOM     43  C   UNL A   1      41.490  27.780  28.653  1.00  0.00     0.037 A 
ATOM     44  C   UNL A   1      40.818  30.426  34.526  1.00  0.00     0.049 A 
ATOM     45  C   UNL A   1      42.273  27.658  29.940  1.00  0.00     0.074 A 
ATOM     46  C   UNL A   1      41.535  30.172  35.681  1.00  0.00     0.029 A 
ATOM     47  N   UNL A   1      41.366  29.634  33.531  1.00  0.00    -0.354 N 
ATOM     48  N   UNL A   1      42.050  28.213  31.107  1.00  0.00    -0.248 NA
ATOM     49  C   UNL A   1      43.456  26.778  29.920  1.00  0.00     0.031 C 
ATOM     50  C   UNL A   1      42.553  29.263  35.373  1.00  0.00     0.029 A 
ATOM     51  C   UNL A   1      42.435  28.914  34.039  1.00  0.00     0.049 A 
ATOM     52  H   UNL A   1      41.045  29.590  32.601  1.00  0.00     0.167 HD
ATOM     53  C   UNL A   1      43.035  27.722  31.960  1.00  0.00     0.074 A 
ATOM     54  C   UNL A   1      43.851  26.817  31.184  1.00  0.00     0.031 C 
ATOM     55  C   UNL A   1      43.240  27.999  33.272  1.00  0.00     0.037 A 
BRANCH  42  56
ATOM     56  C   UNL A   1      39.260  32.151  35.504  1.00  0.00     0.057 A 
ATOM     57  C   UNL A   1      39.712  33.460  35.711  1.00  0.00     0.134 A 
ATOM     58  C   UNL A   1      38.370  31.612  36.440  1.00  0.00     0.134 A 
ATOM     59  F   UNL A   1      40.585  34.021  34.859  1.00  0.00    -0.206 F 
ATOM     60  C   UNL A   1      39.320  34.196  36.829  1.00  0.00     0.040 A 
ATOM     61  C   UNL A   1      37.950  32.349  37.548  1.00  0.00     0.040 A 
ATOM     62  F   UNL A   1      37.904  30.363  36.298  1.00  0.00    -0.206 F 
ATOM     63  C   UNL A   1      38.432  33.641  37.749  1.00  0.00     0.006 A 
ENDBRANCH  42  56
BRANCH  43  64
ATOM     64  C   UNL A   1      41.911  26.976  27.473  1.00  0.00     0.057 A 
ATOM     65  C   UNL A   1      41.505  25.644  27.316  1.00  0.00     0.134 A 
ATOM     66  C   UNL A   1      42.815  27.486  26.533  1.00  0.00     0.134 A 
ATOM     67  F   UNL A   1      40.673  25.083  28.206  1.00  0.00    -0.206 F 
ATOM     68  C   UNL A   1      42.006  24.841  26.290  1.00  0.00     0.040 A 
ATOM     69  C   UNL A   1      43.306  26.701  25.487  1.00  0.00     0.040 A 
ATOM     70  F   UNL A   1      43.256  28.748  26.634  1.00  0.00    -0.206 F 
ATOM     71  C   UNL A   1      42.910  25.370  25.370  1.00  0.00     0.006 A 
ENDBRANCH  43  64
BRANCH  55  72
ATOM     72  C   UNL A   1      44.366  27.293  33.974  1.00  0.00     0.057 A 
ATOM     73  C   UNL A   1      45.642  27.859  34.088  1.00  0.00     0.134 A 
ATOM     74  C   UNL A   1      44.155  26.054  34.596  1.00  0.00     0.134 A 
ATOM     75  F   UNL A   1      45.917  29.039  33.509  1.00  0.00    -0.206 F 
ATOM     76  C   UNL A   1      46.671  27.212  34.776  1.00  0.00     0.040 A 
ATOM     77  C   UNL A   1      45.168  25.411  35.310  1.00  0.00     0.040 A 
ATOM     78  F   UNL A   1      42.955  25.459  34.537  1.00  0.00    -0.206 F 
ATOM     79  C   UNL A   1      46.433  25.988  35.397  1.00  0.00     0.006 A 
ENDBRANCH  55  72
ENDBRANCH  29  30
ENDBRANCH  22  24
ENDBRANCH  21  22
ENDBRANCH  20  21
ENDBRANCH   1  20
TORSDOF 13
ENDMDL
MODEL 2
REMARK VINA RESULT:     -11.0      5.669     10.543
REMARK SMILES C[C@@H]1OCC[C@H]1C(=O)N[C@]1(C(=O)OCCOC(=O)c2ccc(-c3c4nc(c(-c5c(F)cccc5F)c5ccc([nH]5)c(-c5c(F)cccc5F)c5nc(c(-c6c(F)cccc6F)c6ccc3[nH]6)C=C5)C=C4)cc2)CCOC1
REMARK SMILES IDX 14 1 13 2 11 3 12 4 10 5 73 6 76 7 74 8 75 9 9 10 7 11 8 12
REMARK SMILES IDX 6 14 1 15 2 16 3 17 4 18 5 19 15 20 16 21 17 22 18 23 19 24
REMARK SMILES IDX 20 25 72 26 21 27 71 28 22 29 23 30 24 31 65 32 25 33 70 34
REMARK SMILES IDX 64 35 66 36 26 37 69 38 63 39 62 40 27 42 53 43 36 44 52 45
REMARK SMILES IDX 37 46 40 47 51 48 67 49 38 50 39 51 50 53 68 54 41 55 28 56
REMARK SMILES IDX 29 57 34 58 30 59 31 60 33 61 35 62 32 63 54 64 55 65 60 66
REMARK SMILES IDX 56 67 57 68 59 69 61 70 58 71 42 72 43 73 48 74 44 75 45 76
REMARK SMILES IDX 47 77 49 78 46 79
REMARK H PARENT 9 13 66 41 40 52
REMARK Flexibility Score: inf
ROOT
ATOM      1  C   UNL A   1      37.291  21.173  24.587  1.00  0.00     0.274 C 
ENDROOT
BRANCH   1   2
ATOM      2  O   UNL A   1      35.909  20.847  24.793  1.00  0.00    -0.460 OA
BRANCH   2   3
ATOM      3  C   UNL A   1      35.204  21.586  25.696  1.00  0.00     0.334 C 
ATOM      4  O   UNL A   1      35.686  22.391  26.480  1.00  0.00    -0.249 OA
BRANCH   3   5
ATOM      5  C   UNL A   1      33.710  21.247  25.581  1.00  0.00     0.163 C 
ATOM      6  C   UNL A   1      32.950  22.325  26.393  1.00  0.00     0.071 C 
ATOM      7  C   UNL A   1      33.176  21.587  24.185  1.00  0.00     0.200 C 
ATOM      8  C   UNL A   1      31.631  22.497  25.683  1.00  0.00     0.163 C 
ATOM      9  O   UNL A   1      31.819  22.054  24.338  1.00  0.00    -0.378 OA
BRANCH   5  10
ATOM     10  N   UNL A   1      33.236  19.894  26.041  1.00  0.00    -0.338 N 
ATOM     11  C   UNL A   1      33.163  18.640  25.539  1.00  0.00     0.226 C 
ATOM     12  O   UNL A   1      32.049  18.115  25.708  1.00  0.00    -0.275 OA
ATOM     13  H   UNL A   1      32.880  19.933  26.958  1.00  0.00     0.164 HD
BRANCH  11  14
ATOM     14  C   UNL A   1      34.285  17.721  25.044  1.00  0.00     0.109 C 
ATOM     15  C   UNL A   1      35.713  15.688  25.432  1.00  0.00     0.039 C 
ATOM     16  C   UNL A   1      34.283  16.248  25.379  1.00  0.00     0.127 C 
ATOM     17  O   UNL A   1      33.657  15.587  24.268  1.00  0.00    -0.378 OA
ATOM     18  C   UNL A   1      33.634  16.491  23.160  1.00  0.00     0.161 C 
ATOM     19  C   UNL A   1      34.424  17.708  23.542  1.00  0.00     0.044 C 
ENDBRANCH  11  14
ENDBRANCH   5  10
ENDBRANCH   3   5
ENDBRANCH   2   3
ENDBRANCH   1   2
BRANCH   1  20
ATOM     20  C   UNL A   1      38.150  19.961  24.998  1.00  0.00     0.275 C 
BRANCH  20  21
ATOM     21  O   UNL A   1      38.769  20.135  26.301  1.00  0.00    -0.458 OA
BRANCH  21  22
ATOM     22  C   UNL A   1      40.117  20.312  26.288  1.00  0.00     0.338 C 
ATOM     23  O   UNL A   1      40.934  19.583  25.743  1.00  0.00    -0.246 OA
BRANCH  22  24
ATOM     24  C   UNL A   1      40.499  21.625  26.881  1.00  0.00     0.060 A 
ATOM     25  C   UNL A   1      39.896  22.773  26.348  1.00  0.00     0.016 A 
ATOM     26  C   UNL A   1      41.411  21.764  27.933  1.00  0.00     0.016 A 
ATOM     27  C   UNL A   1      40.168  24.043  26.868  1.00  0.00     0.010 A 
ATOM     28  C   UNL A   1      41.710  23.047  28.439  1.00  0.00     0.010 A 
ATOM     29  C   UNL A   1      41.097  24.198  27.903  1.00  0.00    -0.014 A 
BRANCH  29  30
ATOM     30  C   UNL A   1      41.586  25.572  28.212  1.00  0.00     0.031 A 
ATOM     31  C   UNL A   1      42.960  25.949  27.720  1.00  0.00     0.074 A 
ATOM     32  C   UNL A   1      40.831  26.514  28.812  1.00  0.00     0.049 A 
ATOM     33  N   UNL A   1      43.574  27.105  27.754  1.00  0.00    -0.248 NA
ATOM     34  C   UNL A   1      43.736  24.872  27.086  1.00  0.00     0.031 C 
ATOM     35  C   UNL A   1      39.464  26.337  29.293  1.00  0.00     0.029 A 
ATOM     36  N   UNL A   1      41.120  27.830  29.104  1.00  0.00    -0.354 N 
ATOM     37  C   UNL A   1      44.794  26.898  27.126  1.00  0.00     0.074 A 
ATOM     38  C   UNL A   1      44.857  25.498  26.768  1.00  0.00     0.031 C 
ATOM     39  C   UNL A   1      39.034  27.499  29.825  1.00  0.00     0.029 A 
ATOM     40  C   UNL A   1      40.095  28.503  29.726  1.00  0.00     0.049 A 
ATOM     41  H   UNL A   1      41.983  28.250  28.885  1.00  0.00     0.167 HD
ATOM     42  C   UNL A   1      45.775  27.789  26.847  1.00  0.00     0.037 A 
ATOM     43  C   UNL A   1      40.019  29.779  30.159  1.00  0.00     0.037 A 
ATOM     44  C   UNL A   1      45.756  29.177  27.215  1.00  0.00     0.049 A 
ATOM     45  C   UNL A   1      41.178  30.726  29.944  1.00  0.00     0.074 A 
ATOM     46  C   UNL A   1      46.719  30.142  26.982  1.00  0.00     0.029 A 
ATOM     47  N   UNL A   1      44.729  29.795  27.909  1.00  0.00    -0.354 N 
ATOM     48  N   UNL A   1      42.306  30.531  29.305  1.00  0.00    -0.248 NA
ATOM     49  C   UNL A   1      41.045  32.081  30.509  1.00  0.00     0.031 C 
ATOM     50  C   UNL A   1      46.298  31.334  27.581  1.00  0.00     0.029 A 
ATOM     51  C   UNL A   1      45.050  31.122  28.142  1.00  0.00     0.049 A 
ATOM     52  H   UNL A   1      43.895  29.356  28.196  1.00  0.00     0.167 HD
ATOM     53  C   UNL A   1      42.991  31.741  29.358  1.00  0.00     0.074 A 
ATOM     54  C   UNL A   1      42.152  32.669  30.082  1.00  0.00     0.031 C 
ATOM     55  C   UNL A   1      44.209  32.052  28.848  1.00  0.00     0.037 A 
BRANCH  42  56
ATOM     56  C   UNL A   1      46.973  27.257  26.124  1.00  0.00     0.057 A 
ATOM     57  C   UNL A   1      47.064  27.294  24.727  1.00  0.00     0.134 A 
ATOM     58  C   UNL A   1      48.035  26.682  26.832  1.00  0.00     0.134 A 
ATOM     59  F   UNL A   1      46.066  27.811  23.994  1.00  0.00    -0.206 F 
ATOM     60  C   UNL A   1      48.158  26.749  24.055  1.00  0.00     0.040 A 
ATOM     61  C   UNL A   1      49.146  26.157  26.172  1.00  0.00     0.040 A 
ATOM     62  F   UNL A   1      48.005  26.614  28.171  1.00  0.00    -0.206 F 
ATOM     63  C   UNL A   1      49.206  26.181  24.779  1.00  0.00     0.006 A 
ENDBRANCH  42  56
BRANCH  43  64
ATOM     64  C   UNL A   1      38.804  30.274  30.863  1.00  0.00     0.057 A 
ATOM     65  C   UNL A   1      37.812  30.996  30.185  1.00  0.00     0.134 A 
ATOM     66  C   UNL A   1      38.659  30.132  32.248  1.00  0.00     0.134 A 
ATOM     67  F   UNL A   1      37.913  31.204  28.864  1.00  0.00    -0.206 F 
ATOM     68  C   UNL A   1      36.740  31.583  30.862  1.00  0.00     0.040 A 
ATOM     69  C   UNL A   1      37.580  30.693  32.935  1.00  0.00     0.040 A 
ATOM     70  F   UNL A   1      39.581  29.466  32.959  1.00  0.00    -0.206 F 
ATOM     71  C   UNL A   1      36.623  31.431  32.243  1.00  0.00     0.006 A 
ENDBRANCH  43  64
BRANCH  55  72
ATOM     72  C   UNL A   1      44.704  33.462  29.016  1.00  0.00     0.057 A 
ATOM     73  C   UNL A   1      45.513  33.843  30.095  1.00  0.00     0.134 A 
ATOM     74  C   UNL A   1      44.416  34.439  28.052  1.00  0.00     0.134 A 
ATOM     75  F   UNL A   1      45.820  32.961  31.059  1.00  0.00    -0.206 F 
ATOM     76  C   UNL A   1      45.999  35.146  30.220  1.00  0.00     0.040 A 
ATOM     77  C   UNL A   1      44.920  35.738  28.152  1.00  0.00     0.040 A 
ATOM     78  F   UNL A   1      43.658  34.142  26.987  1.00  0.00    -0.206 F 
ATOM     79  C   UNL A   1      45.710  36.096  29.242  1.00  0.00     0.006 A 
ENDBRANCH  55  72
ENDBRANCH  29  30
ENDBRANCH  22  24
ENDBRANCH  21  22
ENDBRANCH  20  21
ENDBRANCH   1  20
TORSDOF 13
ENDMDL
MODEL 3
REMARK VINA RESULT:     -10.9      0.843      3.009
REMARK SMILES C[C@@H]1OCC[C@H]1C(=O)N[C@]1(C(=O)OCCOC(=O)c2ccc(-c3c4nc(c(-c5c(F)cccc5F)c5ccc([nH]5)c(-c5c(F)cccc5F)c5nc(c(-c6c(F)cccc6F)c6ccc3[nH]6)C=C5)C=C4)cc2)CCOC1
REMARK SMILES IDX 14 1 13 2 11 3 12 4 10 5 73 6 76 7 74 8 75 9 9 10 7 11 8 12
REMARK SMILES IDX 6 14 1 15 2 16 3 17 4 18 5 19 15 20 16 21 17 22 18 23 19 24
REMARK SMILES IDX 20 25 72 26 21 27 71 28 22 29 23 30 24 31 65 32 25 33 70 34
REMARK SMILES IDX 64 35 66 36 26 37 69 38 63 39 62 40 27 42 53 43 36 44 52 45
REMARK SMILES IDX 37 46 40 47 51 48 67 49 38 50 39 51 50 53 68 54 41 55 28 56
REMARK SMILES IDX 29 57 34 58 30 59 31 60 33 61 35 62 32 63 54 64 55 65 60 66
REMARK SMILES IDX 56 67 57 68 59 69 61 70 58 71 42 72 43 73 48 74 44 75 45 76
REMARK SMILES IDX 47 77 49 78 46 79
REMARK H PARENT 9 13 66 41 40 52
REMARK Flexibility Score: inf
ROOT
ATOM      1  C   UNL A   1      32.270  31.085  26.615  1.00  0.00     0.274 C 
ENDROOT
BRANCH   1   2
ATOM      2  O   UNL A   1      31.409  30.497  25.630  1.00  0.00    -0.460 OA
BRANCH   2   3
ATOM      3  C   UNL A   1      31.486  29.150  25.431  1.00  0.00     0.334 C 
ATOM      4  O   UNL A   1      31.898  28.339  26.247  1.00  0.00    -0.249 OA
BRANCH   3   5
ATOM      5  C   UNL A   1      30.982  28.810  24.020  1.00  0.00     0.163 C 
ATOM      6  C   UNL A   1      30.035  27.594  24.172  1.00  0.00     0.071 C 
ATOM      7  C   UNL A   1      29.958  29.844  23.539  1.00  0.00     0.200 C 
ATOM      8  C   UNL A   1      29.000  27.762  23.088  1.00  0.00     0.163 C 
ATOM      9  O   UNL A   1      28.973  29.148  22.747  1.00  0.00    -0.378 OA
BRANCH   5  10
ATOM     10  N   UNL A   1      31.989  28.488  22.948  1.00  0.00    -0.338 N 
ATOM     11  C   UNL A   1      33.230  27.955  22.873  1.00  0.00     0.226 C 
ATOM     12  O   UNL A   1      34.004  28.627  22.171  1.00  0.00    -0.275 OA
ATOM     13  H   UNL A   1      31.652  28.735  22.056  1.00  0.00     0.164 HD
BRANCH  11  14
ATOM     14  C   UNL A   1      33.722  26.567  23.299  1.00  0.00     0.109 C 
ATOM     15  C   UNL A   1      34.359  25.000  25.160  1.00  0.00     0.039 C 
ATOM     16  C   UNL A   1      33.293  25.964  24.616  1.00  0.00     0.127 C 
ATOM     17  O   UNL A   1      32.152  25.142  24.323  1.00  0.00    -0.378 OA
ATOM     18  C   UNL A   1      32.108  24.915  22.912  1.00  0.00     0.161 C 
ATOM     19  C   UNL A   1      33.363  25.481  22.315  1.00  0.00     0.044 C 
ENDBRANCH  11  14
ENDBRANCH   5  10
ENDBRANCH   3   5
ENDBRANCH   2   3
ENDBRANCH   1   2
BRANCH   1  20
ATOM     20  C   UNL A   1      31.733  32.487  26.966  1.00  0.00     0.275 C 
BRANCH  20  21
ATOM     21  O   UNL A   1      32.780  33.494  26.987  1.00  0.00    -0.458 OA
BRANCH  21  22
ATOM     22  C   UNL A   1      33.223  33.848  28.224  1.00  0.00     0.338 C 
ATOM     23  O   UNL A   1      32.605  34.505  29.050  1.00  0.00    -0.246 OA
BRANCH  22  24
ATOM     24  C   UNL A   1      34.518  33.186  28.547  1.00  0.00     0.060 A 
ATOM     25  C   UNL A   1      34.464  31.916  29.138  1.00  0.00     0.016 A 
ATOM     26  C   UNL A   1      35.768  33.760  28.286  1.00  0.00     0.016 A 
ATOM     27  C   UNL A   1      35.631  31.207  29.441  1.00  0.00     0.010 A 
ATOM     28  C   UNL A   1      36.946  33.059  28.620  1.00  0.00     0.010 A 
ATOM     29  C   UNL A   1      36.886  31.780  29.210  1.00  0.00    -0.014 A 
BRANCH  29  30
ATOM     30  C   UNL A   1      38.081  31.135  29.825  1.00  0.00     0.031 A 
ATOM     31  C   UNL A   1      38.375  31.449  31.269  1.00  0.00     0.074 A 
ATOM     32  C   UNL A   1      38.840  30.217  29.193  1.00  0.00     0.049 A 
ATOM     33  N   UNL A   1      39.277  30.941  32.070  1.00  0.00    -0.248 NA
ATOM     34  C   UNL A   1      37.518  32.468  31.895  1.00  0.00     0.031 C 
ATOM     35  C   UNL A   1      38.658  29.753  27.821  1.00  0.00     0.029 A 
ATOM     36  N   UNL A   1      39.924  29.498  29.648  1.00  0.00    -0.354 N 
ATOM     37  C   UNL A   1      39.078  31.559  33.297  1.00  0.00     0.074 A 
ATOM     38  C   UNL A   1      38.007  32.516  33.123  1.00  0.00     0.031 C 
ATOM     39  C   UNL A   1      39.600  28.829  27.544  1.00  0.00     0.029 A 
ATOM     40  C   UNL A   1      40.456  28.638  28.716  1.00  0.00     0.049 A 
ATOM     41  H   UNL A   1      40.285  29.590  30.560  1.00  0.00     0.167 HD
ATOM     42  C   UNL A   1      39.708  31.344  34.476  1.00  0.00     0.037 A 
ATOM     43  C   UNL A   1      41.505  27.793  28.799  1.00  0.00     0.037 A 
ATOM     44  C   UNL A   1      40.793  30.423  34.674  1.00  0.00     0.049 A 
ATOM     45  C   UNL A   1      42.273  27.658  30.095  1.00  0.00     0.074 A 
ATOM     46  C   UNL A   1      41.495  30.159  35.837  1.00  0.00     0.029 A 
ATOM     47  N   UNL A   1      41.344  29.630  33.683  1.00  0.00    -0.354 N 
ATOM     48  N   UNL A   1      42.042  28.212  31.261  1.00  0.00    -0.248 NA
ATOM     49  C   UNL A   1      43.448  26.768  30.084  1.00  0.00     0.031 C 
ATOM     50  C   UNL A   1      42.508  29.242  35.537  1.00  0.00     0.029 A 
ATOM     51  C   UNL A   1      42.401  28.899  34.200  1.00  0.00     0.049 A 
ATOM     52  H   UNL A   1      41.033  29.592  32.749  1.00  0.00     0.167 HD
ATOM     53  C   UNL A   1      43.013  27.709  32.123  1.00  0.00     0.074 A 
ATOM     54  C   UNL A   1      43.830  26.799  31.353  1.00  0.00     0.031 C 
ATOM     55  C   UNL A   1      43.206  27.979  33.438  1.00  0.00     0.037 A 
BRANCH  42  56
ATOM     56  C   UNL A   1      39.239  32.159  35.641  1.00  0.00     0.057 A 
ATOM     57  C   UNL A   1      38.327  31.651  36.574  1.00  0.00     0.134 A 
ATOM     58  C   UNL A   1      39.689  33.472  35.818  1.00  0.00     0.134 A 
ATOM     59  F   UNL A   1      37.841  30.406  36.441  1.00  0.00    -0.206 F 
ATOM     60  C   UNL A   1      37.852  32.432  37.627  1.00  0.00     0.040 A 
ATOM     61  C   UNL A   1      39.241  34.255  36.883  1.00  0.00     0.040 A 
ATOM     62  F   UNL A   1      40.561  34.017  34.957  1.00  0.00    -0.206 F 
ATOM     63  C   UNL A   1      38.313  33.738  37.785  1.00  0.00     0.006 A 
ENDBRANCH  42  56
BRANCH  43  64
ATOM     64  C   UNL A   1      41.932  26.989  27.621  1.00  0.00     0.057 A 
ATOM     65  C   UNL A   1      42.753  27.533  26.626  1.00  0.00     0.134 A 
ATOM     66  C   UNL A   1      41.438  25.695  27.409  1.00  0.00     0.134 A 
ATOM     67  F   UNL A   1      43.224  28.784  26.749  1.00  0.00    -0.206 F 
ATOM     68  C   UNL A   1      43.044  26.836  25.451  1.00  0.00     0.040 A 
ATOM     69  C   UNL A   1      41.740  24.977  26.250  1.00  0.00     0.040 A 
ATOM     70  F   UNL A   1      40.633  25.121  28.314  1.00  0.00    -0.206 F 
ATOM     71  C   UNL A   1      42.535  25.552  25.261  1.00  0.00     0.006 A 
ENDBRANCH  43  64
BRANCH  55  72
ATOM     72  C   UNL A   1      44.318  27.260  34.150  1.00  0.00     0.057 A 
ATOM     73  C   UNL A   1      44.141  25.991  34.715  1.00  0.00     0.134 A 
ATOM     74  C   UNL A   1      45.601  27.821  34.219  1.00  0.00     0.134 A 
ATOM     75  F   UNL A   1      42.936  25.399  34.693  1.00  0.00    -0.206 F 
ATOM     76  C   UNL A   1      45.191  25.315  35.339  1.00  0.00     0.040 A 
ATOM     77  C   UNL A   1      46.666  27.143  34.817  1.00  0.00     0.040 A 
ATOM     78  F   UNL A   1      45.847  29.028  33.690  1.00  0.00    -0.206 F 
ATOM     79  C   UNL A   1      46.461  25.888  35.384  1.00  0.00     0.006 A 
ENDBRANCH  55  72
ENDBRANCH  29  30
ENDBRANCH  22  24
ENDBRANCH  21  22
ENDBRANCH  20  21
ENDBRANCH   1  20
TORSDOF 13
ENDMDL
