MODEL 1
REMARK VINA RESULT:     -12.5      0.000      0.000
REMARK SMILES Cc1ccc(S(=O)(=O)Nc2cccc(F)c2C(=O)OCCOC(=O)c2ccc(-c3c4nc(c(-c5c(F)cccc5F)c5ccc([nH]5)c(-c5c(F)cccc5F)c5nc(c(-c6c(F)cccc6F)c6ccc3[nH]6)C=C5)C=C4)cc2)cc1Cl
REMARK SMILES IDX 20 1 19 2 17 3 18 4 16 5 10 6 11 7 12 8 14 9 13 10 15 11
REMARK SMILES IDX 9 12 6 14 7 15 8 16 5 17 1 18 2 19 3 20 80 21 4 22 79 23
REMARK SMILES IDX 81 24 21 25 22 26 23 27 24 28 25 29 26 30 78 31 27 32 77 33
REMARK SMILES IDX 28 34 29 35 30 36 71 37 31 38 76 39 70 40 72 41 32 42 75 43
REMARK SMILES IDX 69 44 68 45 33 47 59 48 42 49 58 50 43 51 46 52 57 53 73 54
REMARK SMILES IDX 44 55 45 56 56 58 74 59 47 60 34 61 35 62 40 63 36 64 37 65
REMARK SMILES IDX 39 66 41 67 38 68 60 69 61 70 66 71 62 72 63 73 65 74 67 75
REMARK SMILES IDX 64 76 48 77 49 78 54 79 50 80 51 81 53 82 55 83 52 84
REMARK H PARENT 9 13 72 46 46 57
REMARK Flexibility Score: inf
ROOT
ATOM      1  C   UNL A   1      32.439  29.080  24.587  1.00  0.00     0.275 C 
ENDROOT
BRANCH   1   2
ATOM      2  O   UNL A   1      32.036  28.994  23.202  1.00  0.00    -0.458 OA
BRANCH   2   3
ATOM      3  C   UNL A   1      31.542  27.797  22.793  1.00  0.00     0.343 C 
ATOM      4  O   UNL A   1      32.164  26.906  22.248  1.00  0.00    -0.246 OA
BRANCH   3   5
ATOM      5  C   UNL A   1      30.093  27.764  23.048  1.00  0.00     0.119 A 
ATOM      6  C   UNL A   1      29.424  26.780  23.795  1.00  0.00     0.066 A 
ATOM      7  C   UNL A   1      28.046  26.930  24.036  1.00  0.00     0.028 A 
ATOM      8  C   UNL A   1      27.332  28.004  23.502  1.00  0.00     0.005 A 
ATOM      9  C   UNL A   1      29.358  28.825  22.504  1.00  0.00     0.139 A 
ATOM     10  C   UNL A   1      27.990  28.947  22.721  1.00  0.00     0.040 A 
ATOM     11  F   UNL A   1      29.957  29.750  21.738  1.00  0.00    -0.206 F 
BRANCH   6  12
ATOM     12  N   UNL A   1      30.014  25.613  24.367  1.00  0.00    -0.279 N 
ATOM     13  H   UNL A   1      30.100  24.814  23.799  1.00  0.00     0.180 HD
BRANCH  12  14
ATOM     14  S   UNL A   1      30.575  25.514  25.963  1.00  0.00     0.261 S 
ATOM     15  O   UNL A   1      29.747  24.481  26.550  1.00  0.00    -0.201 OA
ATOM     16  O   UNL A   1      30.654  26.821  26.562  1.00  0.00    -0.201 OA
BRANCH  14  17
ATOM     17  C   UNL A   1      32.215  24.856  25.941  1.00  0.00     0.089 A 
ATOM     18  C   UNL A   1      36.200  23.244  25.988  1.00  0.00     0.046 C 
ATOM     19  C   UNL A   1      34.801  23.788  25.991  1.00  0.00    -0.032 A 
ATOM     20  C   UNL A   1      34.540  25.004  25.339  1.00  0.00     0.006 A 
ATOM     21  C   UNL A   1      33.757  23.151  26.680  1.00  0.00     0.045 A 
ATOM     22  C   UNL A   1      33.260  25.554  25.341  1.00  0.00     0.022 A 
ATOM     23  C   UNL A   1      32.465  23.669  26.638  1.00  0.00     0.043 A 
ATOM     24  Cl  UNL A   1      34.026  21.731  27.626  1.00  0.00    -0.084 Cl
ENDBRANCH  14  17
ENDBRANCH  12  14
ENDBRANCH   6  12
ENDBRANCH   3   5
ENDBRANCH   2   3
ENDBRANCH   1   2
BRANCH   1  25
ATOM     25  C   UNL A   1      31.541  30.071  25.319  1.00  0.00     0.275 C 
BRANCH  25  26
ATOM     26  O   UNL A   1      32.037  30.214  26.661  1.00  0.00    -0.458 OA
BRANCH  26  27
ATOM     27  C   UNL A   1      32.557  31.417  26.989  1.00  0.00     0.338 C 
ATOM     28  O   UNL A   1      32.033  32.513  26.900  1.00  0.00    -0.246 OA
BRANCH  27  29
ATOM     29  C   UNL A   1      33.883  31.196  27.587  1.00  0.00     0.060 A 
ATOM     30  C   UNL A   1      34.359  29.894  27.657  1.00  0.00     0.016 A 
ATOM     31  C   UNL A   1      34.606  32.236  28.173  1.00  0.00     0.016 A 
ATOM     32  C   UNL A   1      35.518  29.629  28.376  1.00  0.00     0.010 A 
ATOM     33  C   UNL A   1      35.825  31.962  28.821  1.00  0.00     0.010 A 
ATOM     34  C   UNL A   1      36.286  30.643  28.960  1.00  0.00    -0.014 A 
BRANCH  34  35
ATOM     35  C   UNL A   1      37.503  30.273  29.752  1.00  0.00     0.031 A 
ATOM     36  C   UNL A   1      38.639  29.523  29.101  1.00  0.00     0.074 A 
ATOM     37  C   UNL A   1      37.674  30.706  31.023  1.00  0.00     0.049 A 
ATOM     38  N   UNL A   1      39.699  28.983  29.651  1.00  0.00    -0.248 NA
ATOM     39  C   UNL A   1      38.586  29.369  27.639  1.00  0.00     0.031 C 
ATOM     40  C   UNL A   1      36.741  31.557  31.765  1.00  0.00     0.029 A 
ATOM     41  N   UNL A   1      38.721  30.534  31.900  1.00  0.00    -0.354 N 
ATOM     42  C   UNL A   1      40.397  28.371  28.619  1.00  0.00     0.074 A 
ATOM     43  C   UNL A   1      39.656  28.623  27.401  1.00  0.00     0.031 C 
ATOM     44  C   UNL A   1      37.298  31.914  32.931  1.00  0.00     0.029 A 
ATOM     45  C   UNL A   1      38.559  31.201  33.093  1.00  0.00     0.049 A 
ATOM     46  H   UNL A   1      39.513  29.985  31.694  1.00  0.00     0.167 HD
ATOM     47  C   UNL A   1      41.545  27.655  28.682  1.00  0.00     0.037 A 
ATOM     48  C   UNL A   1      39.302  31.204  34.219  1.00  0.00     0.037 A 
ATOM     49  C   UNL A   1      42.319  27.455  29.881  1.00  0.00     0.049 A 
ATOM     50  C   UNL A   1      40.511  30.318  34.301  1.00  0.00     0.074 A 
ATOM     51  C   UNL A   1      43.468  26.702  30.048  1.00  0.00     0.029 A 
ATOM     52  N   UNL A   1      42.038  28.033  31.109  1.00  0.00    -0.354 N 
ATOM     53  N   UNL A   1      41.078  29.607  33.357  1.00  0.00    -0.248 NA
ATOM     54  C   UNL A   1      41.152  30.188  35.618  1.00  0.00     0.031 C 
ATOM     55  C   UNL A   1      43.861  26.792  31.387  1.00  0.00     0.029 A 
ATOM     56  C   UNL A   1      42.981  27.636  32.042  1.00  0.00     0.049 A 
ATOM     57  H   UNL A   1      41.282  28.637  31.290  1.00  0.00     0.167 HD
ATOM     58  C   UNL A   1      42.129  28.937  33.967  1.00  0.00     0.074 A 
ATOM     59  C   UNL A   1      42.146  29.350  35.354  1.00  0.00     0.031 C 
ATOM     60  C   UNL A   1      42.990  28.043  33.423  1.00  0.00     0.037 A 
BRANCH  47  61
ATOM     61  C   UNL A   1      42.014  26.972  27.432  1.00  0.00     0.057 A 
ATOM     62  C   UNL A   1      41.674  25.632  27.199  1.00  0.00     0.134 A 
ATOM     63  C   UNL A   1      42.848  27.600  26.501  1.00  0.00     0.134 A 
ATOM     64  F   UNL A   1      40.882  24.972  28.058  1.00  0.00    -0.206 F 
ATOM     65  C   UNL A   1      42.159  24.936  26.093  1.00  0.00     0.040 A 
ATOM     66  C   UNL A   1      43.323  26.919  25.377  1.00  0.00     0.040 A 
ATOM     67  F   UNL A   1      43.197  28.885  26.657  1.00  0.00    -0.206 F 
ATOM     68  C   UNL A   1      42.987  25.581  25.176  1.00  0.00     0.006 A 
ENDBRANCH  47  61
BRANCH  48  69
ATOM     69  C   UNL A   1      38.864  32.000  35.397  1.00  0.00     0.057 A 
ATOM     70  C   UNL A   1      39.149  33.368  35.501  1.00  0.00     0.134 A 
ATOM     71  C   UNL A   1      38.154  31.413  36.450  1.00  0.00     0.134 A 
ATOM     72  F   UNL A   1      39.810  33.999  34.519  1.00  0.00    -0.206 F 
ATOM     73  C   UNL A   1      38.788  34.112  36.625  1.00  0.00     0.040 A 
ATOM     74  C   UNL A   1      37.756  32.152  37.566  1.00  0.00     0.040 A 
ATOM     75  F   UNL A   1      37.812  30.117  36.395  1.00  0.00    -0.206 F 
ATOM     76  C   UNL A   1      38.085  33.503  37.661  1.00  0.00     0.006 A 
ENDBRANCH  48  69
BRANCH  60  77
ATOM     77  C   UNL A   1      44.025  27.440  34.323  1.00  0.00     0.057 A 
ATOM     78  C   UNL A   1      45.266  28.062  34.508  1.00  0.00     0.134 A 
ATOM     79  C   UNL A   1      43.818  26.204  34.946  1.00  0.00     0.134 A 
ATOM     80  F   UNL A   1      45.529  29.244  33.931  1.00  0.00    -0.206 F 
ATOM     81  C   UNL A   1      46.272  27.465  35.270  1.00  0.00     0.040 A 
ATOM     82  C   UNL A   1      44.809  25.607  35.727  1.00  0.00     0.040 A 
ATOM     83  F   UNL A   1      42.645  25.564  34.816  1.00  0.00    -0.206 F 
ATOM     84  C   UNL A   1      46.044  26.233  35.882  1.00  0.00     0.006 A 
ENDBRANCH  60  77
ENDBRANCH  34  35
ENDBRANCH  27  29
ENDBRANCH  26  27
ENDBRANCH  25  26
ENDBRANCH   1  25
TORSDOF 14
ENDMDL
MODEL 2
REMARK VINA RESULT:     -12.3      4.489      9.144
REMARK SMILES Cc1ccc(S(=O)(=O)Nc2cccc(F)c2C(=O)OCCOC(=O)c2ccc(-c3c4nc(c(-c5c(F)cccc5F)c5ccc([nH]5)c(-c5c(F)cccc5F)c5nc(c(-c6c(F)cccc6F)c6ccc3[nH]6)C=C5)C=C4)cc2)cc1Cl
REMARK SMILES IDX 20 1 19 2 17 3 18 4 16 5 10 6 11 7 12 8 14 9 13 10 15 11
REMARK SMILES IDX 9 12 6 14 7 15 8 16 5 17 1 18 2 19 3 20 80 21 4 22 79 23
REMARK SMILES IDX 81 24 21 25 22 26 23 27 24 28 25 29 26 30 78 31 27 32 77 33
REMARK SMILES IDX 28 34 29 35 30 36 71 37 31 38 76 39 70 40 72 41 32 42 75 43
REMARK SMILES IDX 69 44 68 45 33 47 59 48 42 49 58 50 43 51 46 52 57 53 73 54
REMARK SMILES IDX 44 55 45 56 56 58 74 59 47 60 34 61 35 62 40 63 36 64 37 65
REMARK SMILES IDX 39 66 41 67 38 68 60 69 61 70 66 71 62 72 63 73 65 74 67 75
REMARK SMILES IDX 64 76 48 77 49 78 54 79 50 80 51 81 53 82 55 83 52 84
REMARK H PARENT 9 13 72 46 46 57
REMARK Flexibility Score: inf
ROOT
ATOM      1  C   UNL A   1      35.270  21.628  26.051  1.00  0.00     0.275 C 
ENDROOT
BRANCH   1   2
ATOM      2  O   UNL A   1      34.060  20.916  26.395  1.00  0.00    -0.458 OA
BRANCH   2   3
ATOM      3  C   UNL A   1      32.906  21.403  25.869  1.00  0.00     0.343 C 
ATOM      4  O   UNL A   1      32.191  22.254  26.361  1.00  0.00    -0.246 OA
BRANCH   3   5
ATOM      5  C   UNL A   1      32.605  20.680  24.624  1.00  0.00     0.119 A 
ATOM      6  C   UNL A   1      32.356  21.281  23.379  1.00  0.00     0.066 A 
ATOM      7  C   UNL A   1      32.176  20.459  22.251  1.00  0.00     0.028 A 
ATOM      8  C   UNL A   1      32.187  19.067  22.363  1.00  0.00     0.005 A 
ATOM      9  C   UNL A   1      32.595  19.283  24.721  1.00  0.00     0.139 A 
ATOM     10  C   UNL A   1      32.383  18.479  23.606  1.00  0.00     0.040 A 
ATOM     11  F   UNL A   1      32.773  18.678  25.906  1.00  0.00    -0.206 F 
BRANCH   6  12
ATOM     12  N   UNL A   1      32.277  22.683  23.123  1.00  0.00    -0.279 N 
ATOM     13  H   UNL A   1      31.404  23.124  23.235  1.00  0.00     0.180 HD
BRANCH  12  14
ATOM     14  S   UNL A   1      33.589  23.638  22.637  1.00  0.00     0.261 S 
ATOM     15  O   UNL A   1      33.200  24.108  21.324  1.00  0.00    -0.201 OA
ATOM     16  O   UNL A   1      34.833  22.937  22.827  1.00  0.00    -0.201 OA
BRANCH  14  17
ATOM     17  C   UNL A   1      33.646  25.076  23.661  1.00  0.00     0.089 A 
ATOM     18  C   UNL A   1      33.853  28.617  26.092  1.00  0.00     0.046 C 
ATOM     19  C   UNL A   1      33.783  27.397  25.220  1.00  0.00    -0.032 A 
ATOM     20  C   UNL A   1      33.922  26.130  25.807  1.00  0.00     0.006 A 
ATOM     21  C   UNL A   1      33.645  27.486  23.826  1.00  0.00     0.045 A 
ATOM     22  C   UNL A   1      33.887  24.974  25.029  1.00  0.00     0.022 A 
ATOM     23  C   UNL A   1      33.555  26.332  23.052  1.00  0.00     0.043 A 
ATOM     24  Cl  UNL A   1      33.613  29.009  23.012  1.00  0.00    -0.084 Cl
ENDBRANCH  14  17
ENDBRANCH  12  14
ENDBRANCH   6  12
ENDBRANCH   3   5
ENDBRANCH   2   3
ENDBRANCH   1   2
BRANCH   1  25
ATOM     25  C   UNL A   1      36.162  20.733  25.196  1.00  0.00     0.275 C 
BRANCH  25  26
ATOM     26  O   UNL A   1      37.389  21.438  24.945  1.00  0.00    -0.458 OA
BRANCH  26  27
ATOM     27  C   UNL A   1      38.485  20.996  25.599  1.00  0.00     0.338 C 
ATOM     28  O   UNL A   1      38.920  19.860  25.659  1.00  0.00    -0.246 OA
BRANCH  27  29
ATOM     29  C   UNL A   1      39.169  22.160  26.185  1.00  0.00     0.060 A 
ATOM     30  C   UNL A   1      38.641  23.420  25.941  1.00  0.00     0.016 A 
ATOM     31  C   UNL A   1      40.377  22.031  26.874  1.00  0.00     0.016 A 
ATOM     32  C   UNL A   1      39.360  24.546  26.322  1.00  0.00     0.010 A 
ATOM     33  C   UNL A   1      41.047  23.180  27.332  1.00  0.00     0.010 A 
ATOM     34  C   UNL A   1      40.561  24.464  27.034  1.00  0.00    -0.014 A 
BRANCH  34  35
ATOM     35  C   UNL A   1      41.297  25.724  27.376  1.00  0.00     0.031 A 
ATOM     36  C   UNL A   1      40.693  26.725  28.329  1.00  0.00     0.074 A 
ATOM     37  C   UNL A   1      42.561  25.940  26.946  1.00  0.00     0.049 A 
ATOM     38  N   UNL A   1      41.099  27.935  28.628  1.00  0.00    -0.248 NA
ATOM     39  C   UNL A   1      39.480  26.311  29.052  1.00  0.00     0.031 C 
ATOM     40  C   UNL A   1      43.353  25.016  26.130  1.00  0.00     0.029 A 
ATOM     41  N   UNL A   1      43.428  26.983  27.182  1.00  0.00    -0.354 N 
ATOM     42  C   UNL A   1      40.160  28.446  29.515  1.00  0.00     0.074 A 
ATOM     43  C   UNL A   1      39.172  27.410  29.726  1.00  0.00     0.031 C 
ATOM     44  C   UNL A   1      44.605  25.480  26.022  1.00  0.00     0.029 A 
ATOM     45  C   UNL A   1      44.675  26.804  26.629  1.00  0.00     0.049 A 
ATOM     46  H   UNL A   1      43.179  27.784  27.699  1.00  0.00     0.167 HD
ATOM     47  C   UNL A   1      40.121  29.672  30.090  1.00  0.00     0.037 A 
ATOM     48  C   UNL A   1      45.744  27.624  26.558  1.00  0.00     0.037 A 
ATOM     49  C   UNL A   1      41.135  30.682  29.931  1.00  0.00     0.049 A 
ATOM     50  C   UNL A   1      45.636  29.016  27.109  1.00  0.00     0.074 A 
ATOM     51  C   UNL A   1      41.152  31.972  30.436  1.00  0.00     0.029 A 
ATOM     52  N   UNL A   1      42.322  30.510  29.238  1.00  0.00    -0.354 N 
ATOM     53  N   UNL A   1      44.669  29.552  27.813  1.00  0.00    -0.248 NA
ATOM     54  C   UNL A   1      46.742  29.937  26.809  1.00  0.00     0.031 C 
ATOM     55  C   UNL A   1      42.332  32.592  30.015  1.00  0.00     0.029 A 
ATOM     56  C   UNL A   1      43.068  31.676  29.284  1.00  0.00     0.049 A 
ATOM     57  H   UNL A   1      42.594  29.682  28.780  1.00  0.00     0.167 HD
ATOM     58  C   UNL A   1      45.042  30.871  28.026  1.00  0.00     0.074 A 
ATOM     59  C   UNL A   1      46.339  31.050  27.408  1.00  0.00     0.031 C 
ATOM     60  C   UNL A   1      44.355  31.851  28.662  1.00  0.00     0.037 A 
BRANCH  47  61
ATOM     61  C   UNL A   1      38.909  30.026  30.900  1.00  0.00     0.057 A 
ATOM     62  C   UNL A   1      38.870  29.720  32.267  1.00  0.00     0.134 A 
ATOM     63  C   UNL A   1      37.766  30.597  30.331  1.00  0.00     0.134 A 
ATOM     64  F   UNL A   1      39.933  29.166  32.871  1.00  0.00    -0.206 F 
ATOM     65  C   UNL A   1      37.732  29.955  33.038  1.00  0.00     0.040 A 
ATOM     66  C   UNL A   1      36.627  30.856  31.097  1.00  0.00     0.040 A 
ATOM     67  F   UNL A   1      37.744  30.928  29.032  1.00  0.00    -0.206 F 
ATOM     68  C   UNL A   1      36.605  30.526  32.452  1.00  0.00     0.006 A 
ENDBRANCH  47  61
BRANCH  48  69
ATOM     69  C   UNL A   1      46.975  27.181  25.850  1.00  0.00     0.057 A 
ATOM     70  C   UNL A   1      48.014  26.531  26.530  1.00  0.00     0.134 A 
ATOM     71  C   UNL A   1      47.147  27.402  24.480  1.00  0.00     0.134 A 
ATOM     72  F   UNL A   1      47.907  26.271  27.842  1.00  0.00    -0.206 F 
ATOM     73  C   UNL A   1      49.194  26.158  25.887  1.00  0.00     0.040 A 
ATOM     74  C   UNL A   1      48.309  27.004  23.815  1.00  0.00     0.040 A 
ATOM     75  F   UNL A   1      46.175  27.983  23.761  1.00  0.00    -0.206 F 
ATOM     76  C   UNL A   1      49.342  26.392  24.522  1.00  0.00     0.006 A 
ENDBRANCH  48  69
BRANCH  60  77
ATOM     77  C   UNL A   1      44.982  33.210  28.725  1.00  0.00     0.057 A 
ATOM     78  C   UNL A   1      45.826  33.564  29.786  1.00  0.00     0.134 A 
ATOM     79  C   UNL A   1      44.688  34.193  27.773  1.00  0.00     0.134 A 
ATOM     80  F   UNL A   1      46.140  32.669  30.735  1.00  0.00    -0.206 F 
ATOM     81  C   UNL A   1      46.343  34.855  29.905  1.00  0.00     0.040 A 
ATOM     82  C   UNL A   1      45.215  35.482  27.871  1.00  0.00     0.040 A 
ATOM     83  F   UNL A   1      43.895  33.912  26.728  1.00  0.00    -0.206 F 
ATOM     84  C   UNL A   1      46.038  35.818  28.944  1.00  0.00     0.006 A 
ENDBRANCH  60  77
ENDBRANCH  34  35
ENDBRANCH  27  29
ENDBRANCH  26  27
ENDBRANCH  25  26
ENDBRANCH   1  25
TORSDOF 14
ENDMDL
MODEL 3
REMARK VINA RESULT:     -12.2      4.204      8.625
REMARK SMILES Cc1ccc(S(=O)(=O)Nc2cccc(F)c2C(=O)OCCOC(=O)c2ccc(-c3c4nc(c(-c5c(F)cccc5F)c5ccc([nH]5)c(-c5c(F)cccc5F)c5nc(c(-c6c(F)cccc6F)c6ccc3[nH]6)C=C5)C=C4)cc2)cc1Cl
REMARK SMILES IDX 20 1 19 2 17 3 18 4 16 5 10 6 11 7 12 8 14 9 13 10 15 11
REMARK SMILES IDX 9 12 6 14 7 15 8 16 5 17 1 18 2 19 3 20 80 21 4 22 79 23
REMARK SMILES IDX 81 24 21 25 22 26 23 27 24 28 25 29 26 30 78 31 27 32 77 33
REMARK SMILES IDX 28 34 29 35 30 36 71 37 31 38 76 39 70 40 72 41 32 42 75 43
REMARK SMILES IDX 69 44 68 45 33 47 59 48 42 49 58 50 43 51 46 52 57 53 73 54
REMARK SMILES IDX 44 55 45 56 56 58 74 59 47 60 34 61 35 62 40 63 36 64 37 65
REMARK SMILES IDX 39 66 41 67 38 68 60 69 61 70 66 71 62 72 63 73 65 74 67 75
REMARK SMILES IDX 64 76 48 77 49 78 54 79 50 80 51 81 53 82 55 83 52 84
REMARK H PARENT 9 13 72 46 46 57
REMARK Flexibility Score: inf
ROOT
ATOM      1  C   UNL A   1      36.245  22.557  23.479  1.00  0.00     0.275 C 
ENDROOT
BRANCH   1   2
ATOM      2  O   UNL A   1      35.673  23.783  23.987  1.00  0.00    -0.458 OA
BRANCH   2   3
ATOM      3  C   UNL A   1      34.532  24.209  23.385  1.00  0.00     0.343 C 
ATOM      4  O   UNL A   1      34.082  23.811  22.329  1.00  0.00    -0.246 OA
BRANCH   3   5
ATOM      5  C   UNL A   1      33.948  25.298  24.182  1.00  0.00     0.119 A 
ATOM      6  C   UNL A   1      33.640  25.225  25.551  1.00  0.00     0.066 A 
ATOM      7  C   UNL A   1      33.173  26.381  26.205  1.00  0.00     0.028 A 
ATOM      8  C   UNL A   1      32.962  27.571  25.506  1.00  0.00     0.005 A 
ATOM      9  C   UNL A   1      33.713  26.494  23.493  1.00  0.00     0.139 A 
ATOM     10  C   UNL A   1      33.220  27.622  24.142  1.00  0.00     0.040 A 
ATOM     11  F   UNL A   1      33.943  26.581  22.174  1.00  0.00    -0.206 F 
BRANCH   6  12
ATOM     12  N   UNL A   1      33.768  24.072  26.381  1.00  0.00    -0.279 N 
ATOM     13  H   UNL A   1      34.653  23.876  26.765  1.00  0.00     0.180 HD
BRANCH  12  14
ATOM     14  S   UNL A   1      32.494  23.017  26.750  1.00  0.00     0.261 S 
ATOM     15  O   UNL A   1      31.319  23.734  26.303  1.00  0.00    -0.201 OA
ATOM     16  O   UNL A   1      32.595  22.544  28.106  1.00  0.00    -0.201 OA
BRANCH  14  17
ATOM     17  C   UNL A   1      32.617  21.601  25.699  1.00  0.00     0.089 A 
ATOM     18  C   UNL A   1      32.821  18.177  23.107  1.00  0.00     0.046 C 
ATOM     19  C   UNL A   1      32.737  19.387  23.992  1.00  0.00    -0.032 A 
ATOM     20  C   UNL A   1      33.022  19.253  25.360  1.00  0.00     0.006 A 
ATOM     21  C   UNL A   1      32.320  20.636  23.505  1.00  0.00     0.045 A 
ATOM     22  C   UNL A   1      32.931  20.348  26.218  1.00  0.00     0.022 A 
ATOM     23  C   UNL A   1      32.281  21.743  24.348  1.00  0.00     0.043 A 
ATOM     24  Cl  UNL A   1      31.813  20.850  21.868  1.00  0.00    -0.084 Cl
ENDBRANCH  14  17
ENDBRANCH  12  14
ENDBRANCH   6  12
ENDBRANCH   3   5
ENDBRANCH   2   3
ENDBRANCH   1   2
BRANCH   1  25
ATOM     25  C   UNL A   1      36.055  21.442  24.502  1.00  0.00     0.275 C 
BRANCH  25  26
ATOM     26  O   UNL A   1      36.771  21.807  25.695  1.00  0.00    -0.458 OA
BRANCH  26  27
ATOM     27  C   UNL A   1      38.073  21.451  25.751  1.00  0.00     0.338 C 
ATOM     28  O   UNL A   1      38.595  20.434  25.334  1.00  0.00    -0.246 OA
BRANCH  27  29
ATOM     29  C   UNL A   1      38.828  22.570  26.339  1.00  0.00     0.060 A 
ATOM     30  C   UNL A   1      38.349  23.857  26.141  1.00  0.00     0.016 A 
ATOM     31  C   UNL A   1      40.050  22.372  26.983  1.00  0.00     0.016 A 
ATOM     32  C   UNL A   1      39.129  24.942  26.522  1.00  0.00     0.010 A 
ATOM     33  C   UNL A   1      40.787  23.478  27.443  1.00  0.00     0.010 A 
ATOM     34  C   UNL A   1      40.349  24.789  27.190  1.00  0.00    -0.014 A 
BRANCH  34  35
ATOM     35  C   UNL A   1      41.151  26.007  27.535  1.00  0.00     0.031 A 
ATOM     36  C   UNL A   1      40.603  27.037  28.492  1.00  0.00     0.074 A 
ATOM     37  C   UNL A   1      42.426  26.156  27.104  1.00  0.00     0.049 A 
ATOM     38  N   UNL A   1      41.074  28.223  28.793  1.00  0.00    -0.248 NA
ATOM     39  C   UNL A   1      39.370  26.687  29.214  1.00  0.00     0.031 C 
ATOM     40  C   UNL A   1      43.165  25.194  26.285  1.00  0.00     0.029 A 
ATOM     41  N   UNL A   1      43.347  27.151  27.342  1.00  0.00    -0.354 N 
ATOM     42  C   UNL A   1      40.165  28.781  29.682  1.00  0.00     0.074 A 
ATOM     43  C   UNL A   1      39.123  27.799  29.892  1.00  0.00     0.031 C 
ATOM     44  C   UNL A   1      44.441  25.590  26.177  1.00  0.00     0.029 A 
ATOM     45  C   UNL A   1      44.582  26.907  26.787  1.00  0.00     0.049 A 
ATOM     46  H   UNL A   1      43.142  27.963  27.861  1.00  0.00     0.167 HD
ATOM     47  C   UNL A   1      40.192  30.006  30.260  1.00  0.00     0.037 A 
ATOM     48  C   UNL A   1      45.693  27.669  26.717  1.00  0.00     0.037 A 
ATOM     49  C   UNL A   1      41.258  30.961  30.103  1.00  0.00     0.049 A 
ATOM     50  C   UNL A   1      45.661  29.063  27.272  1.00  0.00     0.074 A 
ATOM     51  C   UNL A   1      41.345  32.246  30.612  1.00  0.00     0.029 A 
ATOM     52  N   UNL A   1      42.434  30.727  29.408  1.00  0.00    -0.354 N 
ATOM     53  N   UNL A   1      44.725  29.648  27.978  1.00  0.00    -0.248 NA
ATOM     54  C   UNL A   1      46.814  29.925  26.973  1.00  0.00     0.031 C 
ATOM     55  C   UNL A   1      42.556  32.803  30.191  1.00  0.00     0.029 A 
ATOM     56  C   UNL A   1      43.241  31.851  29.457  1.00  0.00     0.049 A 
ATOM     57  H   UNL A   1      42.661  29.886  28.948  1.00  0.00     0.167 HD
ATOM     58  C   UNL A   1      45.168  30.945  28.195  1.00  0.00     0.074 A 
ATOM     59  C   UNL A   1      46.472  31.055  27.576  1.00  0.00     0.031 C 
ATOM     60  C   UNL A   1      44.535  31.958  28.834  1.00  0.00     0.037 A 
BRANCH  47  61
ATOM     61  C   UNL A   1      39.001  30.422  31.073  1.00  0.00     0.057 A 
ATOM     62  C   UNL A   1      38.956  30.132  32.444  1.00  0.00     0.134 A 
ATOM     63  C   UNL A   1      37.882  31.037  30.504  1.00  0.00     0.134 A 
ATOM     64  F   UNL A   1      39.997  29.537  33.047  1.00  0.00    -0.206 F 
ATOM     65  C   UNL A   1      37.834  30.426  33.217  1.00  0.00     0.040 A 
ATOM     66  C   UNL A   1      36.759  31.356  31.273  1.00  0.00     0.040 A 
ATOM     67  F   UNL A   1      37.868  31.356  29.201  1.00  0.00    -0.206 F 
ATOM     68  C   UNL A   1      36.730  31.041  32.631  1.00  0.00     0.006 A 
ENDBRANCH  47  61
BRANCH  48  69
ATOM     69  C   UNL A   1      46.898  27.163  26.007  1.00  0.00     0.057 A 
ATOM     70  C   UNL A   1      47.904  26.460  26.685  1.00  0.00     0.134 A 
ATOM     71  C   UNL A   1      47.078  27.374  24.636  1.00  0.00     0.134 A 
ATOM     72  F   UNL A   1      47.787  26.206  27.997  1.00  0.00    -0.206 F 
ATOM     73  C   UNL A   1      49.062  26.026  26.039  1.00  0.00     0.040 A 
ATOM     74  C   UNL A   1      48.216  26.915  23.969  1.00  0.00     0.040 A 
ATOM     75  F   UNL A   1      46.135  28.003  23.919  1.00  0.00    -0.206 F 
ATOM     76  C   UNL A   1      49.219  26.251  24.674  1.00  0.00     0.006 A 
ENDBRANCH  48  69
BRANCH  60  77
ATOM     77  C   UNL A   1      45.234  33.282  28.900  1.00  0.00     0.057 A 
ATOM     78  C   UNL A   1      45.040  34.248  27.905  1.00  0.00     0.134 A 
ATOM     79  C   UNL A   1      46.159  33.568  29.911  1.00  0.00     0.134 A 
ATOM     80  F   UNL A   1      44.173  34.031  26.905  1.00  0.00    -0.206 F 
ATOM     81  C   UNL A   1      45.753  35.447  27.906  1.00  0.00     0.040 A 
ATOM     82  C   UNL A   1      46.865  34.772  29.934  1.00  0.00     0.040 A 
ATOM     83  F   UNL A   1      46.382  32.687  30.899  1.00  0.00    -0.206 F 
ATOM     84  C   UNL A   1      46.669  35.712  28.924  1.00  0.00     0.006 A 
ENDBRANCH  60  77
ENDBRANCH  34  35
ENDBRANCH  27  29
ENDBRANCH  26  27
ENDBRANCH  25  26
ENDBRANCH   1  25
TORSDOF 14
ENDMDL
