MODEL 1
REMARK VINA RESULT:     -11.1      0.000      0.000
REMARK SMILES O=C(OCCOC(=O)[C@H]1CC[C@@H](CNc2ccccc2[N+](=O)[O-])O1)c1ccc(-c2c3nc(c(-c4c(F)cccc4F)c4ccc([nH]4)c(-c4c(F)cccc4F)c4nc(c(-c5c(F)cccc5F)c5ccc2[nH]5)C=C4)C=C3)cc1
REMARK SMILES IDX 5 1 4 2 3 3 2 4 1 5 25 6 26 7 78 8 27 9 77 10 28 11 29 12
REMARK SMILES IDX 30 13 71 14 31 15 76 16 70 17 72 18 32 19 75 20 69 21 68 22
REMARK SMILES IDX 33 24 59 25 42 26 58 27 43 28 46 29 57 30 73 31 44 32 45 33
REMARK SMILES IDX 56 35 74 36 47 37 34 38 35 39 40 40 36 41 37 42 39 43 41 44
REMARK SMILES IDX 38 45 60 46 61 47 66 48 62 49 63 50 65 51 67 52 64 53 48 54
REMARK SMILES IDX 49 55 54 56 50 57 51 58 53 59 55 60 52 61 6 62 7 63 8 64
REMARK SMILES IDX 9 65 10 66 24 67 11 68 12 69 13 70 14 71 15 73 16 74 20 75
REMARK SMILES IDX 17 76 19 77 18 78 21 79 22 80 23 81
REMARK H PARENT 72 23 46 34 14 72
REMARK Flexibility Score: inf
ROOT
ATOM      1  C   UNL A   1      32.519  31.289  26.875  1.00  0.00     0.274 C 
ENDROOT
BRANCH   1   2
ATOM      2  C   UNL A   1      31.616  32.517  26.992  1.00  0.00     0.275 C 
BRANCH   2   3
ATOM      3  O   UNL A   1      32.293  33.768  27.174  1.00  0.00    -0.458 OA
BRANCH   3   4
ATOM      4  C   UNL A   1      33.008  34.231  28.222  1.00  0.00     0.338 C 
ATOM      5  O   UNL A   1      32.652  35.283  28.755  1.00  0.00    -0.246 OA
BRANCH   4   6
ATOM      6  C   UNL A   1      34.283  33.618  28.712  1.00  0.00     0.060 A 
ATOM      7  C   UNL A   1      35.573  33.872  28.234  1.00  0.00     0.016 A 
ATOM      8  C   UNL A   1      34.144  32.671  29.744  1.00  0.00     0.016 A 
ATOM      9  C   UNL A   1      36.694  33.249  28.808  1.00  0.00     0.010 A 
ATOM     10  C   UNL A   1      35.256  32.066  30.334  1.00  0.00     0.010 A 
ATOM     11  C   UNL A   1      36.545  32.354  29.869  1.00  0.00    -0.014 A 
BRANCH  11  12
ATOM     12  C   UNL A   1      37.705  31.650  30.468  1.00  0.00     0.031 A 
ATOM     13  C   UNL A   1      38.186  32.061  31.819  1.00  0.00     0.074 A 
ATOM     14  C   UNL A   1      38.357  30.679  29.802  1.00  0.00     0.049 A 
ATOM     15  N   UNL A   1      39.159  31.553  32.525  1.00  0.00    -0.248 NA
ATOM     16  C   UNL A   1      37.456  33.155  32.478  1.00  0.00     0.031 C 
ATOM     17  C   UNL A   1      37.928  30.113  28.534  1.00  0.00     0.029 A 
ATOM     18  N   UNL A   1      39.524  30.011  30.074  1.00  0.00    -0.354 N 
ATOM     19  C   UNL A   1      39.101  32.203  33.744  1.00  0.00     0.074 A 
ATOM     20  C   UNL A   1      38.088  33.230  33.638  1.00  0.00     0.031 C 
ATOM     21  C   UNL A   1      38.863  29.268  28.075  1.00  0.00     0.029 A 
ATOM     22  C   UNL A   1      39.942  29.199  29.046  1.00  0.00     0.049 A 
ATOM     23  H   UNL A   1      40.013  30.104  30.923  1.00  0.00     0.167 HD
ATOM     24  C   UNL A   1      39.782  31.911  34.876  1.00  0.00     0.037 A 
ATOM     25  C   UNL A   1      41.053  28.456  28.905  1.00  0.00     0.037 A 
ATOM     26  C   UNL A   1      40.820  30.922  34.954  1.00  0.00     0.049 A 
ATOM     27  C   UNL A   1      41.938  28.297  30.103  1.00  0.00     0.074 A 
ATOM     28  C   UNL A   1      41.583  30.550  36.044  1.00  0.00     0.029 A 
ATOM     29  N   UNL A   1      41.258  30.160  33.878  1.00  0.00    -0.354 N 
ATOM     30  N   UNL A   1      41.810  28.842  31.288  1.00  0.00    -0.248 NA
ATOM     31  C   UNL A   1      43.064  27.365  29.981  1.00  0.00     0.031 C 
ATOM     32  C   UNL A   1      42.516  29.596  35.615  1.00  0.00     0.029 A 
ATOM     33  C   UNL A   1      42.308  29.347  34.266  1.00  0.00     0.049 A 
ATOM     34  H   UNL A   1      40.878  30.194  32.970  1.00  0.00     0.167 HD
ATOM     35  C   UNL A   1      42.782  28.256  32.080  1.00  0.00     0.074 A 
ATOM     36  C   UNL A   1      43.514  27.337  31.227  1.00  0.00     0.031 C 
ATOM     37  C   UNL A   1      43.020  28.438  33.402  1.00  0.00     0.037 A 
BRANCH  24  38
ATOM     38  C   UNL A   1      39.375  32.685  36.090  1.00  0.00     0.057 A 
ATOM     39  C   UNL A   1      40.013  33.890  36.424  1.00  0.00     0.134 A 
ATOM     40  C   UNL A   1      38.428  32.181  36.984  1.00  0.00     0.134 A 
ATOM     41  F   UNL A   1      40.956  34.406  35.620  1.00  0.00    -0.206 F 
ATOM     42  C   UNL A   1      39.754  34.542  37.630  1.00  0.00     0.040 A 
ATOM     43  C   UNL A   1      38.145  32.836  38.184  1.00  0.00     0.040 A 
ATOM     44  F   UNL A   1      37.794  31.028  36.727  1.00  0.00    -0.206 F 
ATOM     45  C   UNL A   1      38.820  34.012  38.515  1.00  0.00     0.006 A 
ENDBRANCH  24  38
BRANCH  25  46
ATOM     46  C   UNL A   1      41.326  27.741  27.632  1.00  0.00     0.057 A 
ATOM     47  C   UNL A   1      40.858  26.442  27.406  1.00  0.00     0.134 A 
ATOM     48  C   UNL A   1      42.067  28.344  26.606  1.00  0.00     0.134 A 
ATOM     49  F   UNL A   1      40.154  25.807  28.354  1.00  0.00    -0.206 F 
ATOM     50  C   UNL A   1      41.135  25.759  26.220  1.00  0.00     0.040 A 
ATOM     51  C   UNL A   1      42.342  27.677  25.409  1.00  0.00     0.040 A 
ATOM     52  F   UNL A   1      42.535  29.592  26.752  1.00  0.00    -0.206 F 
ATOM     53  C   UNL A   1      41.880  26.376  25.216  1.00  0.00     0.006 A 
ENDBRANCH  25  46
BRANCH  37  54
ATOM     54  C   UNL A   1      44.092  27.589  34.011  1.00  0.00     0.057 A 
ATOM     55  C   UNL A   1      45.422  28.019  34.083  1.00  0.00     0.134 A 
ATOM     56  C   UNL A   1      43.781  26.336  34.556  1.00  0.00     0.134 A 
ATOM     57  F   UNL A   1      45.784  29.199  33.557  1.00  0.00    -0.206 F 
ATOM     58  C   UNL A   1      46.411  27.224  34.660  1.00  0.00     0.040 A 
ATOM     59  C   UNL A   1      44.756  25.545  35.159  1.00  0.00     0.040 A 
ATOM     60  F   UNL A   1      42.523  25.870  34.516  1.00  0.00    -0.206 F 
ATOM     61  C   UNL A   1      46.077  25.986  35.209  1.00  0.00     0.006 A 
ENDBRANCH  37  54
ENDBRANCH  11  12
ENDBRANCH   4   6
ENDBRANCH   3   4
ENDBRANCH   2   3
ENDBRANCH   1   2
BRANCH   1  62
ATOM     62  O   UNL A   1      31.828  30.047  26.683  1.00  0.00    -0.460 OA
BRANCH  62  63
ATOM     63  C   UNL A   1      31.969  29.503  25.437  1.00  0.00     0.335 C 
ATOM     64  O   UNL A   1      31.091  29.495  24.581  1.00  0.00    -0.249 OA
BRANCH  63  65
ATOM     65  C   UNL A   1      33.310  28.781  25.277  1.00  0.00     0.228 C 
ATOM     66  C   UNL A   1      33.686  27.842  26.402  1.00  0.00     0.047 C 
ATOM     67  O   UNL A   1      33.290  28.003  24.076  1.00  0.00    -0.361 OA
ATOM     68  C   UNL A   1      33.178  26.504  25.928  1.00  0.00     0.037 C 
ATOM     69  C   UNL A   1      33.244  26.599  24.411  1.00  0.00     0.138 C 
BRANCH  69  70
ATOM     70  C   UNL A   1      32.039  25.922  23.722  1.00  0.00     0.145 C 
BRANCH  70  71
ATOM     71  N   UNL A   1      31.401  24.947  24.592  1.00  0.00    -0.377 N 
ATOM     72  H   UNL A   1      30.749  25.259  25.259  1.00  0.00     0.160 HD
BRANCH  71  73
ATOM     73  C   UNL A   1      31.681  23.593  24.511  1.00  0.00     0.113 A 
ATOM     74  C   UNL A   1      31.870  23.079  23.217  1.00  0.00     0.033 A 
ATOM     75  C   UNL A   1      31.854  22.699  25.582  1.00  0.00     0.292 A 
ATOM     76  C   UNL A   1      32.215  21.745  22.995  1.00  0.00     0.003 A 
ATOM     77  C   UNL A   1      32.203  21.352  25.368  1.00  0.00     0.088 A 
ATOM     78  C   UNL A   1      32.382  20.881  24.070  1.00  0.00     0.007 A 
BRANCH  75  79
ATOM     79  N   UNL A   1      31.644  23.102  26.967  1.00  0.00     0.064 N 
ATOM     80  O   UNL A   1      30.725  23.910  27.179  1.00  0.00    -0.258 OA
ATOM     81  O   UNL A   1      32.390  22.643  27.843  1.00  0.00    -0.258 OA
ENDBRANCH  75  79
ENDBRANCH  71  73
ENDBRANCH  70  71
ENDBRANCH  69  70
ENDBRANCH  63  65
ENDBRANCH  62  63
ENDBRANCH   1  62
TORSDOF 15
ENDMDL
MODEL 2
REMARK VINA RESULT:     -11.0      1.924      6.591
REMARK SMILES O=C(OCCOC(=O)[C@H]1CC[C@@H](CNc2ccccc2[N+](=O)[O-])O1)c1ccc(-c2c3nc(c(-c4c(F)cccc4F)c4ccc([nH]4)c(-c4c(F)cccc4F)c4nc(c(-c5c(F)cccc5F)c5ccc2[nH]5)C=C4)C=C3)cc1
REMARK SMILES IDX 5 1 4 2 3 3 2 4 1 5 25 6 26 7 78 8 27 9 77 10 28 11 29 12
REMARK SMILES IDX 30 13 71 14 31 15 76 16 70 17 72 18 32 19 75 20 69 21 68 22
REMARK SMILES IDX 33 24 59 25 42 26 58 27 43 28 46 29 57 30 73 31 44 32 45 33
REMARK SMILES IDX 56 35 74 36 47 37 34 38 35 39 40 40 36 41 37 42 39 43 41 44
REMARK SMILES IDX 38 45 60 46 61 47 66 48 62 49 63 50 65 51 67 52 64 53 48 54
REMARK SMILES IDX 49 55 54 56 50 57 51 58 53 59 55 60 52 61 6 62 7 63 8 64
REMARK SMILES IDX 9 65 10 66 24 67 11 68 12 69 13 70 14 71 15 73 16 74 20 75
REMARK SMILES IDX 17 76 19 77 18 78 21 79 22 80 23 81
REMARK H PARENT 72 23 46 34 14 72
REMARK Flexibility Score: inf
ROOT
ATOM      1  C   UNL A   1      32.505  30.866  26.465  1.00  0.00     0.274 C 
ENDROOT
BRANCH   1   2
ATOM      2  C   UNL A   1      31.595  31.935  27.074  1.00  0.00     0.275 C 
BRANCH   2   3
ATOM      3  O   UNL A   1      32.123  33.268  27.076  1.00  0.00    -0.458 OA
BRANCH   3   4
ATOM      4  C   UNL A   1      32.846  33.921  28.011  1.00  0.00     0.338 C 
ATOM      5  O   UNL A   1      32.442  35.015  28.406  1.00  0.00    -0.246 OA
BRANCH   4   6
ATOM      6  C   UNL A   1      34.179  33.464  28.519  1.00  0.00     0.060 A 
ATOM      7  C   UNL A   1      35.418  33.637  27.893  1.00  0.00     0.016 A 
ATOM      8  C   UNL A   1      34.157  32.770  29.743  1.00  0.00     0.016 A 
ATOM      9  C   UNL A   1      36.603  33.186  28.498  1.00  0.00     0.010 A 
ATOM     10  C   UNL A   1      35.333  32.339  30.360  1.00  0.00     0.010 A 
ATOM     11  C   UNL A   1      36.571  32.548  29.740  1.00  0.00    -0.014 A 
BRANCH  11  12
ATOM     12  C   UNL A   1      37.801  32.024  30.383  1.00  0.00     0.031 A 
ATOM     13  C   UNL A   1      38.325  30.690  29.968  1.00  0.00     0.074 A 
ATOM     14  C   UNL A   1      38.427  32.706  31.359  1.00  0.00     0.049 A 
ATOM     15  N   UNL A   1      39.397  30.073  30.385  1.00  0.00    -0.248 NA
ATOM     16  C   UNL A   1      37.573  29.977  28.925  1.00  0.00     0.031 C 
ATOM     17  C   UNL A   1      38.084  34.055  31.778  1.00  0.00     0.029 A 
ATOM     18  N   UNL A   1      39.460  32.363  32.194  1.00  0.00    -0.354 N 
ATOM     19  C   UNL A   1      39.497  28.944  29.594  1.00  0.00     0.074 A 
ATOM     20  C   UNL A   1      38.312  28.892  28.765  1.00  0.00     0.031 C 
ATOM     21  C   UNL A   1      38.807  34.392  32.857  1.00  0.00     0.029 A 
ATOM     22  C   UNL A   1      39.700  33.292  33.179  1.00  0.00     0.049 A 
ATOM     23  H   UNL A   1      39.979  31.532  32.097  1.00  0.00     0.167 HD
ATOM     24  C   UNL A   1      40.529  28.073  29.513  1.00  0.00     0.037 A 
ATOM     25  C   UNL A   1      40.560  33.281  34.212  1.00  0.00     0.037 A 
ATOM     26  C   UNL A   1      41.677  28.108  30.375  1.00  0.00     0.049 A 
ATOM     27  C   UNL A   1      41.583  32.188  34.250  1.00  0.00     0.074 A 
ATOM     28  C   UNL A   1      42.776  27.271  30.390  1.00  0.00     0.029 A 
ATOM     29  N   UNL A   1      41.858  29.028  31.400  1.00  0.00    -0.354 N 
ATOM     30  N   UNL A   1      41.727  31.178  33.428  1.00  0.00    -0.248 NA
ATOM     31  C   UNL A   1      42.608  32.272  35.296  1.00  0.00     0.031 C 
ATOM     32  C   UNL A   1      43.599  27.656  31.457  1.00  0.00     0.029 A 
ATOM     33  C   UNL A   1      43.031  28.756  32.082  1.00  0.00     0.049 A 
ATOM     34  H   UNL A   1      41.240  29.765  31.613  1.00  0.00     0.167 HD
ATOM     35  C   UNL A   1      42.906  30.554  33.799  1.00  0.00     0.074 A 
ATOM     36  C   UNL A   1      43.419  31.283  34.945  1.00  0.00     0.031 C 
ATOM     37  C   UNL A   1      43.523  29.497  33.218  1.00  0.00     0.037 A 
BRANCH  24  38
ATOM     38  C   UNL A   1      40.421  27.045  28.431  1.00  0.00     0.057 A 
ATOM     39  C   UNL A   1      41.068  27.225  27.198  1.00  0.00     0.134 A 
ATOM     40  C   UNL A   1      39.589  25.932  28.572  1.00  0.00     0.134 A 
ATOM     41  F   UNL A   1      41.854  28.294  26.992  1.00  0.00    -0.206 F 
ATOM     42  C   UNL A   1      40.853  26.356  26.129  1.00  0.00     0.040 A 
ATOM     43  C   UNL A   1      39.384  25.043  27.516  1.00  0.00     0.040 A 
ATOM     44  F   UNL A   1      38.934  25.712  29.721  1.00  0.00    -0.206 F 
ATOM     45  C   UNL A   1      40.005  25.263  26.286  1.00  0.00     0.006 A 
ENDBRANCH  24  38
BRANCH  25  46
ATOM     46  C   UNL A   1      40.550  34.377  35.214  1.00  0.00     0.057 A 
ATOM     47  C   UNL A   1      41.298  35.545  35.030  1.00  0.00     0.134 A 
ATOM     48  C   UNL A   1      39.787  34.281  36.387  1.00  0.00     0.134 A 
ATOM     49  F   UNL A   1      42.057  35.691  33.935  1.00  0.00    -0.206 F 
ATOM     50  C   UNL A   1      41.309  36.565  35.984  1.00  0.00     0.040 A 
ATOM     51  C   UNL A   1      39.779  35.300  37.343  1.00  0.00     0.040 A 
ATOM     52  F   UNL A   1      39.037  33.194  36.620  1.00  0.00    -0.206 F 
ATOM     53  C   UNL A   1      40.549  36.445  37.145  1.00  0.00     0.006 A 
ENDBRANCH  25  46
BRANCH  37  54
ATOM     54  C   UNL A   1      44.846  29.097  33.793  1.00  0.00     0.057 A 
ATOM     55  C   UNL A   1      44.951  28.142  34.811  1.00  0.00     0.134 A 
ATOM     56  C   UNL A   1      46.032  29.657  33.300  1.00  0.00     0.134 A 
ATOM     57  F   UNL A   1      43.849  27.589  35.339  1.00  0.00    -0.206 F 
ATOM     58  C   UNL A   1      46.189  27.771  35.333  1.00  0.00     0.040 A 
ATOM     59  C   UNL A   1      47.277  29.274  33.795  1.00  0.00     0.040 A 
ATOM     60  F   UNL A   1      45.996  30.578  32.324  1.00  0.00    -0.206 F 
ATOM     61  C   UNL A   1      47.358  28.331  34.818  1.00  0.00     0.006 A 
ENDBRANCH  37  54
ENDBRANCH  11  12
ENDBRANCH   4   6
ENDBRANCH   3   4
ENDBRANCH   2   3
ENDBRANCH   1   2
BRANCH   1  62
ATOM     62  O   UNL A   1      32.751  29.732  27.307  1.00  0.00    -0.460 OA
BRANCH  62  63
ATOM     63  C   UNL A   1      32.878  28.545  26.641  1.00  0.00     0.335 C 
ATOM     64  O   UNL A   1      33.926  28.133  26.153  1.00  0.00    -0.249 OA
BRANCH  63  65
ATOM     65  C   UNL A   1      31.528  27.848  26.453  1.00  0.00     0.228 C 
ATOM     66  C   UNL A   1      31.096  27.633  25.020  1.00  0.00     0.047 C 
ATOM     67  O   UNL A   1      31.571  26.557  27.071  1.00  0.00    -0.361 OA
ATOM     68  C   UNL A   1      31.590  26.244  24.707  1.00  0.00     0.037 C 
ATOM     69  C   UNL A   1      31.576  25.534  26.052  1.00  0.00     0.138 C 
BRANCH  69  70
ATOM     70  C   UNL A   1      32.787  24.595  26.239  1.00  0.00     0.145 C 
BRANCH  70  71
ATOM     71  N   UNL A   1      33.990  25.143  25.633  1.00  0.00    -0.377 N 
ATOM     72  H   UNL A   1      34.132  26.116  25.652  1.00  0.00     0.160 HD
BRANCH  71  73
ATOM     73  C   UNL A   1      34.943  24.339  25.030  1.00  0.00     0.113 A 
ATOM     74  C   UNL A   1      36.009  23.926  25.848  1.00  0.00     0.033 A 
ATOM     75  C   UNL A   1      34.925  23.846  23.713  1.00  0.00     0.292 A 
ATOM     76  C   UNL A   1      37.006  23.068  25.385  1.00  0.00     0.003 A 
ATOM     77  C   UNL A   1      35.926  22.979  23.237  1.00  0.00     0.088 A 
ATOM     78  C   UNL A   1      36.965  22.592  24.079  1.00  0.00     0.007 A 
BRANCH  75  79
ATOM     79  N   UNL A   1      33.895  24.235  22.756  1.00  0.00     0.064 N 
ATOM     80  O   UNL A   1      33.934  25.405  22.342  1.00  0.00    -0.258 OA
ATOM     81  O   UNL A   1      33.040  23.402  22.427  1.00  0.00    -0.258 OA
ENDBRANCH  75  79
ENDBRANCH  71  73
ENDBRANCH  70  71
ENDBRANCH  69  70
ENDBRANCH  63  65
ENDBRANCH  62  63
ENDBRANCH   1  62
TORSDOF 15
ENDMDL
MODEL 3
REMARK VINA RESULT:     -11.0      4.729     10.024
REMARK SMILES O=C(OCCOC(=O)[C@H]1CC[C@@H](CNc2ccccc2[N+](=O)[O-])O1)c1ccc(-c2c3nc(c(-c4c(F)cccc4F)c4ccc([nH]4)c(-c4c(F)cccc4F)c4nc(c(-c5c(F)cccc5F)c5ccc2[nH]5)C=C4)C=C3)cc1
REMARK SMILES IDX 5 1 4 2 3 3 2 4 1 5 25 6 26 7 78 8 27 9 77 10 28 11 29 12
REMARK SMILES IDX 30 13 71 14 31 15 76 16 70 17 72 18 32 19 75 20 69 21 68 22
REMARK SMILES IDX 33 24 59 25 42 26 58 27 43 28 46 29 57 30 73 31 44 32 45 33
REMARK SMILES IDX 56 35 74 36 47 37 34 38 35 39 40 40 36 41 37 42 39 43 41 44
REMARK SMILES IDX 38 45 60 46 61 47 66 48 62 49 63 50 65 51 67 52 64 53 48 54
REMARK SMILES IDX 49 55 54 56 50 57 51 58 53 59 55 60 52 61 6 62 7 63 8 64
REMARK SMILES IDX 9 65 10 66 24 67 11 68 12 69 13 70 14 71 15 73 16 74 20 75
REMARK SMILES IDX 17 76 19 77 18 78 21 79 22 80 23 81
REMARK H PARENT 72 23 46 34 14 72
REMARK Flexibility Score: inf
ROOT
ATOM      1  C   UNL A   1      38.139  19.962  24.846  1.00  0.00     0.274 C 
ENDROOT
BRANCH   1   2
ATOM      2  C   UNL A   1      39.068  19.213  25.802  1.00  0.00     0.275 C 
BRANCH   2   3
ATOM      3  O   UNL A   1      40.460  19.241  25.459  1.00  0.00    -0.458 OA
BRANCH   3   4
ATOM      4  C   UNL A   1      41.539  19.563  26.206  1.00  0.00     0.338 C 
ATOM      5  O   UNL A   1      42.248  18.652  26.634  1.00  0.00    -0.246 OA
BRANCH   4   6
ATOM      6  C   UNL A   1      41.869  20.952  26.655  1.00  0.00     0.060 A 
ATOM      7  C   UNL A   1      42.131  21.369  27.964  1.00  0.00     0.016 A 
ATOM      8  C   UNL A   1      41.890  21.929  25.643  1.00  0.00     0.016 A 
ATOM      9  C   UNL A   1      42.464  22.705  28.245  1.00  0.00     0.010 A 
ATOM     10  C   UNL A   1      42.241  23.254  25.912  1.00  0.00     0.010 A 
ATOM     11  C   UNL A   1      42.534  23.653  27.222  1.00  0.00    -0.014 A 
BRANCH  11  12
ATOM     12  C   UNL A   1      42.841  25.078  27.494  1.00  0.00     0.031 A 
ATOM     13  C   UNL A   1      44.224  25.582  27.249  1.00  0.00     0.074 A 
ATOM     14  C   UNL A   1      41.913  25.913  27.995  1.00  0.00     0.049 A 
ATOM     15  N   UNL A   1      44.684  26.794  27.394  1.00  0.00    -0.248 NA
ATOM     16  C   UNL A   1      45.203  24.611  26.739  1.00  0.00     0.031 C 
ATOM     17  C   UNL A   1      40.510  25.578  28.175  1.00  0.00     0.029 A 
ATOM     18  N   UNL A   1      42.000  27.198  28.467  1.00  0.00    -0.354 N 
ATOM     19  C   UNL A   1      45.979  26.752  26.909  1.00  0.00     0.074 A 
ATOM     20  C   UNL A   1      46.275  25.372  26.590  1.00  0.00     0.031 C 
ATOM     21  C   UNL A   1      39.885  26.577  28.817  1.00  0.00     0.029 A 
ATOM     22  C   UNL A   1      40.840  27.645  29.054  1.00  0.00     0.049 A 
ATOM     23  H   UNL A   1      42.815  27.745  28.392  1.00  0.00     0.167 HD
ATOM     24  C   UNL A   1      46.815  27.789  26.678  1.00  0.00     0.037 A 
ATOM     25  C   UNL A   1      40.559  28.797  29.688  1.00  0.00     0.037 A 
ATOM     26  C   UNL A   1      46.527  29.148  27.045  1.00  0.00     0.049 A 
ATOM     27  C   UNL A   1      41.579  29.892  29.620  1.00  0.00     0.074 A 
ATOM     28  C   UNL A   1      47.305  30.277  26.868  1.00  0.00     0.029 A 
ATOM     29  N   UNL A   1      45.368  29.555  27.691  1.00  0.00    -0.354 N 
ATOM     30  N   UNL A   1      42.766  29.866  29.064  1.00  0.00    -0.248 NA
ATOM     31  C   UNL A   1      41.200  31.192  30.185  1.00  0.00     0.031 C 
ATOM     32  C   UNL A   1      46.634  31.360  27.453  1.00  0.00     0.029 A 
ATOM     33  C   UNL A   1      45.423  30.912  27.959  1.00  0.00     0.049 A 
ATOM     34  H   UNL A   1      44.615  28.965  27.927  1.00  0.00     0.167 HD
ATOM     35  C   UNL A   1      43.242  31.165  29.131  1.00  0.00     0.074 A 
ATOM     36  C   UNL A   1      42.226  31.945  29.814  1.00  0.00     0.031 C 
ATOM     37  C   UNL A   1      44.399  31.668  28.637  1.00  0.00     0.037 A 
BRANCH  24  38
ATOM     38  C   UNL A   1      48.093  27.444  25.981  1.00  0.00     0.057 A 
ATOM     39  C   UNL A   1      48.149  27.357  24.581  1.00  0.00     0.134 A 
ATOM     40  C   UNL A   1      49.237  27.092  26.700  1.00  0.00     0.134 A 
ATOM     41  F   UNL A   1      47.071  27.651  23.837  1.00  0.00    -0.206 F 
ATOM     42  C   UNL A   1      49.287  26.886  23.925  1.00  0.00     0.040 A 
ATOM     43  C   UNL A   1      50.388  26.640  26.053  1.00  0.00     0.040 A 
ATOM     44  F   UNL A   1      49.241  27.142  28.040  1.00  0.00    -0.206 F 
ATOM     45  C   UNL A   1      50.409  26.523  24.664  1.00  0.00     0.006 A 
ENDBRANCH  24  38
BRANCH  25  46
ATOM     46  C   UNL A   1      39.240  28.998  30.339  1.00  0.00     0.057 A 
ATOM     47  C   UNL A   1      38.155  29.543  29.644  1.00  0.00     0.134 A 
ATOM     48  C   UNL A   1      39.032  28.647  31.680  1.00  0.00     0.134 A 
ATOM     49  F   UNL A   1      38.295  29.910  28.362  1.00  0.00    -0.206 F 
ATOM     50  C   UNL A   1      36.921  29.756  30.262  1.00  0.00     0.040 A 
ATOM     51  C   UNL A   1      37.799  28.843  32.308  1.00  0.00     0.040 A 
ATOM     52  F   UNL A   1      40.025  28.108  32.401  1.00  0.00    -0.206 F 
ATOM     53  C   UNL A   1      36.740  29.407  31.598  1.00  0.00     0.006 A 
ENDBRANCH  25  46
BRANCH  37  54
ATOM     54  C   UNL A   1      44.603  33.144  28.785  1.00  0.00     0.057 A 
ATOM     55  C   UNL A   1      45.165  33.700  29.940  1.00  0.00     0.134 A 
ATOM     56  C   UNL A   1      44.254  34.015  27.745  1.00  0.00     0.134 A 
ATOM     57  F   UNL A   1      45.497  32.918  30.978  1.00  0.00    -0.206 F 
ATOM     58  C   UNL A   1      45.358  35.075  30.063  1.00  0.00     0.040 A 
ATOM     59  C   UNL A   1      44.467  35.389  27.847  1.00  0.00     0.040 A 
ATOM     60  F   UNL A   1      43.709  33.542  26.613  1.00  0.00    -0.206 F 
ATOM     61  C   UNL A   1      45.016  35.923  29.010  1.00  0.00     0.006 A 
ENDBRANCH  37  54
ENDBRANCH  11  12
ENDBRANCH   4   6
ENDBRANCH   3   4
ENDBRANCH   2   3
ENDBRANCH   1   2
BRANCH   1  62
ATOM     62  O   UNL A   1      37.948  21.350  25.154  1.00  0.00    -0.460 OA
BRANCH  62  63
ATOM     63  C   UNL A   1      36.913  21.944  24.487  1.00  0.00     0.335 C 
ATOM     64  O   UNL A   1      37.038  22.594  23.454  1.00  0.00    -0.249 OA
BRANCH  63  65
ATOM     65  C   UNL A   1      35.593  21.821  25.252  1.00  0.00     0.228 C 
ATOM     66  C   UNL A   1      35.185  23.037  26.054  1.00  0.00     0.047 C 
ATOM     67  O   UNL A   1      34.532  21.558  24.328  1.00  0.00    -0.361 OA
ATOM     68  C   UNL A   1      34.292  23.799  25.108  1.00  0.00     0.037 C 
ATOM     69  C   UNL A   1      33.682  22.721  24.224  1.00  0.00     0.138 C 
BRANCH  69  70
ATOM     70  C   UNL A   1      33.557  23.164  22.750  1.00  0.00     0.145 C 
BRANCH  70  71
ATOM     71  N   UNL A   1      32.183  23.490  22.402  1.00  0.00    -0.377 N 
ATOM     72  H   UNL A   1      31.651  22.833  21.899  1.00  0.00     0.160 HD
BRANCH  71  73
ATOM     73  C   UNL A   1      31.599  24.694  22.758  1.00  0.00     0.113 A 
ATOM     74  C   UNL A   1      30.555  24.619  23.696  1.00  0.00     0.033 A 
ATOM     75  C   UNL A   1      31.976  25.978  22.328  1.00  0.00     0.292 A 
ATOM     76  C   UNL A   1      29.918  25.760  24.185  1.00  0.00     0.003 A 
ATOM     77  C   UNL A   1      31.340  27.135  22.816  1.00  0.00     0.088 A 
ATOM     78  C   UNL A   1      30.311  27.019  23.747  1.00  0.00     0.007 A 
BRANCH  75  79
ATOM     79  N   UNL A   1      33.015  26.184  21.326  1.00  0.00     0.064 N 
ATOM     80  O   UNL A   1      33.882  27.034  21.589  1.00  0.00    -0.258 OA
ATOM     81  O   UNL A   1      32.971  25.528  20.277  1.00  0.00    -0.258 OA
ENDBRANCH  75  79
ENDBRANCH  71  73
ENDBRANCH  70  71
ENDBRANCH  69  70
ENDBRANCH  63  65
ENDBRANCH  62  63
ENDBRANCH   1  62
TORSDOF 15
ENDMDL
