MODEL 1
REMARK VINA RESULT:     -12.2      0.000      0.000
REMARK SMILES O=C(Cc1ccccc1)Nc1cccc(C(=O)Nc2ccccc2C(=O)OCCOC(=O)c2ccc(-c3c4nc(c(-c5c(F)cccc5F)c5ccc([nH]5)c(-c5c(F)cccc5F)c5nc(c(-c6c(F)cccc6F)c6ccc3[nH]6)C=C5)C=C4)cc2)c1
REMARK SMILES IDX 27 1 25 2 26 3 24 4 19 5 20 6 21 7 23 8 22 9 18 10 16 11
REMARK SMILES IDX 17 12 15 14 11 15 12 16 87 17 13 18 14 19 10 20 1 21 2 22
REMARK SMILES IDX 3 24 4 25 5 26 9 27 6 28 8 29 7 30 28 31 29 32 30 33 31 34
REMARK SMILES IDX 32 35 33 36 34 37 86 38 35 39 85 40 36 41 37 42 38 43 79 44
REMARK SMILES IDX 39 45 84 46 78 47 80 48 40 49 83 50 77 51 76 52 41 54 67 55
REMARK SMILES IDX 50 56 66 57 51 58 54 59 65 60 81 61 52 62 53 63 64 65 82 66
REMARK SMILES IDX 55 67 42 68 43 69 48 70 44 71 45 72 47 73 49 74 46 75 68 76
REMARK SMILES IDX 69 77 74 78 70 79 71 80 73 81 75 82 72 83 56 84 57 85 62 86
REMARK SMILES IDX 58 87 59 88 61 89 63 90 60 91
REMARK H PARENT 18 13 10 23 80 53 54 64
REMARK Flexibility Score: inf
ROOT
ATOM      1  O   UNL A   1      32.599  28.810  24.772  1.00  0.00    -0.458 OA
ENDROOT
BRANCH   1   2
ATOM      2  C   UNL A   1      33.155  27.624  25.105  1.00  0.00     0.340 C 
ATOM      3  O   UNL A   1      33.801  27.416  26.124  1.00  0.00    -0.246 OA
BRANCH   2   4
ATOM      4  C   UNL A   1      32.913  26.547  24.121  1.00  0.00     0.083 A 
ATOM      5  C   UNL A   1      32.098  25.426  24.346  1.00  0.00     0.056 A 
ATOM      6  C   UNL A   1      31.944  24.492  23.303  1.00  0.00     0.027 A 
ATOM      7  C   UNL A   1      32.481  24.720  22.031  1.00  0.00     0.002 A 
ATOM      8  C   UNL A   1      33.483  26.737  22.844  1.00  0.00     0.018 A 
ATOM      9  C   UNL A   1      33.246  25.850  21.797  1.00  0.00     0.001 A 
BRANCH   5  10
ATOM     10  N   UNL A   1      31.346  25.141  25.508  1.00  0.00    -0.321 N 
ATOM     11  C   UNL A   1      31.250  24.014  26.299  1.00  0.00     0.255 C 
ATOM     12  O   UNL A   1      30.332  23.928  27.114  1.00  0.00    -0.269 OA
ATOM     13  H   UNL A   1      30.782  25.889  25.811  1.00  0.00     0.170 HD
BRANCH  11  14
ATOM     14  C   UNL A   1      32.264  22.927  26.247  1.00  0.00     0.042 A 
ATOM     15  C   UNL A   1      34.566  22.246  26.400  1.00  0.00     0.041 A 
ATOM     16  C   UNL A   1      34.273  21.114  25.630  1.00  0.00     0.026 A 
ATOM     17  C   UNL A   1      33.534  23.085  26.808  1.00  0.00     0.040 A 
ATOM     18  C   UNL A   1      32.962  20.845  25.238  1.00  0.00     0.003 A 
ATOM     19  C   UNL A   1      31.958  21.768  25.524  1.00  0.00     0.014 A 
BRANCH  15  20
ATOM     20  N   UNL A   1      35.921  22.587  26.559  1.00  0.00    -0.326 N 
ATOM     21  O   UNL A   1      36.372  23.836  24.645  1.00  0.00    -0.274 OA
ATOM     22  C   UNL A   1      36.732  23.286  25.681  1.00  0.00     0.228 C 
ATOM     23  H   UNL A   1      36.344  22.294  27.399  1.00  0.00     0.169 HD
BRANCH  22  24
ATOM     24  C   UNL A   1      38.190  23.299  26.110  1.00  0.00     0.135 C 
BRANCH  24  25
ATOM     25  C   UNL A   1      38.904  21.960  26.126  1.00  0.00    -0.039 A 
ATOM     26  C   UNL A   1      38.487  20.844  25.385  1.00  0.00     0.004 A 
ATOM     27  C   UNL A   1      40.088  21.849  26.871  1.00  0.00     0.004 A 
ATOM     28  C   UNL A   1      39.230  19.664  25.375  1.00  0.00     0.000 A 
ATOM     29  C   UNL A   1      40.821  20.661  26.880  1.00  0.00     0.000 A 
ATOM     30  C   UNL A   1      40.396  19.570  26.125  1.00  0.00     0.000 A 
ENDBRANCH  24  25
ENDBRANCH  22  24
ENDBRANCH  15  20
ENDBRANCH  11  14
ENDBRANCH   5  10
ENDBRANCH   2   4
ENDBRANCH   1   2
BRANCH   1  31
ATOM     31  C   UNL A   1      31.595  29.274  25.702  1.00  0.00     0.275 C 
BRANCH  31  32
ATOM     32  C   UNL A   1      31.781  30.728  26.149  1.00  0.00     0.275 C 
BRANCH  32  33
ATOM     33  O   UNL A   1      32.452  30.830  27.420  1.00  0.00    -0.458 OA
BRANCH  33  34
ATOM     34  C   UNL A   1      33.235  31.922  27.548  1.00  0.00     0.338 C 
ATOM     35  O   UNL A   1      32.885  33.091  27.535  1.00  0.00    -0.246 OA
BRANCH  34  36
ATOM     36  C   UNL A   1      34.638  31.553  27.782  1.00  0.00     0.060 A 
ATOM     37  C   UNL A   1      34.923  30.222  28.074  1.00  0.00     0.016 A 
ATOM     38  C   UNL A   1      35.598  32.535  28.002  1.00  0.00     0.016 A 
ATOM     39  C   UNL A   1      36.086  29.875  28.734  1.00  0.00     0.010 A 
ATOM     40  C   UNL A   1      36.828  32.169  28.560  1.00  0.00     0.010 A 
ATOM     41  C   UNL A   1      37.055  30.845  28.984  1.00  0.00    -0.014 A 
BRANCH  41  42
ATOM     42  C   UNL A   1      38.256  30.484  29.773  1.00  0.00     0.031 A 
ATOM     43  C   UNL A   1      39.297  29.597  29.153  1.00  0.00     0.074 A 
ATOM     44  C   UNL A   1      38.431  30.983  31.010  1.00  0.00     0.049 A 
ATOM     45  N   UNL A   1      40.283  28.955  29.721  1.00  0.00    -0.248 NA
ATOM     46  C   UNL A   1      39.209  29.394  27.696  1.00  0.00     0.031 C 
ATOM     47  C   UNL A   1      37.542  31.938  31.680  1.00  0.00     0.029 A 
ATOM     48  N   UNL A   1      39.418  30.751  31.933  1.00  0.00    -0.354 N 
ATOM     49  C   UNL A   1      40.891  28.226  28.707  1.00  0.00     0.074 A 
ATOM     50  C   UNL A   1      40.163  28.499  27.488  1.00  0.00     0.031 C 
ATOM     51  C   UNL A   1      38.026  32.212  32.900  1.00  0.00     0.029 A 
ATOM     52  C   UNL A   1      39.191  31.373  33.137  1.00  0.00     0.049 A 
ATOM     53  H   UNL A   1      40.210  30.195  31.751  1.00  0.00     0.167 HD
ATOM     54  C   UNL A   1      41.961  27.400  28.797  1.00  0.00     0.037 A 
ATOM     55  C   UNL A   1      39.808  31.222  34.323  1.00  0.00     0.037 A 
ATOM     56  C   UNL A   1      42.691  27.181  30.017  1.00  0.00     0.049 A 
ATOM     57  C   UNL A   1      40.945  30.246  34.418  1.00  0.00     0.074 A 
ATOM     58  C   UNL A   1      43.775  26.351  30.241  1.00  0.00     0.029 A 
ATOM     59  N   UNL A   1      42.416  27.815  31.222  1.00  0.00    -0.354 N 
ATOM     60  N   UNL A   1      41.463  29.487  33.481  1.00  0.00    -0.248 NA
ATOM     61  C   UNL A   1      41.576  30.093  35.734  1.00  0.00     0.031 C 
ATOM     62  C   UNL A   1      44.134  26.458  31.589  1.00  0.00     0.029 A 
ATOM     63  C   UNL A   1      43.308  27.395  32.193  1.00  0.00     0.049 A 
ATOM     64  H   UNL A   1      41.694  28.469  31.364  1.00  0.00     0.167 HD
ATOM     65  C   UNL A   1      42.498  28.788  34.087  1.00  0.00     0.074 A 
ATOM     66  C   UNL A   1      42.541  29.226  35.467  1.00  0.00     0.031 C 
ATOM     67  C   UNL A   1      43.336  27.865  33.554  1.00  0.00     0.037 A 
BRANCH  54  68
ATOM     68  C   UNL A   1      42.373  26.654  27.562  1.00  0.00     0.057 A 
ATOM     69  C   UNL A   1      43.322  27.158  26.664  1.00  0.00     0.134 A 
ATOM     70  C   UNL A   1      41.828  25.394  27.280  1.00  0.00     0.134 A 
ATOM     71  F   UNL A   1      43.871  28.367  26.861  1.00  0.00    -0.206 F 
ATOM     72  C   UNL A   1      43.696  26.449  25.520  1.00  0.00     0.040 A 
ATOM     73  C   UNL A   1      42.214  24.662  26.156  1.00  0.00     0.040 A 
ATOM     74  F   UNL A   1      40.915  24.848  28.097  1.00  0.00    -0.206 F 
ATOM     75  C   UNL A   1      43.147  25.192  25.268  1.00  0.00     0.006 A 
ENDBRANCH  54  68
BRANCH  55  76
ATOM     76  C   UNL A   1      39.313  31.951  35.518  1.00  0.00     0.057 A 
ATOM     77  C   UNL A   1      39.814  33.212  35.861  1.00  0.00     0.134 A 
ATOM     78  C   UNL A   1      38.329  31.402  36.353  1.00  0.00     0.134 A 
ATOM     79  F   UNL A   1      40.768  33.784  35.112  1.00  0.00    -0.206 F 
ATOM     80  C   UNL A   1      39.373  33.889  37.000  1.00  0.00     0.040 A 
ATOM     81  C   UNL A   1      37.855  32.083  37.475  1.00  0.00     0.040 A 
ATOM     82  F   UNL A   1      37.800  30.201  36.078  1.00  0.00    -0.206 F 
ATOM     83  C   UNL A   1      38.386  33.326  37.806  1.00  0.00     0.006 A 
ENDBRANCH  55  76
BRANCH  67  84
ATOM     84  C   UNL A   1      44.407  27.324  34.453  1.00  0.00     0.057 A 
ATOM     85  C   UNL A   1      44.230  26.153  35.199  1.00  0.00     0.134 A 
ATOM     86  C   UNL A   1      45.644  27.974  34.547  1.00  0.00     0.134 A 
ATOM     87  F   UNL A   1      43.061  25.494  35.163  1.00  0.00    -0.206 F 
ATOM     88  C   UNL A   1      45.238  25.661  36.028  1.00  0.00     0.040 A 
ATOM     89  C   UNL A   1      46.670  27.475  35.348  1.00  0.00     0.040 A 
ATOM     90  F   UNL A   1      45.879  29.096  33.850  1.00  0.00    -0.206 F 
ATOM     91  C   UNL A   1      46.465  26.319  36.098  1.00  0.00     0.006 A 
ENDBRANCH  67  84
ENDBRANCH  41  42
ENDBRANCH  34  36
ENDBRANCH  33  34
ENDBRANCH  32  33
ENDBRANCH  31  32
ENDBRANCH   1  31
TORSDOF 16
ENDMDL
MODEL 2
REMARK VINA RESULT:     -12.2      2.646      8.271
REMARK SMILES O=C(Cc1ccccc1)Nc1cccc(C(=O)Nc2ccccc2C(=O)OCCOC(=O)c2ccc(-c3c4nc(c(-c5c(F)cccc5F)c5ccc([nH]5)c(-c5c(F)cccc5F)c5nc(c(-c6c(F)cccc6F)c6ccc3[nH]6)C=C5)C=C4)cc2)c1
REMARK SMILES IDX 27 1 25 2 26 3 24 4 19 5 20 6 21 7 23 8 22 9 18 10 16 11
REMARK SMILES IDX 17 12 15 14 11 15 12 16 87 17 13 18 14 19 10 20 1 21 2 22
REMARK SMILES IDX 3 24 4 25 5 26 9 27 6 28 8 29 7 30 28 31 29 32 30 33 31 34
REMARK SMILES IDX 32 35 33 36 34 37 86 38 35 39 85 40 36 41 37 42 38 43 79 44
REMARK SMILES IDX 39 45 84 46 78 47 80 48 40 49 83 50 77 51 76 52 41 54 67 55
REMARK SMILES IDX 50 56 66 57 51 58 54 59 65 60 81 61 52 62 53 63 64 65 82 66
REMARK SMILES IDX 55 67 42 68 43 69 48 70 44 71 45 72 47 73 49 74 46 75 68 76
REMARK SMILES IDX 69 77 74 78 70 79 71 80 73 81 75 82 72 83 56 84 57 85 62 86
REMARK SMILES IDX 58 87 59 88 61 89 63 90 60 91
REMARK H PARENT 18 13 10 23 80 53 54 64
REMARK Flexibility Score: inf
ROOT
ATOM      1  O   UNL A   1      36.793  22.600  24.909  1.00  0.00    -0.458 OA
ENDROOT
BRANCH   1   2
ATOM      2  C   UNL A   1      35.658  22.625  25.640  1.00  0.00     0.340 C 
ATOM      3  O   UNL A   1      35.542  23.163  26.734  1.00  0.00    -0.246 OA
BRANCH   2   4
ATOM      4  C   UNL A   1      34.514  21.940  25.001  1.00  0.00     0.083 A 
ATOM      5  C   UNL A   1      33.888  22.363  23.817  1.00  0.00     0.056 A 
ATOM      6  C   UNL A   1      32.821  21.593  23.314  1.00  0.00     0.027 A 
ATOM      7  C   UNL A   1      32.460  20.374  23.896  1.00  0.00     0.002 A 
ATOM      8  C   UNL A   1      34.105  20.729  25.598  1.00  0.00     0.018 A 
ATOM      9  C   UNL A   1      33.109  19.935  25.037  1.00  0.00     0.001 A 
BRANCH   5  10
ATOM     10  N   UNL A   1      34.246  23.469  23.014  1.00  0.00    -0.321 N 
ATOM     11  C   UNL A   1      33.737  24.749  22.915  1.00  0.00     0.255 C 
ATOM     12  O   UNL A   1      34.060  25.452  21.958  1.00  0.00    -0.269 OA
ATOM     13  H   UNL A   1      35.003  23.294  22.409  1.00  0.00     0.170 HD
BRANCH  11  14
ATOM     14  C   UNL A   1      32.863  25.332  23.968  1.00  0.00     0.042 A 
ATOM     15  C   UNL A   1      30.840  26.492  24.558  1.00  0.00     0.041 A 
ATOM     16  C   UNL A   1      31.443  26.920  25.747  1.00  0.00     0.026 A 
ATOM     17  C   UNL A   1      31.512  25.598  23.730  1.00  0.00     0.040 A 
ATOM     18  C   UNL A   1      32.724  26.487  26.085  1.00  0.00     0.003 A 
ATOM     19  C   UNL A   1      33.448  25.713  25.181  1.00  0.00     0.014 A 
BRANCH  15  20
ATOM     20  N   UNL A   1      29.658  27.143  24.161  1.00  0.00    -0.326 N 
ATOM     21  O   UNL A   1      30.242  28.073  22.106  1.00  0.00    -0.274 OA
ATOM     22  C   UNL A   1      29.451  27.915  23.030  1.00  0.00     0.228 C 
ATOM     23  H   UNL A   1      28.884  27.035  24.759  1.00  0.00     0.169 HD
BRANCH  22  24
ATOM     24  C   UNL A   1      28.099  28.611  23.033  1.00  0.00     0.135 C 
BRANCH  24  25
ATOM     25  C   UNL A   1      28.087  30.070  22.617  1.00  0.00    -0.039 A 
ATOM     26  C   UNL A   1      28.156  31.141  23.521  1.00  0.00     0.004 A 
ATOM     27  C   UNL A   1      28.074  30.367  21.245  1.00  0.00     0.004 A 
ATOM     28  C   UNL A   1      28.224  32.460  23.075  1.00  0.00     0.000 A 
ATOM     29  C   UNL A   1      28.119  31.689  20.797  1.00  0.00     0.000 A 
ATOM     30  C   UNL A   1      28.202  32.736  21.713  1.00  0.00     0.000 A 
ENDBRANCH  24  25
ENDBRANCH  22  24
ENDBRANCH  15  20
ENDBRANCH  11  14
ENDBRANCH   5  10
ENDBRANCH   2   4
ENDBRANCH   1   2
BRANCH   1  31
ATOM     31  C   UNL A   1      37.729  21.573  25.304  1.00  0.00     0.275 C 
BRANCH  31  32
ATOM     32  C   UNL A   1      38.919  22.091  26.119  1.00  0.00     0.275 C 
BRANCH  32  33
ATOM     33  O   UNL A   1      39.132  23.506  25.942  1.00  0.00    -0.458 OA
BRANCH  33  34
ATOM     34  C   UNL A   1      40.156  24.007  26.664  1.00  0.00     0.338 C 
ATOM     35  O   UNL A   1      41.290  23.563  26.751  1.00  0.00    -0.246 OA
BRANCH  34  36
ATOM     36  C   UNL A   1      39.778  25.258  27.336  1.00  0.00     0.060 A 
ATOM     37  C   UNL A   1      40.424  26.429  26.947  1.00  0.00     0.016 A 
ATOM     38  C   UNL A   1      39.034  25.230  28.511  1.00  0.00     0.016 A 
ATOM     39  C   UNL A   1      40.476  27.522  27.791  1.00  0.00     0.010 A 
ATOM     40  C   UNL A   1      38.984  26.377  29.309  1.00  0.00     0.010 A 
ATOM     41  C   UNL A   1      39.754  27.510  28.983  1.00  0.00    -0.014 A 
BRANCH  41  42
ATOM     42  C   UNL A   1      39.890  28.647  29.923  1.00  0.00     0.031 A 
ATOM     43  C   UNL A   1      40.985  28.617  30.951  1.00  0.00     0.074 A 
ATOM     44  C   UNL A   1      39.072  29.712  29.825  1.00  0.00     0.049 A 
ATOM     45  N   UNL A   1      41.139  29.357  32.017  1.00  0.00    -0.248 NA
ATOM     46  C   UNL A   1      42.041  27.608  30.760  1.00  0.00     0.031 C 
ATOM     47  C   UNL A   1      38.039  29.903  28.802  1.00  0.00     0.029 A 
ATOM     48  N   UNL A   1      38.976  30.836  30.604  1.00  0.00    -0.354 N 
ATOM     49  C   UNL A   1      42.271  28.864  32.655  1.00  0.00     0.074 A 
ATOM     50  C   UNL A   1      42.763  27.759  31.861  1.00  0.00     0.031 C 
ATOM     51  C   UNL A   1      37.419  31.074  29.013  1.00  0.00     0.029 A 
ATOM     52  C   UNL A   1      37.934  31.657  30.244  1.00  0.00     0.049 A 
ATOM     53  H   UNL A   1      39.591  31.035  31.347  1.00  0.00     0.167 HD
ATOM     54  C   UNL A   1      42.840  29.300  33.804  1.00  0.00     0.037 A 
ATOM     55  C   UNL A   1      37.404  32.717  30.879  1.00  0.00     0.037 A 
ATOM     56  C   UNL A   1      42.351  30.430  34.550  1.00  0.00     0.049 A 
ATOM     57  C   UNL A   1      38.004  33.138  32.190  1.00  0.00     0.074 A 
ATOM     58  C   UNL A   1      42.826  30.953  35.740  1.00  0.00     0.029 A 
ATOM     59  N   UNL A   1      41.280  31.223  34.162  1.00  0.00    -0.354 N 
ATOM     60  N   UNL A   1      39.017  32.617  32.840  1.00  0.00    -0.248 NA
ATOM     61  C   UNL A   1      37.382  34.285  32.862  1.00  0.00     0.031 C 
ATOM     62  C   UNL A   1      42.019  32.041  36.088  1.00  0.00     0.029 A 
ATOM     63  C   UNL A   1      41.076  32.230  35.088  1.00  0.00     0.049 A 
ATOM     64  H   UNL A   1      40.745  31.090  33.346  1.00  0.00     0.167 HD
ATOM     65  C   UNL A   1      39.172  33.388  33.984  1.00  0.00     0.074 A 
ATOM     66  C   UNL A   1      38.157  34.421  33.928  1.00  0.00     0.031 C 
ATOM     67  C   UNL A   1      40.068  33.255  34.992  1.00  0.00     0.037 A 
BRANCH  54  68
ATOM     68  C   UNL A   1      44.016  28.535  34.336  1.00  0.00     0.057 A 
ATOM     69  C   UNL A   1      43.870  27.436  35.191  1.00  0.00     0.134 A 
ATOM     70  C   UNL A   1      45.320  28.892  33.966  1.00  0.00     0.134 A 
ATOM     71  F   UNL A   1      42.651  27.051  35.602  1.00  0.00    -0.206 F 
ATOM     72  C   UNL A   1      44.976  26.733  35.676  1.00  0.00     0.040 A 
ATOM     73  C   UNL A   1      46.432  28.181  34.420  1.00  0.00     0.040 A 
ATOM     74  F   UNL A   1      45.535  29.934  33.148  1.00  0.00    -0.206 F 
ATOM     75  C   UNL A   1      46.262  27.101  35.282  1.00  0.00     0.006 A 
ENDBRANCH  54  68
BRANCH  55  76
ATOM     76  C   UNL A   1      36.205  33.395  30.324  1.00  0.00     0.057 A 
ATOM     77  C   UNL A   1      34.932  33.181  30.863  1.00  0.00     0.134 A 
ATOM     78  C   UNL A   1      36.302  34.272  29.234  1.00  0.00     0.134 A 
ATOM     79  F   UNL A   1      34.770  32.341  31.896  1.00  0.00    -0.206 F 
ATOM     80  C   UNL A   1      33.798  33.794  30.326  1.00  0.00     0.040 A 
ATOM     81  C   UNL A   1      35.182  34.918  28.709  1.00  0.00     0.040 A 
ATOM     82  F   UNL A   1      37.494  34.529  28.675  1.00  0.00    -0.206 F 
ATOM     83  C   UNL A   1      33.923  34.670  29.250  1.00  0.00     0.006 A 
ENDBRANCH  55  76
BRANCH  67  84
ATOM     84  C   UNL A   1      40.028  34.292  36.075  1.00  0.00     0.057 A 
ATOM     85  C   UNL A   1      40.704  35.512  35.962  1.00  0.00     0.134 A 
ATOM     86  C   UNL A   1      39.275  34.070  37.236  1.00  0.00     0.134 A 
ATOM     87  F   UNL A   1      41.455  35.776  34.881  1.00  0.00    -0.206 F 
ATOM     88  C   UNL A   1      40.654  36.467  36.978  1.00  0.00     0.040 A 
ATOM     89  C   UNL A   1      39.193  35.030  38.243  1.00  0.00     0.040 A 
ATOM     90  F   UNL A   1      38.597  32.924  37.400  1.00  0.00    -0.206 F 
ATOM     91  C   UNL A   1      39.890  36.229  38.119  1.00  0.00     0.006 A 
ENDBRANCH  67  84
ENDBRANCH  41  42
ENDBRANCH  34  36
ENDBRANCH  33  34
ENDBRANCH  32  33
ENDBRANCH  31  32
ENDBRANCH   1  31
TORSDOF 16
ENDMDL
MODEL 3
REMARK VINA RESULT:     -11.8      2.689      7.685
REMARK SMILES O=C(Cc1ccccc1)Nc1cccc(C(=O)Nc2ccccc2C(=O)OCCOC(=O)c2ccc(-c3c4nc(c(-c5c(F)cccc5F)c5ccc([nH]5)c(-c5c(F)cccc5F)c5nc(c(-c6c(F)cccc6F)c6ccc3[nH]6)C=C5)C=C4)cc2)c1
REMARK SMILES IDX 27 1 25 2 26 3 24 4 19 5 20 6 21 7 23 8 22 9 18 10 16 11
REMARK SMILES IDX 17 12 15 14 11 15 12 16 87 17 13 18 14 19 10 20 1 21 2 22
REMARK SMILES IDX 3 24 4 25 5 26 9 27 6 28 8 29 7 30 28 31 29 32 30 33 31 34
REMARK SMILES IDX 32 35 33 36 34 37 86 38 35 39 85 40 36 41 37 42 38 43 79 44
REMARK SMILES IDX 39 45 84 46 78 47 80 48 40 49 83 50 77 51 76 52 41 54 67 55
REMARK SMILES IDX 50 56 66 57 51 58 54 59 65 60 81 61 52 62 53 63 64 65 82 66
REMARK SMILES IDX 55 67 42 68 43 69 48 70 44 71 45 72 47 73 49 74 46 75 68 76
REMARK SMILES IDX 69 77 74 78 70 79 71 80 73 81 75 82 72 83 56 84 57 85 62 86
REMARK SMILES IDX 58 87 59 88 61 89 63 90 60 91
REMARK H PARENT 18 13 10 23 80 53 54 64
REMARK Flexibility Score: inf
ROOT
ATOM      1  O   UNL A   1      34.033  33.594  28.620  1.00  0.00    -0.458 OA
ENDROOT
BRANCH   1   2
ATOM      2  C   UNL A   1      33.261  32.837  27.809  1.00  0.00     0.340 C 
ATOM      3  O   UNL A   1      32.241  33.223  27.253  1.00  0.00    -0.246 OA
BRANCH   2   4
ATOM      4  C   UNL A   1      33.758  31.457  27.622  1.00  0.00     0.083 A 
ATOM      5  C   UNL A   1      33.066  30.443  26.939  1.00  0.00     0.056 A 
ATOM      6  C   UNL A   1      33.677  29.180  26.822  1.00  0.00     0.027 A 
ATOM      7  C   UNL A   1      34.987  28.957  27.259  1.00  0.00     0.002 A 
ATOM      8  C   UNL A   1      35.061  31.199  28.096  1.00  0.00     0.018 A 
ATOM      9  C   UNL A   1      35.685  29.971  27.891  1.00  0.00     0.001 A 
BRANCH   5  10
ATOM     10  N   UNL A   1      31.817  30.556  26.288  1.00  0.00    -0.321 N 
ATOM     11  C   UNL A   1      31.343  30.052  25.093  1.00  0.00     0.255 C 
ATOM     12  O   UNL A   1      30.298  30.502  24.623  1.00  0.00    -0.269 OA
ATOM     13  H   UNL A   1      31.159  31.099  26.780  1.00  0.00     0.170 HD
BRANCH  11  14
ATOM     14  C   UNL A   1      32.020  28.931  24.388  1.00  0.00     0.042 A 
ATOM     15  C   UNL A   1      32.483  26.576  24.228  1.00  0.00     0.041 A 
ATOM     16  C   UNL A   1      33.652  26.864  23.512  1.00  0.00     0.026 A 
ATOM     17  C   UNL A   1      31.608  27.607  24.557  1.00  0.00     0.040 A 
ATOM     18  C   UNL A   1      33.962  28.177  23.164  1.00  0.00     0.003 A 
ATOM     19  C   UNL A   1      33.159  29.217  23.626  1.00  0.00     0.014 A 
BRANCH  15  20
ATOM     20  N   UNL A   1      32.346  25.278  24.750  1.00  0.00    -0.326 N 
ATOM     21  O   UNL A   1      32.147  23.965  22.836  1.00  0.00    -0.274 OA
ATOM     22  C   UNL A   1      32.137  24.098  24.055  1.00  0.00     0.228 C 
ATOM     23  H   UNL A   1      32.409  25.198  25.729  1.00  0.00     0.169 HD
BRANCH  22  24
ATOM     24  C   UNL A   1      31.851  22.919  24.972  1.00  0.00     0.135 C 
BRANCH  24  25
ATOM     25  C   UNL A   1      32.748  21.706  24.816  1.00  0.00    -0.039 A 
ATOM     26  C   UNL A   1      34.131  21.721  25.058  1.00  0.00     0.004 A 
ATOM     27  C   UNL A   1      32.153  20.481  24.477  1.00  0.00     0.004 A 
ATOM     28  C   UNL A   1      34.891  20.555  24.978  1.00  0.00     0.000 A 
ATOM     29  C   UNL A   1      32.917  19.316  24.374  1.00  0.00     0.000 A 
ATOM     30  C   UNL A   1      34.286  19.352  24.633  1.00  0.00     0.000 A 
ENDBRANCH  24  25
ENDBRANCH  22  24
ENDBRANCH  15  20
ENDBRANCH  11  14
ENDBRANCH   5  10
ENDBRANCH   2   4
ENDBRANCH   1   2
BRANCH   1  31
ATOM     31  C   UNL A   1      34.060  34.996  28.271  1.00  0.00     0.275 C 
BRANCH  31  32
ATOM     32  C   UNL A   1      33.284  35.897  29.237  1.00  0.00     0.275 C 
BRANCH  32  33
ATOM     33  O   UNL A   1      32.646  35.150  30.292  1.00  0.00    -0.458 OA
BRANCH  33  34
ATOM     34  C   UNL A   1      32.681  35.752  31.499  1.00  0.00     0.338 C 
ATOM     35  O   UNL A   1      31.992  36.683  31.884  1.00  0.00    -0.246 OA
BRANCH  34  36
ATOM     36  C   UNL A   1      33.650  35.104  32.394  1.00  0.00     0.060 A 
ATOM     37  C   UNL A   1      34.919  35.666  32.499  1.00  0.00     0.016 A 
ATOM     38  C   UNL A   1      33.412  33.822  32.880  1.00  0.00     0.016 A 
ATOM     39  C   UNL A   1      35.994  34.910  32.928  1.00  0.00     0.010 A 
ATOM     40  C   UNL A   1      34.476  33.098  33.429  1.00  0.00     0.010 A 
ATOM     41  C   UNL A   1      35.785  33.617  33.401  1.00  0.00    -0.014 A 
BRANCH  41  42
ATOM     42  C   UNL A   1      36.952  32.783  33.771  1.00  0.00     0.031 A 
ATOM     43  C   UNL A   1      37.621  33.012  35.097  1.00  0.00     0.074 A 
ATOM     44  C   UNL A   1      37.376  31.804  32.951  1.00  0.00     0.049 A 
ATOM     45  N   UNL A   1      38.783  32.591  35.520  1.00  0.00    -0.248 NA
ATOM     46  C   UNL A   1      36.888  33.837  36.072  1.00  0.00     0.031 C 
ATOM     47  C   UNL A   1      36.744  31.417  31.686  1.00  0.00     0.029 A 
ATOM     48  N   UNL A   1      38.448  30.956  33.055  1.00  0.00    -0.354 N 
ATOM     49  C   UNL A   1      38.948  33.150  36.782  1.00  0.00     0.074 A 
ATOM     50  C   UNL A   1      37.770  33.944  37.055  1.00  0.00     0.031 C 
ATOM     51  C   UNL A   1      37.435  30.407  31.136  1.00  0.00     0.029 A 
ATOM     52  C   UNL A   1      38.614  30.154  31.952  1.00  0.00     0.049 A 
ATOM     53  H   UNL A   1      39.039  30.924  33.842  1.00  0.00     0.167 HD
ATOM     54  C   UNL A   1      39.995  33.010  37.628  1.00  0.00     0.037 A 
ATOM     55  C   UNL A   1      39.643  29.362  31.600  1.00  0.00     0.037 A 
ATOM     56  C   UNL A   1      41.136  32.179  37.346  1.00  0.00     0.049 A 
ATOM     57  C   UNL A   1      40.827  29.279  32.519  1.00  0.00     0.074 A 
ATOM     58  C   UNL A   1      42.270  31.975  38.111  1.00  0.00     0.029 A 
ATOM     59  N   UNL A   1      41.275  31.398  36.206  1.00  0.00    -0.354 N 
ATOM     60  N   UNL A   1      41.024  29.878  33.669  1.00  0.00    -0.248 NA
ATOM     61  C   UNL A   1      41.938  28.422  32.088  1.00  0.00     0.031 C 
ATOM     62  C   UNL A   1      43.110  31.097  37.418  1.00  0.00     0.029 A 
ATOM     63  C   UNL A   1      42.476  30.712  36.246  1.00  0.00     0.049 A 
ATOM     64  H   UNL A   1      40.616  31.340  35.477  1.00  0.00     0.167 HD
ATOM     65  C   UNL A   1      42.268  29.449  34.113  1.00  0.00     0.074 A 
ATOM     66  C   UNL A   1      42.769  28.529  33.113  1.00  0.00     0.031 C 
ATOM     67  C   UNL A   1      42.937  29.787  35.242  1.00  0.00     0.037 A 
BRANCH  54  68
ATOM     68  C   UNL A   1      39.971  33.796  38.907  1.00  0.00     0.057 A 
ATOM     69  C   UNL A   1      40.587  35.047  39.028  1.00  0.00     0.134 A 
ATOM     70  C   UNL A   1      39.297  33.300  40.032  1.00  0.00     0.134 A 
ATOM     71  F   UNL A   1      41.267  35.574  37.998  1.00  0.00    -0.206 F 
ATOM     72  C   UNL A   1      40.553  35.767  40.226  1.00  0.00     0.040 A 
ATOM     73  C   UNL A   1      39.231  34.021  41.224  1.00  0.00     0.040 A 
ATOM     74  F   UNL A   1      38.683  32.108  39.986  1.00  0.00    -0.206 F 
ATOM     75  C   UNL A   1      39.866  35.256  41.326  1.00  0.00     0.006 A 
ENDBRANCH  54  68
BRANCH  55  76
ATOM     76  C   UNL A   1      39.626  28.655  30.294  1.00  0.00     0.057 A 
ATOM     77  C   UNL A   1      40.168  29.237  29.143  1.00  0.00     0.134 A 
ATOM     78  C   UNL A   1      39.061  27.378  30.163  1.00  0.00     0.134 A 
ATOM     79  F   UNL A   1      40.708  30.463  29.199  1.00  0.00    -0.206 F 
ATOM     80  C   UNL A   1      40.128  28.588  27.908  1.00  0.00     0.040 A 
ATOM     81  C   UNL A   1      39.045  26.704  28.942  1.00  0.00     0.040 A 
ATOM     82  F   UNL A   1      38.531  26.758  31.229  1.00  0.00    -0.206 F 
ATOM     83  C   UNL A   1      39.571  27.315  27.807  1.00  0.00     0.006 A 
ENDBRANCH  55  76
BRANCH  67  84
ATOM     84  C   UNL A   1      44.250  29.104  35.481  1.00  0.00     0.057 A 
ATOM     85  C   UNL A   1      45.453  29.606  34.970  1.00  0.00     0.134 A 
ATOM     86  C   UNL A   1      44.309  27.940  36.259  1.00  0.00     0.134 A 
ATOM     87  F   UNL A   1      45.460  30.708  34.204  1.00  0.00    -0.206 F 
ATOM     88  C   UNL A   1      46.667  28.959  35.204  1.00  0.00     0.040 A 
ATOM     89  C   UNL A   1      45.521  27.304  36.525  1.00  0.00     0.040 A 
ATOM     90  F   UNL A   1      43.193  27.415  36.785  1.00  0.00    -0.206 F 
ATOM     91  C   UNL A   1      46.703  27.809  35.990  1.00  0.00     0.006 A 
ENDBRANCH  67  84
ENDBRANCH  41  42
ENDBRANCH  34  36
ENDBRANCH  33  34
ENDBRANCH  32  33
ENDBRANCH  31  32
ENDBRANCH   1  31
TORSDOF 16
ENDMDL
