MODEL 1
REMARK VINA RESULT:      -9.5      0.000      0.000
REMARK SMILES C/C=C/C=C/C(=O)N[C@@H](C)CC(=O)OCCOC(=O)c1ccc(-c2c3nc(c(-c4c(F)cccc4F)c4ccc([nH]4)c(-c4c(F)cccc4F)c4nc(c(-c5c(F)cccc5F)c5ccc2[nH]5)C=C4)C=C3)cc1
REMARK SMILES IDX 15 1 14 2 12 3 13 4 11 5 9 6 10 7 8 8 6 9 7 10 5 12 4 13
REMARK SMILES IDX 3 14 1 15 2 16 16 17 17 18 18 19 19 20 20 21 21 22 73 23
REMARK SMILES IDX 22 24 72 25 23 26 24 27 25 28 66 29 26 30 71 31 65 32 67 33
REMARK SMILES IDX 27 34 70 35 64 36 63 37 28 39 54 40 37 41 53 42 38 43 41 44
REMARK SMILES IDX 52 45 68 46 39 47 40 48 51 50 69 51 42 52 29 53 30 54 35 55
REMARK SMILES IDX 31 56 32 57 34 58 36 59 33 60 55 61 56 62 61 63 57 64 58 65
REMARK SMILES IDX 60 66 62 67 59 68 43 69 44 70 49 71 45 72 46 73 48 74 50 75
REMARK SMILES IDX 47 76
REMARK H PARENT 8 11 67 38 41 49
REMARK Flexibility Score: inf
ROOT
ATOM      1  C   UNL A   1      45.899  22.436  24.505  1.00  0.00     0.274 C 
ENDROOT
BRANCH   1   2
ATOM      2  O   UNL A   1      46.394  21.298  25.241  1.00  0.00    -0.462 OA
BRANCH   2   3
ATOM      3  C   UNL A   1      45.785  20.110  24.995  1.00  0.00     0.307 C 
ATOM      4  O   UNL A   1      46.368  19.045  24.823  1.00  0.00    -0.252 OA
BRANCH   3   5
ATOM      5  C   UNL A   1      44.286  20.243  24.870  1.00  0.00     0.147 C 
BRANCH   5   6
ATOM      6  C   UNL A   1      43.512  19.787  26.111  1.00  0.00     0.090 C 
ATOM      7  C   UNL A   1      43.093  18.321  25.953  1.00  0.00     0.031 C 
BRANCH   6   8
ATOM      8  N   UNL A   1      42.302  20.587  26.309  1.00  0.00    -0.350 N 
ATOM      9  C   UNL A   1      41.992  21.557  27.209  1.00  0.00     0.244 C 
ATOM     10  O   UNL A   1      40.907  22.128  27.114  1.00  0.00    -0.270 OA
ATOM     11  H   UNL A   1      41.581  20.386  25.671  1.00  0.00     0.164 HD
BRANCH   9  12
ATOM     12  C   UNL A   1      42.949  22.016  28.237  1.00  0.00     0.071 C 
ATOM     13  C   UNL A   1      42.800  23.058  29.069  1.00  0.00     0.005 C 
BRANCH  13  14
ATOM     14  C   UNL A   1      43.786  23.363  30.084  1.00  0.00    -0.004 C 
ATOM     15  C   UNL A   1      44.605  23.431  32.441  1.00  0.00     0.035 C 
ATOM     16  C   UNL A   1      43.560  23.203  31.396  1.00  0.00    -0.030 C 
ENDBRANCH  13  14
ENDBRANCH   9  12
ENDBRANCH   6   8
ENDBRANCH   5   6
ENDBRANCH   3   5
ENDBRANCH   2   3
ENDBRANCH   1   2
BRANCH   1  17
ATOM     17  C   UNL A   1      45.708  23.684  25.377  1.00  0.00     0.275 C 
BRANCH  17  18
ATOM     18  O   UNL A   1      44.893  24.686  24.735  1.00  0.00    -0.458 OA
BRANCH  18  19
ATOM     19  C   UNL A   1      43.569  24.485  24.892  1.00  0.00     0.338 C 
ATOM     20  O   UNL A   1      42.908  23.604  24.363  1.00  0.00    -0.246 OA
BRANCH  19  21
ATOM     21  C   UNL A   1      42.969  25.401  25.867  1.00  0.00     0.060 A 
ATOM     22  C   UNL A   1      43.752  26.465  26.330  1.00  0.00     0.016 A 
ATOM     23  C   UNL A   1      41.724  25.131  26.436  1.00  0.00     0.016 A 
ATOM     24  C   UNL A   1      43.297  27.257  27.380  1.00  0.00     0.010 A 
ATOM     25  C   UNL A   1      41.267  25.930  27.489  1.00  0.00     0.010 A 
ATOM     26  C   UNL A   1      42.059  26.985  27.977  1.00  0.00    -0.014 A 
BRANCH  26  27
ATOM     27  C   UNL A   1      41.617  27.786  29.141  1.00  0.00     0.031 A 
ATOM     28  C   UNL A   1      42.364  27.708  30.440  1.00  0.00     0.074 A 
ATOM     29  C   UNL A   1      40.562  28.610  29.016  1.00  0.00     0.049 A 
ATOM     30  N   UNL A   1      42.110  28.300  31.579  1.00  0.00    -0.248 NA
ATOM     31  C   UNL A   1      43.557  26.849  30.459  1.00  0.00     0.031 C 
ATOM     32  C   UNL A   1      39.784  28.804  27.792  1.00  0.00     0.029 A 
ATOM     33  N   UNL A   1      39.966  29.440  29.930  1.00  0.00    -0.354 N 
ATOM     34  C   UNL A   1      43.103  27.879  32.454  1.00  0.00     0.074 A 
ATOM     35  C   UNL A   1      43.954  26.967  31.719  1.00  0.00     0.031 C 
ATOM     36  C   UNL A   1      38.817  29.705  28.029  1.00  0.00     0.029 A 
ATOM     37  C   UNL A   1      38.886  30.122  29.427  1.00  0.00     0.049 A 
ATOM     38  H   UNL A   1      40.282  29.537  30.858  1.00  0.00     0.167 HD
ATOM     39  C   UNL A   1      43.288  28.225  33.751  1.00  0.00     0.037 A 
ATOM     40  C   UNL A   1      38.041  30.976  30.032  1.00  0.00     0.037 A 
ATOM     41  C   UNL A   1      42.442  29.136  34.478  1.00  0.00     0.049 A 
ATOM     42  C   UNL A   1      38.238  31.306  31.484  1.00  0.00     0.074 A 
ATOM     43  C   UNL A   1      42.542  29.544  35.798  1.00  0.00     0.029 A 
ATOM     44  N   UNL A   1      41.341  29.786  33.942  1.00  0.00    -0.354 N 
ATOM     45  N   UNL A   1      39.171  30.890  32.306  1.00  0.00    -0.248 NA
ATOM     46  C   UNL A   1      37.263  32.221  32.092  1.00  0.00     0.031 C 
ATOM     47  C   UNL A   1      41.484  30.420  36.067  1.00  0.00     0.029 A 
ATOM     48  C   UNL A   1      40.746  30.583  34.906  1.00  0.00     0.049 A 
ATOM     49  H   UNL A   1      41.027  29.693  33.014  1.00  0.00     0.167 HD
ATOM     50  C   UNL A   1      38.910  31.510  33.520  1.00  0.00     0.074 A 
ATOM     51  C   UNL A   1      37.736  32.336  33.325  1.00  0.00     0.031 C 
ATOM     52  C   UNL A   1      39.583  31.406  34.692  1.00  0.00     0.037 A 
BRANCH  39  53
ATOM     53  C   UNL A   1      44.441  27.595  34.471  1.00  0.00     0.057 A 
ATOM     54  C   UNL A   1      44.347  26.317  35.036  1.00  0.00     0.134 A 
ATOM     55  C   UNL A   1      45.666  28.265  34.582  1.00  0.00     0.134 A 
ATOM     56  F   UNL A   1      43.196  25.630  34.977  1.00  0.00    -0.206 F 
ATOM     57  C   UNL A   1      45.427  25.735  35.703  1.00  0.00     0.040 A 
ATOM     58  C   UNL A   1      46.758  27.685  35.229  1.00  0.00     0.040 A 
ATOM     59  F   UNL A   1      45.822  29.491  34.060  1.00  0.00    -0.206 F 
ATOM     60  C   UNL A   1      46.639  26.417  35.796  1.00  0.00     0.006 A 
ENDBRANCH  39  53
BRANCH  40  61
ATOM     61  C   UNL A   1      36.931  31.583  29.260  1.00  0.00     0.057 A 
ATOM     62  C   UNL A   1      35.760  30.864  28.999  1.00  0.00     0.134 A 
ATOM     63  C   UNL A   1      37.012  32.891  28.772  1.00  0.00     0.134 A 
ATOM     64  F   UNL A   1      35.634  29.599  29.425  1.00  0.00    -0.206 F 
ATOM     65  C   UNL A   1      34.709  31.424  28.271  1.00  0.00     0.040 A 
ATOM     66  C   UNL A   1      35.962  33.470  28.060  1.00  0.00     0.040 A 
ATOM     67  F   UNL A   1      38.110  33.629  28.994  1.00  0.00    -0.206 F 
ATOM     68  C   UNL A   1      34.808  32.734  27.804  1.00  0.00     0.006 A 
ENDBRANCH  40  61
BRANCH  52  69
ATOM     69  C   UNL A   1      39.086  32.233  35.837  1.00  0.00     0.057 A 
ATOM     70  C   UNL A   1      39.460  33.573  35.994  1.00  0.00     0.134 A 
ATOM     71  C   UNL A   1      38.208  31.687  36.781  1.00  0.00     0.134 A 
ATOM     72  F   UNL A   1      40.311  34.147  35.131  1.00  0.00    -0.206 F 
ATOM     73  C   UNL A   1      38.991  34.338  37.064  1.00  0.00     0.040 A 
ATOM     74  C   UNL A   1      37.717  32.447  37.844  1.00  0.00     0.040 A 
ATOM     75  F   UNL A   1      37.809  30.410  36.682  1.00  0.00    -0.206 F 
ATOM     76  C   UNL A   1      38.114  33.775  37.990  1.00  0.00     0.006 A 
ENDBRANCH  52  69
ENDBRANCH  26  27
ENDBRANCH  19  21
ENDBRANCH  18  19
ENDBRANCH  17  18
ENDBRANCH   1  17
TORSDOF 15
ENDMDL
MODEL 2
REMARK VINA RESULT:      -9.3      5.775     12.355
REMARK SMILES C/C=C/C=C/C(=O)N[C@@H](C)CC(=O)OCCOC(=O)c1ccc(-c2c3nc(c(-c4c(F)cccc4F)c4ccc([nH]4)c(-c4c(F)cccc4F)c4nc(c(-c5c(F)cccc5F)c5ccc2[nH]5)C=C4)C=C3)cc1
REMARK SMILES IDX 15 1 14 2 12 3 13 4 11 5 9 6 10 7 8 8 6 9 7 10 5 12 4 13
REMARK SMILES IDX 3 14 1 15 2 16 16 17 17 18 18 19 19 20 20 21 21 22 73 23
REMARK SMILES IDX 22 24 72 25 23 26 24 27 25 28 66 29 26 30 71 31 65 32 67 33
REMARK SMILES IDX 27 34 70 35 64 36 63 37 28 39 54 40 37 41 53 42 38 43 41 44
REMARK SMILES IDX 52 45 68 46 39 47 40 48 51 50 69 51 42 52 29 53 30 54 35 55
REMARK SMILES IDX 31 56 32 57 34 58 36 59 33 60 55 61 56 62 61 63 57 64 58 65
REMARK SMILES IDX 60 66 62 67 59 68 43 69 44 70 49 71 45 72 46 73 48 74 50 75
REMARK SMILES IDX 47 76
REMARK H PARENT 8 11 67 38 41 49
REMARK Flexibility Score: inf
ROOT
ATOM      1  C   UNL A   1      34.240  33.985  29.055  1.00  0.00     0.274 C 
ENDROOT
BRANCH   1   2
ATOM      2  O   UNL A   1      33.081  34.515  29.733  1.00  0.00    -0.462 OA
BRANCH   2   3
ATOM      3  C   UNL A   1      32.909  35.860  29.672  1.00  0.00     0.307 C 
ATOM      4  O   UNL A   1      32.280  36.448  28.799  1.00  0.00    -0.252 OA
BRANCH   3   5
ATOM      5  C   UNL A   1      33.653  36.588  30.765  1.00  0.00     0.147 C 
BRANCH   5   6
ATOM      6  C   UNL A   1      33.009  36.462  32.151  1.00  0.00     0.090 C 
ATOM      7  C   UNL A   1      33.825  37.257  33.176  1.00  0.00     0.031 C 
BRANCH   6   8
ATOM      8  N   UNL A   1      32.960  35.067  32.591  1.00  0.00    -0.350 N 
ATOM      9  C   UNL A   1      33.938  34.152  32.818  1.00  0.00     0.244 C 
ATOM     10  O   UNL A   1      33.624  33.045  33.256  1.00  0.00    -0.270 OA
ATOM     11  H   UNL A   1      32.050  34.730  32.753  1.00  0.00     0.164 HD
BRANCH   9  12
ATOM     12  C   UNL A   1      35.371  34.468  32.651  1.00  0.00     0.071 C 
ATOM     13  C   UNL A   1      36.346  34.298  33.557  1.00  0.00     0.005 C 
BRANCH  13  14
ATOM     14  C   UNL A   1      37.730  34.585  33.243  1.00  0.00    -0.004 C 
ATOM     15  C   UNL A   1      39.895  34.111  32.095  1.00  0.00     0.035 C 
ATOM     16  C   UNL A   1      38.495  33.775  32.496  1.00  0.00    -0.030 C 
ENDBRANCH  13  14
ENDBRANCH   9  12
ENDBRANCH   6   8
ENDBRANCH   5   6
ENDBRANCH   3   5
ENDBRANCH   2   3
ENDBRANCH   1   2
BRANCH   1  17
ATOM     17  C   UNL A   1      34.638  32.586  29.539  1.00  0.00     0.275 C 
BRANCH  17  18
ATOM     18  O   UNL A   1      36.062  32.448  29.719  1.00  0.00    -0.458 OA
BRANCH  18  19
ATOM     19  C   UNL A   1      36.404  31.460  30.571  1.00  0.00     0.338 C 
ATOM     20  O   UNL A   1      35.771  31.107  31.554  1.00  0.00    -0.246 OA
BRANCH  19  21
ATOM     21  C   UNL A   1      37.615  30.746  30.152  1.00  0.00     0.060 A 
ATOM     22  C   UNL A   1      38.541  30.397  31.141  1.00  0.00     0.016 A 
ATOM     23  C   UNL A   1      37.911  30.564  28.801  1.00  0.00     0.016 A 
ATOM     24  C   UNL A   1      39.780  29.877  30.781  1.00  0.00     0.010 A 
ATOM     25  C   UNL A   1      39.155  30.038  28.441  1.00  0.00     0.010 A 
ATOM     26  C   UNL A   1      40.102  29.710  29.428  1.00  0.00    -0.014 A 
BRANCH  26  27
ATOM     27  C   UNL A   1      41.450  29.225  29.051  1.00  0.00     0.031 A 
ATOM     28  C   UNL A   1      41.651  27.795  28.642  1.00  0.00     0.074 A 
ATOM     29  C   UNL A   1      42.485  30.082  29.045  1.00  0.00     0.049 A 
ATOM     30  N   UNL A   1      42.756  27.174  28.316  1.00  0.00    -0.248 NA
ATOM     31  C   UNL A   1      40.448  26.952  28.592  1.00  0.00     0.031 C 
ATOM     32  C   UNL A   1      42.404  31.504  29.380  1.00  0.00     0.029 A 
ATOM     33  N   UNL A   1      43.807  29.881  28.742  1.00  0.00    -0.354 N 
ATOM     34  C   UNL A   1      42.385  25.866  28.032  1.00  0.00     0.074 A 
ATOM     35  C   UNL A   1      40.955  25.778  28.242  1.00  0.00     0.031 C 
ATOM     36  C   UNL A   1      43.624  32.051  29.256  1.00  0.00     0.029 A 
ATOM     37  C   UNL A   1      44.574  31.012  28.868  1.00  0.00     0.049 A 
ATOM     38  H   UNL A   1      44.170  29.010  28.462  1.00  0.00     0.167 HD
ATOM     39  C   UNL A   1      43.168  24.835  27.630  1.00  0.00     0.037 A 
ATOM     40  C   UNL A   1      45.899  31.185  28.702  1.00  0.00     0.037 A 
ATOM     41  C   UNL A   1      44.589  24.927  27.418  1.00  0.00     0.049 A 
ATOM     42  C   UNL A   1      46.752  30.015  28.304  1.00  0.00     0.074 A 
ATOM     43  C   UNL A   1      45.470  23.936  27.020  1.00  0.00     0.029 A 
ATOM     44  N   UNL A   1      45.336  26.083  27.583  1.00  0.00    -0.354 N 
ATOM     45  N   UNL A   1      46.393  28.779  28.054  1.00  0.00    -0.248 NA
ATOM     46  C   UNL A   1      48.194  30.263  28.169  1.00  0.00     0.031 C 
ATOM     47  C   UNL A   1      46.756  24.487  26.970  1.00  0.00     0.029 A 
ATOM     48  C   UNL A   1      46.669  25.829  27.305  1.00  0.00     0.049 A 
ATOM     49  H   UNL A   1      44.974  26.955  27.859  1.00  0.00     0.167 HD
ATOM     50  C   UNL A   1      47.559  28.108  27.709  1.00  0.00     0.074 A 
ATOM     51  C   UNL A   1      48.634  29.076  27.775  1.00  0.00     0.031 C 
ATOM     52  C   UNL A   1      47.724  26.807  27.367  1.00  0.00     0.037 A 
BRANCH  39  53
ATOM     53  C   UNL A   1      42.499  23.511  27.417  1.00  0.00     0.057 A 
ATOM     54  C   UNL A   1      42.210  22.650  28.483  1.00  0.00     0.134 A 
ATOM     55  C   UNL A   1      42.122  23.100  26.132  1.00  0.00     0.134 A 
ATOM     56  F   UNL A   1      42.560  22.979  29.736  1.00  0.00    -0.206 F 
ATOM     57  C   UNL A   1      41.584  21.419  28.276  1.00  0.00     0.040 A 
ATOM     58  C   UNL A   1      41.479  21.881  25.916  1.00  0.00     0.040 A 
ATOM     59  F   UNL A   1      42.369  23.880  25.068  1.00  0.00    -0.206 F 
ATOM     60  C   UNL A   1      41.212  21.034  26.990  1.00  0.00     0.006 A 
ENDBRANCH  39  53
BRANCH  40  61
ATOM     61  C   UNL A   1      46.497  32.524  28.908  1.00  0.00     0.057 A 
ATOM     62  C   UNL A   1      46.639  33.421  27.844  1.00  0.00     0.134 A 
ATOM     63  C   UNL A   1      46.933  32.941  30.171  1.00  0.00     0.134 A 
ATOM     64  F   UNL A   1      46.257  33.068  26.609  1.00  0.00    -0.206 F 
ATOM     65  C   UNL A   1      47.202  34.684  28.027  1.00  0.00     0.040 A 
ATOM     66  C   UNL A   1      47.480  34.209  30.372  1.00  0.00     0.040 A 
ATOM     67  F   UNL A   1      46.820  32.125  31.229  1.00  0.00    -0.206 F 
ATOM     68  C   UNL A   1      47.619  35.082  29.296  1.00  0.00     0.006 A 
ENDBRANCH  40  61
BRANCH  52  69
ATOM     69  C   UNL A   1      49.110  26.371  27.004  1.00  0.00     0.057 A 
ATOM     70  C   UNL A   1      49.992  25.850  27.959  1.00  0.00     0.134 A 
ATOM     71  C   UNL A   1      49.559  26.453  25.680  1.00  0.00     0.134 A 
ATOM     72  F   UNL A   1      49.625  25.760  29.246  1.00  0.00    -0.206 F 
ATOM     73  C   UNL A   1      51.282  25.443  27.612  1.00  0.00     0.040 A 
ATOM     74  C   UNL A   1      50.839  26.032  25.318  1.00  0.00     0.040 A 
ATOM     75  F   UNL A   1      48.758  26.938  24.719  1.00  0.00    -0.206 F 
ATOM     76  C   UNL A   1      51.706  25.531  26.286  1.00  0.00     0.006 A 
ENDBRANCH  52  69
ENDBRANCH  26  27
ENDBRANCH  19  21
ENDBRANCH  18  19
ENDBRANCH  17  18
ENDBRANCH   1  17
TORSDOF 15
ENDMDL
MODEL 3
REMARK VINA RESULT:      -9.3      1.000      6.634
REMARK SMILES C/C=C/C=C/C(=O)N[C@@H](C)CC(=O)OCCOC(=O)c1ccc(-c2c3nc(c(-c4c(F)cccc4F)c4ccc([nH]4)c(-c4c(F)cccc4F)c4nc(c(-c5c(F)cccc5F)c5ccc2[nH]5)C=C4)C=C3)cc1
REMARK SMILES IDX 15 1 14 2 12 3 13 4 11 5 9 6 10 7 8 8 6 9 7 10 5 12 4 13
REMARK SMILES IDX 3 14 1 15 2 16 16 17 17 18 18 19 19 20 20 21 21 22 73 23
REMARK SMILES IDX 22 24 72 25 23 26 24 27 25 28 66 29 26 30 71 31 65 32 67 33
REMARK SMILES IDX 27 34 70 35 64 36 63 37 28 39 54 40 37 41 53 42 38 43 41 44
REMARK SMILES IDX 52 45 68 46 39 47 40 48 51 50 69 51 42 52 29 53 30 54 35 55
REMARK SMILES IDX 31 56 32 57 34 58 36 59 33 60 55 61 56 62 61 63 57 64 58 65
REMARK SMILES IDX 60 66 62 67 59 68 43 69 44 70 49 71 45 72 46 73 48 74 50 75
REMARK SMILES IDX 47 76
REMARK H PARENT 8 11 67 38 41 49
REMARK Flexibility Score: inf
ROOT
ATOM      1  C   UNL A   1      44.982  22.545  23.863  1.00  0.00     0.274 C 
ENDROOT
BRANCH   1   2
ATOM      2  O   UNL A   1      44.490  21.191  23.945  1.00  0.00    -0.462 OA
BRANCH   2   3
ATOM      3  C   UNL A   1      45.237  20.321  24.671  1.00  0.00     0.307 C 
ATOM      4  O   UNL A   1      46.400  20.507  25.010  1.00  0.00    -0.252 OA
BRANCH   3   5
ATOM      5  C   UNL A   1      44.505  19.033  24.961  1.00  0.00     0.147 C 
BRANCH   5   6
ATOM      6  C   UNL A   1      43.501  19.129  26.115  1.00  0.00     0.090 C 
ATOM      7  C   UNL A   1      43.019  17.728  26.503  1.00  0.00     0.031 C 
BRANCH   6   8
ATOM      8  N   UNL A   1      42.332  19.925  25.739  1.00  0.00    -0.350 N 
ATOM      9  C   UNL A   1      41.802  21.063  26.261  1.00  0.00     0.244 C 
ATOM     10  O   UNL A   1      40.831  21.574  25.703  1.00  0.00    -0.270 OA
ATOM     11  H   UNL A   1      41.839  19.572  24.965  1.00  0.00     0.164 HD
BRANCH   9  12
ATOM     12  C   UNL A   1      42.407  21.760  27.414  1.00  0.00     0.071 C 
ATOM     13  C   UNL A   1      41.771  22.512  28.326  1.00  0.00     0.005 C 
BRANCH  13  14
ATOM     14  C   UNL A   1      42.472  23.087  29.454  1.00  0.00    -0.004 C 
ATOM     15  C   UNL A   1      44.535  23.820  30.653  1.00  0.00     0.035 C 
ATOM     16  C   UNL A   1      43.810  23.147  29.533  1.00  0.00    -0.030 C 
ENDBRANCH  13  14
ENDBRANCH   9  12
ENDBRANCH   6   8
ENDBRANCH   5   6
ENDBRANCH   3   5
ENDBRANCH   2   3
ENDBRANCH   1   2
BRANCH   1  17
ATOM     17  C   UNL A   1      44.088  23.559  24.588  1.00  0.00     0.275 C 
BRANCH  17  18
ATOM     18  O   UNL A   1      44.765  24.210  25.682  1.00  0.00    -0.458 OA
BRANCH  18  19
ATOM     19  C   UNL A   1      44.883  25.545  25.524  1.00  0.00     0.338 C 
ATOM     20  O   UNL A   1      45.494  26.112  24.633  1.00  0.00    -0.246 OA
BRANCH  19  21
ATOM     21  C   UNL A   1      44.104  26.301  26.510  1.00  0.00     0.060 A 
ATOM     22  C   UNL A   1      44.610  27.535  26.933  1.00  0.00     0.016 A 
ATOM     23  C   UNL A   1      42.984  25.740  27.125  1.00  0.00     0.016 A 
ATOM     24  C   UNL A   1      44.005  28.209  27.990  1.00  0.00     0.010 A 
ATOM     25  C   UNL A   1      42.375  26.421  28.184  1.00  0.00     0.010 A 
ATOM     26  C   UNL A   1      42.894  27.649  28.633  1.00  0.00    -0.014 A 
BRANCH  26  27
ATOM     27  C   UNL A   1      42.301  28.337  29.802  1.00  0.00     0.031 A 
ATOM     28  C   UNL A   1      41.000  29.074  29.666  1.00  0.00     0.074 A 
ATOM     29  C   UNL A   1      42.918  28.270  30.995  1.00  0.00     0.049 A 
ATOM     30  N   UNL A   1      40.344  29.768  30.560  1.00  0.00    -0.248 NA
ATOM     31  C   UNL A   1      40.351  29.020  28.348  1.00  0.00     0.031 C 
ATOM     32  C   UNL A   1      44.163  27.548  31.259  1.00  0.00     0.029 A 
ATOM     33  N   UNL A   1      42.579  28.815  32.206  1.00  0.00    -0.354 N 
ATOM     34  C   UNL A   1      39.211  30.243  29.913  1.00  0.00     0.074 A 
ATOM     35  C   UNL A   1      39.278  29.773  28.545  1.00  0.00     0.031 C 
ATOM     36  C   UNL A   1      44.479  27.686  32.557  1.00  0.00     0.029 A 
ATOM     37  C   UNL A   1      43.480  28.534  33.202  1.00  0.00     0.049 A 
ATOM     38  H   UNL A   1      41.768  29.354  32.347  1.00  0.00     0.167 HD
ATOM     39  C   UNL A   1      38.206  31.000  30.416  1.00  0.00     0.037 A 
ATOM     40  C   UNL A   1      43.502  28.930  34.489  1.00  0.00     0.037 A 
ATOM     41  C   UNL A   1      38.140  31.462  31.778  1.00  0.00     0.049 A 
ATOM     42  C   UNL A   1      42.402  29.809  35.010  1.00  0.00     0.074 A 
ATOM     43  C   UNL A   1      37.166  32.242  32.381  1.00  0.00     0.029 A 
ATOM     44  N   UNL A   1      39.086  31.182  32.752  1.00  0.00    -0.354 N 
ATOM     45  N   UNL A   1      41.344  30.266  34.384  1.00  0.00    -0.248 NA
ATOM     46  C   UNL A   1      42.502  30.231  36.414  1.00  0.00     0.031 C 
ATOM     47  C   UNL A   1      37.539  32.455  33.713  1.00  0.00     0.029 A 
ATOM     48  C   UNL A   1      38.726  31.781  33.948  1.00  0.00     0.049 A 
ATOM     49  H   UNL A   1      39.895  30.639  32.613  1.00  0.00     0.167 HD
ATOM     50  C   UNL A   1      40.640  31.008  35.323  1.00  0.00     0.074 A 
ATOM     51  C   UNL A   1      41.387  30.934  36.562  1.00  0.00     0.031 C 
ATOM     52  C   UNL A   1      39.478  31.688  35.173  1.00  0.00     0.037 A 
BRANCH  39  53
ATOM     53  C   UNL A   1      37.107  31.393  29.476  1.00  0.00     0.057 A 
ATOM     54  C   UNL A   1      37.078  32.650  28.859  1.00  0.00     0.134 A 
ATOM     55  C   UNL A   1      36.076  30.496  29.168  1.00  0.00     0.134 A 
ATOM     56  F   UNL A   1      38.029  33.559  29.125  1.00  0.00    -0.206 F 
ATOM     57  C   UNL A   1      36.053  33.007  27.981  1.00  0.00     0.040 A 
ATOM     58  C   UNL A   1      35.056  30.836  28.278  1.00  0.00     0.040 A 
ATOM     59  F   UNL A   1      36.047  29.276  29.724  1.00  0.00    -0.206 F 
ATOM     60  C   UNL A   1      35.041  32.096  27.685  1.00  0.00     0.006 A 
ENDBRANCH  39  53
BRANCH  40  61
ATOM     61  C   UNL A   1      44.607  28.491  35.374  1.00  0.00     0.057 A 
ATOM     62  C   UNL A   1      45.783  29.240  35.482  1.00  0.00     0.134 A 
ATOM     63  C   UNL A   1      44.510  27.321  36.134  1.00  0.00     0.134 A 
ATOM     64  F   UNL A   1      45.939  30.360  34.762  1.00  0.00    -0.206 F 
ATOM     65  C   UNL A   1      46.830  28.835  36.310  1.00  0.00     0.040 A 
ATOM     66  C   UNL A   1      45.542  26.915  36.982  1.00  0.00     0.040 A 
ATOM     67  F   UNL A   1      43.405  26.563  36.073  1.00  0.00    -0.206 F 
ATOM     68  C   UNL A   1      46.708  27.672  37.067  1.00  0.00     0.006 A 
ENDBRANCH  40  61
BRANCH  52  69
ATOM     69  C   UNL A   1      38.929  32.373  36.388  1.00  0.00     0.057 A 
ATOM     70  C   UNL A   1      39.261  33.697  36.699  1.00  0.00     0.134 A 
ATOM     71  C   UNL A   1      38.044  31.705  37.242  1.00  0.00     0.134 A 
ATOM     72  F   UNL A   1      40.115  34.384  35.926  1.00  0.00    -0.206 F 
ATOM     73  C   UNL A   1      38.744  34.328  37.832  1.00  0.00     0.040 A 
ATOM     74  C   UNL A   1      37.506  32.332  38.367  1.00  0.00     0.040 A 
ATOM     75  F   UNL A   1      37.685  30.436  36.995  1.00  0.00    -0.206 F 
ATOM     76  C   UNL A   1      37.860  33.646  38.667  1.00  0.00     0.006 A 
ENDBRANCH  52  69
ENDBRANCH  26  27
ENDBRANCH  19  21
ENDBRANCH  18  19
ENDBRANCH  17  18
ENDBRANCH   1  17
TORSDOF 15
ENDMDL
