MODEL 1
REMARK VINA RESULT:     -11.5      0.000      0.000
REMARK SMILES C[C@@H]1CCCN(C(=O)N[C@H]2C=C[C@@H](C(=O)OCCOC(=O)c3ccc(-c4c5nc(c(-c6c(F)cccc6F)c6ccc([nH]6)c(-c6c(F)cccc6F)c6nc(c(-c7c(F)cccc7F)c7ccc4[nH]7)C=C6)C=C5)cc3)C2)C1
REMARK SMILES IDX 17 1 16 2 14 3 15 4 13 5 10 6 11 7 76 8 12 9 9 10 7 11 8 12
REMARK SMILES IDX 6 14 1 15 2 16 3 17 77 18 4 19 5 20 18 21 19 22 20 23 21 24
REMARK SMILES IDX 22 25 23 26 75 27 24 28 74 29 25 30 26 31 27 32 68 33 28 34
REMARK SMILES IDX 73 35 67 36 69 37 29 38 72 39 66 40 65 41 30 43 56 44 39 45
REMARK SMILES IDX 55 46 40 47 43 48 54 49 70 50 41 51 42 52 53 54 71 55 44 56
REMARK SMILES IDX 31 57 32 58 37 59 33 60 34 61 36 62 38 63 35 64 57 65 58 66
REMARK SMILES IDX 63 67 59 68 60 69 62 70 64 71 61 72 45 73 46 74 51 75 47 76
REMARK SMILES IDX 48 77 50 78 52 79 49 80
REMARK H PARENT 9 13 69 42 43 53
REMARK Flexibility Score: inf
ROOT
ATOM      1  C   UNL A   1      42.543  20.327  26.190  1.00  0.00     0.274 C 
ENDROOT
BRANCH   1   2
ATOM      2  O   UNL A   1      41.107  20.270  26.049  1.00  0.00    -0.462 OA
BRANCH   2   3
ATOM      3  C   UNL A   1      40.355  21.156  26.757  1.00  0.00     0.312 C 
ATOM      4  O   UNL A   1      40.474  21.352  27.960  1.00  0.00    -0.252 OA
BRANCH   3   5
ATOM      5  C   UNL A   1      39.418  21.947  25.832  1.00  0.00     0.124 C 
ATOM      6  C   UNL A   1      37.011  22.360  25.762  1.00  0.00     0.107 C 
ATOM      7  C   UNL A   1      37.733  23.518  26.349  1.00  0.00    -0.006 C 
ATOM      8  C   UNL A   1      38.059  21.265  25.588  1.00  0.00     0.048 C 
ATOM      9  C   UNL A   1      39.054  23.301  26.378  1.00  0.00    -0.014 C 
BRANCH   6  10
ATOM     10  N   UNL A   1      35.806  21.995  26.481  1.00  0.00    -0.332 N 
ATOM     11  C   UNL A   1      34.573  21.503  26.299  1.00  0.00     0.317 C 
ATOM     12  O   UNL A   1      33.849  21.619  27.297  1.00  0.00    -0.249 OA
ATOM     13  H   UNL A   1      35.941  22.169  27.440  1.00  0.00     0.165 HD
BRANCH  11  14
ATOM     14  N   UNL A   1      34.104  20.936  25.154  1.00  0.00    -0.325 N 
ATOM     15  C   UNL A   1      33.923  17.317  23.892  1.00  0.00     0.009 C 
ATOM     16  C   UNL A   1      33.409  18.674  24.362  1.00  0.00     0.005 C 
ATOM     17  C   UNL A   1      32.588  19.333  23.247  1.00  0.00     0.007 C 
ATOM     18  C   UNL A   1      34.566  19.582  24.816  1.00  0.00     0.124 C 
ATOM     19  C   UNL A   1      32.169  20.729  23.670  1.00  0.00     0.022 C 
ATOM     20  C   UNL A   1      33.375  21.564  24.067  1.00  0.00     0.121 C 
ENDBRANCH  11  14
ENDBRANCH   6  10
ENDBRANCH   3   5
ENDBRANCH   2   3
ENDBRANCH   1   2
BRANCH   1  21
ATOM     21  C   UNL A   1      43.072  21.514  25.381  1.00  0.00     0.275 C 
BRANCH  21  22
ATOM     22  O   UNL A   1      43.576  22.507  26.290  1.00  0.00    -0.458 OA
BRANCH  22  23
ATOM     23  C   UNL A   1      43.719  23.738  25.745  1.00  0.00     0.338 C 
ATOM     24  O   UNL A   1      44.065  24.028  24.614  1.00  0.00    -0.246 OA
BRANCH  23  25
ATOM     25  C   UNL A   1      43.106  24.698  26.666  1.00  0.00     0.060 A 
ATOM     26  C   UNL A   1      43.534  26.022  26.571  1.00  0.00     0.016 A 
ATOM     27  C   UNL A   1      42.176  24.313  27.624  1.00  0.00     0.016 A 
ATOM     28  C   UNL A   1      43.081  26.977  27.466  1.00  0.00     0.010 A 
ATOM     29  C   UNL A   1      41.696  25.277  28.512  1.00  0.00     0.010 A 
ATOM     30  C   UNL A   1      42.167  26.605  28.453  1.00  0.00    -0.014 A 
BRANCH  30  31
ATOM     31  C   UNL A   1      41.780  27.581  29.493  1.00  0.00     0.031 A 
ATOM     32  C   UNL A   1      42.554  27.610  30.777  1.00  0.00     0.074 A 
ATOM     33  C   UNL A   1      40.764  28.435  29.276  1.00  0.00     0.049 A 
ATOM     34  N   UNL A   1      42.285  28.233  31.892  1.00  0.00    -0.248 NA
ATOM     35  C   UNL A   1      43.795  26.817  30.812  1.00  0.00     0.031 C 
ATOM     36  C   UNL A   1      39.999  28.547  28.032  1.00  0.00     0.029 A 
ATOM     37  N   UNL A   1      40.194  29.365  30.104  1.00  0.00    -0.354 N 
ATOM     38  C   UNL A   1      43.290  27.868  32.777  1.00  0.00     0.074 A 
ATOM     39  C   UNL A   1      44.178  26.970  32.071  1.00  0.00     0.031 C 
ATOM     40  C   UNL A   1      39.057  29.491  28.181  1.00  0.00     0.029 A 
ATOM     41  C   UNL A   1      39.108  29.998  29.548  1.00  0.00     0.049 A 
ATOM     42  H   UNL A   1      40.530  29.563  31.008  1.00  0.00     0.167 HD
ATOM     43  C   UNL A   1      43.447  28.248  34.066  1.00  0.00     0.037 A 
ATOM     44  C   UNL A   1      38.229  30.853  30.102  1.00  0.00     0.037 A 
ATOM     45  C   UNL A   1      42.573  29.175  34.734  1.00  0.00     0.049 A 
ATOM     46  C   UNL A   1      38.397  31.219  31.550  1.00  0.00     0.074 A 
ATOM     47  C   UNL A   1      42.643  29.644  36.033  1.00  0.00     0.029 A 
ATOM     48  N   UNL A   1      41.474  29.782  34.143  1.00  0.00    -0.354 N 
ATOM     49  N   UNL A   1      39.325  30.841  32.397  1.00  0.00    -0.248 NA
ATOM     50  C   UNL A   1      37.389  32.119  32.126  1.00  0.00     0.031 C 
ATOM     51  C   UNL A   1      41.561  30.508  36.240  1.00  0.00     0.029 A 
ATOM     52  C   UNL A   1      40.846  30.610  35.056  1.00  0.00     0.049 A 
ATOM     53  H   UNL A   1      41.183  29.644  33.213  1.00  0.00     0.167 HD
ATOM     54  C   UNL A   1      39.029  31.473  33.596  1.00  0.00     0.074 A 
ATOM     55  C   UNL A   1      37.841  32.271  33.363  1.00  0.00     0.031 C 
ATOM     56  C   UNL A   1      39.674  31.403  34.785  1.00  0.00     0.037 A 
BRANCH  43  57
ATOM     57  C   UNL A   1      44.573  27.634  34.841  1.00  0.00     0.057 A 
ATOM     58  C   UNL A   1      45.832  28.240  34.938  1.00  0.00     0.134 A 
ATOM     59  C   UNL A   1      44.383  26.426  35.525  1.00  0.00     0.134 A 
ATOM     60  F   UNL A   1      46.087  29.386  34.289  1.00  0.00    -0.206 F 
ATOM     61  C   UNL A   1      46.866  27.658  35.675  1.00  0.00     0.040 A 
ATOM     62  C   UNL A   1      45.400  25.848  36.285  1.00  0.00     0.040 A 
ATOM     63  F   UNL A   1      43.201  25.793  35.472  1.00  0.00    -0.206 F 
ATOM     64  C   UNL A   1      46.648  26.462  36.358  1.00  0.00     0.006 A 
ENDBRANCH  43  57
BRANCH  44  65
ATOM     65  C   UNL A   1      37.095  31.383  29.305  1.00  0.00     0.057 A 
ATOM     66  C   UNL A   1      35.959  30.604  29.054  1.00  0.00     0.134 A 
ATOM     67  C   UNL A   1      37.123  32.673  28.760  1.00  0.00     0.134 A 
ATOM     68  F   UNL A   1      35.882  29.352  29.531  1.00  0.00    -0.206 F 
ATOM     69  C   UNL A   1      34.901  31.080  28.279  1.00  0.00     0.040 A 
ATOM     70  C   UNL A   1      36.060  33.173  28.004  1.00  0.00     0.040 A 
ATOM     71  F   UNL A   1      38.180  33.472  28.963  1.00  0.00    -0.206 F 
ATOM     72  C   UNL A   1      34.948  32.371  27.755  1.00  0.00     0.006 A 
ENDBRANCH  44  65
BRANCH  56  73
ATOM     73  C   UNL A   1      39.134  32.244  35.901  1.00  0.00     0.057 A 
ATOM     74  C   UNL A   1      38.242  31.729  36.848  1.00  0.00     0.134 A 
ATOM     75  C   UNL A   1      39.543  33.576  36.047  1.00  0.00     0.134 A 
ATOM     76  F   UNL A   1      37.801  30.465  36.753  1.00  0.00    -0.206 F 
ATOM     77  C   UNL A   1      37.757  32.517  37.893  1.00  0.00     0.040 A 
ATOM     78  C   UNL A   1      39.085  34.365  37.102  1.00  0.00     0.040 A 
ATOM     79  F   UNL A   1      40.404  34.123  35.177  1.00  0.00    -0.206 F 
ATOM     80  C   UNL A   1      38.185  33.838  38.024  1.00  0.00     0.006 A 
ENDBRANCH  56  73
ENDBRANCH  30  31
ENDBRANCH  23  25
ENDBRANCH  22  23
ENDBRANCH  21  22
ENDBRANCH   1  21
TORSDOF 13
ENDMDL
MODEL 2
REMARK VINA RESULT:     -11.4      5.347     11.419
REMARK SMILES C[C@@H]1CCCN(C(=O)N[C@H]2C=C[C@@H](C(=O)OCCOC(=O)c3ccc(-c4c5nc(c(-c6c(F)cccc6F)c6ccc([nH]6)c(-c6c(F)cccc6F)c6nc(c(-c7c(F)cccc7F)c7ccc4[nH]7)C=C6)C=C5)cc3)C2)C1
REMARK SMILES IDX 17 1 16 2 14 3 15 4 13 5 10 6 11 7 76 8 12 9 9 10 7 11 8 12
REMARK SMILES IDX 6 14 1 15 2 16 3 17 77 18 4 19 5 20 18 21 19 22 20 23 21 24
REMARK SMILES IDX 22 25 23 26 75 27 24 28 74 29 25 30 26 31 27 32 68 33 28 34
REMARK SMILES IDX 73 35 67 36 69 37 29 38 72 39 66 40 65 41 30 43 56 44 39 45
REMARK SMILES IDX 55 46 40 47 43 48 54 49 70 50 41 51 42 52 53 54 71 55 44 56
REMARK SMILES IDX 31 57 32 58 37 59 33 60 34 61 36 62 38 63 35 64 57 65 58 66
REMARK SMILES IDX 63 67 59 68 60 69 62 70 64 71 61 72 45 73 46 74 51 75 47 76
REMARK SMILES IDX 48 77 50 78 52 79 49 80
REMARK H PARENT 9 13 69 42 43 53
REMARK Flexibility Score: inf
ROOT
ATOM      1  C   UNL A   1      34.522  34.280  28.891  1.00  0.00     0.274 C 
ENDROOT
BRANCH   1   2
ATOM      2  O   UNL A   1      33.841  34.793  30.057  1.00  0.00    -0.462 OA
BRANCH   2   3
ATOM      3  C   UNL A   1      32.959  35.815  29.888  1.00  0.00     0.312 C 
ATOM      4  O   UNL A   1      32.443  36.109  28.817  1.00  0.00    -0.252 OA
BRANCH   3   5
ATOM      5  C   UNL A   1      32.619  36.478  31.232  1.00  0.00     0.124 C 
ATOM      6  C   UNL A   1      33.426  36.235  33.525  1.00  0.00     0.107 C 
ATOM      7  C   UNL A   1      34.037  37.420  32.869  1.00  0.00    -0.006 C 
ATOM      8  C   UNL A   1      32.648  35.511  32.431  1.00  0.00     0.048 C 
ATOM      9  C   UNL A   1      33.588  37.564  31.615  1.00  0.00    -0.014 C 
BRANCH   6  10
ATOM     10  N   UNL A   1      34.367  35.438  34.287  1.00  0.00    -0.332 N 
ATOM     11  C   UNL A   1      35.225  34.414  34.171  1.00  0.00     0.317 C 
ATOM     12  O   UNL A   1      35.619  33.982  35.262  1.00  0.00    -0.249 OA
ATOM     13  H   UNL A   1      34.383  35.762  35.216  1.00  0.00     0.165 HD
BRANCH  11  14
ATOM     14  N   UNL A   1      35.643  33.856  33.002  1.00  0.00    -0.325 N 
ATOM     15  C   UNL A   1      38.652  34.497  30.709  1.00  0.00     0.009 C 
ATOM     16  C   UNL A   1      37.746  33.727  31.664  1.00  0.00     0.005 C 
ATOM     17  C   UNL A   1      37.210  32.469  30.971  1.00  0.00     0.007 C 
ATOM     18  C   UNL A   1      36.598  34.613  32.179  1.00  0.00     0.124 C 
ATOM     19  C   UNL A   1      36.221  31.760  31.880  1.00  0.00     0.022 C 
ATOM     20  C   UNL A   1      35.106  32.699  32.309  1.00  0.00     0.121 C 
ENDBRANCH  11  14
ENDBRANCH   6  10
ENDBRANCH   3   5
ENDBRANCH   2   3
ENDBRANCH   1   2
BRANCH   1  21
ATOM     21  C   UNL A   1      34.037  32.854  28.622  1.00  0.00     0.275 C 
BRANCH  21  22
ATOM     22  O   UNL A   1      35.108  32.106  28.021  1.00  0.00    -0.458 OA
BRANCH  22  23
ATOM     23  C   UNL A   1      34.920  30.766  28.026  1.00  0.00     0.338 C 
ATOM     24  O   UNL A   1      33.922  30.141  27.715  1.00  0.00    -0.246 OA
BRANCH  23  25
ATOM     25  C   UNL A   1      36.233  30.141  28.201  1.00  0.00     0.060 A 
ATOM     26  C   UNL A   1      36.434  29.414  29.375  1.00  0.00     0.016 A 
ATOM     27  C   UNL A   1      37.255  30.295  27.272  1.00  0.00     0.016 A 
ATOM     28  C   UNL A   1      37.674  28.873  29.668  1.00  0.00     0.010 A 
ATOM     29  C   UNL A   1      38.500  29.729  27.550  1.00  0.00     0.010 A 
ATOM     30  C   UNL A   1      38.721  29.040  28.760  1.00  0.00    -0.014 A 
BRANCH  30  31
ATOM     31  C   UNL A   1      40.079  28.584  29.122  1.00  0.00     0.031 A 
ATOM     32  C   UNL A   1      40.955  29.498  29.925  1.00  0.00     0.074 A 
ATOM     33  C   UNL A   1      40.505  27.364  28.750  1.00  0.00     0.049 A 
ATOM     34  N   UNL A   1      42.229  29.399  30.193  1.00  0.00    -0.248 NA
ATOM     35  C   UNL A   1      40.309  30.693  30.494  1.00  0.00     0.031 C 
ATOM     36  C   UNL A   1      39.705  26.364  28.040  1.00  0.00     0.029 A 
ATOM     37  N   UNL A   1      41.725  26.762  28.912  1.00  0.00    -0.354 N 
ATOM     38  C   UNL A   1      42.549  30.542  30.914  1.00  0.00     0.074 A 
ATOM     39  C   UNL A   1      41.337  31.321  31.045  1.00  0.00     0.031 C 
ATOM     40  C   UNL A   1      40.457  25.275  27.823  1.00  0.00     0.029 A 
ATOM     41  C   UNL A   1      41.807  25.526  28.317  1.00  0.00     0.049 A 
ATOM     42  H   UNL A   1      42.470  27.174  29.407  1.00  0.00     0.167 HD
ATOM     43  C   UNL A   1      43.754  30.904  31.413  1.00  0.00     0.037 A 
ATOM     44  C   UNL A   1      42.868  24.716  28.150  1.00  0.00     0.037 A 
ATOM     45  C   UNL A   1      44.937  30.093  31.306  1.00  0.00     0.049 A 
ATOM     46  C   UNL A   1      44.205  25.166  28.669  1.00  0.00     0.074 A 
ATOM     47  C   UNL A   1      46.208  30.351  31.784  1.00  0.00     0.029 A 
ATOM     48  N   UNL A   1      44.984  28.854  30.680  1.00  0.00    -0.354 N 
ATOM     49  N   UNL A   1      44.515  26.265  29.315  1.00  0.00    -0.248 NA
ATOM     50  C   UNL A   1      45.344  24.272  28.425  1.00  0.00     0.031 C 
ATOM     51  C   UNL A   1      47.035  29.284  31.415  1.00  0.00     0.029 A 
ATOM     52  C   UNL A   1      46.267  28.343  30.747  1.00  0.00     0.049 A 
ATOM     53  H   UNL A   1      44.219  28.407  30.253  1.00  0.00     0.167 HD
ATOM     54  C   UNL A   1      45.875  26.185  29.576  1.00  0.00     0.074 A 
ATOM     55  C   UNL A   1      46.329  24.921  29.030  1.00  0.00     0.031 C 
ATOM     56  C   UNL A   1      46.681  27.073  30.206  1.00  0.00     0.037 A 
BRANCH  43  57
ATOM     57  C   UNL A   1      43.857  32.243  32.078  1.00  0.00     0.057 A 
ATOM     58  C   UNL A   1      44.165  33.409  31.366  1.00  0.00     0.134 A 
ATOM     59  C   UNL A   1      43.618  32.369  33.452  1.00  0.00     0.134 A 
ATOM     60  F   UNL A   1      44.427  33.355  30.051  1.00  0.00    -0.206 F 
ATOM     61  C   UNL A   1      44.246  34.651  32.001  1.00  0.00     0.040 A 
ATOM     62  C   UNL A   1      43.671  33.607  34.094  1.00  0.00     0.040 A 
ATOM     63  F   UNL A   1      43.320  31.291  34.193  1.00  0.00    -0.206 F 
ATOM     64  C   UNL A   1      43.990  34.753  33.368  1.00  0.00     0.006 A 
ENDBRANCH  43  57
BRANCH  44  65
ATOM     65  C   UNL A   1      42.722  23.428  27.428  1.00  0.00     0.057 A 
ATOM     66  C   UNL A   1      42.934  23.343  26.047  1.00  0.00     0.134 A 
ATOM     67  C   UNL A   1      42.350  22.253  28.094  1.00  0.00     0.134 A 
ATOM     68  F   UNL A   1      43.270  24.438  25.349  1.00  0.00    -0.206 F 
ATOM     69  C   UNL A   1      42.767  22.144  25.353  1.00  0.00     0.040 A 
ATOM     70  C   UNL A   1      42.205  21.040  27.417  1.00  0.00     0.040 A 
ATOM     71  F   UNL A   1      42.133  22.264  29.418  1.00  0.00    -0.206 F 
ATOM     72  C   UNL A   1      42.406  20.986  26.040  1.00  0.00     0.006 A 
ENDBRANCH  44  65
BRANCH  56  73
ATOM     73  C   UNL A   1      48.118  26.683  30.376  1.00  0.00     0.057 A 
ATOM     74  C   UNL A   1      49.104  27.083  29.468  1.00  0.00     0.134 A 
ATOM     75  C   UNL A   1      48.521  25.928  31.486  1.00  0.00     0.134 A 
ATOM     76  F   UNL A   1      48.777  27.795  28.378  1.00  0.00    -0.206 F 
ATOM     77  C   UNL A   1      50.442  26.727  29.644  1.00  0.00     0.040 A 
ATOM     78  C   UNL A   1      49.858  25.588  31.686  1.00  0.00     0.040 A 
ATOM     79  F   UNL A   1      47.624  25.524  32.396  1.00  0.00    -0.206 F 
ATOM     80  C   UNL A   1      50.822  25.983  30.760  1.00  0.00     0.006 A 
ENDBRANCH  56  73
ENDBRANCH  30  31
ENDBRANCH  23  25
ENDBRANCH  22  23
ENDBRANCH  21  22
ENDBRANCH   1  21
TORSDOF 13
ENDMDL
MODEL 3
REMARK VINA RESULT:     -11.4      4.453      8.338
REMARK SMILES C[C@@H]1CCCN(C(=O)N[C@H]2C=C[C@@H](C(=O)OCCOC(=O)c3ccc(-c4c5nc(c(-c6c(F)cccc6F)c6ccc([nH]6)c(-c6c(F)cccc6F)c6nc(c(-c7c(F)cccc7F)c7ccc4[nH]7)C=C6)C=C5)cc3)C2)C1
REMARK SMILES IDX 17 1 16 2 14 3 15 4 13 5 10 6 11 7 76 8 12 9 9 10 7 11 8 12
REMARK SMILES IDX 6 14 1 15 2 16 3 17 77 18 4 19 5 20 18 21 19 22 20 23 21 24
REMARK SMILES IDX 22 25 23 26 75 27 24 28 74 29 25 30 26 31 27 32 68 33 28 34
REMARK SMILES IDX 73 35 67 36 69 37 29 38 72 39 66 40 65 41 30 43 56 44 39 45
REMARK SMILES IDX 55 46 40 47 43 48 54 49 70 50 41 51 42 52 53 54 71 55 44 56
REMARK SMILES IDX 31 57 32 58 37 59 33 60 34 61 36 62 38 63 35 64 57 65 58 66
REMARK SMILES IDX 63 67 59 68 60 69 62 70 64 71 61 72 45 73 46 74 51 75 47 76
REMARK SMILES IDX 48 77 50 78 52 79 49 80
REMARK H PARENT 9 13 69 42 43 53
REMARK Flexibility Score: inf
ROOT
ATOM      1  C   UNL A   1      35.621  20.282  25.001  1.00  0.00     0.274 C 
ENDROOT
BRANCH   1   2
ATOM      2  O   UNL A   1      34.745  21.429  24.975  1.00  0.00    -0.462 OA
BRANCH   2   3
ATOM      3  C   UNL A   1      34.243  21.882  26.157  1.00  0.00     0.312 C 
ATOM      4  O   UNL A   1      33.807  21.157  27.042  1.00  0.00    -0.252 OA
BRANCH   3   5
ATOM      5  C   UNL A   1      34.395  23.406  26.272  1.00  0.00     0.124 C 
ATOM      6  C   UNL A   1      34.242  25.276  24.707  1.00  0.00     0.107 C 
ATOM      7  C   UNL A   1      32.992  25.141  25.498  1.00  0.00    -0.006 C 
ATOM      8  C   UNL A   1      35.090  24.059  25.062  1.00  0.00     0.048 C 
ATOM      9  C   UNL A   1      33.076  24.125  26.366  1.00  0.00    -0.014 C 
BRANCH   6  10
ATOM     10  N   UNL A   1      34.018  25.520  23.295  1.00  0.00    -0.332 N 
ATOM     11  C   UNL A   1      33.325  26.298  22.452  1.00  0.00     0.317 C 
ATOM     12  O   UNL A   1      33.351  25.894  21.282  1.00  0.00    -0.249 OA
ATOM     13  H   UNL A   1      34.570  24.895  22.772  1.00  0.00     0.165 HD
BRANCH  11  14
ATOM     14  N   UNL A   1      32.633  27.420  22.792  1.00  0.00    -0.325 N 
ATOM     15  C   UNL A   1      28.892  28.204  23.121  1.00  0.00     0.009 C 
ATOM     16  C   UNL A   1      30.336  28.009  23.570  1.00  0.00     0.005 C 
ATOM     17  C   UNL A   1      30.884  29.321  24.144  1.00  0.00     0.007 C 
ATOM     18  C   UNL A   1      31.214  27.495  22.415  1.00  0.00     0.124 C 
ATOM     19  C   UNL A   1      32.353  29.160  24.489  1.00  0.00     0.022 C 
ATOM     20  C   UNL A   1      33.147  28.685  23.284  1.00  0.00     0.121 C 
ENDBRANCH  11  14
ENDBRANCH   6  10
ENDBRANCH   3   5
ENDBRANCH   2   3
ENDBRANCH   1   2
BRANCH   1  21
ATOM     21  C   UNL A   1      37.035  20.731  24.629  1.00  0.00     0.275 C 
BRANCH  21  22
ATOM     22  O   UNL A   1      37.580  21.497  25.717  1.00  0.00    -0.458 OA
BRANCH  22  23
ATOM     23  C   UNL A   1      38.849  21.166  26.049  1.00  0.00     0.338 C 
ATOM     24  O   UNL A   1      39.473  20.163  25.749  1.00  0.00    -0.246 OA
BRANCH  23  25
ATOM     25  C   UNL A   1      39.481  22.361  26.612  1.00  0.00     0.060 A 
ATOM     26  C   UNL A   1      39.035  23.594  26.133  1.00  0.00     0.016 A 
ATOM     27  C   UNL A   1      40.508  22.285  27.544  1.00  0.00     0.016 A 
ATOM     28  C   UNL A   1      39.643  24.770  26.537  1.00  0.00     0.010 A 
ATOM     29  C   UNL A   1      41.107  23.470  27.974  1.00  0.00     0.010 A 
ATOM     30  C   UNL A   1      40.696  24.713  27.452  1.00  0.00    -0.014 A 
BRANCH  30  31
ATOM     31  C   UNL A   1      41.438  25.946  27.787  1.00  0.00     0.031 A 
ATOM     32  C   UNL A   1      40.748  27.006  28.592  1.00  0.00     0.074 A 
ATOM     33  C   UNL A   1      42.714  26.098  27.388  1.00  0.00     0.049 A 
ATOM     34  N   UNL A   1      41.121  28.233  28.840  1.00  0.00    -0.248 NA
ATOM     35  C   UNL A   1      39.453  26.636  29.190  1.00  0.00     0.031 C 
ATOM     36  C   UNL A   1      43.506  25.096  26.673  1.00  0.00     0.029 A 
ATOM     37  N   UNL A   1      43.565  27.163  27.521  1.00  0.00    -0.354 N 
ATOM     38  C   UNL A   1      40.087  28.797  29.574  1.00  0.00     0.074 A 
ATOM     39  C   UNL A   1      39.070  27.781  29.736  1.00  0.00     0.031 C 
ATOM     40  C   UNL A   1      44.726  25.596  26.427  1.00  0.00     0.029 A 
ATOM     41  C   UNL A   1      44.777  26.973  26.905  1.00  0.00     0.049 A 
ATOM     42  H   UNL A   1      43.331  27.984  28.012  1.00  0.00     0.167 HD
ATOM     43  C   UNL A   1      40.000  30.056  30.061  1.00  0.00     0.037 A 
ATOM     44  C   UNL A   1      45.792  27.835  26.709  1.00  0.00     0.037 A 
ATOM     45  C   UNL A   1      41.042  31.038  29.923  1.00  0.00     0.049 A 
ATOM     46  C   UNL A   1      45.648  29.243  27.216  1.00  0.00     0.074 A 
ATOM     47  C   UNL A   1      41.070  32.340  30.387  1.00  0.00     0.029 A 
ATOM     48  N   UNL A   1      42.250  30.813  29.277  1.00  0.00    -0.354 N 
ATOM     49  N   UNL A   1      44.652  29.787  27.875  1.00  0.00    -0.248 NA
ATOM     50  C   UNL A   1      46.759  30.162  26.940  1.00  0.00     0.031 C 
ATOM     51  C   UNL A   1      42.281  32.916  29.988  1.00  0.00     0.029 A 
ATOM     52  C   UNL A   1      43.025  31.958  29.316  1.00  0.00     0.049 A 
ATOM     53  H   UNL A   1      42.515  29.966  28.853  1.00  0.00     0.167 HD
ATOM     54  C   UNL A   1      45.026  31.101  28.114  1.00  0.00     0.074 A 
ATOM     55  C   UNL A   1      46.347  31.270  27.541  1.00  0.00     0.031 C 
ATOM     56  C   UNL A   1      44.342  32.086  28.748  1.00  0.00     0.037 A 
BRANCH  43  57
ATOM     57  C   UNL A   1      38.726  30.451  30.747  1.00  0.00     0.057 A 
ATOM     58  C   UNL A   1      38.520  30.243  32.116  1.00  0.00     0.134 A 
ATOM     59  C   UNL A   1      37.700  31.074  30.026  1.00  0.00     0.134 A 
ATOM     60  F   UNL A   1      39.454  29.632  32.861  1.00  0.00    -0.206 F 
ATOM     61  C   UNL A   1      37.331  30.629  32.741  1.00  0.00     0.040 A 
ATOM     62  C   UNL A   1      36.519  31.486  30.642  1.00  0.00     0.040 A 
ATOM     63  F   UNL A   1      37.834  31.301  28.710  1.00  0.00    -0.206 F 
ATOM     64  C   UNL A   1      36.330  31.260  32.004  1.00  0.00     0.006 A 
ENDBRANCH  43  57
BRANCH  44  65
ATOM     65  C   UNL A   1      47.005  27.409  25.967  1.00  0.00     0.057 A 
ATOM     66  C   UNL A   1      47.073  27.505  24.573  1.00  0.00     0.134 A 
ATOM     67  C   UNL A   1      48.120  26.880  26.631  1.00  0.00     0.134 A 
ATOM     68  F   UNL A   1      46.029  27.984  23.879  1.00  0.00    -0.206 F 
ATOM     69  C   UNL A   1      48.196  27.078  23.863  1.00  0.00     0.040 A 
ATOM     70  C   UNL A   1      49.261  26.473  25.936  1.00  0.00     0.040 A 
ATOM     71  F   UNL A   1      48.122  26.762  27.966  1.00  0.00    -0.206 F 
ATOM     72  C   UNL A   1      49.297  26.563  24.546  1.00  0.00     0.006 A 
ENDBRANCH  44  65
BRANCH  56  73
ATOM     73  C   UNL A   1      45.033  33.408  28.890  1.00  0.00     0.057 A 
ATOM     74  C   UNL A   1      44.857  34.436  27.958  1.00  0.00     0.134 A 
ATOM     75  C   UNL A   1      45.854  33.663  29.996  1.00  0.00     0.134 A 
ATOM     76  F   UNL A   1      44.094  34.246  26.870  1.00  0.00    -0.206 F 
ATOM     77  C   UNL A   1      45.493  35.669  28.108  1.00  0.00     0.040 A 
ATOM     78  C   UNL A   1      46.474  34.900  30.170  1.00  0.00     0.040 A 
ATOM     79  F   UNL A   1      46.053  32.720  30.929  1.00  0.00    -0.206 F 
ATOM     80  C   UNL A   1      46.299  35.905  29.221  1.00  0.00     0.006 A 
ENDBRANCH  56  73
ENDBRANCH  30  31
ENDBRANCH  23  25
ENDBRANCH  22  23
ENDBRANCH  21  22
ENDBRANCH   1  21
TORSDOF 13
ENDMDL
