MODEL 1
REMARK VINA RESULT:     -11.7      0.000      0.000
REMARK SMILES CC(C)CN(C)c1cc2c(cc1Cl)C=C(C(=O)OCCOC(=O)c1ccc(-c3c4nc(c(-c5c(F)cccc5F)c5ccc([nH]5)c(-c5c(F)cccc5F)c5nc(c(-c6c(F)cccc6F)c6ccc3[nH]6)C=C5)C=C4)cc1)[C@@H](C(F)(F)F)O2
REMARK SMILES IDX 19 1 18 2 16 3 17 4 15 5 7 6 8 7 12 8 9 9 11 10 13 11 10 12
REMARK SMILES IDX 83 13 14 14 78 15 5 16 6 17 4 18 2 19 1 20 3 21 79 22 80 23
REMARK SMILES IDX 81 24 82 25 20 26 21 27 22 28 23 29 24 30 25 31 77 32 26 33
REMARK SMILES IDX 76 34 27 35 28 36 29 37 70 38 30 39 75 40 69 41 71 42 31 43
REMARK SMILES IDX 74 44 68 45 67 46 32 48 58 49 41 50 57 51 42 52 45 53 56 54
REMARK SMILES IDX 72 55 43 56 44 57 55 59 73 60 46 61 33 62 34 63 39 64 35 65
REMARK SMILES IDX 36 66 38 67 40 68 37 69 59 70 60 71 65 72 61 73 62 74 64 75
REMARK SMILES IDX 66 76 63 77 47 78 48 79 53 80 49 81 50 82 52 83 54 84 51 85
REMARK H PARENT 71 47 45 58
REMARK Flexibility Score: inf
ROOT
ATOM      1  C   UNL A   1      35.584  20.764  25.358  1.00  0.00     0.275 C 
ENDROOT
BRANCH   1   2
ATOM      2  O   UNL A   1      34.977  21.537  24.298  1.00  0.00    -0.459 OA
BRANCH   2   3
ATOM      3  C   UNL A   1      33.634  21.408  24.200  1.00  0.00     0.338 C 
ATOM      4  O   UNL A   1      33.018  20.352  24.145  1.00  0.00    -0.246 OA
BRANCH   3   5
ATOM      5  C   UNL A   1      32.953  22.715  24.235  1.00  0.00     0.087 C 
ATOM      6  C   UNL A   1      31.789  27.572  23.507  1.00  0.00     0.059 A 
ATOM      7  C   UNL A   1      31.168  26.508  24.198  1.00  0.00     0.074 A 
ATOM      8  C   UNL A   1      33.041  27.321  22.906  1.00  0.00     0.065 A 
ATOM      9  C   UNL A   1      31.748  25.233  24.236  1.00  0.00     0.130 A 
ATOM     10  C   UNL A   1      33.568  26.035  22.863  1.00  0.00     0.034 A 
ATOM     11  Cl  UNL A   1      34.028  28.574  22.237  1.00  0.00    -0.082 Cl
ATOM     12  C   UNL A   1      32.915  24.997  23.518  1.00  0.00     0.019 A 
ATOM     13  O   UNL A   1      31.118  24.246  24.953  1.00  0.00    -0.475 OA
ATOM     14  C   UNL A   1      33.467  23.664  23.445  1.00  0.00     0.027 C 
ATOM     15  C   UNL A   1      31.886  23.031  25.246  1.00  0.00     0.316 C 
BRANCH   6  16
ATOM     16  N   UNL A   1      31.177  28.827  23.408  1.00  0.00    -0.373 N 
ATOM     17  C   UNL A   1      31.135  29.619  24.629  1.00  0.00     0.143 C 
BRANCH  16  18
ATOM     18  C   UNL A   1      30.057  28.971  22.454  1.00  0.00     0.119 C 
BRANCH  18  19
ATOM     19  C   UNL A   1      28.822  29.657  23.079  1.00  0.00     0.002 C 
ATOM     20  C   UNL A   1      28.419  30.925  22.320  1.00  0.00     0.009 C 
ATOM     21  C   UNL A   1      27.617  28.711  23.125  1.00  0.00     0.009 C 
ENDBRANCH  18  19
ENDBRANCH  16  18
ENDBRANCH   6  16
BRANCH  15  22
ATOM     22  C   UNL A   1      32.528  23.120  26.644  1.00  0.00     0.430 C 
ATOM     23  F   UNL A   1      32.711  21.897  27.193  1.00  0.00    -0.167 F 
ATOM     24  F   UNL A   1      33.750  23.708  26.582  1.00  0.00    -0.167 F 
ATOM     25  F   UNL A   1      31.782  23.846  27.507  1.00  0.00    -0.167 F 
ENDBRANCH  15  22
ENDBRANCH   3   5
ENDBRANCH   2   3
ENDBRANCH   1   2
BRANCH   1  26
ATOM     26  C   UNL A   1      37.000  20.307  25.002  1.00  0.00     0.275 C 
BRANCH  26  27
ATOM     27  O   UNL A   1      37.950  21.373  25.184  1.00  0.00    -0.458 OA
BRANCH  27  28
ATOM     28  C   UNL A   1      39.033  21.066  25.936  1.00  0.00     0.338 C 
ATOM     29  O   UNL A   1      39.553  19.975  26.080  1.00  0.00    -0.246 OA
BRANCH  28  30
ATOM     30  C   UNL A   1      39.592  22.292  26.529  1.00  0.00     0.060 A 
ATOM     31  C   UNL A   1      40.737  22.264  27.317  1.00  0.00     0.016 A 
ATOM     32  C   UNL A   1      39.042  23.509  26.146  1.00  0.00     0.016 A 
ATOM     33  C   UNL A   1      41.306  23.476  27.735  1.00  0.00     0.010 A 
ATOM     34  C   UNL A   1      39.678  24.707  26.455  1.00  0.00     0.010 A 
ATOM     35  C   UNL A   1      40.804  24.715  27.284  1.00  0.00    -0.014 A 
BRANCH  35  36
ATOM     36  C   UNL A   1      41.452  26.006  27.674  1.00  0.00     0.031 A 
ATOM     37  C   UNL A   1      42.847  26.356  27.207  1.00  0.00     0.074 A 
ATOM     38  C   UNL A   1      40.803  26.860  28.491  1.00  0.00     0.049 A 
ATOM     39  N   UNL A   1      43.544  27.446  27.424  1.00  0.00    -0.248 NA
ATOM     40  C   UNL A   1      43.576  25.335  26.439  1.00  0.00     0.031 C 
ATOM     41  C   UNL A   1      39.506  26.610  29.124  1.00  0.00     0.029 A 
ATOM     42  N   UNL A   1      41.140  28.122  28.920  1.00  0.00    -0.354 N 
ATOM     43  C   UNL A   1      44.788  27.227  26.844  1.00  0.00     0.074 A 
ATOM     44  C   UNL A   1      44.781  25.872  26.340  1.00  0.00     0.031 C 
ATOM     45  C   UNL A   1      39.126  27.705  29.801  1.00  0.00     0.029 A 
ATOM     46  C   UNL A   1      40.162  28.725  29.675  1.00  0.00     0.049 A 
ATOM     47  H   UNL A   1      41.999  28.552  28.708  1.00  0.00     0.167 HD
ATOM     48  C   UNL A   1      45.830  28.082  26.694  1.00  0.00     0.037 A 
ATOM     49  C   UNL A   1      40.095  29.967  30.190  1.00  0.00     0.037 A 
ATOM     50  C   UNL A   1      45.827  29.447  27.147  1.00  0.00     0.049 A 
ATOM     51  C   UNL A   1      41.223  30.929  29.949  1.00  0.00     0.074 A 
ATOM     52  C   UNL A   1      46.794  30.422  26.970  1.00  0.00     0.029 A 
ATOM     53  N   UNL A   1      44.796  30.034  27.865  1.00  0.00    -0.354 N 
ATOM     54  N   UNL A   1      42.347  30.739  29.303  1.00  0.00    -0.248 NA
ATOM     55  C   UNL A   1      41.067  32.284  30.498  1.00  0.00     0.031 C 
ATOM     56  C   UNL A   1      46.359  31.593  27.604  1.00  0.00     0.029 A 
ATOM     57  C   UNL A   1      45.106  31.355  28.145  1.00  0.00     0.049 A 
ATOM     58  H   UNL A   1      43.967  29.579  28.136  1.00  0.00     0.167 HD
ATOM     59  C   UNL A   1      43.027  31.948  29.358  1.00  0.00     0.074 A 
ATOM     60  C   UNL A   1      42.175  32.875  30.076  1.00  0.00     0.031 C 
ATOM     61  C   UNL A   1      44.251  32.262  28.865  1.00  0.00     0.037 A 
BRANCH  48  62
ATOM     62  C   UNL A   1      47.046  27.562  25.977  1.00  0.00     0.057 A 
ATOM     63  C   UNL A   1      48.104  26.974  26.681  1.00  0.00     0.134 A 
ATOM     64  C   UNL A   1      47.166  27.638  24.582  1.00  0.00     0.134 A 
ATOM     65  F   UNL A   1      48.066  26.881  28.018  1.00  0.00    -0.206 F 
ATOM     66  C   UNL A   1      49.225  26.463  26.022  1.00  0.00     0.040 A 
ATOM     67  C   UNL A   1      48.266  27.103  23.910  1.00  0.00     0.040 A 
ATOM     68  F   UNL A   1      46.185  28.183  23.844  1.00  0.00    -0.206 F 
ATOM     69  C   UNL A   1      49.301  26.515  24.631  1.00  0.00     0.006 A 
ENDBRANCH  48  62
BRANCH  49  70
ATOM     70  C   UNL A   1      38.884  30.393  30.937  1.00  0.00     0.057 A 
ATOM     71  C   UNL A   1      37.815  31.031  30.298  1.00  0.00     0.134 A 
ATOM     72  C   UNL A   1      38.776  30.176  32.317  1.00  0.00     0.134 A 
ATOM     73  F   UNL A   1      37.862  31.276  28.981  1.00  0.00    -0.206 F 
ATOM     74  C   UNL A   1      36.683  31.442  31.005  1.00  0.00     0.040 A 
ATOM     75  C   UNL A   1      37.640  30.561  33.030  1.00  0.00     0.040 A 
ATOM     76  F   UNL A   1      39.762  29.555  32.981  1.00  0.00    -0.206 F 
ATOM     77  C   UNL A   1      36.591  31.201  32.375  1.00  0.00     0.006 A 
ENDBRANCH  49  70
BRANCH  61  78
ATOM     78  C   UNL A   1      44.730  33.666  29.078  1.00  0.00     0.057 A 
ATOM     79  C   UNL A   1      44.438  34.672  28.149  1.00  0.00     0.134 A 
ATOM     80  C   UNL A   1      45.498  34.018  30.195  1.00  0.00     0.134 A 
ATOM     81  F   UNL A   1      43.711  34.398  27.055  1.00  0.00    -0.206 F 
ATOM     82  C   UNL A   1      44.892  35.979  28.324  1.00  0.00     0.040 A 
ATOM     83  C   UNL A   1      45.939  35.328  30.392  1.00  0.00     0.040 A 
ATOM     84  F   UNL A   1      45.799  33.103  31.129  1.00  0.00    -0.206 F 
ATOM     85  C   UNL A   1      45.640  36.312  29.452  1.00  0.00     0.006 A 
ENDBRANCH  61  78
ENDBRANCH  35  36
ENDBRANCH  28  30
ENDBRANCH  27  28
ENDBRANCH  26  27
ENDBRANCH   1  26
TORSDOF 15
ENDMDL
MODEL 2
REMARK VINA RESULT:     -11.6      1.515      2.139
REMARK SMILES CC(C)CN(C)c1cc2c(cc1Cl)C=C(C(=O)OCCOC(=O)c1ccc(-c3c4nc(c(-c5c(F)cccc5F)c5ccc([nH]5)c(-c5c(F)cccc5F)c5nc(c(-c6c(F)cccc6F)c6ccc3[nH]6)C=C5)C=C4)cc1)[C@@H](C(F)(F)F)O2
REMARK SMILES IDX 19 1 18 2 16 3 17 4 15 5 7 6 8 7 12 8 9 9 11 10 13 11 10 12
REMARK SMILES IDX 83 13 14 14 78 15 5 16 6 17 4 18 2 19 1 20 3 21 79 22 80 23
REMARK SMILES IDX 81 24 82 25 20 26 21 27 22 28 23 29 24 30 25 31 77 32 26 33
REMARK SMILES IDX 76 34 27 35 28 36 29 37 70 38 30 39 75 40 69 41 71 42 31 43
REMARK SMILES IDX 74 44 68 45 67 46 32 48 58 49 41 50 57 51 42 52 45 53 56 54
REMARK SMILES IDX 72 55 43 56 44 57 55 59 73 60 46 61 33 62 34 63 39 64 35 65
REMARK SMILES IDX 36 66 38 67 40 68 37 69 59 70 60 71 65 72 61 73 62 74 64 75
REMARK SMILES IDX 66 76 63 77 47 78 48 79 53 80 49 81 50 82 52 83 54 84 51 85
REMARK H PARENT 71 47 45 58
REMARK Flexibility Score: inf
ROOT
ATOM      1  C   UNL A   1      35.982  20.592  25.001  1.00  0.00     0.275 C 
ENDROOT
BRANCH   1   2
ATOM      2  O   UNL A   1      35.014  21.234  24.142  1.00  0.00    -0.459 OA
BRANCH   2   3
ATOM      3  C   UNL A   1      33.734  21.149  24.570  1.00  0.00     0.338 C 
ATOM      4  O   UNL A   1      33.051  20.134  24.592  1.00  0.00    -0.246 OA
BRANCH   3   5
ATOM      5  C   UNL A   1      33.242  22.439  25.090  1.00  0.00     0.087 C 
ATOM      6  C   UNL A   1      32.382  27.370  25.735  1.00  0.00     0.059 A 
ATOM      7  C   UNL A   1      31.946  26.203  26.402  1.00  0.00     0.074 A 
ATOM      8  C   UNL A   1      33.306  27.215  24.680  1.00  0.00     0.065 A 
ATOM      9  C   UNL A   1      32.372  24.933  25.992  1.00  0.00     0.130 A 
ATOM     10  C   UNL A   1      33.653  25.952  24.214  1.00  0.00     0.034 A 
ATOM     11  Cl  UNL A   1      34.109  28.553  23.933  1.00  0.00    -0.082 Cl
ATOM     12  C   UNL A   1      33.178  24.819  24.864  1.00  0.00     0.019 A 
ATOM     13  O   UNL A   1      31.945  23.836  26.699  1.00  0.00    -0.475 OA
ATOM     14  C   UNL A   1      33.532  23.515  24.352  1.00  0.00     0.027 C 
ATOM     15  C   UNL A   1      32.643  22.568  26.462  1.00  0.00     0.316 C 
BRANCH   6  16
ATOM     16  N   UNL A   1      31.903  28.633  26.099  1.00  0.00    -0.373 N 
ATOM     17  C   UNL A   1      31.473  29.496  25.007  1.00  0.00     0.143 C 
BRANCH  16  18
ATOM     18  C   UNL A   1      32.493  29.275  27.292  1.00  0.00     0.119 C 
BRANCH  18  19
ATOM     19  C   UNL A   1      33.783  30.064  26.973  1.00  0.00     0.002 C 
ATOM     20  C   UNL A   1      33.773  31.464  27.595  1.00  0.00     0.009 C 
ATOM     21  C   UNL A   1      35.031  29.321  27.460  1.00  0.00     0.009 C 
ENDBRANCH  18  19
ENDBRANCH  16  18
ENDBRANCH   6  16
BRANCH  15  22
ATOM     22  C   UNL A   1      33.746  22.352  27.516  1.00  0.00     0.430 C 
ATOM     23  F   UNL A   1      34.871  23.042  27.217  1.00  0.00    -0.167 F 
ATOM     24  F   UNL A   1      33.341  22.776  28.740  1.00  0.00    -0.167 F 
ATOM     25  F   UNL A   1      34.088  21.049  27.641  1.00  0.00    -0.167 F 
ENDBRANCH  15  22
ENDBRANCH   3   5
ENDBRANCH   2   3
ENDBRANCH   1   2
BRANCH   1  26
ATOM     26  C   UNL A   1      37.389  21.165  24.816  1.00  0.00     0.275 C 
BRANCH  26  27
ATOM     27  O   UNL A   1      37.813  21.888  25.987  1.00  0.00    -0.458 OA
BRANCH  27  28
ATOM     28  C   UNL A   1      39.129  21.791  26.287  1.00  0.00     0.338 C 
ATOM     29  O   UNL A   1      39.887  20.876  26.023  1.00  0.00    -0.246 OA
BRANCH  28  30
ATOM     30  C   UNL A   1      39.584  23.031  26.936  1.00  0.00     0.060 A 
ATOM     31  C   UNL A   1      40.693  23.050  27.774  1.00  0.00     0.016 A 
ATOM     32  C   UNL A   1      38.977  24.222  26.562  1.00  0.00     0.016 A 
ATOM     33  C   UNL A   1      41.168  24.281  28.249  1.00  0.00     0.010 A 
ATOM     34  C   UNL A   1      39.523  25.448  26.930  1.00  0.00     0.010 A 
ATOM     35  C   UNL A   1      40.610  25.501  27.809  1.00  0.00    -0.014 A 
BRANCH  35  36
ATOM     36  C   UNL A   1      41.159  26.816  28.261  1.00  0.00     0.031 A 
ATOM     37  C   UNL A   1      42.604  27.189  28.018  1.00  0.00     0.074 A 
ATOM     38  C   UNL A   1      40.367  27.674  28.936  1.00  0.00     0.049 A 
ATOM     39  N   UNL A   1      43.233  28.301  28.314  1.00  0.00    -0.248 NA
ATOM     40  C   UNL A   1      43.469  26.167  27.409  1.00  0.00     0.031 C 
ATOM     41  C   UNL A   1      38.990  27.408  29.357  1.00  0.00     0.029 A 
ATOM     42  N   UNL A   1      40.604  28.954  29.378  1.00  0.00    -0.354 N 
ATOM     43  C   UNL A   1      44.559  28.099  27.950  1.00  0.00     0.074 A 
ATOM     44  C   UNL A   1      44.663  26.732  27.492  1.00  0.00     0.031 C 
ATOM     45  C   UNL A   1      38.482  28.510  29.931  1.00  0.00     0.029 A 
ATOM     46  C   UNL A   1      39.504  29.552  29.946  1.00  0.00     0.049 A 
ATOM     47  H   UNL A   1      41.477  29.401  29.296  1.00  0.00     0.167 HD
ATOM     48  C   UNL A   1      45.595  28.976  27.947  1.00  0.00     0.037 A 
ATOM     49  C   UNL A   1      39.327  30.805  30.407  1.00  0.00     0.037 A 
ATOM     50  C   UNL A   1      45.490  30.352  28.353  1.00  0.00     0.049 A 
ATOM     51  C   UNL A   1      40.461  31.788  30.325  1.00  0.00     0.074 A 
ATOM     52  C   UNL A   1      46.452  31.346  28.308  1.00  0.00     0.029 A 
ATOM     53  N   UNL A   1      44.343  30.930  28.877  1.00  0.00    -0.354 N 
ATOM     54  N   UNL A   1      41.678  31.610  29.877  1.00  0.00    -0.248 NA
ATOM     55  C   UNL A   1      40.189  33.152  30.802  1.00  0.00     0.031 C 
ATOM     56  C   UNL A   1      45.895  32.520  28.828  1.00  0.00     0.029 A 
ATOM     57  C   UNL A   1      44.576  32.265  29.165  1.00  0.00     0.049 A 
ATOM     58  H   UNL A   1      43.490  30.462  29.022  1.00  0.00     0.167 HD
ATOM     59  C   UNL A   1      42.315  32.837  30.006  1.00  0.00     0.074 A 
ATOM     60  C   UNL A   1      41.339  33.760  30.549  1.00  0.00     0.031 C 
ATOM     61  C   UNL A   1      43.596  33.169  29.709  1.00  0.00     0.037 A 
BRANCH  48  62
ATOM     62  C   UNL A   1      46.921  28.469  27.453  1.00  0.00     0.057 A 
ATOM     63  C   UNL A   1      47.870  27.943  28.339  1.00  0.00     0.134 A 
ATOM     64  C   UNL A   1      47.258  28.493  26.091  1.00  0.00     0.134 A 
ATOM     65  F   UNL A   1      47.624  27.902  29.656  1.00  0.00    -0.206 F 
ATOM     66  C   UNL A   1      49.094  27.444  27.886  1.00  0.00     0.040 A 
ATOM     67  C   UNL A   1      48.464  27.969  25.624  1.00  0.00     0.040 A 
ATOM     68  F   UNL A   1      46.391  28.976  25.186  1.00  0.00    -0.206 F 
ATOM     69  C   UNL A   1      49.387  27.444  26.523  1.00  0.00     0.006 A 
ENDBRANCH  48  62
BRANCH  49  70
ATOM     70  C   UNL A   1      38.003  31.219  30.934  1.00  0.00     0.057 A 
ATOM     71  C   UNL A   1      36.995  31.697  30.090  1.00  0.00     0.134 A 
ATOM     72  C   UNL A   1      37.720  31.152  32.305  1.00  0.00     0.134 A 
ATOM     73  F   UNL A   1      37.207  31.796  28.770  1.00  0.00    -0.206 F 
ATOM     74  C   UNL A   1      35.753  32.099  30.590  1.00  0.00     0.040 A 
ATOM     75  C   UNL A   1      36.477  31.527  32.814  1.00  0.00     0.040 A 
ATOM     76  F   UNL A   1      38.642  30.686  33.161  1.00  0.00    -0.206 F 
ATOM     77  C   UNL A   1      35.490  32.008  31.956  1.00  0.00     0.006 A 
ENDBRANCH  49  70
BRANCH  61  78
ATOM     78  C   UNL A   1      44.005  34.589  29.957  1.00  0.00     0.057 A 
ATOM     79  C   UNL A   1      43.847  35.564  28.964  1.00  0.00     0.134 A 
ATOM     80  C   UNL A   1      44.574  34.988  31.173  1.00  0.00     0.134 A 
ATOM     81  F   UNL A   1      43.314  35.244  27.775  1.00  0.00    -0.206 F 
ATOM     82  C   UNL A   1      44.240  36.886  29.172  1.00  0.00     0.040 A 
ATOM     83  C   UNL A   1      44.950  36.313  31.401  1.00  0.00     0.040 A 
ATOM     84  F   UNL A   1      44.738  34.105  32.170  1.00  0.00    -0.206 F 
ATOM     85  C   UNL A   1      44.787  37.266  30.397  1.00  0.00     0.006 A 
ENDBRANCH  61  78
ENDBRANCH  35  36
ENDBRANCH  28  30
ENDBRANCH  27  28
ENDBRANCH  26  27
ENDBRANCH   1  26
TORSDOF 15
ENDMDL
MODEL 3
REMARK VINA RESULT:     -11.6      4.192      9.147
REMARK SMILES CC(C)CN(C)c1cc2c(cc1Cl)C=C(C(=O)OCCOC(=O)c1ccc(-c3c4nc(c(-c5c(F)cccc5F)c5ccc([nH]5)c(-c5c(F)cccc5F)c5nc(c(-c6c(F)cccc6F)c6ccc3[nH]6)C=C5)C=C4)cc1)[C@@H](C(F)(F)F)O2
REMARK SMILES IDX 19 1 18 2 16 3 17 4 15 5 7 6 8 7 12 8 9 9 11 10 13 11 10 12
REMARK SMILES IDX 83 13 14 14 78 15 5 16 6 17 4 18 2 19 1 20 3 21 79 22 80 23
REMARK SMILES IDX 81 24 82 25 20 26 21 27 22 28 23 29 24 30 25 31 77 32 26 33
REMARK SMILES IDX 76 34 27 35 28 36 29 37 70 38 30 39 75 40 69 41 71 42 31 43
REMARK SMILES IDX 74 44 68 45 67 46 32 48 58 49 41 50 57 51 42 52 45 53 56 54
REMARK SMILES IDX 72 55 43 56 44 57 55 59 73 60 46 61 33 62 34 63 39 64 35 65
REMARK SMILES IDX 36 66 38 67 40 68 37 69 59 70 60 71 65 72 61 73 62 74 64 75
REMARK SMILES IDX 66 76 63 77 47 78 48 79 53 80 49 81 50 82 52 83 54 84 51 85
REMARK H PARENT 71 47 45 58
REMARK Flexibility Score: inf
ROOT
ATOM      1  C   UNL A   1      31.252  29.359  24.543  1.00  0.00     0.275 C 
ENDROOT
BRANCH   1   2
ATOM      2  O   UNL A   1      31.019  28.026  25.052  1.00  0.00    -0.459 OA
BRANCH   2   3
ATOM      3  C   UNL A   1      30.334  27.213  24.216  1.00  0.00     0.338 C 
ATOM      4  O   UNL A   1      29.325  27.512  23.591  1.00  0.00    -0.246 OA
BRANCH   3   5
ATOM      5  C   UNL A   1      30.987  25.898  24.072  1.00  0.00     0.087 C 
ATOM      6  C   UNL A   1      33.328  21.539  25.065  1.00  0.00     0.059 A 
ATOM      7  C   UNL A   1      32.857  22.151  23.882  1.00  0.00     0.074 A 
ATOM      8  C   UNL A   1      33.206  22.261  26.271  1.00  0.00     0.065 A 
ATOM      9  C   UNL A   1      32.238  23.408  23.915  1.00  0.00     0.130 A 
ATOM     10  C   UNL A   1      32.508  23.463  26.316  1.00  0.00     0.034 A 
ATOM     11  Cl  UNL A   1      33.947  21.751  27.749  1.00  0.00    -0.082 Cl
ATOM     12  C   UNL A   1      32.019  24.025  25.142  1.00  0.00     0.019 A 
ATOM     13  O   UNL A   1      31.831  23.971  22.731  1.00  0.00    -0.475 OA
ATOM     14  C   UNL A   1      31.279  25.263  25.212  1.00  0.00     0.027 C 
ATOM     15  C   UNL A   1      31.487  25.397  22.747  1.00  0.00     0.316 C 
BRANCH   6  16
ATOM     16  N   UNL A   1      33.882  20.254  25.044  1.00  0.00    -0.373 N 
ATOM     17  C   UNL A   1      35.335  20.181  24.997  1.00  0.00     0.143 C 
BRANCH  16  18
ATOM     18  C   UNL A   1      33.117  19.187  24.363  1.00  0.00     0.119 C 
BRANCH  18  19
ATOM     19  C   UNL A   1      33.695  17.778  24.618  1.00  0.00     0.002 C 
ATOM     20  C   UNL A   1      32.738  16.898  25.429  1.00  0.00     0.009 C 
ATOM     21  C   UNL A   1      34.025  17.060  23.304  1.00  0.00     0.009 C 
ENDBRANCH  18  19
ENDBRANCH  16  18
ENDBRANCH   6  16
BRANCH  15  22
ATOM     22  C   UNL A   1      32.692  26.251  22.308  1.00  0.00     0.430 C 
ATOM     23  F   UNL A   1      33.648  26.303  23.264  1.00  0.00    -0.167 F 
ATOM     24  F   UNL A   1      33.278  25.733  21.198  1.00  0.00    -0.167 F 
ATOM     25  F   UNL A   1      32.340  27.523  22.013  1.00  0.00    -0.167 F 
ENDBRANCH  15  22
ENDBRANCH   3   5
ENDBRANCH   2   3
ENDBRANCH   1   2
BRANCH   1  26
ATOM     26  C   UNL A   1      31.446  30.380  25.666  1.00  0.00     0.275 C 
BRANCH  26  27
ATOM     27  O   UNL A   1      32.726  30.212  26.304  1.00  0.00    -0.458 OA
BRANCH  27  28
ATOM     28  C   UNL A   1      33.168  31.277  27.013  1.00  0.00     0.338 C 
ATOM     29  O   UNL A   1      32.568  32.307  27.260  1.00  0.00    -0.246 OA
BRANCH  28  30
ATOM     30  C   UNL A   1      34.508  30.994  27.552  1.00  0.00     0.060 A 
ATOM     31  C   UNL A   1      35.350  32.013  27.982  1.00  0.00     0.016 A 
ATOM     32  C   UNL A   1      34.852  29.668  27.778  1.00  0.00     0.016 A 
ATOM     33  C   UNL A   1      36.554  31.679  28.620  1.00  0.00     0.010 A 
ATOM     34  C   UNL A   1      35.983  29.341  28.521  1.00  0.00     0.010 A 
ATOM     35  C   UNL A   1      36.874  30.340  28.927  1.00  0.00    -0.014 A 
BRANCH  35  36
ATOM     36  C   UNL A   1      38.124  29.987  29.668  1.00  0.00     0.031 A 
ATOM     37  C   UNL A   1      38.353  30.455  31.088  1.00  0.00     0.074 A 
ATOM     38  C   UNL A   1      39.088  29.275  29.051  1.00  0.00     0.049 A 
ATOM     39  N   UNL A   1      39.365  30.211  31.887  1.00  0.00    -0.248 NA
ATOM     40  C   UNL A   1      37.343  31.350  31.673  1.00  0.00     0.031 C 
ATOM     41  C   UNL A   1      39.070  28.859  27.647  1.00  0.00     0.029 A 
ATOM     42  N   UNL A   1      40.270  28.761  29.531  1.00  0.00    -0.354 N 
ATOM     43  C   UNL A   1      39.121  30.939  33.046  1.00  0.00     0.074 A 
ATOM     44  C   UNL A   1      37.913  31.698  32.816  1.00  0.00     0.031 C 
ATOM     45  C   UNL A   1      40.148  28.098  27.397  1.00  0.00     0.029 A 
ATOM     46  C   UNL A   1      40.949  27.995  28.613  1.00  0.00     0.049 A 
ATOM     47  H   UNL A   1      40.599  28.927  30.443  1.00  0.00     0.167 HD
ATOM     48  C   UNL A   1      39.805  30.947  34.217  1.00  0.00     0.037 A 
ATOM     49  C   UNL A   1      42.078  27.272  28.739  1.00  0.00     0.037 A 
ATOM     50  C   UNL A   1      40.979  30.156  34.473  1.00  0.00     0.049 A 
ATOM     51  C   UNL A   1      42.781  27.227  30.066  1.00  0.00     0.074 A 
ATOM     52  C   UNL A   1      41.697  30.024  35.649  1.00  0.00     0.029 A 
ATOM     53  N   UNL A   1      41.607  29.355  33.531  1.00  0.00    -0.354 N 
ATOM     54  N   UNL A   1      42.475  27.837  31.185  1.00  0.00    -0.248 NA
ATOM     55  C   UNL A   1      43.981  26.382  30.151  1.00  0.00     0.031 C 
ATOM     56  C   UNL A   1      42.774  29.161  35.412  1.00  0.00     0.029 A 
ATOM     57  C   UNL A   1      42.706  28.731  34.096  1.00  0.00     0.049 A 
ATOM     58  H   UNL A   1      41.314  29.247  32.597  1.00  0.00     0.167 HD
ATOM     59  C   UNL A   1      43.434  27.443  32.108  1.00  0.00     0.074 A 
ATOM     60  C   UNL A   1      44.317  26.518  31.425  1.00  0.00     0.031 C 
ATOM     61  C   UNL A   1      43.577  27.818  33.403  1.00  0.00     0.037 A 
BRANCH  48  62
ATOM     62  C   UNL A   1      39.267  31.817  35.319  1.00  0.00     0.057 A 
ATOM     63  C   UNL A   1      39.689  33.145  35.464  1.00  0.00     0.134 A 
ATOM     64  C   UNL A   1      38.320  31.341  36.238  1.00  0.00     0.134 A 
ATOM     65  F   UNL A   1      40.604  33.664  34.631  1.00  0.00    -0.206 F 
ATOM     66  C   UNL A   1      39.175  33.970  36.467  1.00  0.00     0.040 A 
ATOM     67  C   UNL A   1      37.776  32.165  37.225  1.00  0.00     0.040 A 
ATOM     68  F   UNL A   1      37.866  30.080  36.153  1.00  0.00    -0.206 F 
ATOM     69  C   UNL A   1      38.206  33.483  37.342  1.00  0.00     0.006 A 
ENDBRANCH  48  62
BRANCH  49  70
ATOM     70  C   UNL A   1      42.582  26.480  27.589  1.00  0.00     0.057 A 
ATOM     71  C   UNL A   1      43.479  27.023  26.662  1.00  0.00     0.134 A 
ATOM     72  C   UNL A   1      42.166  25.158  27.388  1.00  0.00     0.134 A 
ATOM     73  F   UNL A   1      43.906  28.287  26.793  1.00  0.00    -0.206 F 
ATOM     74  C   UNL A   1      43.942  26.281  25.573  1.00  0.00     0.040 A 
ATOM     75  C   UNL A   1      42.639  24.397  26.318  1.00  0.00     0.040 A 
ATOM     76  F   UNL A   1      41.320  24.578  28.253  1.00  0.00    -0.206 F 
ATOM     77  C   UNL A   1      43.525  24.961  25.403  1.00  0.00     0.006 A 
ENDBRANCH  49  70
BRANCH  61  78
ATOM     78  C   UNL A   1      44.722  27.219  34.162  1.00  0.00     0.057 A 
ATOM     79  C   UNL A   1      45.972  27.849  34.189  1.00  0.00     0.134 A 
ATOM     80  C   UNL A   1      44.592  26.007  34.852  1.00  0.00     0.134 A 
ATOM     81  F   UNL A   1      46.164  29.010  33.543  1.00  0.00    -0.206 F 
ATOM     82  C   UNL A   1      47.053  27.295  34.875  1.00  0.00     0.040 A 
ATOM     83  C   UNL A   1      45.660  25.454  35.561  1.00  0.00     0.040 A 
ATOM     84  F   UNL A   1      43.416  25.362  34.878  1.00  0.00    -0.206 F 
ATOM     85  C   UNL A   1      46.896  26.097  35.570  1.00  0.00     0.006 A 
ENDBRANCH  61  78
ENDBRANCH  35  36
ENDBRANCH  28  30
ENDBRANCH  27  28
ENDBRANCH  26  27
ENDBRANCH   1  26
TORSDOF 15
ENDMDL
