MODEL 1
REMARK VINA RESULT:     -11.3      0.000      0.000
REMARK SMILES CC(C)CSc1cc2c(cc1Cl)C=C(C(=O)OCCOC(=O)c1ccc(-c3c4nc(c(-c5c(F)cccc5F)c5ccc([nH]5)c(-c5c(F)cccc5F)c5nc(c(-c6c(F)cccc6F)c6ccc3[nH]6)C=C5)C=C4)cc1)[C@@H](C(F)(F)F)O2
REMARK SMILES IDX 18 1 17 2 15 3 16 4 14 5 6 6 7 7 11 8 8 9 10 10 12 11 9 12
REMARK SMILES IDX 82 13 13 14 77 15 5 16 4 17 2 18 1 19 3 20 78 21 79 22 80 23
REMARK SMILES IDX 81 24 19 25 20 26 21 27 22 28 23 29 24 30 76 31 25 32 75 33
REMARK SMILES IDX 26 34 27 35 28 36 69 37 29 38 74 39 68 40 70 41 30 42 73 43
REMARK SMILES IDX 67 44 66 45 31 47 57 48 40 49 56 50 41 51 44 52 55 53 71 54
REMARK SMILES IDX 42 55 43 56 54 58 72 59 45 60 32 61 33 62 38 63 34 64 35 65
REMARK SMILES IDX 37 66 39 67 36 68 58 69 59 70 64 71 60 72 61 73 63 74 65 75
REMARK SMILES IDX 62 76 46 77 47 78 52 79 48 80 49 81 51 82 53 83 50 84
REMARK H PARENT 70 46 44 57
REMARK Flexibility Score: inf
ROOT
ATOM      1  C   UNL A   1      36.190  20.040  24.996  1.00  0.00     0.275 C 
ENDROOT
BRANCH   1   2
ATOM      2  O   UNL A   1      35.556  21.333  24.876  1.00  0.00    -0.459 OA
BRANCH   2   3
ATOM      3  C   UNL A   1      34.223  21.296  24.667  1.00  0.00     0.338 C 
ATOM      4  O   UNL A   1      33.563  20.333  24.309  1.00  0.00    -0.246 OA
BRANCH   3   5
ATOM      5  C   UNL A   1      33.612  22.610  24.918  1.00  0.00     0.087 C 
ATOM      6  C   UNL A   1      32.891  27.584  25.154  1.00  0.00     0.030 A 
ATOM      7  C   UNL A   1      32.731  26.504  26.031  1.00  0.00     0.063 A 
ATOM      8  C   UNL A   1      33.463  27.318  23.895  1.00  0.00     0.055 A 
ATOM      9  C   UNL A   1      32.976  25.195  25.636  1.00  0.00     0.129 A 
ATOM     10  C   UNL A   1      33.783  26.008  23.520  1.00  0.00     0.033 A 
ATOM     11  Cl  UNL A   1      33.830  28.563  22.745  1.00  0.00    -0.083 Cl
ATOM     12  C   UNL A   1      33.508  24.945  24.384  1.00  0.00     0.019 A 
ATOM     13  O   UNL A   1      32.659  24.231  26.545  1.00  0.00    -0.475 OA
ATOM     14  C   UNL A   1      33.862  23.587  24.038  1.00  0.00     0.027 C 
ATOM     15  C   UNL A   1      32.870  22.832  26.204  1.00  0.00     0.316 C 
BRANCH   6  16
ATOM     16  S   UNL A   1      32.314  29.232  25.578  1.00  0.00    -0.124 SA
BRANCH  16  17
ATOM     17  C   UNL A   1      33.045  29.606  27.215  1.00  0.00     0.078 C 
BRANCH  17  18
ATOM     18  C   UNL A   1      34.416  30.318  27.222  1.00  0.00    -0.007 C 
ATOM     19  C   UNL A   1      34.505  31.628  28.008  1.00  0.00     0.008 C 
ATOM     20  C   UNL A   1      35.456  29.345  27.793  1.00  0.00     0.008 C 
ENDBRANCH  17  18
ENDBRANCH  16  17
ENDBRANCH   6  16
BRANCH  15  21
ATOM     21  C   UNL A   1      33.520  22.170  27.428  1.00  0.00     0.430 C 
ATOM     22  F   UNL A   1      33.479  20.818  27.321  1.00  0.00    -0.167 F 
ATOM     23  F   UNL A   1      34.824  22.504  27.558  1.00  0.00    -0.167 F 
ATOM     24  F   UNL A   1      32.893  22.505  28.578  1.00  0.00    -0.167 F 
ENDBRANCH  15  21
ENDBRANCH   3   5
ENDBRANCH   2   3
ENDBRANCH   1   2
BRANCH   1  25
ATOM     25  C   UNL A   1      37.705  20.133  24.809  1.00  0.00     0.275 C 
BRANCH  25  26
ATOM     26  O   UNL A   1      38.240  21.279  25.496  1.00  0.00    -0.458 OA
BRANCH  26  27
ATOM     27  C   UNL A   1      39.400  21.061  26.151  1.00  0.00     0.338 C 
ATOM     28  O   UNL A   1      40.049  20.030  26.194  1.00  0.00    -0.246 OA
BRANCH  27  29
ATOM     29  C   UNL A   1      39.880  22.310  26.756  1.00  0.00     0.060 A 
ATOM     30  C   UNL A   1      40.964  22.325  27.624  1.00  0.00     0.016 A 
ATOM     31  C   UNL A   1      39.360  23.505  26.277  1.00  0.00     0.016 A 
ATOM     32  C   UNL A   1      41.507  23.556  28.011  1.00  0.00     0.010 A 
ATOM     33  C   UNL A   1      40.023  24.704  26.504  1.00  0.00     0.010 A 
ATOM     34  C   UNL A   1      41.073  24.763  27.421  1.00  0.00    -0.014 A 
BRANCH  34  35
ATOM     35  C   UNL A   1      41.679  26.078  27.781  1.00  0.00     0.031 A 
ATOM     36  C   UNL A   1      43.057  26.462  27.281  1.00  0.00     0.074 A 
ATOM     37  C   UNL A   1      41.008  26.927  28.586  1.00  0.00     0.049 A 
ATOM     38  N   UNL A   1      43.725  27.576  27.467  1.00  0.00    -0.248 NA
ATOM     39  C   UNL A   1      43.808  25.453  26.516  1.00  0.00     0.031 C 
ATOM     40  C   UNL A   1      39.728  26.647  29.242  1.00  0.00     0.029 A 
ATOM     41  N   UNL A   1      41.298  28.212  28.976  1.00  0.00    -0.354 N 
ATOM     42  C   UNL A   1      44.968  27.379  26.873  1.00  0.00     0.074 A 
ATOM     43  C   UNL A   1      45.000  26.014  26.407  1.00  0.00     0.031 C 
ATOM     44  C   UNL A   1      39.302  27.753  29.872  1.00  0.00     0.029 A 
ATOM     45  C   UNL A   1      40.295  28.806  29.704  1.00  0.00     0.049 A 
ATOM     46  H   UNL A   1      42.145  28.664  28.754  1.00  0.00     0.167 HD
ATOM     47  C   UNL A   1      45.974  28.264  26.675  1.00  0.00     0.037 A 
ATOM     48  C   UNL A   1      40.178  30.067  30.162  1.00  0.00     0.037 A 
ATOM     49  C   UNL A   1      45.920  29.642  27.080  1.00  0.00     0.049 A 
ATOM     50  C   UNL A   1      41.280  31.051  29.881  1.00  0.00     0.074 A 
ATOM     51  C   UNL A   1      46.843  30.647  26.853  1.00  0.00     0.029 A 
ATOM     52  N   UNL A   1      44.873  30.209  27.788  1.00  0.00    -0.354 N 
ATOM     53  N   UNL A   1      42.400  30.876  29.225  1.00  0.00    -0.248 NA
ATOM     54  C   UNL A   1      41.093  32.413  30.401  1.00  0.00     0.031 C 
ATOM     55  C   UNL A   1      46.368  31.818  27.453  1.00  0.00     0.029 A 
ATOM     56  C   UNL A   1      45.132  31.550  28.018  1.00  0.00     0.049 A 
ATOM     57  H   UNL A   1      44.065  29.730  28.084  1.00  0.00     0.167 HD
ATOM     58  C   UNL A   1      43.043  32.106  29.235  1.00  0.00     0.074 A 
ATOM     59  C   UNL A   1      42.174  33.027  29.939  1.00  0.00     0.031 C 
ATOM     60  C   UNL A   1      44.248  32.447  28.716  1.00  0.00     0.037 A 
BRANCH  47  61
ATOM     61  C   UNL A   1      47.199  27.769  25.957  1.00  0.00     0.057 A 
ATOM     62  C   UNL A   1      47.264  27.765  24.558  1.00  0.00     0.134 A 
ATOM     63  C   UNL A   1      48.319  27.286  26.652  1.00  0.00     0.134 A 
ATOM     64  F   UNL A   1      46.227  28.203  23.826  1.00  0.00    -0.206 F 
ATOM     65  C   UNL A   1      48.397  27.313  23.879  1.00  0.00     0.040 A 
ATOM     66  C   UNL A   1      49.470  26.862  25.985  1.00  0.00     0.040 A 
ATOM     67  F   UNL A   1      48.330  27.270  27.994  1.00  0.00    -0.206 F 
ATOM     68  C   UNL A   1      49.509  26.870  24.594  1.00  0.00     0.006 A 
ENDBRANCH  47  61
BRANCH  48  69
ATOM     69  C   UNL A   1      38.949  30.494  30.879  1.00  0.00     0.057 A 
ATOM     70  C   UNL A   1      37.865  31.070  30.206  1.00  0.00     0.134 A 
ATOM     71  C   UNL A   1      38.825  30.313  32.262  1.00  0.00     0.134 A 
ATOM     72  F   UNL A   1      37.924  31.280  28.883  1.00  0.00    -0.206 F 
ATOM     73  C   UNL A   1      36.704  31.450  30.881  1.00  0.00     0.040 A 
ATOM     74  C   UNL A   1      37.659  30.663  32.946  1.00  0.00     0.040 A 
ATOM     75  F   UNL A   1      39.822  29.751  32.961  1.00  0.00    -0.206 F 
ATOM     76  C   UNL A   1      36.595  31.236  32.255  1.00  0.00     0.006 A 
ENDBRANCH  48  69
BRANCH  60  77
ATOM     77  C   UNL A   1      44.676  33.876  28.870  1.00  0.00     0.057 A 
ATOM     78  C   UNL A   1      44.361  34.824  27.888  1.00  0.00     0.134 A 
ATOM     79  C   UNL A   1      45.416  34.309  29.977  1.00  0.00     0.134 A 
ATOM     80  F   UNL A   1      43.663  34.471  26.798  1.00  0.00    -0.206 F 
ATOM     81  C   UNL A   1      44.765  36.154  28.005  1.00  0.00     0.040 A 
ATOM     82  C   UNL A   1      45.801  35.642  30.118  1.00  0.00     0.040 A 
ATOM     83  F   UNL A   1      45.736  33.451  30.958  1.00  0.00    -0.206 F 
ATOM     84  C   UNL A   1      45.481  36.567  29.127  1.00  0.00     0.006 A 
ENDBRANCH  60  77
ENDBRANCH  34  35
ENDBRANCH  27  29
ENDBRANCH  26  27
ENDBRANCH  25  26
ENDBRANCH   1  25
TORSDOF 15
ENDMDL
MODEL 2
REMARK VINA RESULT:     -11.3      1.908      2.737
REMARK SMILES CC(C)CSc1cc2c(cc1Cl)C=C(C(=O)OCCOC(=O)c1ccc(-c3c4nc(c(-c5c(F)cccc5F)c5ccc([nH]5)c(-c5c(F)cccc5F)c5nc(c(-c6c(F)cccc6F)c6ccc3[nH]6)C=C5)C=C4)cc1)[C@@H](C(F)(F)F)O2
REMARK SMILES IDX 18 1 17 2 15 3 16 4 14 5 6 6 7 7 11 8 8 9 10 10 12 11 9 12
REMARK SMILES IDX 82 13 13 14 77 15 5 16 4 17 2 18 1 19 3 20 78 21 79 22 80 23
REMARK SMILES IDX 81 24 19 25 20 26 21 27 22 28 23 29 24 30 76 31 25 32 75 33
REMARK SMILES IDX 26 34 27 35 28 36 69 37 29 38 74 39 68 40 70 41 30 42 73 43
REMARK SMILES IDX 67 44 66 45 31 47 57 48 40 49 56 50 41 51 44 52 55 53 71 54
REMARK SMILES IDX 42 55 43 56 54 58 72 59 45 60 32 61 33 62 38 63 34 64 35 65
REMARK SMILES IDX 37 66 39 67 36 68 58 69 59 70 64 71 60 72 61 73 63 74 65 75
REMARK SMILES IDX 62 76 46 77 47 78 52 79 48 80 49 81 51 82 53 83 50 84
REMARK H PARENT 70 46 44 57
REMARK Flexibility Score: inf
ROOT
ATOM      1  C   UNL A   1      35.127  21.021  25.478  1.00  0.00     0.275 C 
ENDROOT
BRANCH   1   2
ATOM      2  O   UNL A   1      35.017  22.459  25.394  1.00  0.00    -0.459 OA
BRANCH   2   3
ATOM      3  C   UNL A   1      33.997  22.995  26.098  1.00  0.00     0.338 C 
ATOM      4  O   UNL A   1      33.535  22.580  27.150  1.00  0.00    -0.246 OA
BRANCH   3   5
ATOM      5  C   UNL A   1      33.462  24.189  25.429  1.00  0.00     0.087 C 
ATOM      6  C   UNL A   1      31.225  28.624  24.623  1.00  0.00     0.030 A 
ATOM      7  C   UNL A   1      31.169  27.351  24.042  1.00  0.00     0.063 A 
ATOM      8  C   UNL A   1      32.020  28.776  25.775  1.00  0.00     0.055 A 
ATOM      9  C   UNL A   1      31.979  26.309  24.476  1.00  0.00     0.129 A 
ATOM     10  C   UNL A   1      32.782  27.707  26.262  1.00  0.00     0.033 A 
ATOM     11  Cl  UNL A   1      32.103  30.257  26.674  1.00  0.00    -0.083 Cl
ATOM     12  C   UNL A   1      32.781  26.482  25.589  1.00  0.00     0.019 A 
ATOM     13  O   UNL A   1      31.917  25.162  23.741  1.00  0.00    -0.475 OA
ATOM     14  C   UNL A   1      33.528  25.351  26.090  1.00  0.00     0.027 C 
ATOM     15  C   UNL A   1      32.746  24.027  24.119  1.00  0.00     0.316 C 
BRANCH   6  16
ATOM     16  S   UNL A   1      30.384  30.031  23.887  1.00  0.00    -0.124 SA
BRANCH  16  17
ATOM     17  C   UNL A   1      28.974  29.330  22.952  1.00  0.00     0.078 C 
BRANCH  17  18
ATOM     18  C   UNL A   1      27.821  30.295  22.600  1.00  0.00    -0.007 C 
ATOM     19  C   UNL A   1      27.653  31.522  23.500  1.00  0.00     0.008 C 
ATOM     20  C   UNL A   1      28.028  30.783  21.160  1.00  0.00     0.008 C 
ENDBRANCH  17  18
ENDBRANCH  16  17
ENDBRANCH   6  16
BRANCH  15  21
ATOM     21  C   UNL A   1      31.854  22.780  24.039  1.00  0.00     0.430 C 
ATOM     22  F   UNL A   1      30.866  22.955  23.127  1.00  0.00    -0.167 F 
ATOM     23  F   UNL A   1      32.544  21.683  23.651  1.00  0.00    -0.167 F 
ATOM     24  F   UNL A   1      31.269  22.500  25.225  1.00  0.00    -0.167 F 
ENDBRANCH  15  21
ENDBRANCH   3   5
ENDBRANCH   2   3
ENDBRANCH   1   2
BRANCH   1  25
ATOM     25  C   UNL A   1      36.494  20.528  25.001  1.00  0.00     0.275 C 
BRANCH  25  26
ATOM     26  O   UNL A   1      37.483  21.568  25.110  1.00  0.00    -0.458 OA
BRANCH  26  27
ATOM     27  C   UNL A   1      38.613  21.214  25.759  1.00  0.00     0.338 C 
ATOM     28  O   UNL A   1      39.170  20.130  25.748  1.00  0.00    -0.246 OA
BRANCH  27  29
ATOM     29  C   UNL A   1      39.191  22.382  26.438  1.00  0.00     0.060 A 
ATOM     30  C   UNL A   1      40.348  22.277  27.200  1.00  0.00     0.016 A 
ATOM     31  C   UNL A   1      38.676  23.634  26.127  1.00  0.00     0.016 A 
ATOM     32  C   UNL A   1      40.969  23.447  27.654  1.00  0.00     0.010 A 
ATOM     33  C   UNL A   1      39.401  24.784  26.409  1.00  0.00     0.010 A 
ATOM     34  C   UNL A   1      40.530  24.719  27.228  1.00  0.00    -0.014 A 
BRANCH  34  35
ATOM     35  C   UNL A   1      41.215  25.974  27.658  1.00  0.00     0.031 A 
ATOM     36  C   UNL A   1      42.624  26.287  27.199  1.00  0.00     0.074 A 
ATOM     37  C   UNL A   1      40.586  26.828  28.491  1.00  0.00     0.049 A 
ATOM     38  N   UNL A   1      43.361  27.344  27.447  1.00  0.00    -0.248 NA
ATOM     39  C   UNL A   1      43.321  25.264  26.400  1.00  0.00     0.031 C 
ATOM     40  C   UNL A   1      39.278  26.605  29.112  1.00  0.00     0.029 A 
ATOM     41  N   UNL A   1      40.953  28.072  28.944  1.00  0.00    -0.354 N 
ATOM     42  C   UNL A   1      44.599  27.091  26.864  1.00  0.00     0.074 A 
ATOM     43  C   UNL A   1      44.550  25.749  26.335  1.00  0.00     0.031 C 
ATOM     44  C   UNL A   1      38.914  27.707  29.786  1.00  0.00     0.029 A 
ATOM     45  C   UNL A   1      39.978  28.698  29.683  1.00  0.00     0.049 A 
ATOM     46  H   UNL A   1      41.833  28.475  28.757  1.00  0.00     0.167 HD
ATOM     47  C   UNL A   1      45.665  27.915  26.724  1.00  0.00     0.037 A 
ATOM     48  C   UNL A   1      39.935  29.942  30.197  1.00  0.00     0.037 A 
ATOM     49  C   UNL A   1      45.695  29.274  27.191  1.00  0.00     0.049 A 
ATOM     50  C   UNL A   1      41.105  30.862  29.980  1.00  0.00     0.074 A 
ATOM     51  C   UNL A   1      46.687  30.223  27.026  1.00  0.00     0.029 A 
ATOM     52  N   UNL A   1      44.675  29.877  27.908  1.00  0.00    -0.354 N 
ATOM     53  N   UNL A   1      42.224  30.642  29.334  1.00  0.00    -0.248 NA
ATOM     54  C   UNL A   1      40.999  32.209  30.559  1.00  0.00     0.031 C 
ATOM     55  C   UNL A   1      46.279  31.395  27.672  1.00  0.00     0.029 A 
ATOM     56  C   UNL A   1      45.017  31.185  28.204  1.00  0.00     0.049 A 
ATOM     57  H   UNL A   1      43.831  29.440  28.168  1.00  0.00     0.167 HD
ATOM     58  C   UNL A   1      42.947  31.825  29.412  1.00  0.00     0.074 A 
ATOM     59  C   UNL A   1      42.127  32.769  30.143  1.00  0.00     0.031 C 
ATOM     60  C   UNL A   1      44.181  32.107  28.928  1.00  0.00     0.037 A 
BRANCH  47  61
ATOM     61  C   UNL A   1      46.869  27.371  26.003  1.00  0.00     0.057 A 
ATOM     62  C   UNL A   1      47.904  26.738  26.702  1.00  0.00     0.134 A 
ATOM     63  C   UNL A   1      47.008  27.481  24.611  1.00  0.00     0.134 A 
ATOM     64  F   UNL A   1      47.844  26.605  28.036  1.00  0.00    -0.206 F 
ATOM     65  C   UNL A   1      49.024  26.225  26.044  1.00  0.00     0.040 A 
ATOM     66  C   UNL A   1      48.107  26.943  23.939  1.00  0.00     0.040 A 
ATOM     67  F   UNL A   1      46.049  28.067  23.876  1.00  0.00    -0.206 F 
ATOM     68  C   UNL A   1      49.122  26.317  24.656  1.00  0.00     0.006 A 
ENDBRANCH  47  61
BRANCH  48  69
ATOM     69  C   UNL A   1      38.724  30.418  30.913  1.00  0.00     0.057 A 
ATOM     70  C   UNL A   1      37.689  31.084  30.248  1.00  0.00     0.134 A 
ATOM     71  C   UNL A   1      38.568  30.194  32.287  1.00  0.00     0.134 A 
ATOM     72  F   UNL A   1      37.781  31.338  28.935  1.00  0.00    -0.206 F 
ATOM     73  C   UNL A   1      36.542  31.510  30.922  1.00  0.00     0.040 A 
ATOM     74  C   UNL A   1      37.416  30.590  32.968  1.00  0.00     0.040 A 
ATOM     75  F   UNL A   1      39.518  29.546  32.977  1.00  0.00    -0.206 F 
ATOM     76  C   UNL A   1      36.399  31.253  32.285  1.00  0.00     0.006 A 
ENDBRANCH  48  69
BRANCH  60  77
ATOM     77  C   UNL A   1      44.699  33.496  29.155  1.00  0.00     0.057 A 
ATOM     78  C   UNL A   1      45.450  33.800  30.297  1.00  0.00     0.134 A 
ATOM     79  C   UNL A   1      44.439  34.536  28.253  1.00  0.00     0.134 A 
ATOM     80  F   UNL A   1      45.726  32.851  31.204  1.00  0.00    -0.206 F 
ATOM     81  C   UNL A   1      45.925  35.090  30.533  1.00  0.00     0.040 A 
ATOM     82  C   UNL A   1      44.933  35.823  28.465  1.00  0.00     0.040 A 
ATOM     83  F   UNL A   1      43.737  34.304  27.133  1.00  0.00    -0.206 F 
ATOM     84  C   UNL A   1      45.673  36.104  29.611  1.00  0.00     0.006 A 
ENDBRANCH  60  77
ENDBRANCH  34  35
ENDBRANCH  27  29
ENDBRANCH  26  27
ENDBRANCH  25  26
ENDBRANCH   1  25
TORSDOF 15
ENDMDL
MODEL 3
REMARK VINA RESULT:     -11.2      0.904      1.999
REMARK SMILES CC(C)CSc1cc2c(cc1Cl)C=C(C(=O)OCCOC(=O)c1ccc(-c3c4nc(c(-c5c(F)cccc5F)c5ccc([nH]5)c(-c5c(F)cccc5F)c5nc(c(-c6c(F)cccc6F)c6ccc3[nH]6)C=C5)C=C4)cc1)[C@@H](C(F)(F)F)O2
REMARK SMILES IDX 18 1 17 2 15 3 16 4 14 5 6 6 7 7 11 8 8 9 10 10 12 11 9 12
REMARK SMILES IDX 82 13 13 14 77 15 5 16 4 17 2 18 1 19 3 20 78 21 79 22 80 23
REMARK SMILES IDX 81 24 19 25 20 26 21 27 22 28 23 29 24 30 76 31 25 32 75 33
REMARK SMILES IDX 26 34 27 35 28 36 69 37 29 38 74 39 68 40 70 41 30 42 73 43
REMARK SMILES IDX 67 44 66 45 31 47 57 48 40 49 56 50 41 51 44 52 55 53 71 54
REMARK SMILES IDX 42 55 43 56 54 58 72 59 45 60 32 61 33 62 38 63 34 64 35 65
REMARK SMILES IDX 37 66 39 67 36 68 58 69 59 70 64 71 60 72 61 73 63 74 65 75
REMARK SMILES IDX 62 76 46 77 47 78 52 79 48 80 49 81 51 82 53 83 50 84
REMARK H PARENT 70 46 44 57
REMARK Flexibility Score: inf
ROOT
ATOM      1  C   UNL A   1      36.144  19.938  24.989  1.00  0.00     0.275 C 
ENDROOT
BRANCH   1   2
ATOM      2  O   UNL A   1      35.537  21.168  24.538  1.00  0.00    -0.459 OA
BRANCH   2   3
ATOM      3  C   UNL A   1      34.187  21.181  24.565  1.00  0.00     0.338 C 
ATOM      4  O   UNL A   1      33.442  20.221  24.436  1.00  0.00    -0.246 OA
BRANCH   3   5
ATOM      5  C   UNL A   1      33.674  22.544  24.767  1.00  0.00     0.087 C 
ATOM      6  C   UNL A   1      33.235  27.555  24.654  1.00  0.00     0.030 A 
ATOM      7  C   UNL A   1      33.118  26.559  25.631  1.00  0.00     0.063 A 
ATOM      8  C   UNL A   1      33.653  27.158  23.369  1.00  0.00     0.055 A 
ATOM      9  C   UNL A   1      33.252  25.211  25.325  1.00  0.00     0.129 A 
ATOM     10  C   UNL A   1      33.863  25.805  23.075  1.00  0.00     0.033 A 
ATOM     11  Cl  UNL A   1      33.953  28.284  22.085  1.00  0.00    -0.083 Cl
ATOM     12  C   UNL A   1      33.631  24.832  24.050  1.00  0.00     0.019 A 
ATOM     13  O   UNL A   1      32.987  24.342  26.341  1.00  0.00    -0.475 OA
ATOM     14  C   UNL A   1      33.875  23.432  23.785  1.00  0.00     0.027 C 
ATOM     15  C   UNL A   1      33.089  22.910  26.100  1.00  0.00     0.316 C 
BRANCH   6  16
ATOM     16  S   UNL A   1      32.792  29.263  24.995  1.00  0.00    -0.124 SA
BRANCH  16  17
ATOM     17  C   UNL A   1      30.990  29.377  24.694  1.00  0.00     0.078 C 
BRANCH  17  18
ATOM     18  C   UNL A   1      30.507  29.134  23.247  1.00  0.00    -0.007 C 
ATOM     19  C   UNL A   1      29.899  27.762  22.946  1.00  0.00     0.008 C 
ATOM     20  C   UNL A   1      29.462  30.205  22.906  1.00  0.00     0.008 C 
ENDBRANCH  17  18
ENDBRANCH  16  17
ENDBRANCH   6  16
BRANCH  15  21
ATOM     21  C   UNL A   1      33.835  22.309  27.301  1.00  0.00     0.430 C 
ATOM     22  F   UNL A   1      33.334  22.791  28.466  1.00  0.00    -0.167 F 
ATOM     23  F   UNL A   1      33.711  20.964  27.358  1.00  0.00    -0.167 F 
ATOM     24  F   UNL A   1      35.154  22.601  27.274  1.00  0.00    -0.167 F 
ENDBRANCH  15  21
ENDBRANCH   3   5
ENDBRANCH   2   3
ENDBRANCH   1   2
BRANCH   1  25
ATOM     25  C   UNL A   1      37.663  19.956  24.806  1.00  0.00     0.275 C 
BRANCH  25  26
ATOM     26  O   UNL A   1      38.241  21.124  25.418  1.00  0.00    -0.458 OA
BRANCH  26  27
ATOM     27  C   UNL A   1      39.369  20.898  26.125  1.00  0.00     0.338 C 
ATOM     28  O   UNL A   1      40.012  19.865  26.191  1.00  0.00    -0.246 OA
BRANCH  27  29
ATOM     29  C   UNL A   1      39.821  22.142  26.763  1.00  0.00     0.060 A 
ATOM     30  C   UNL A   1      40.889  22.153  27.651  1.00  0.00     0.016 A 
ATOM     31  C   UNL A   1      39.296  23.339  26.295  1.00  0.00     0.016 A 
ATOM     32  C   UNL A   1      41.410  23.383  28.071  1.00  0.00     0.010 A 
ATOM     33  C   UNL A   1      39.939  24.541  26.558  1.00  0.00     0.010 A 
ATOM     34  C   UNL A   1      40.971  24.596  27.496  1.00  0.00    -0.014 A 
BRANCH  34  35
ATOM     35  C   UNL A   1      41.554  25.911  27.891  1.00  0.00     0.031 A 
ATOM     36  C   UNL A   1      42.949  26.308  27.452  1.00  0.00     0.074 A 
ATOM     37  C   UNL A   1      40.846  26.749  28.676  1.00  0.00     0.049 A 
ATOM     38  N   UNL A   1      43.602  27.423  27.674  1.00  0.00    -0.248 NA
ATOM     39  C   UNL A   1      43.737  25.309  26.709  1.00  0.00     0.031 C 
ATOM     40  C   UNL A   1      39.542  26.455  29.276  1.00  0.00     0.029 A 
ATOM     41  N   UNL A   1      41.112  28.032  29.088  1.00  0.00    -0.354 N 
ATOM     42  C   UNL A   1      44.870  27.238  27.130  1.00  0.00     0.074 A 
ATOM     43  C   UNL A   1      44.929  25.878  26.653  1.00  0.00     0.031 C 
ATOM     44  C   UNL A   1      39.084  27.553  29.898  1.00  0.00     0.029 A 
ATOM     45  C   UNL A   1      40.077  28.614  29.779  1.00  0.00     0.049 A 
ATOM     46  H   UNL A   1      41.965  28.490  28.905  1.00  0.00     0.167 HD
ATOM     47  C   UNL A   1      45.877  28.131  26.981  1.00  0.00     0.037 A 
ATOM     48  C   UNL A   1      39.933  29.870  30.243  1.00  0.00     0.037 A 
ATOM     49  C   UNL A   1      45.799  29.505  27.395  1.00  0.00     0.049 A 
ATOM     50  C   UNL A   1      41.040  30.863  30.017  1.00  0.00     0.074 A 
ATOM     51  C   UNL A   1      46.725  30.517  27.215  1.00  0.00     0.029 A 
ATOM     52  N   UNL A   1      44.721  30.060  28.065  1.00  0.00    -0.354 N 
ATOM     53  N   UNL A   1      42.187  30.700  29.405  1.00  0.00    -0.248 NA
ATOM     54  C   UNL A   1      40.824  32.219  30.540  1.00  0.00     0.031 C 
ATOM     55  C   UNL A   1      46.218  31.680  27.805  1.00  0.00     0.029 A 
ATOM     56  C   UNL A   1      44.961  31.400  28.316  1.00  0.00     0.049 A 
ATOM     57  H   UNL A   1      43.904  29.574  28.323  1.00  0.00     0.167 HD
ATOM     58  C   UNL A   1      42.822  31.934  29.452  1.00  0.00     0.074 A 
ATOM     59  C   UNL A   1      41.919  32.843  30.128  1.00  0.00     0.031 C 
ATOM     60  C   UNL A   1      44.045  32.285  28.986  1.00  0.00     0.037 A 
BRANCH  47  61
ATOM     61  C   UNL A   1      47.134  27.649  26.309  1.00  0.00     0.057 A 
ATOM     62  C   UNL A   1      47.259  27.666  24.914  1.00  0.00     0.134 A 
ATOM     63  C   UNL A   1      48.224  27.159  27.044  1.00  0.00     0.134 A 
ATOM     64  F   UNL A   1      46.253  28.112  24.145  1.00  0.00    -0.206 F 
ATOM     65  C   UNL A   1      48.422  27.226  24.277  1.00  0.00     0.040 A 
ATOM     66  C   UNL A   1      49.404  26.748  26.422  1.00  0.00     0.040 A 
ATOM     67  F   UNL A   1      48.178  27.124  28.385  1.00  0.00    -0.206 F 
ATOM     68  C   UNL A   1      49.503  26.776  25.033  1.00  0.00     0.006 A 
ENDBRANCH  47  61
BRANCH  48  69
ATOM     69  C   UNL A   1      38.674  30.283  30.914  1.00  0.00     0.057 A 
ATOM     70  C   UNL A   1      38.513  30.189  32.301  1.00  0.00     0.134 A 
ATOM     71  C   UNL A   1      37.604  30.805  30.175  1.00  0.00     0.134 A 
ATOM     72  F   UNL A   1      39.495  29.689  33.064  1.00  0.00    -0.206 F 
ATOM     73  C   UNL A   1      37.335  30.599  32.929  1.00  0.00     0.040 A 
ATOM     74  C   UNL A   1      36.432  31.243  30.793  1.00  0.00     0.040 A 
ATOM     75  F   UNL A   1      37.703  30.936  28.844  1.00  0.00    -0.206 F 
ATOM     76  C   UNL A   1      36.294  31.138  32.175  1.00  0.00     0.006 A 
ENDBRANCH  48  69
BRANCH  60  77
ATOM     77  C   UNL A   1      44.457  33.715  29.169  1.00  0.00     0.057 A 
ATOM     78  C   UNL A   1      45.153  34.116  30.316  1.00  0.00     0.134 A 
ATOM     79  C   UNL A   1      44.147  34.699  28.221  1.00  0.00     0.134 A 
ATOM     80  F   UNL A   1      45.472  33.225  31.266  1.00  0.00    -0.206 F 
ATOM     81  C   UNL A   1      45.530  35.445  30.512  1.00  0.00     0.040 A 
ATOM     82  C   UNL A   1      44.543  36.025  28.393  1.00  0.00     0.040 A 
ATOM     83  F   UNL A   1      43.494  34.375  27.095  1.00  0.00    -0.206 F 
ATOM     84  C   UNL A   1      45.231  36.402  29.544  1.00  0.00     0.006 A 
ENDBRANCH  60  77
ENDBRANCH  34  35
ENDBRANCH  27  29
ENDBRANCH  26  27
ENDBRANCH  25  26
ENDBRANCH   1  25
TORSDOF 15
ENDMDL
