MODEL 1
REMARK VINA RESULT:     -10.4      0.000      0.000
REMARK SMILES O=C(C[NH+]1CC2(CCCC2)C1)OCCOC(=O)c1ccc(-c2c3nc(c(-c4c(F)cccc4F)c4ccc([nH]4)c(-c4c(F)cccc4F)c4nc(c(-c5c(F)cccc5F)c5ccc2[nH]5)C=C4)C=C3)cc1
REMARK SMILES IDX 14 1 13 2 12 3 2 4 1 5 3 6 4 7 5 8 11 9 6 11 7 12 10 13 8 14
REMARK SMILES IDX 9 15 15 16 16 17 17 18 18 19 19 20 71 21 20 22 70 23 21 24
REMARK SMILES IDX 22 25 23 26 64 27 24 28 69 29 63 30 65 31 25 32 68 33 62 34
REMARK SMILES IDX 61 35 26 37 52 38 35 39 51 40 36 41 39 42 50 43 66 44 37 45
REMARK SMILES IDX 38 46 49 48 67 49 40 50 27 51 28 52 33 53 29 54 30 55 32 56
REMARK SMILES IDX 34 57 31 58 53 59 54 60 59 61 55 62 56 63 58 64 60 65 57 66
REMARK SMILES IDX 41 67 42 68 47 69 43 70 44 71 46 72 48 73 45 74
REMARK H PARENT 4 10 65 36 39 47
REMARK Flexibility Score: inf
ROOT
ATOM      1  C   UNL A   1      40.577  19.921  26.146  1.00  0.00     0.275 C 
ENDROOT
BRANCH   1   2
ATOM      2  C   UNL A   1      41.945  19.248  26.302  1.00  0.00     0.274 C 
BRANCH   2   3
ATOM      3  O   UNL A   1      42.699  19.296  25.074  1.00  0.00    -0.458 OA
BRANCH   3   4
ATOM      4  C   UNL A   1      44.051  19.271  24.991  1.00  0.00     0.361 C 
ATOM      5  O   UNL A   1      44.644  18.192  24.984  1.00  0.00    -0.245 OA
BRANCH   4   6
ATOM      6  C   UNL A   1      44.808  20.594  24.990  1.00  0.00     0.386 C 
BRANCH   6   7
ATOM      7  N   UNL A   1      43.934  21.716  24.599  1.00  0.00    -0.324 N 
ATOM      8  C   UNL A   1      44.684  22.706  23.792  1.00  0.00     0.275 C 
ATOM      9  C   UNL A   1      43.825  22.702  25.698  1.00  0.00     0.275 C 
ATOM     10  H   UNL A   1      43.104  21.254  24.225  1.00  0.00     0.348 HD
ATOM     11  C   UNL A   1      44.972  23.537  25.072  1.00  0.00     0.068 C 
ATOM     12  C   UNL A   1      44.735  25.050  24.959  1.00  0.00     0.019 C 
ATOM     13  C   UNL A   1      46.356  23.352  25.717  1.00  0.00     0.019 C 
ATOM     14  C   UNL A   1      46.116  25.661  25.182  1.00  0.00     0.001 C 
ATOM     15  C   UNL A   1      46.708  24.740  26.224  1.00  0.00     0.001 C 
ENDBRANCH   6   7
ENDBRANCH   4   6
ENDBRANCH   3   4
ENDBRANCH   2   3
ENDBRANCH   1   2
BRANCH   1  16
ATOM     16  O   UNL A   1      40.453  21.099  26.973  1.00  0.00    -0.458 OA
BRANCH  16  17
ATOM     17  C   UNL A   1      39.665  22.092  26.489  1.00  0.00     0.338 C 
ATOM     18  O   UNL A   1      38.718  21.954  25.734  1.00  0.00    -0.246 OA
BRANCH  17  19
ATOM     19  C   UNL A   1      40.024  23.394  27.108  1.00  0.00     0.060 A 
ATOM     20  C   UNL A   1      39.381  24.547  26.637  1.00  0.00     0.016 A 
ATOM     21  C   UNL A   1      40.984  23.507  28.121  1.00  0.00     0.016 A 
ATOM     22  C   UNL A   1      39.702  25.802  27.164  1.00  0.00     0.010 A 
ATOM     23  C   UNL A   1      41.316  24.769  28.639  1.00  0.00     0.010 A 
ATOM     24  C   UNL A   1      40.688  25.927  28.154  1.00  0.00    -0.014 A 
BRANCH  24  25
ATOM     25  C   UNL A   1      41.110  27.281  28.603  1.00  0.00     0.031 A 
ATOM     26  C   UNL A   1      42.522  27.725  28.385  1.00  0.00     0.074 A 
ATOM     27  C   UNL A   1      40.239  28.127  29.181  1.00  0.00     0.049 A 
ATOM     28  N   UNL A   1      43.070  28.884  28.645  1.00  0.00    -0.248 NA
ATOM     29  C   UNL A   1      43.447  26.722  27.840  1.00  0.00     0.031 C 
ATOM     30  C   UNL A   1      38.868  27.789  29.520  1.00  0.00     0.029 A 
ATOM     31  N   UNL A   1      40.361  29.443  29.557  1.00  0.00    -0.354 N 
ATOM     32  C   UNL A   1      44.414  28.740  28.338  1.00  0.00     0.074 A 
ATOM     33  C   UNL A   1      44.593  27.385  27.855  1.00  0.00     0.031 C 
ATOM     34  C   UNL A   1      38.238  28.892  29.958  1.00  0.00     0.029 A 
ATOM     35  C   UNL A   1      39.178  30.006  29.977  1.00  0.00     0.049 A 
ATOM     36  H   UNL A   1      41.214  29.935  29.531  1.00  0.00     0.167 HD
ATOM     37  C   UNL A   1      45.411  29.646  28.475  1.00  0.00     0.037 A 
ATOM     38  C   UNL A   1      38.882  31.275  30.324  1.00  0.00     0.037 A 
ATOM     39  C   UNL A   1      45.236  30.985  28.971  1.00  0.00     0.049 A 
ATOM     40  C   UNL A   1      39.990  32.289  30.381  1.00  0.00     0.074 A 
ATOM     41  C   UNL A   1      46.194  31.968  29.154  1.00  0.00     0.029 A 
ATOM     42  N   UNL A   1      44.025  31.531  29.368  1.00  0.00    -0.354 N 
ATOM     43  N   UNL A   1      41.255  32.147  30.068  1.00  0.00    -0.248 NA
ATOM     44  C   UNL A   1      39.643  33.628  30.883  1.00  0.00     0.031 C 
ATOM     45  C   UNL A   1      45.569  33.096  29.696  1.00  0.00     0.029 A 
ATOM     46  C   UNL A   1      44.214  32.832  29.808  1.00  0.00     0.049 A 
ATOM     47  H   UNL A   1      43.159  31.064  29.342  1.00  0.00     0.167 HD
ATOM     48  C   UNL A   1      41.857  33.364  30.357  1.00  0.00     0.074 A 
ATOM     49  C   UNL A   1      40.810  34.252  30.818  1.00  0.00     0.031 C 
ATOM     50  C   UNL A   1      43.165  33.703  30.276  1.00  0.00     0.037 A 
BRANCH  37  51
ATOM     51  C   UNL A   1      46.793  29.180  28.139  1.00  0.00     0.057 A 
ATOM     52  C   UNL A   1      47.666  28.682  29.113  1.00  0.00     0.134 A 
ATOM     53  C   UNL A   1      47.260  29.243  26.820  1.00  0.00     0.134 A 
ATOM     54  F   UNL A   1      47.286  28.621  30.399  1.00  0.00    -0.206 F 
ATOM     55  C   UNL A   1      48.965  28.286  28.792  1.00  0.00     0.040 A 
ATOM     56  C   UNL A   1      48.547  28.827  26.482  1.00  0.00     0.040 A 
ATOM     57  F   UNL A   1      46.472  29.714  25.840  1.00  0.00    -0.206 F 
ATOM     58  C   UNL A   1      49.406  28.355  27.472  1.00  0.00     0.006 A 
ENDBRANCH  37  51
BRANCH  38  59
ATOM     59  C   UNL A   1      37.484  31.676  30.642  1.00  0.00     0.057 A 
ATOM     60  C   UNL A   1      37.012  31.637  31.962  1.00  0.00     0.134 A 
ATOM     61  C   UNL A   1      36.578  32.070  29.651  1.00  0.00     0.134 A 
ATOM     62  F   UNL A   1      37.820  31.240  32.956  1.00  0.00    -0.206 F 
ATOM     63  C   UNL A   1      35.691  31.957  32.280  1.00  0.00     0.040 A 
ATOM     64  C   UNL A   1      35.262  32.422  29.959  1.00  0.00     0.040 A 
ATOM     65  F   UNL A   1      36.961  32.128  28.367  1.00  0.00    -0.206 F 
ATOM     66  C   UNL A   1      34.813  32.357  31.276  1.00  0.00     0.006 A 
ENDBRANCH  38  59
BRANCH  50  67
ATOM     67  C   UNL A   1      43.539  35.089  30.711  1.00  0.00     0.057 A 
ATOM     68  C   UNL A   1      43.924  35.364  32.030  1.00  0.00     0.134 A 
ATOM     69  C   UNL A   1      43.551  36.150  29.797  1.00  0.00     0.134 A 
ATOM     70  F   UNL A   1      43.920  34.393  32.957  1.00  0.00    -0.206 F 
ATOM     71  C   UNL A   1      44.289  36.650  32.430  1.00  0.00     0.040 A 
ATOM     72  C   UNL A   1      43.936  37.436  30.180  1.00  0.00     0.040 A 
ATOM     73  F   UNL A   1      43.199  35.951  28.519  1.00  0.00    -0.206 F 
ATOM     74  C   UNL A   1      44.302  37.689  31.500  1.00  0.00     0.006 A 
ENDBRANCH  50  67
ENDBRANCH  24  25
ENDBRANCH  17  19
ENDBRANCH  16  17
ENDBRANCH   1  16
TORSDOF 12
ENDMDL
MODEL 2
REMARK VINA RESULT:     -10.3      4.937     11.196
REMARK SMILES O=C(C[NH+]1CC2(CCCC2)C1)OCCOC(=O)c1ccc(-c2c3nc(c(-c4c(F)cccc4F)c4ccc([nH]4)c(-c4c(F)cccc4F)c4nc(c(-c5c(F)cccc5F)c5ccc2[nH]5)C=C4)C=C3)cc1
REMARK SMILES IDX 14 1 13 2 12 3 2 4 1 5 3 6 4 7 5 8 11 9 6 11 7 12 10 13 8 14
REMARK SMILES IDX 9 15 15 16 16 17 17 18 18 19 19 20 71 21 20 22 70 23 21 24
REMARK SMILES IDX 22 25 23 26 64 27 24 28 69 29 63 30 65 31 25 32 68 33 62 34
REMARK SMILES IDX 61 35 26 37 52 38 35 39 51 40 36 41 39 42 50 43 66 44 37 45
REMARK SMILES IDX 38 46 49 48 67 49 40 50 27 51 28 52 33 53 29 54 30 55 32 56
REMARK SMILES IDX 34 57 31 58 53 59 54 60 59 61 55 62 56 63 58 64 60 65 57 66
REMARK SMILES IDX 41 67 42 68 47 69 43 70 44 71 46 72 48 73 45 74
REMARK H PARENT 4 10 65 36 39 47
REMARK Flexibility Score: inf
ROOT
ATOM      1  C   UNL A   1      33.147  33.558  27.950  1.00  0.00     0.275 C 
ENDROOT
BRANCH   1   2
ATOM      2  C   UNL A   1      33.319  34.913  28.645  1.00  0.00     0.274 C 
BRANCH   2   3
ATOM      3  O   UNL A   1      32.535  34.990  29.852  1.00  0.00    -0.458 OA
BRANCH   3   4
ATOM      4  C   UNL A   1      32.834  35.761  30.925  1.00  0.00     0.361 C 
ATOM      5  O   UNL A   1      32.239  36.825  31.098  1.00  0.00    -0.245 OA
BRANCH   4   6
ATOM      6  C   UNL A   1      33.964  35.322  31.848  1.00  0.00     0.386 C 
BRANCH   6   7
ATOM      7  N   UNL A   1      34.026  33.853  31.966  1.00  0.00    -0.324 N 
ATOM      8  C   UNL A   1      34.259  33.451  33.372  1.00  0.00     0.275 C 
ATOM      9  C   UNL A   1      35.373  33.355  31.606  1.00  0.00     0.275 C 
ATOM     10  H   UNL A   1      33.197  33.538  31.459  1.00  0.00     0.348 HD
ATOM     11  C   UNL A   1      35.786  33.370  33.101  1.00  0.00     0.068 C 
ATOM     12  C   UNL A   1      36.498  32.117  33.628  1.00  0.00     0.019 C 
ATOM     13  C   UNL A   1      36.629  34.578  33.543  1.00  0.00     0.019 C 
ATOM     14  C   UNL A   1      37.488  32.654  34.656  1.00  0.00     0.001 C 
ATOM     15  C   UNL A   1      37.929  33.955  34.025  1.00  0.00     0.001 C 
ENDBRANCH   6   7
ENDBRANCH   4   6
ENDBRANCH   3   4
ENDBRANCH   2   3
ENDBRANCH   1   2
BRANCH   1  16
ATOM     16  O   UNL A   1      34.415  32.942  27.634  1.00  0.00    -0.458 OA
BRANCH  16  17
ATOM     17  C   UNL A   1      34.437  31.586  27.623  1.00  0.00     0.338 C 
ATOM     18  O   UNL A   1      33.542  30.856  27.231  1.00  0.00    -0.246 OA
BRANCH  17  19
ATOM     19  C   UNL A   1      35.772  31.080  28.036  1.00  0.00     0.060 A 
ATOM     20  C   UNL A   1      35.960  29.693  28.099  1.00  0.00     0.016 A 
ATOM     21  C   UNL A   1      36.828  31.934  28.377  1.00  0.00     0.016 A 
ATOM     22  C   UNL A   1      37.187  29.163  28.511  1.00  0.00     0.010 A 
ATOM     23  C   UNL A   1      38.054  31.401  28.804  1.00  0.00     0.010 A 
ATOM     24  C   UNL A   1      38.238  30.013  28.888  1.00  0.00    -0.014 A 
BRANCH  24  25
ATOM     25  C   UNL A   1      39.485  29.430  29.451  1.00  0.00     0.031 A 
ATOM     26  C   UNL A   1      39.950  29.850  30.811  1.00  0.00     0.074 A 
ATOM     27  C   UNL A   1      40.196  28.513  28.771  1.00  0.00     0.049 A 
ATOM     28  N   UNL A   1      40.971  29.416  31.501  1.00  0.00    -0.248 NA
ATOM     29  C   UNL A   1      39.187  30.925  31.458  1.00  0.00     0.031 C 
ATOM     30  C   UNL A   1      39.898  28.083  27.417  1.00  0.00     0.029 A 
ATOM     31  N   UNL A   1      41.287  27.758  29.129  1.00  0.00    -0.354 N 
ATOM     32  C   UNL A   1      41.004  30.194  32.649  1.00  0.00     0.074 A 
ATOM     33  C   UNL A   1      39.888  31.114  32.566  1.00  0.00     0.031 C 
ATOM     34  C   UNL A   1      40.714  27.068  27.087  1.00  0.00     0.029 A 
ATOM     35  C   UNL A   1      41.628  26.808  28.193  1.00  0.00     0.049 A 
ATOM     36  H   UNL A   1      41.779  27.886  29.972  1.00  0.00     0.167 HD
ATOM     37  C   UNL A   1      41.902  30.162  33.663  1.00  0.00     0.037 A 
ATOM     38  C   UNL A   1      42.559  25.834  28.227  1.00  0.00     0.037 A 
ATOM     39  C   UNL A   1      43.020  29.260  33.736  1.00  0.00     0.049 A 
ATOM     40  C   UNL A   1      43.488  25.760  29.407  1.00  0.00     0.074 A 
ATOM     41  C   UNL A   1      43.988  29.166  34.722  1.00  0.00     0.029 A 
ATOM     42  N   UNL A   1      43.327  28.299  32.785  1.00  0.00    -0.354 N 
ATOM     43  N   UNL A   1      43.497  26.488  30.497  1.00  0.00    -0.248 NA
ATOM     44  C   UNL A   1      44.566  24.760  29.344  1.00  0.00     0.031 C 
ATOM     45  C   UNL A   1      44.900  28.172  34.350  1.00  0.00     0.029 A 
ATOM     46  C   UNL A   1      44.476  27.616  33.154  1.00  0.00     0.049 A 
ATOM     47  H   UNL A   1      42.806  28.127  31.968  1.00  0.00     0.167 HD
ATOM     48  C   UNL A   1      44.589  26.053  31.235  1.00  0.00     0.074 A 
ATOM     49  C   UNL A   1      45.188  24.960  30.497  1.00  0.00     0.031 C 
ATOM     50  C   UNL A   1      45.069  26.538  32.405  1.00  0.00     0.037 A 
BRANCH  37  51
ATOM     51  C   UNL A   1      41.734  31.186  34.741  1.00  0.00     0.057 A 
ATOM     52  C   UNL A   1      40.828  31.014  35.794  1.00  0.00     0.134 A 
ATOM     53  C   UNL A   1      42.484  32.368  34.717  1.00  0.00     0.134 A 
ATOM     54  F   UNL A   1      40.063  29.913  35.859  1.00  0.00    -0.206 F 
ATOM     55  C   UNL A   1      40.656  31.993  36.773  1.00  0.00     0.040 A 
ATOM     56  C   UNL A   1      42.339  33.344  35.702  1.00  0.00     0.040 A 
ATOM     57  F   UNL A   1      43.368  32.594  33.731  1.00  0.00    -0.206 F 
ATOM     58  C   UNL A   1      41.416  33.161  36.730  1.00  0.00     0.006 A 
ENDBRANCH  37  51
BRANCH  38  59
ATOM     59  C   UNL A   1      42.671  24.842  27.123  1.00  0.00     0.057 A 
ATOM     60  C   UNL A   1      41.963  23.633  27.174  1.00  0.00     0.134 A 
ATOM     61  C   UNL A   1      43.503  25.049  26.017  1.00  0.00     0.134 A 
ATOM     62  F   UNL A   1      41.170  23.358  28.221  1.00  0.00    -0.206 F 
ATOM     63  C   UNL A   1      42.091  22.663  26.178  1.00  0.00     0.040 A 
ATOM     64  C   UNL A   1      43.618  24.101  24.998  1.00  0.00     0.040 A 
ATOM     65  F   UNL A   1      44.211  26.182  25.905  1.00  0.00    -0.206 F 
ATOM     66  C   UNL A   1      42.917  22.900  25.082  1.00  0.00     0.006 A 
ENDBRANCH  38  59
BRANCH  50  67
ATOM     67  C   UNL A   1      46.313  25.900  32.950  1.00  0.00     0.057 A 
ATOM     68  C   UNL A   1      46.253  24.831  33.854  1.00  0.00     0.134 A 
ATOM     69  C   UNL A   1      47.580  26.332  32.539  1.00  0.00     0.134 A 
ATOM     70  F   UNL A   1      45.069  24.380  34.296  1.00  0.00    -0.206 F 
ATOM     71  C   UNL A   1      47.411  24.227  34.346  1.00  0.00     0.040 A 
ATOM     72  C   UNL A   1      48.745  25.721  33.007  1.00  0.00     0.040 A 
ATOM     73  F   UNL A   1      47.705  27.347  31.672  1.00  0.00    -0.206 F 
ATOM     74  C   UNL A   1      48.661  24.668  33.916  1.00  0.00     0.006 A 
ENDBRANCH  50  67
ENDBRANCH  24  25
ENDBRANCH  17  19
ENDBRANCH  16  17
ENDBRANCH   1  16
TORSDOF 12
ENDMDL
MODEL 3
REMARK VINA RESULT:     -10.3      0.249      1.716
REMARK SMILES O=C(C[NH+]1CC2(CCCC2)C1)OCCOC(=O)c1ccc(-c2c3nc(c(-c4c(F)cccc4F)c4ccc([nH]4)c(-c4c(F)cccc4F)c4nc(c(-c5c(F)cccc5F)c5ccc2[nH]5)C=C4)C=C3)cc1
REMARK SMILES IDX 14 1 13 2 12 3 2 4 1 5 3 6 4 7 5 8 11 9 6 11 7 12 10 13 8 14
REMARK SMILES IDX 9 15 15 16 16 17 17 18 18 19 19 20 71 21 20 22 70 23 21 24
REMARK SMILES IDX 22 25 23 26 64 27 24 28 69 29 63 30 65 31 25 32 68 33 62 34
REMARK SMILES IDX 61 35 26 37 52 38 35 39 51 40 36 41 39 42 50 43 66 44 37 45
REMARK SMILES IDX 38 46 49 48 67 49 40 50 27 51 28 52 33 53 29 54 30 55 32 56
REMARK SMILES IDX 34 57 31 58 53 59 54 60 59 61 55 62 56 63 58 64 60 65 57 66
REMARK SMILES IDX 41 67 42 68 47 69 43 70 44 71 46 72 48 73 45 74
REMARK H PARENT 4 10 65 36 39 47
REMARK Flexibility Score: inf
ROOT
ATOM      1  C   UNL A   1      40.864  20.024  26.695  1.00  0.00     0.275 C 
ENDROOT
BRANCH   1   2
ATOM      2  C   UNL A   1      42.199  19.275  26.613  1.00  0.00     0.274 C 
BRANCH   2   3
ATOM      3  O   UNL A   1      42.736  19.300  25.276  1.00  0.00    -0.458 OA
BRANCH   3   4
ATOM      4  C   UNL A   1      44.055  19.261  24.968  1.00  0.00     0.361 C 
ATOM      5  O   UNL A   1      44.649  18.182  24.959  1.00  0.00    -0.245 OA
BRANCH   4   6
ATOM      6  C   UNL A   1      44.787  20.574  24.718  1.00  0.00     0.386 C 
BRANCH   6   7
ATOM      7  N   UNL A   1      43.848  21.710  24.646  1.00  0.00    -0.324 N 
ATOM      8  C   UNL A   1      44.391  22.781  23.778  1.00  0.00     0.275 C 
ATOM      9  C   UNL A   1      44.004  22.593  25.824  1.00  0.00     0.275 C 
ATOM     10  H   UNL A   1      42.953  21.267  24.437  1.00  0.00     0.348 HD
ATOM     11  C   UNL A   1      44.974  23.501  25.024  1.00  0.00     0.068 C 
ATOM     12  C   UNL A   1      44.723  25.013  25.106  1.00  0.00     0.019 C 
ATOM     13  C   UNL A   1      46.470  23.284  25.308  1.00  0.00     0.019 C 
ATOM     14  C   UNL A   1      46.118  25.627  25.053  1.00  0.00     0.001 C 
ATOM     15  C   UNL A   1      46.937  24.629  25.840  1.00  0.00     0.001 C 
ENDBRANCH   6   7
ENDBRANCH   4   6
ENDBRANCH   3   4
ENDBRANCH   2   3
ENDBRANCH   1   2
BRANCH   1  16
ATOM     16  O   UNL A   1      40.957  21.362  26.158  1.00  0.00    -0.458 OA
BRANCH  16  17
ATOM     17  C   UNL A   1      39.850  22.136  26.283  1.00  0.00     0.338 C 
ATOM     18  O   UNL A   1      38.709  21.811  26.001  1.00  0.00    -0.246 OA
BRANCH  17  19
ATOM     19  C   UNL A   1      40.184  23.424  26.945  1.00  0.00     0.060 A 
ATOM     20  C   UNL A   1      39.570  24.590  26.466  1.00  0.00     0.016 A 
ATOM     21  C   UNL A   1      41.093  23.511  28.006  1.00  0.00     0.016 A 
ATOM     22  C   UNL A   1      39.871  25.832  27.035  1.00  0.00     0.010 A 
ATOM     23  C   UNL A   1      41.405  24.760  28.565  1.00  0.00     0.010 A 
ATOM     24  C   UNL A   1      40.808  25.931  28.074  1.00  0.00    -0.014 A 
BRANCH  24  25
ATOM     25  C   UNL A   1      41.214  27.273  28.570  1.00  0.00     0.031 A 
ATOM     26  C   UNL A   1      42.625  27.736  28.383  1.00  0.00     0.074 A 
ATOM     27  C   UNL A   1      40.330  28.093  29.165  1.00  0.00     0.049 A 
ATOM     28  N   UNL A   1      43.160  28.889  28.686  1.00  0.00    -0.248 NA
ATOM     29  C   UNL A   1      43.563  26.757  27.817  1.00  0.00     0.031 C 
ATOM     30  C   UNL A   1      38.958  27.735  29.477  1.00  0.00     0.029 A 
ATOM     31  N   UNL A   1      40.437  29.398  29.585  1.00  0.00    -0.354 N 
ATOM     32  C   UNL A   1      44.509  28.766  28.390  1.00  0.00     0.074 A 
ATOM     33  C   UNL A   1      44.704  27.428  27.867  1.00  0.00     0.031 C 
ATOM     34  C   UNL A   1      38.314  28.818  29.943  1.00  0.00     0.029 A 
ATOM     35  C   UNL A   1      39.244  29.938  30.008  1.00  0.00     0.049 A 
ATOM     36  H   UNL A   1      41.286  29.897  29.584  1.00  0.00     0.167 HD
ATOM     37  C   UNL A   1      45.497  29.674  28.567  1.00  0.00     0.037 A 
ATOM     38  C   UNL A   1      38.934  31.193  30.392  1.00  0.00     0.037 A 
ATOM     39  C   UNL A   1      45.306  30.996  29.104  1.00  0.00     0.049 A 
ATOM     40  C   UNL A   1      40.034  32.213  30.494  1.00  0.00     0.074 A 
ATOM     41  C   UNL A   1      46.253  31.980  29.329  1.00  0.00     0.029 A 
ATOM     42  N   UNL A   1      44.086  31.519  29.504  1.00  0.00    -0.354 N 
ATOM     43  N   UNL A   1      41.303  32.091  30.192  1.00  0.00    -0.248 NA
ATOM     44  C   UNL A   1      39.670  33.533  31.035  1.00  0.00     0.031 C 
ATOM     45  C   UNL A   1      45.613  33.085  29.899  1.00  0.00     0.029 A 
ATOM     46  C   UNL A   1      44.259  32.807  29.987  1.00  0.00     0.049 A 
ATOM     47  H   UNL A   1      43.224  31.047  29.453  1.00  0.00     0.167 HD
ATOM     48  C   UNL A   1      41.892  33.303  30.526  1.00  0.00     0.074 A 
ATOM     49  C   UNL A   1      40.832  34.168  31.003  1.00  0.00     0.031 C 
ATOM     50  C   UNL A   1      43.198  33.655  30.470  1.00  0.00     0.037 A 
BRANCH  37  51
ATOM     51  C   UNL A   1      46.886  29.230  28.232  1.00  0.00     0.057 A 
ATOM     52  C   UNL A   1      47.404  29.327  26.935  1.00  0.00     0.134 A 
ATOM     53  C   UNL A   1      47.713  28.687  29.223  1.00  0.00     0.134 A 
ATOM     54  F   UNL A   1      46.651  29.815  25.938  1.00  0.00    -0.206 F 
ATOM     55  C   UNL A   1      48.689  28.875  26.630  1.00  0.00     0.040 A 
ATOM     56  C   UNL A   1      49.007  28.255  28.936  1.00  0.00     0.040 A 
ATOM     57  F   UNL A   1      47.274  28.565  30.486  1.00  0.00    -0.206 F 
ATOM     58  C   UNL A   1      49.495  28.341  27.633  1.00  0.00     0.006 A 
ENDBRANCH  37  51
BRANCH  38  59
ATOM     59  C   UNL A   1      37.530  31.572  30.707  1.00  0.00     0.057 A 
ATOM     60  C   UNL A   1      36.670  32.034  29.700  1.00  0.00     0.134 A 
ATOM     61  C   UNL A   1      37.018  31.522  32.009  1.00  0.00     0.134 A 
ATOM     62  F   UNL A   1      37.106  32.134  28.435  1.00  0.00    -0.206 F 
ATOM     63  C   UNL A   1      35.366  32.446  29.977  1.00  0.00     0.040 A 
ATOM     64  C   UNL A   1      35.705  31.902  32.296  1.00  0.00     0.040 A 
ATOM     65  F   UNL A   1      37.786  31.093  33.021  1.00  0.00    -0.206 F 
ATOM     66  C   UNL A   1      34.878  32.374  31.280  1.00  0.00     0.006 A 
ENDBRANCH  38  59
BRANCH  50  67
ATOM     67  C   UNL A   1      43.556  35.029  30.954  1.00  0.00     0.057 A 
ATOM     68  C   UNL A   1      43.594  36.125  30.083  1.00  0.00     0.134 A 
ATOM     69  C   UNL A   1      43.830  35.265  32.307  1.00  0.00     0.134 A 
ATOM     70  F   UNL A   1      43.355  35.963  28.773  1.00  0.00    -0.206 F 
ATOM     71  C   UNL A   1      43.909  37.407  30.537  1.00  0.00     0.040 A 
ATOM     72  C   UNL A   1      44.125  36.546  32.777  1.00  0.00     0.040 A 
ATOM     73  F   UNL A   1      43.805  34.258  33.192  1.00  0.00    -0.206 F 
ATOM     74  C   UNL A   1      44.169  37.620  31.891  1.00  0.00     0.006 A 
ENDBRANCH  50  67
ENDBRANCH  24  25
ENDBRANCH  17  19
ENDBRANCH  16  17
ENDBRANCH   1  16
TORSDOF 12
ENDMDL
