MODEL 1
REMARK VINA RESULT:     -11.4      0.000      0.000
REMARK SMILES CCOC(=O)C1=NN(c2ccc(OC(F)(F)F)cc2)[C@@](C)(C(=O)OCCOC(=O)c2ccc(-c3c4nc(c(-c5c(F)cccc5F)c5ccc([nH]5)c(-c5c(F)cccc5F)c5nc(c(-c6c(F)cccc6F)c6ccc3[nH]6)C=C5)C=C4)cc2)C1
REMARK SMILES IDX 25 1 24 2 22 3 23 4 20 5 6 6 7 7 84 8 8 9 21 10 4 11 5 12
REMARK SMILES IDX 3 13 2 14 1 15 9 16 10 17 19 18 11 19 18 20 12 21 13 22
REMARK SMILES IDX 14 23 15 24 16 25 17 26 26 27 27 28 28 29 29 30 30 31 31 32
REMARK SMILES IDX 83 33 32 34 82 35 33 36 34 37 35 38 76 39 36 40 81 41 75 42
REMARK SMILES IDX 77 43 37 44 80 45 74 46 73 47 38 49 64 50 47 51 63 52 48 53
REMARK SMILES IDX 51 54 62 55 78 56 49 57 50 58 61 60 79 61 52 62 39 63 40 64
REMARK SMILES IDX 45 65 41 66 42 67 44 68 46 69 43 70 65 71 66 72 71 73 67 74
REMARK SMILES IDX 68 75 70 76 72 77 69 78 53 79 54 80 59 81 55 82 56 83 58 84
REMARK SMILES IDX 60 85 57 86
REMARK H PARENT 77 48 51 59
REMARK Flexibility Score: inf
ROOT
ATOM      1  C   UNL A   1      31.881  28.101  27.033  1.00  0.00     0.274 C 
ENDROOT
BRANCH   1   2
ATOM      2  O   UNL A   1      33.059  27.508  26.443  1.00  0.00    -0.460 OA
BRANCH   2   3
ATOM      3  C   UNL A   1      32.876  26.403  25.670  1.00  0.00     0.334 C 
ATOM      4  O   UNL A   1      32.596  25.292  26.118  1.00  0.00    -0.249 OA
BRANCH   3   5
ATOM      5  C   UNL A   1      33.105  26.640  24.161  1.00  0.00     0.163 C 
ATOM      6  C   UNL A   1      32.713  24.698  22.971  1.00  0.00     0.149 C 
ATOM      7  N   UNL A   1      31.603  25.358  22.858  1.00  0.00    -0.169 NA
ATOM      8  C   UNL A   1      33.868  25.445  23.554  1.00  0.00     0.108 C 
ATOM      9  N   UNL A   1      31.853  26.599  23.377  1.00  0.00    -0.248 N 
ATOM     10  C   UNL A   1      33.934  27.914  24.049  1.00  0.00     0.050 C 
BRANCH   6  11
ATOM     11  C   UNL A   1      32.869  23.285  22.468  1.00  0.00     0.354 C 
ATOM     12  O   UNL A   1      33.584  23.004  21.530  1.00  0.00    -0.245 OA
BRANCH  11  13
ATOM     13  O   UNL A   1      32.129  22.463  23.240  1.00  0.00    -0.461 OA
BRANCH  13  14
ATOM     14  C   UNL A   1      32.158  21.072  22.879  1.00  0.00     0.230 C 
ATOM     15  C   UNL A   1      32.531  20.251  24.097  1.00  0.00     0.049 C 
ENDBRANCH  13  14
ENDBRANCH  11  13
ENDBRANCH   6  11
BRANCH   9  16
ATOM     16  C   UNL A   1      30.948  27.610  23.105  1.00  0.00     0.061 A 
ATOM     17  C   UNL A   1      29.614  27.499  23.519  1.00  0.00     0.032 A 
ATOM     18  C   UNL A   1      31.280  28.723  22.328  1.00  0.00     0.032 A 
ATOM     19  C   UNL A   1      28.668  28.483  23.209  1.00  0.00     0.049 A 
ATOM     20  C   UNL A   1      30.339  29.709  22.006  1.00  0.00     0.049 A 
ATOM     21  C   UNL A   1      29.029  29.601  22.455  1.00  0.00     0.129 A 
BRANCH  21  22
ATOM     22  O   UNL A   1      28.018  30.486  22.213  1.00  0.00    -0.406 OA
BRANCH  22  23
ATOM     23  C   UNL A   1      27.953  31.637  23.038  1.00  0.00     0.573 C 
ATOM     24  F   UNL A   1      26.903  31.575  23.886  1.00  0.00    -0.132 F 
ATOM     25  F   UNL A   1      29.092  31.797  23.745  1.00  0.00    -0.132 F 
ATOM     26  F   UNL A   1      27.792  32.726  22.254  1.00  0.00    -0.132 F 
ENDBRANCH  22  23
ENDBRANCH  21  22
ENDBRANCH   9  16
ENDBRANCH   3   5
ENDBRANCH   2   3
ENDBRANCH   1   2
BRANCH   1  27
ATOM     27  C   UNL A   1      31.654  29.508  26.483  1.00  0.00     0.275 C 
BRANCH  27  28
ATOM     28  O   UNL A   1      32.934  30.102  26.216  1.00  0.00    -0.458 OA
BRANCH  28  29
ATOM     29  C   UNL A   1      33.289  31.136  27.016  1.00  0.00     0.338 C 
ATOM     30  O   UNL A   1      32.631  32.133  27.253  1.00  0.00    -0.246 OA
BRANCH  29  31
ATOM     31  C   UNL A   1      34.626  30.866  27.600  1.00  0.00     0.060 A 
ATOM     32  C   UNL A   1      35.137  29.570  27.636  1.00  0.00     0.016 A 
ATOM     33  C   UNL A   1      35.338  31.896  28.215  1.00  0.00     0.016 A 
ATOM     34  C   UNL A   1      36.269  29.276  28.397  1.00  0.00     0.010 A 
ATOM     35  C   UNL A   1      36.541  31.617  28.879  1.00  0.00     0.010 A 
ATOM     36  C   UNL A   1      36.989  30.294  29.038  1.00  0.00    -0.014 A 
BRANCH  36  37
ATOM     37  C   UNL A   1      38.137  29.955  29.936  1.00  0.00     0.031 A 
ATOM     38  C   UNL A   1      39.288  29.117  29.424  1.00  0.00     0.074 A 
ATOM     39  C   UNL A   1      38.213  30.459  31.187  1.00  0.00     0.049 A 
ATOM     40  N   UNL A   1      40.327  28.651  30.076  1.00  0.00    -0.248 NA
ATOM     41  C   UNL A   1      39.277  28.760  27.997  1.00  0.00     0.031 C 
ATOM     42  C   UNL A   1      37.216  31.324  31.819  1.00  0.00     0.029 A 
ATOM     43  N   UNL A   1      39.196  30.341  32.143  1.00  0.00    -0.354 N 
ATOM     44  C   UNL A   1      41.057  27.909  29.154  1.00  0.00     0.074 A 
ATOM     45  C   UNL A   1      40.341  27.977  27.899  1.00  0.00     0.031 C 
ATOM     46  C   UNL A   1      37.669  31.719  33.018  1.00  0.00     0.029 A 
ATOM     47  C   UNL A   1      38.941  31.059  33.288  1.00  0.00     0.049 A 
ATOM     48  H   UNL A   1      40.005  29.794  32.019  1.00  0.00     0.167 HD
ATOM     49  C   UNL A   1      42.224  27.242  29.325  1.00  0.00     0.037 A 
ATOM     50  C   UNL A   1      39.629  31.156  34.442  1.00  0.00     0.037 A 
ATOM     51  C   UNL A   1      42.981  27.207  30.549  1.00  0.00     0.049 A 
ATOM     52  C   UNL A   1      40.887  30.358  34.627  1.00  0.00     0.074 A 
ATOM     53  C   UNL A   1      44.169  26.545  30.809  1.00  0.00     0.029 A 
ATOM     54  N   UNL A   1      42.636  27.879  31.709  1.00  0.00    -0.354 N 
ATOM     55  N   UNL A   1      41.515  29.595  33.769  1.00  0.00    -0.248 NA
ATOM     56  C   UNL A   1      41.513  30.411  35.957  1.00  0.00     0.031 C 
ATOM     57  C   UNL A   1      44.534  26.800  32.136  1.00  0.00     0.029 A 
ATOM     58  C   UNL A   1      43.587  27.645  32.691  1.00  0.00     0.049 A 
ATOM     59  H   UNL A   1      41.834  28.439  31.821  1.00  0.00     0.167 HD
ATOM     60  C   UNL A   1      42.606  29.074  34.453  1.00  0.00     0.074 A 
ATOM     61  C   UNL A   1      42.574  29.635  35.788  1.00  0.00     0.031 C 
ATOM     62  C   UNL A   1      43.542  28.199  34.017  1.00  0.00     0.037 A 
BRANCH  49  63
ATOM     63  C   UNL A   1      42.758  26.476  28.151  1.00  0.00     0.057 A 
ATOM     64  C   UNL A   1      42.379  25.152  27.900  1.00  0.00     0.134 A 
ATOM     65  C   UNL A   1      43.624  27.089  27.235  1.00  0.00     0.134 A 
ATOM     66  F   UNL A   1      41.565  24.507  28.750  1.00  0.00    -0.206 F 
ATOM     67  C   UNL A   1      42.851  24.460  26.784  1.00  0.00     0.040 A 
ATOM     68  C   UNL A   1      44.086  26.414  26.106  1.00  0.00     0.040 A 
ATOM     69  F   UNL A   1      44.020  28.358  27.418  1.00  0.00    -0.206 F 
ATOM     70  C   UNL A   1      43.701  25.094  25.879  1.00  0.00     0.006 A 
ENDBRANCH  49  63
BRANCH  50  71
ATOM     71  C   UNL A   1      39.116  32.011  35.544  1.00  0.00     0.057 A 
ATOM     72  C   UNL A   1      39.478  33.359  35.642  1.00  0.00     0.134 A 
ATOM     73  C   UNL A   1      38.265  31.498  36.529  1.00  0.00     0.134 A 
ATOM     74  F   UNL A   1      40.316  33.900  34.745  1.00  0.00    -0.206 F 
ATOM     75  C   UNL A   1      39.017  34.165  36.684  1.00  0.00     0.040 A 
ATOM     76  C   UNL A   1      37.773  32.299  37.560  1.00  0.00     0.040 A 
ATOM     77  F   UNL A   1      37.886  30.212  36.494  1.00  0.00    -0.206 F 
ATOM     78  C   UNL A   1      38.154  33.636  37.642  1.00  0.00     0.006 A 
ENDBRANCH  50  71
BRANCH  62  79
ATOM     79  C   UNL A   1      44.610  27.804  34.992  1.00  0.00     0.057 A 
ATOM     80  C   UNL A   1      44.474  26.674  35.809  1.00  0.00     0.134 A 
ATOM     81  C   UNL A   1      45.785  28.555  35.114  1.00  0.00     0.134 A 
ATOM     82  F   UNL A   1      43.364  25.922  35.749  1.00  0.00    -0.206 F 
ATOM     83  C   UNL A   1      45.459  26.319  36.731  1.00  0.00     0.040 A 
ATOM     84  C   UNL A   1      46.786  28.200  36.019  1.00  0.00     0.040 A 
ATOM     85  F   UNL A   1      45.978  29.646  34.358  1.00  0.00    -0.206 F 
ATOM     86  C   UNL A   1      46.621  27.082  36.836  1.00  0.00     0.006 A 
ENDBRANCH  62  79
ENDBRANCH  36  37
ENDBRANCH  29  31
ENDBRANCH  28  29
ENDBRANCH  27  28
ENDBRANCH   1  27
TORSDOF 17
ENDMDL
MODEL 2
REMARK VINA RESULT:     -11.4      4.563      9.237
REMARK SMILES CCOC(=O)C1=NN(c2ccc(OC(F)(F)F)cc2)[C@@](C)(C(=O)OCCOC(=O)c2ccc(-c3c4nc(c(-c5c(F)cccc5F)c5ccc([nH]5)c(-c5c(F)cccc5F)c5nc(c(-c6c(F)cccc6F)c6ccc3[nH]6)C=C5)C=C4)cc2)C1
REMARK SMILES IDX 25 1 24 2 22 3 23 4 20 5 6 6 7 7 84 8 8 9 21 10 4 11 5 12
REMARK SMILES IDX 3 13 2 14 1 15 9 16 10 17 19 18 11 19 18 20 12 21 13 22
REMARK SMILES IDX 14 23 15 24 16 25 17 26 26 27 27 28 28 29 29 30 30 31 31 32
REMARK SMILES IDX 83 33 32 34 82 35 33 36 34 37 35 38 76 39 36 40 81 41 75 42
REMARK SMILES IDX 77 43 37 44 80 45 74 46 73 47 38 49 64 50 47 51 63 52 48 53
REMARK SMILES IDX 51 54 62 55 78 56 49 57 50 58 61 60 79 61 52 62 39 63 40 64
REMARK SMILES IDX 45 65 41 66 42 67 44 68 46 69 43 70 65 71 66 72 71 73 67 74
REMARK SMILES IDX 68 75 70 76 72 77 69 78 53 79 54 80 59 81 55 82 56 83 58 84
REMARK SMILES IDX 60 85 57 86
REMARK H PARENT 77 48 51 59
REMARK Flexibility Score: inf
ROOT
ATOM      1  C   UNL A   1      37.832  21.422  24.966  1.00  0.00     0.274 C 
ENDROOT
BRANCH   1   2
ATOM      2  O   UNL A   1      37.168  22.702  25.052  1.00  0.00    -0.460 OA
BRANCH   2   3
ATOM      3  C   UNL A   1      36.257  22.993  24.084  1.00  0.00     0.334 C 
ATOM      4  O   UNL A   1      36.527  23.054  22.885  1.00  0.00    -0.249 OA
BRANCH   3   5
ATOM      5  C   UNL A   1      34.842  23.302  24.618  1.00  0.00     0.163 C 
ATOM      6  C   UNL A   1      33.612  24.446  23.029  1.00  0.00     0.149 C 
ATOM      7  N   UNL A   1      33.236  23.215  22.882  1.00  0.00    -0.169 NA
ATOM      8  C   UNL A   1      34.442  24.743  24.236  1.00  0.00     0.108 C 
ATOM      9  N   UNL A   1      33.787  22.529  23.931  1.00  0.00    -0.248 N 
ATOM     10  C   UNL A   1      34.913  23.155  26.133  1.00  0.00     0.050 C 
BRANCH   6  11
ATOM     11  C   UNL A   1      33.175  25.543  22.092  1.00  0.00     0.354 C 
ATOM     12  O   UNL A   1      33.301  25.458  20.888  1.00  0.00    -0.245 OA
BRANCH  11  13
ATOM     13  O   UNL A   1      32.630  26.543  22.814  1.00  0.00    -0.461 OA
BRANCH  13  14
ATOM     14  C   UNL A   1      33.085  27.868  22.491  1.00  0.00     0.230 C 
ATOM     15  C   UNL A   1      33.993  28.364  23.599  1.00  0.00     0.049 C 
ENDBRANCH  13  14
ENDBRANCH  11  13
ENDBRANCH   6  11
BRANCH   9  16
ATOM     16  C   UNL A   1      33.301  21.263  24.204  1.00  0.00     0.061 A 
ATOM     17  C   UNL A   1      33.581  20.645  25.430  1.00  0.00     0.032 A 
ATOM     18  C   UNL A   1      32.609  20.505  23.256  1.00  0.00     0.032 A 
ATOM     19  C   UNL A   1      33.145  19.343  25.708  1.00  0.00     0.049 A 
ATOM     20  C   UNL A   1      32.176  19.200  23.521  1.00  0.00     0.049 A 
ATOM     21  C   UNL A   1      32.431  18.615  24.756  1.00  0.00     0.129 A 
BRANCH  21  22
ATOM     22  O   UNL A   1      32.067  17.357  25.142  1.00  0.00    -0.406 OA
BRANCH  22  23
ATOM     23  C   UNL A   1      32.972  16.304  24.859  1.00  0.00     0.573 C 
ATOM     24  F   UNL A   1      33.397  16.354  23.578  1.00  0.00    -0.132 F 
ATOM     25  F   UNL A   1      34.038  16.339  25.687  1.00  0.00    -0.132 F 
ATOM     26  F   UNL A   1      32.339  15.124  25.043  1.00  0.00    -0.132 F 
ENDBRANCH  22  23
ENDBRANCH  21  22
ENDBRANCH   9  16
ENDBRANCH   3   5
ENDBRANCH   2   3
ENDBRANCH   1   2
BRANCH   1  27
ATOM     27  C   UNL A   1      39.125  21.432  25.779  1.00  0.00     0.275 C 
BRANCH  27  28
ATOM     28  O   UNL A   1      39.535  20.073  25.997  1.00  0.00    -0.458 OA
BRANCH  28  29
ATOM     29  C   UNL A   1      40.871  19.848  26.007  1.00  0.00     0.338 C 
ATOM     30  O   UNL A   1      41.444  18.850  25.607  1.00  0.00    -0.246 OA
BRANCH  29  31
ATOM     31  C   UNL A   1      41.563  21.033  26.570  1.00  0.00     0.060 A 
ATOM     32  C   UNL A   1      41.576  21.262  27.944  1.00  0.00     0.016 A 
ATOM     33  C   UNL A   1      42.119  21.985  25.716  1.00  0.00     0.016 A 
ATOM     34  C   UNL A   1      42.006  22.488  28.453  1.00  0.00     0.010 A 
ATOM     35  C   UNL A   1      42.661  23.167  26.241  1.00  0.00     0.010 A 
ATOM     36  C   UNL A   1      42.551  23.467  27.610  1.00  0.00    -0.014 A 
BRANCH  36  37
ATOM     37  C   UNL A   1      42.910  24.814  28.152  1.00  0.00     0.031 A 
ATOM     38  C   UNL A   1      41.834  25.845  28.413  1.00  0.00     0.074 A 
ATOM     39  C   UNL A   1      44.181  25.107  28.502  1.00  0.00     0.049 A 
ATOM     40  N   UNL A   1      41.959  27.093  28.800  1.00  0.00    -0.248 NA
ATOM     41  C   UNL A   1      40.437  25.423  28.221  1.00  0.00     0.031 C 
ATOM     42  C   UNL A   1      45.330  24.211  28.364  1.00  0.00     0.029 A 
ATOM     43  N   UNL A   1      44.715  26.237  29.078  1.00  0.00    -0.354 N 
ATOM     44  C   UNL A   1      40.669  27.611  28.845  1.00  0.00     0.074 A 
ATOM     45  C   UNL A   1      39.775  26.549  28.439  1.00  0.00     0.031 C 
ATOM     46  C   UNL A   1      46.410  24.790  28.909  1.00  0.00     0.029 A 
ATOM     47  C   UNL A   1      46.060  26.137  29.345  1.00  0.00     0.049 A 
ATOM     48  H   UNL A   1      44.184  27.041  29.280  1.00  0.00     0.167 HD
ATOM     49  C   UNL A   1      40.258  28.851  29.206  1.00  0.00     0.037 A 
ATOM     50  C   UNL A   1      46.930  27.032  29.852  1.00  0.00     0.037 A 
ATOM     51  C   UNL A   1      41.124  29.904  29.667  1.00  0.00     0.049 A 
ATOM     52  C   UNL A   1      46.460  28.419  30.185  1.00  0.00     0.074 A 
ATOM     53  C   UNL A   1      40.789  31.194  30.042  1.00  0.00     0.029 A 
ATOM     54  N   UNL A   1      42.493  29.782  29.837  1.00  0.00    -0.354 N 
ATOM     55  N   UNL A   1      45.249  28.914  30.140  1.00  0.00    -0.248 NA
ATOM     56  C   UNL A   1      47.489  29.380  30.609  1.00  0.00     0.031 C 
ATOM     57  C   UNL A   1      41.959  31.862  30.420  1.00  0.00     0.029 A 
ATOM     58  C   UNL A   1      43.018  30.976  30.308  1.00  0.00     0.049 A 
ATOM     59  H   UNL A   1      43.016  28.970  29.650  1.00  0.00     0.167 HD
ATOM     60  C   UNL A   1      45.369  30.243  30.525  1.00  0.00     0.074 A 
ATOM     61  C   UNL A   1      46.766  30.469  30.833  1.00  0.00     0.031 C 
ATOM     62  C   UNL A   1      44.408  31.194  30.603  1.00  0.00     0.037 A 
BRANCH  49  63
ATOM     63  C   UNL A   1      38.791  29.147  29.107  1.00  0.00     0.057 A 
ATOM     64  C   UNL A   1      37.945  29.062  30.219  1.00  0.00     0.134 A 
ATOM     65  C   UNL A   1      38.231  29.570  27.894  1.00  0.00     0.134 A 
ATOM     66  F   UNL A   1      38.420  28.648  31.403  1.00  0.00    -0.206 F 
ATOM     67  C   UNL A   1      36.588  29.378  30.125  1.00  0.00     0.040 A 
ATOM     68  C   UNL A   1      36.881  29.907  27.794  1.00  0.00     0.040 A 
ATOM     69  F   UNL A   1      38.991  29.677  26.794  1.00  0.00    -0.206 F 
ATOM     70  C   UNL A   1      36.055  29.808  28.912  1.00  0.00     0.006 A 
ENDBRANCH  49  63
BRANCH  50  71
ATOM     71  C   UNL A   1      48.357  26.663  30.032  1.00  0.00     0.057 A 
ATOM     72  C   UNL A   1      48.798  26.028  31.199  1.00  0.00     0.134 A 
ATOM     73  C   UNL A   1      49.314  26.947  29.051  1.00  0.00     0.134 A 
ATOM     74  F   UNL A   1      47.934  25.757  32.188  1.00  0.00    -0.206 F 
ATOM     75  C   UNL A   1      50.141  25.693  31.385  1.00  0.00     0.040 A 
ATOM     76  C   UNL A   1      50.654  26.593  29.212  1.00  0.00     0.040 A 
ATOM     77  F   UNL A   1      48.955  27.559  27.913  1.00  0.00    -0.206 F 
ATOM     78  C   UNL A   1      51.071  25.969  30.385  1.00  0.00     0.006 A 
ENDBRANCH  50  71
BRANCH  62  79
ATOM     79  C   UNL A   1      44.839  32.560  31.046  1.00  0.00     0.057 A 
ATOM     80  C   UNL A   1      44.873  32.912  32.401  1.00  0.00     0.134 A 
ATOM     81  C   UNL A   1      45.226  33.529  30.114  1.00  0.00     0.134 A 
ATOM     82  F   UNL A   1      44.499  32.032  33.342  1.00  0.00    -0.206 F 
ATOM     83  C   UNL A   1      45.254  34.190  32.812  1.00  0.00     0.040 A 
ATOM     84  C   UNL A   1      45.627  34.804  30.513  1.00  0.00     0.040 A 
ATOM     85  F   UNL A   1      45.219  33.253  28.801  1.00  0.00    -0.206 F 
ATOM     86  C   UNL A   1      45.635  35.140  31.866  1.00  0.00     0.006 A 
ENDBRANCH  62  79
ENDBRANCH  36  37
ENDBRANCH  29  31
ENDBRANCH  28  29
ENDBRANCH  27  28
ENDBRANCH   1  27
TORSDOF 17
ENDMDL
MODEL 3
REMARK VINA RESULT:     -11.3      1.320      6.266
REMARK SMILES CCOC(=O)C1=NN(c2ccc(OC(F)(F)F)cc2)[C@@](C)(C(=O)OCCOC(=O)c2ccc(-c3c4nc(c(-c5c(F)cccc5F)c5ccc([nH]5)c(-c5c(F)cccc5F)c5nc(c(-c6c(F)cccc6F)c6ccc3[nH]6)C=C5)C=C4)cc2)C1
REMARK SMILES IDX 25 1 24 2 22 3 23 4 20 5 6 6 7 7 84 8 8 9 21 10 4 11 5 12
REMARK SMILES IDX 3 13 2 14 1 15 9 16 10 17 19 18 11 19 18 20 12 21 13 22
REMARK SMILES IDX 14 23 15 24 16 25 17 26 26 27 27 28 28 29 29 30 30 31 31 32
REMARK SMILES IDX 83 33 32 34 82 35 33 36 34 37 35 38 76 39 36 40 81 41 75 42
REMARK SMILES IDX 77 43 37 44 80 45 74 46 73 47 38 49 64 50 47 51 63 52 48 53
REMARK SMILES IDX 51 54 62 55 78 56 49 57 50 58 61 60 79 61 52 62 39 63 40 64
REMARK SMILES IDX 45 65 41 66 42 67 44 68 46 69 43 70 65 71 66 72 71 73 67 74
REMARK SMILES IDX 68 75 70 76 72 77 69 78 53 79 54 80 59 81 55 82 56 83 58 84
REMARK SMILES IDX 60 85 57 86
REMARK H PARENT 77 48 51 59
REMARK Flexibility Score: inf
ROOT
ATOM      1  C   UNL A   1      32.075  30.607  25.851  1.00  0.00     0.274 C 
ENDROOT
BRANCH   1   2
ATOM      2  O   UNL A   1      31.628  29.287  26.232  1.00  0.00    -0.460 OA
BRANCH   2   3
ATOM      3  C   UNL A   1      32.545  28.283  26.177  1.00  0.00     0.334 C 
ATOM      4  O   UNL A   1      33.437  28.123  27.010  1.00  0.00    -0.249 OA
BRANCH   3   5
ATOM      5  C   UNL A   1      32.414  27.373  24.937  1.00  0.00     0.163 C 
ATOM      6  C   UNL A   1      31.349  25.398  25.494  1.00  0.00     0.149 C 
ATOM      7  N   UNL A   1      30.401  26.130  24.999  1.00  0.00    -0.169 NA
ATOM      8  C   UNL A   1      32.741  25.914  25.321  1.00  0.00     0.108 C 
ATOM      9  N   UNL A   1      31.018  27.233  24.472  1.00  0.00    -0.248 N 
ATOM     10  C   UNL A   1      33.420  27.891  23.916  1.00  0.00     0.050 C 
BRANCH   6  11
ATOM     11  C   UNL A   1      31.086  24.059  26.135  1.00  0.00     0.354 C 
ATOM     12  O   UNL A   1      31.131  23.894  27.337  1.00  0.00    -0.245 OA
BRANCH  11  13
ATOM     13  O   UNL A   1      30.785  23.165  25.172  1.00  0.00    -0.461 OA
BRANCH  13  14
ATOM     14  C   UNL A   1      31.808  22.201  24.871  1.00  0.00     0.230 C 
ATOM     15  C   UNL A   1      32.131  22.266  23.392  1.00  0.00     0.049 C 
ENDBRANCH  13  14
ENDBRANCH  11  13
ENDBRANCH   6  11
BRANCH   9  16
ATOM     16  C   UNL A   1      30.292  28.030  23.606  1.00  0.00     0.061 A 
ATOM     17  C   UNL A   1      30.942  28.958  22.782  1.00  0.00     0.032 A 
ATOM     18  C   UNL A   1      28.895  28.031  23.583  1.00  0.00     0.032 A 
ATOM     19  C   UNL A   1      30.225  29.813  21.937  1.00  0.00     0.049 A 
ATOM     20  C   UNL A   1      28.168  28.888  22.747  1.00  0.00     0.049 A 
ATOM     21  C   UNL A   1      28.830  29.777  21.909  1.00  0.00     0.129 A 
BRANCH  21  22
ATOM     22  O   UNL A   1      28.245  30.662  21.049  1.00  0.00    -0.406 OA
BRANCH  22  23
ATOM     23  C   UNL A   1      28.030  31.981  21.523  1.00  0.00     0.573 C 
ATOM     24  F   UNL A   1      27.400  32.738  20.598  1.00  0.00    -0.132 F 
ATOM     25  F   UNL A   1      27.312  31.979  22.667  1.00  0.00    -0.132 F 
ATOM     26  F   UNL A   1      29.228  32.551  21.783  1.00  0.00    -0.132 F 
ENDBRANCH  22  23
ENDBRANCH  21  22
ENDBRANCH   9  16
ENDBRANCH   3   5
ENDBRANCH   2   3
ENDBRANCH   1   2
BRANCH   1  27
ATOM     27  C   UNL A   1      31.733  31.624  26.939  1.00  0.00     0.275 C 
BRANCH  27  28
ATOM     28  O   UNL A   1      32.455  32.836  26.669  1.00  0.00    -0.458 OA
BRANCH  28  29
ATOM     29  C   UNL A   1      32.993  33.460  27.744  1.00  0.00     0.338 C 
ATOM     30  O   UNL A   1      32.509  34.390  28.364  1.00  0.00    -0.246 OA
BRANCH  29  31
ATOM     31  C   UNL A   1      34.286  32.817  28.087  1.00  0.00     0.060 A 
ATOM     32  C   UNL A   1      34.354  31.448  28.338  1.00  0.00     0.016 A 
ATOM     33  C   UNL A   1      35.427  33.599  28.263  1.00  0.00     0.016 A 
ATOM     34  C   UNL A   1      35.503  30.888  28.896  1.00  0.00     0.010 A 
ATOM     35  C   UNL A   1      36.618  33.010  28.711  1.00  0.00     0.010 A 
ATOM     36  C   UNL A   1      36.656  31.660  29.099  1.00  0.00    -0.014 A 
BRANCH  36  37
ATOM     37  C   UNL A   1      37.843  31.073  29.794  1.00  0.00     0.031 A 
ATOM     38  C   UNL A   1      38.094  31.364  31.258  1.00  0.00     0.074 A 
ATOM     39  C   UNL A   1      38.663  30.207  29.160  1.00  0.00     0.049 A 
ATOM     40  N   UNL A   1      39.112  31.016  32.008  1.00  0.00    -0.248 NA
ATOM     41  C   UNL A   1      37.069  32.140  31.974  1.00  0.00     0.031 C 
ATOM     42  C   UNL A   1      38.535  29.780  27.766  1.00  0.00     0.029 A 
ATOM     43  N   UNL A   1      39.752  29.502  29.619  1.00  0.00    -0.354 N 
ATOM     44  C   UNL A   1      38.873  31.572  33.260  1.00  0.00     0.074 A 
ATOM     45  C   UNL A   1      37.620  32.288  33.170  1.00  0.00     0.031 C 
ATOM     46  C   UNL A   1      39.452  28.836  27.507  1.00  0.00     0.029 A 
ATOM     47  C   UNL A   1      40.299  28.660  28.681  1.00  0.00     0.049 A 
ATOM     48  H   UNL A   1      40.105  29.593  30.533  1.00  0.00     0.167 HD
ATOM     49  C   UNL A   1      39.616  31.486  34.390  1.00  0.00     0.037 A 
ATOM     50  C   UNL A   1      41.380  27.858  28.737  1.00  0.00     0.037 A 
ATOM     51  C   UNL A   1      40.837  30.733  34.518  1.00  0.00     0.049 A 
ATOM     52  C   UNL A   1      42.222  27.828  29.980  1.00  0.00     0.074 A 
ATOM     53  C   UNL A   1      41.657  30.603  35.625  1.00  0.00     0.029 A 
ATOM     54  N   UNL A   1      41.399  29.966  33.512  1.00  0.00    -0.354 N 
ATOM     55  N   UNL A   1      42.023  28.430  31.125  1.00  0.00    -0.248 NA
ATOM     56  C   UNL A   1      43.457  27.032  29.923  1.00  0.00     0.031 C 
ATOM     57  C   UNL A   1      42.730  29.771  35.284  1.00  0.00     0.029 A 
ATOM     58  C   UNL A   1      42.559  29.362  33.972  1.00  0.00     0.049 A 
ATOM     59  H   UNL A   1      41.031  29.865  32.605  1.00  0.00     0.167 HD
ATOM     60  C   UNL A   1      43.107  28.089  31.924  1.00  0.00     0.074 A 
ATOM     61  C   UNL A   1      43.943  27.202  31.144  1.00  0.00     0.031 C 
ATOM     62  C   UNL A   1      43.390  28.489  33.187  1.00  0.00     0.037 A 
BRANCH  49  63
ATOM     63  C   UNL A   1      39.133  32.241  35.592  1.00  0.00     0.057 A 
ATOM     64  C   UNL A   1      39.441  33.593  35.787  1.00  0.00     0.134 A 
ATOM     65  C   UNL A   1      38.308  31.620  36.539  1.00  0.00     0.134 A 
ATOM     66  F   UNL A   1      40.239  34.238  34.923  1.00  0.00    -0.206 F 
ATOM     67  C   UNL A   1      38.954  34.298  36.888  1.00  0.00     0.040 A 
ATOM     68  C   UNL A   1      37.799  32.320  37.633  1.00  0.00     0.040 A 
ATOM     69  F   UNL A   1      37.972  30.327  36.406  1.00  0.00    -0.206 F 
ATOM     70  C   UNL A   1      38.125  33.662  37.811  1.00  0.00     0.006 A 
ENDBRANCH  49  63
BRANCH  50  71
ATOM     71  C   UNL A   1      41.765  27.045  27.555  1.00  0.00     0.057 A 
ATOM     72  C   UNL A   1      42.526  27.593  26.516  1.00  0.00     0.134 A 
ATOM     73  C   UNL A   1      41.372  25.707  27.429  1.00  0.00     0.134 A 
ATOM     74  F   UNL A   1      42.906  28.879  26.565  1.00  0.00    -0.206 F 
ATOM     75  C   UNL A   1      42.877  26.843  25.392  1.00  0.00     0.040 A 
ATOM     76  C   UNL A   1      41.740  24.937  26.325  1.00  0.00     0.040 A 
ATOM     77  F   UNL A   1      40.637  25.125  28.388  1.00  0.00    -0.206 F 
ATOM     78  C   UNL A   1      42.491  25.508  25.300  1.00  0.00     0.006 A 
ENDBRANCH  50  71
BRANCH  62  79
ATOM     79  C   UNL A   1      44.651  27.959  33.801  1.00  0.00     0.057 A 
ATOM     80  C   UNL A   1      44.670  26.746  34.502  1.00  0.00     0.134 A 
ATOM     81  C   UNL A   1      45.856  28.662  33.688  1.00  0.00     0.134 A 
ATOM     82  F   UNL A   1      43.544  26.034  34.658  1.00  0.00    -0.206 F 
ATOM     83  C   UNL A   1      45.839  26.265  35.091  1.00  0.00     0.040 A 
ATOM     84  C   UNL A   1      47.035  28.181  34.256  1.00  0.00     0.040 A 
ATOM     85  F   UNL A   1      45.904  29.828  33.025  1.00  0.00    -0.206 F 
ATOM     86  C   UNL A   1      47.028  26.982  34.966  1.00  0.00     0.006 A 
ENDBRANCH  62  79
ENDBRANCH  36  37
ENDBRANCH  29  31
ENDBRANCH  28  29
ENDBRANCH  27  28
ENDBRANCH   1  27
TORSDOF 17
ENDMDL
