MODEL 1
REMARK VINA RESULT:     -11.8      0.000      0.000
REMARK SMILES O=C(CNC(=O)c1ccco1)Nc1cccc(C(=O)OCCOC(=O)c2ccc(-c3c4nc(c(-c5c(F)cccc5F)c5ccc([nH]5)c(-c5c(F)cccc5F)c5nc(c(-c6c(F)cccc6F)c6ccc3[nH]6)C=C5)C=C4)cc2)c1
REMARK SMILES IDX 21 1 20 2 18 3 19 4 17 5 13 6 14 7 80 8 15 9 16 10 12 11
REMARK SMILES IDX 1 12 2 13 3 15 4 16 5 17 6 19 7 20 8 21 11 22 9 23 10 24
REMARK SMILES IDX 22 25 23 26 24 27 25 28 26 29 27 30 79 31 28 32 78 33 29 34
REMARK SMILES IDX 30 35 31 36 72 37 32 38 77 39 71 40 73 41 33 42 76 43 70 44
REMARK SMILES IDX 69 45 34 47 60 48 43 49 59 50 44 51 47 52 58 53 74 54 45 55
REMARK SMILES IDX 46 56 57 58 75 59 48 60 35 61 36 62 41 63 37 64 38 65 40 66
REMARK SMILES IDX 42 67 39 68 61 69 62 70 67 71 63 72 64 73 66 74 68 75 65 76
REMARK SMILES IDX 49 77 50 78 55 79 51 80 52 81 54 82 56 83 53 84
REMARK H PARENT 12 14 4 18 73 46 47 57
REMARK Flexibility Score: inf
ROOT
ATOM      1  C   UNL A   1      41.762  20.117  26.136  1.00  0.00     0.275 C 
ENDROOT
BRANCH   1   2
ATOM      2  O   UNL A   1      40.513  20.758  26.466  1.00  0.00    -0.458 OA
BRANCH   2   3
ATOM      3  C   UNL A   1      39.420  20.355  25.771  1.00  0.00     0.338 C 
ATOM      4  O   UNL A   1      39.181  19.233  25.360  1.00  0.00    -0.246 OA
BRANCH   3   5
ATOM      5  C   UNL A   1      38.470  21.483  25.648  1.00  0.00     0.062 A 
ATOM      6  C   UNL A   1      36.351  22.358  24.879  1.00  0.00     0.042 A 
ATOM      7  C   UNL A   1      36.680  23.608  25.418  1.00  0.00     0.026 A 
ATOM      8  C   UNL A   1      37.275  21.315  24.949  1.00  0.00     0.041 A 
ATOM      9  C   UNL A   1      37.867  23.776  26.130  1.00  0.00     0.003 A 
ATOM     10  C   UNL A   1      38.738  22.701  26.284  1.00  0.00     0.016 A 
BRANCH   6  11
ATOM     11  N   UNL A   1      35.062  22.205  24.338  1.00  0.00    -0.325 N 
ATOM     12  O   UNL A   1      35.063  23.855  22.689  1.00  0.00    -0.273 OA
ATOM     13  C   UNL A   1      34.532  22.912  23.273  1.00  0.00     0.243 C 
ATOM     14  H   UNL A   1      34.481  21.529  24.756  1.00  0.00     0.169 HD
BRANCH  13  15
ATOM     15  C   UNL A   1      33.109  22.499  22.898  1.00  0.00     0.216 C 
BRANCH  15  16
ATOM     16  N   UNL A   1      32.734  21.183  23.395  1.00  0.00    -0.340 N 
ATOM     17  C   UNL A   1      32.272  20.807  24.634  1.00  0.00     0.287 C 
ATOM     18  H   UNL A   1      32.825  20.450  22.744  1.00  0.00     0.164 HD
ATOM     19  O   UNL A   1      32.295  19.600  24.876  1.00  0.00    -0.266 OA
BRANCH  17  20
ATOM     20  C   UNL A   1      31.834  21.809  25.580  1.00  0.00     0.191 A 
ATOM     21  C   UNL A   1      30.639  22.476  25.784  1.00  0.00     0.056 A 
ATOM     22  O   UNL A   1      32.732  22.210  26.535  1.00  0.00    -0.459 OA
ATOM     23  C   UNL A   1      30.836  23.359  26.873  1.00  0.00     0.043 A 
ATOM     24  C   UNL A   1      32.124  23.149  27.302  1.00  0.00     0.196 A 
ENDBRANCH  17  20
ENDBRANCH  15  16
ENDBRANCH  13  15
ENDBRANCH   6  11
ENDBRANCH   3   5
ENDBRANCH   2   3
ENDBRANCH   1   2
BRANCH   1  25
ATOM     25  C   UNL A   1      42.839  21.156  25.833  1.00  0.00     0.275 C 
BRANCH  25  26
ATOM     26  O   UNL A   1      42.214  22.380  25.405  1.00  0.00    -0.458 OA
BRANCH  26  27
ATOM     27  C   UNL A   1      43.020  23.460  25.321  1.00  0.00     0.338 C 
ATOM     28  O   UNL A   1      43.973  23.634  24.586  1.00  0.00    -0.246 OA
BRANCH  27  29
ATOM     29  C   UNL A   1      42.542  24.479  26.269  1.00  0.00     0.060 A 
ATOM     30  C   UNL A   1      43.035  25.775  26.164  1.00  0.00     0.016 A 
ATOM     31  C   UNL A   1      41.697  24.133  27.320  1.00  0.00     0.016 A 
ATOM     32  C   UNL A   1      42.763  26.718  27.149  1.00  0.00     0.010 A 
ATOM     33  C   UNL A   1      41.341  25.111  28.256  1.00  0.00     0.010 A 
ATOM     34  C   UNL A   1      41.892  26.406  28.198  1.00  0.00    -0.014 A 
BRANCH  34  35
ATOM     35  C   UNL A   1      41.581  27.413  29.248  1.00  0.00     0.031 A 
ATOM     36  C   UNL A   1      42.395  27.454  30.512  1.00  0.00     0.074 A 
ATOM     37  C   UNL A   1      40.572  28.292  29.081  1.00  0.00     0.049 A 
ATOM     38  N   UNL A   1      42.151  28.079  31.636  1.00  0.00    -0.248 NA
ATOM     39  C   UNL A   1      43.644  26.676  30.518  1.00  0.00     0.031 C 
ATOM     40  C   UNL A   1      39.737  28.414  27.884  1.00  0.00     0.029 A 
ATOM     41  N   UNL A   1      40.074  29.253  29.929  1.00  0.00    -0.354 N 
ATOM     42  C   UNL A   1      43.176  27.716  32.501  1.00  0.00     0.074 A 
ATOM     43  C   UNL A   1      44.050  26.824  31.770  1.00  0.00     0.031 C 
ATOM     44  C   UNL A   1      38.852  29.406  28.062  1.00  0.00     0.029 A 
ATOM     45  C   UNL A   1      38.990  29.926  29.418  1.00  0.00     0.049 A 
ATOM     46  H   UNL A   1      40.457  29.440  30.816  1.00  0.00     0.167 HD
ATOM     47  C   UNL A   1      43.362  28.089  33.789  1.00  0.00     0.037 A 
ATOM     48  C   UNL A   1      38.162  30.820  29.990  1.00  0.00     0.037 A 
ATOM     49  C   UNL A   1      42.523  29.024  34.492  1.00  0.00     0.049 A 
ATOM     50  C   UNL A   1      38.369  31.195  31.429  1.00  0.00     0.074 A 
ATOM     51  C   UNL A   1      42.637  29.476  35.795  1.00  0.00     0.029 A 
ATOM     52  N   UNL A   1      41.425  29.666  33.940  1.00  0.00    -0.354 N 
ATOM     53  N   UNL A   1      39.297  30.791  32.261  1.00  0.00    -0.248 NA
ATOM     54  C   UNL A   1      37.399  32.130  32.016  1.00  0.00     0.031 C 
ATOM     55  C   UNL A   1      41.590  30.371  36.041  1.00  0.00     0.029 A 
ATOM     56  C   UNL A   1      40.847  30.504  34.878  1.00  0.00     0.049 A 
ATOM     57  H   UNL A   1      41.104  29.544  33.017  1.00  0.00     0.167 HD
ATOM     58  C   UNL A   1      39.031  31.429  33.464  1.00  0.00     0.074 A 
ATOM     59  C   UNL A   1      37.865  32.260  33.250  1.00  0.00     0.031 C 
ATOM     60  C   UNL A   1      39.692  31.331  34.644  1.00  0.00     0.037 A 
BRANCH  47  61
ATOM     61  C   UNL A   1      44.497  27.453  34.538  1.00  0.00     0.057 A 
ATOM     62  C   UNL A   1      45.761  28.047  34.626  1.00  0.00     0.134 A 
ATOM     63  C   UNL A   1      44.304  26.239  35.211  1.00  0.00     0.134 A 
ATOM     64  F   UNL A   1      46.014  29.202  33.992  1.00  0.00    -0.206 F 
ATOM     65  C   UNL A   1      46.800  27.445  35.339  1.00  0.00     0.040 A 
ATOM     66  C   UNL A   1      45.327  25.639  35.946  1.00  0.00     0.040 A 
ATOM     67  F   UNL A   1      43.115  25.619  35.169  1.00  0.00    -0.206 F 
ATOM     68  C   UNL A   1      46.582  26.241  36.007  1.00  0.00     0.006 A 
ENDBRANCH  47  61
BRANCH  48  69
ATOM     69  C   UNL A   1      37.029  31.379  29.212  1.00  0.00     0.057 A 
ATOM     70  C   UNL A   1      35.879  30.623  28.963  1.00  0.00     0.134 A 
ATOM     71  C   UNL A   1      37.063  32.686  28.709  1.00  0.00     0.134 A 
ATOM     72  F   UNL A   1      35.798  29.356  29.397  1.00  0.00    -0.206 F 
ATOM     73  C   UNL A   1      34.805  31.143  28.239  1.00  0.00     0.040 A 
ATOM     74  C   UNL A   1      35.986  33.229  28.007  1.00  0.00     0.040 A 
ATOM     75  F   UNL A   1      38.137  33.463  28.914  1.00  0.00    -0.206 F 
ATOM     76  C   UNL A   1      34.854  32.454  27.767  1.00  0.00     0.006 A 
ENDBRANCH  48  69
BRANCH  60  77
ATOM     77  C   UNL A   1      39.190  32.168  35.779  1.00  0.00     0.057 A 
ATOM     78  C   UNL A   1      39.618  33.488  35.967  1.00  0.00     0.134 A 
ATOM     79  C   UNL A   1      38.236  31.660  36.670  1.00  0.00     0.134 A 
ATOM     80  F   UNL A   1      40.541  34.025  35.155  1.00  0.00    -0.206 F 
ATOM     81  C   UNL A   1      39.125  34.269  37.013  1.00  0.00     0.040 A 
ATOM     82  C   UNL A   1      37.721  32.439  37.706  1.00  0.00     0.040 A 
ATOM     83  F   UNL A   1      37.782  30.405  36.538  1.00  0.00    -0.206 F 
ATOM     84  C   UNL A   1      38.169  33.746  37.882  1.00  0.00     0.006 A 
ENDBRANCH  60  77
ENDBRANCH  34  35
ENDBRANCH  27  29
ENDBRANCH  26  27
ENDBRANCH  25  26
ENDBRANCH   1  25
TORSDOF 15
ENDMDL
MODEL 2
REMARK VINA RESULT:     -11.6      0.973      1.943
REMARK SMILES O=C(CNC(=O)c1ccco1)Nc1cccc(C(=O)OCCOC(=O)c2ccc(-c3c4nc(c(-c5c(F)cccc5F)c5ccc([nH]5)c(-c5c(F)cccc5F)c5nc(c(-c6c(F)cccc6F)c6ccc3[nH]6)C=C5)C=C4)cc2)c1
REMARK SMILES IDX 21 1 20 2 18 3 19 4 17 5 13 6 14 7 80 8 15 9 16 10 12 11
REMARK SMILES IDX 1 12 2 13 3 15 4 16 5 17 6 19 7 20 8 21 11 22 9 23 10 24
REMARK SMILES IDX 22 25 23 26 24 27 25 28 26 29 27 30 79 31 28 32 78 33 29 34
REMARK SMILES IDX 30 35 31 36 72 37 32 38 77 39 71 40 73 41 33 42 76 43 70 44
REMARK SMILES IDX 69 45 34 47 60 48 43 49 59 50 44 51 47 52 58 53 74 54 45 55
REMARK SMILES IDX 46 56 57 58 75 59 48 60 35 61 36 62 41 63 37 64 38 65 40 66
REMARK SMILES IDX 42 67 39 68 61 69 62 70 67 71 63 72 64 73 66 74 68 75 65 76
REMARK SMILES IDX 49 77 50 78 55 79 51 80 52 81 54 82 56 83 53 84
REMARK H PARENT 12 14 4 18 73 46 47 57
REMARK Flexibility Score: inf
ROOT
ATOM      1  C   UNL A   1      41.891  20.135  26.126  1.00  0.00     0.275 C 
ENDROOT
BRANCH   1   2
ATOM      2  O   UNL A   1      40.627  20.759  26.429  1.00  0.00    -0.458 OA
BRANCH   2   3
ATOM      3  C   UNL A   1      39.536  20.265  25.790  1.00  0.00     0.338 C 
ATOM      4  O   UNL A   1      39.375  19.129  25.380  1.00  0.00    -0.246 OA
BRANCH   3   5
ATOM      5  C   UNL A   1      38.485  21.305  25.734  1.00  0.00     0.062 A 
ATOM      6  C   UNL A   1      36.155  21.911  25.515  1.00  0.00     0.042 A 
ATOM      7  C   UNL A   1      36.504  23.263  25.629  1.00  0.00     0.026 A 
ATOM      8  C   UNL A   1      37.157  20.941  25.512  1.00  0.00     0.041 A 
ATOM      9  C   UNL A   1      37.829  23.630  25.865  1.00  0.00     0.003 A 
ATOM     10  C   UNL A   1      38.809  22.647  25.963  1.00  0.00     0.016 A 
BRANCH   6  11
ATOM     11  N   UNL A   1      34.784  21.598  25.466  1.00  0.00    -0.325 N 
ATOM     12  O   UNL A   1      34.232  21.623  27.733  1.00  0.00    -0.273 OA
ATOM     13  C   UNL A   1      33.923  21.524  26.547  1.00  0.00     0.243 C 
ATOM     14  H   UNL A   1      34.401  21.415  24.579  1.00  0.00     0.169 HD
BRANCH  13  15
ATOM     15  C   UNL A   1      32.481  21.188  26.171  1.00  0.00     0.216 C 
BRANCH  15  16
ATOM     16  N   UNL A   1      32.257  21.102  24.734  1.00  0.00    -0.340 N 
ATOM     17  C   UNL A   1      32.556  20.090  23.855  1.00  0.00     0.287 C 
ATOM     18  H   UNL A   1      31.825  21.890  24.332  1.00  0.00     0.164 HD
ATOM     19  O   UNL A   1      32.516  20.383  22.659  1.00  0.00    -0.266 OA
BRANCH  17  20
ATOM     20  C   UNL A   1      32.931  18.784  24.351  1.00  0.00     0.191 A 
ATOM     21  C   UNL A   1      34.116  18.069  24.364  1.00  0.00     0.056 A 
ATOM     22  O   UNL A   1      31.966  18.050  24.992  1.00  0.00    -0.459 OA
ATOM     23  C   UNL A   1      33.846  16.828  24.988  1.00  0.00     0.043 A 
ATOM     24  C   UNL A   1      32.525  16.872  25.362  1.00  0.00     0.196 A 
ENDBRANCH  17  20
ENDBRANCH  15  16
ENDBRANCH  13  15
ENDBRANCH   6  11
ENDBRANCH   3   5
ENDBRANCH   2   3
ENDBRANCH   1   2
BRANCH   1  25
ATOM     25  C   UNL A   1      42.942  21.186  25.776  1.00  0.00     0.275 C 
BRANCH  25  26
ATOM     26  O   UNL A   1      42.286  22.417  25.423  1.00  0.00    -0.458 OA
BRANCH  26  27
ATOM     27  C   UNL A   1      43.078  23.508  25.338  1.00  0.00     0.338 C 
ATOM     28  O   UNL A   1      44.029  23.694  24.604  1.00  0.00    -0.246 OA
BRANCH  27  29
ATOM     29  C   UNL A   1      42.584  24.522  26.283  1.00  0.00     0.060 A 
ATOM     30  C   UNL A   1      43.066  25.823  26.181  1.00  0.00     0.016 A 
ATOM     31  C   UNL A   1      41.738  24.168  27.330  1.00  0.00     0.016 A 
ATOM     32  C   UNL A   1      42.779  26.763  27.165  1.00  0.00     0.010 A 
ATOM     33  C   UNL A   1      41.367  25.142  28.264  1.00  0.00     0.010 A 
ATOM     34  C   UNL A   1      41.906  26.442  28.210  1.00  0.00    -0.014 A 
BRANCH  34  35
ATOM     35  C   UNL A   1      41.579  27.446  29.258  1.00  0.00     0.031 A 
ATOM     36  C   UNL A   1      42.385  27.493  30.527  1.00  0.00     0.074 A 
ATOM     37  C   UNL A   1      40.564  28.316  29.085  1.00  0.00     0.049 A 
ATOM     38  N   UNL A   1      42.129  28.116  31.650  1.00  0.00    -0.248 NA
ATOM     39  C   UNL A   1      43.641  26.727  30.540  1.00  0.00     0.031 C 
ATOM     40  C   UNL A   1      39.735  28.432  27.883  1.00  0.00     0.029 A 
ATOM     41  N   UNL A   1      40.052  29.272  29.930  1.00  0.00    -0.354 N 
ATOM     42  C   UNL A   1      43.151  27.761  32.521  1.00  0.00     0.074 A 
ATOM     43  C   UNL A   1      44.038  26.877  31.795  1.00  0.00     0.031 C 
ATOM     44  C   UNL A   1      38.840  29.415  28.056  1.00  0.00     0.029 A 
ATOM     45  C   UNL A   1      38.965  29.935  29.413  1.00  0.00     0.049 A 
ATOM     46  H   UNL A   1      40.427  29.462  30.820  1.00  0.00     0.167 HD
ATOM     47  C   UNL A   1      43.326  28.135  33.810  1.00  0.00     0.037 A 
ATOM     48  C   UNL A   1      38.126  30.822  29.980  1.00  0.00     0.037 A 
ATOM     49  C   UNL A   1      42.475  29.062  34.509  1.00  0.00     0.049 A 
ATOM     50  C   UNL A   1      38.320  31.198  31.420  1.00  0.00     0.074 A 
ATOM     51  C   UNL A   1      42.577  29.514  35.812  1.00  0.00     0.029 A 
ATOM     52  N   UNL A   1      41.374  29.694  33.950  1.00  0.00    -0.354 N 
ATOM     53  N   UNL A   1      39.247  30.801  32.258  1.00  0.00    -0.248 NA
ATOM     54  C   UNL A   1      37.339  32.124  32.002  1.00  0.00     0.031 C 
ATOM     55  C   UNL A   1      41.520  30.400  36.052  1.00  0.00     0.029 A 
ATOM     56  C   UNL A   1      40.783  30.527  34.885  1.00  0.00     0.049 A 
ATOM     57  H   UNL A   1      41.060  29.570  33.025  1.00  0.00     0.167 HD
ATOM     58  C   UNL A   1      38.968  31.436  33.460  1.00  0.00     0.074 A 
ATOM     59  C   UNL A   1      37.796  32.257  33.239  1.00  0.00     0.031 C 
ATOM     60  C   UNL A   1      39.623  31.343  34.644  1.00  0.00     0.037 A 
BRANCH  47  61
ATOM     61  C   UNL A   1      44.462  27.508  34.566  1.00  0.00     0.057 A 
ATOM     62  C   UNL A   1      45.706  28.135  34.700  1.00  0.00     0.134 A 
ATOM     63  C   UNL A   1      44.289  26.269  35.197  1.00  0.00     0.134 A 
ATOM     64  F   UNL A   1      45.940  29.315  34.107  1.00  0.00    -0.206 F 
ATOM     65  C   UNL A   1      46.746  27.541  35.419  1.00  0.00     0.040 A 
ATOM     66  C   UNL A   1      45.313  25.677  35.938  1.00  0.00     0.040 A 
ATOM     67  F   UNL A   1      43.119  25.618  35.110  1.00  0.00    -0.206 F 
ATOM     68  C   UNL A   1      46.548  26.311  36.046  1.00  0.00     0.006 A 
ENDBRANCH  47  61
BRANCH  48  69
ATOM     69  C   UNL A   1      36.993  31.372  29.196  1.00  0.00     0.057 A 
ATOM     70  C   UNL A   1      35.858  30.599  28.925  1.00  0.00     0.134 A 
ATOM     71  C   UNL A   1      37.011  32.685  28.708  1.00  0.00     0.134 A 
ATOM     72  F   UNL A   1      35.793  29.326  29.343  1.00  0.00    -0.206 F 
ATOM     73  C   UNL A   1      34.784  31.111  28.194  1.00  0.00     0.040 A 
ATOM     74  C   UNL A   1      35.933  33.218  28.000  1.00  0.00     0.040 A 
ATOM     75  F   UNL A   1      38.070  33.477  28.934  1.00  0.00    -0.206 F 
ATOM     76  C   UNL A   1      34.817  32.427  27.737  1.00  0.00     0.006 A 
ENDBRANCH  48  69
BRANCH  60  77
ATOM     77  C   UNL A   1      39.105  32.176  35.776  1.00  0.00     0.057 A 
ATOM     78  C   UNL A   1      38.224  31.655  36.732  1.00  0.00     0.134 A 
ATOM     79  C   UNL A   1      39.526  33.502  35.934  1.00  0.00     0.134 A 
ATOM     80  F   UNL A   1      37.774  30.395  36.625  1.00  0.00    -0.206 F 
ATOM     81  C   UNL A   1      37.767  32.430  37.798  1.00  0.00     0.040 A 
ATOM     82  C   UNL A   1      39.092  34.280  37.007  1.00  0.00     0.040 A 
ATOM     83  F   UNL A   1      40.375  34.056  35.056  1.00  0.00    -0.206 F 
ATOM     84  C   UNL A   1      38.207  33.745  37.941  1.00  0.00     0.006 A 
ENDBRANCH  60  77
ENDBRANCH  34  35
ENDBRANCH  27  29
ENDBRANCH  26  27
ENDBRANCH  25  26
ENDBRANCH   1  25
TORSDOF 15
ENDMDL
MODEL 3
REMARK VINA RESULT:     -11.6      4.971      7.245
REMARK SMILES O=C(CNC(=O)c1ccco1)Nc1cccc(C(=O)OCCOC(=O)c2ccc(-c3c4nc(c(-c5c(F)cccc5F)c5ccc([nH]5)c(-c5c(F)cccc5F)c5nc(c(-c6c(F)cccc6F)c6ccc3[nH]6)C=C5)C=C4)cc2)c1
REMARK SMILES IDX 21 1 20 2 18 3 19 4 17 5 13 6 14 7 80 8 15 9 16 10 12 11
REMARK SMILES IDX 1 12 2 13 3 15 4 16 5 17 6 19 7 20 8 21 11 22 9 23 10 24
REMARK SMILES IDX 22 25 23 26 24 27 25 28 26 29 27 30 79 31 28 32 78 33 29 34
REMARK SMILES IDX 30 35 31 36 72 37 32 38 77 39 71 40 73 41 33 42 76 43 70 44
REMARK SMILES IDX 69 45 34 47 60 48 43 49 59 50 44 51 47 52 58 53 74 54 45 55
REMARK SMILES IDX 46 56 57 58 75 59 48 60 35 61 36 62 41 63 37 64 38 65 40 66
REMARK SMILES IDX 42 67 39 68 61 69 62 70 67 71 63 72 64 73 66 74 68 75 65 76
REMARK SMILES IDX 49 77 50 78 55 79 51 80 52 81 54 82 56 83 53 84
REMARK H PARENT 12 14 4 18 73 46 47 57
REMARK Flexibility Score: inf
ROOT
ATOM      1  C   UNL A   1      42.348  19.373  26.893  1.00  0.00     0.275 C 
ENDROOT
BRANCH   1   2
ATOM      2  O   UNL A   1      41.629  20.370  26.139  1.00  0.00    -0.458 OA
BRANCH   2   3
ATOM      3  C   UNL A   1      40.317  20.122  25.899  1.00  0.00     0.338 C 
ATOM      4  O   UNL A   1      39.797  19.039  25.695  1.00  0.00    -0.246 OA
BRANCH   3   5
ATOM      5  C   UNL A   1      39.549  21.382  26.010  1.00  0.00     0.062 A 
ATOM      6  C   UNL A   1      37.558  22.666  25.526  1.00  0.00     0.042 A 
ATOM      7  C   UNL A   1      38.100  23.755  26.221  1.00  0.00     0.026 A 
ATOM      8  C   UNL A   1      38.312  21.502  25.377  1.00  0.00     0.041 A 
ATOM      9  C   UNL A   1      39.330  23.634  26.868  1.00  0.00     0.003 A 
ATOM     10  C   UNL A   1      40.030  22.433  26.800  1.00  0.00     0.016 A 
BRANCH   6  11
ATOM     11  N   UNL A   1      36.237  22.790  25.057  1.00  0.00    -0.325 N 
ATOM     12  O   UNL A   1      36.586  22.966  22.758  1.00  0.00    -0.273 OA
ATOM     13  C   UNL A   1      35.843  22.880  23.734  1.00  0.00     0.243 C 
ATOM     14  H   UNL A   1      35.525  22.813  25.736  1.00  0.00     0.169 HD
BRANCH  13  15
ATOM     15  C   UNL A   1      34.331  22.978  23.540  1.00  0.00     0.216 C 
BRANCH  15  16
ATOM     16  N   UNL A   1      33.583  22.996  24.790  1.00  0.00    -0.340 N 
ATOM     17  C   UNL A   1      32.927  21.977  25.439  1.00  0.00     0.287 C 
ATOM     18  H   UNL A   1      33.540  23.871  25.238  1.00  0.00     0.164 HD
ATOM     19  O   UNL A   1      32.145  22.318  26.327  1.00  0.00    -0.266 OA
BRANCH  17  20
ATOM     20  C   UNL A   1      33.143  20.604  25.040  1.00  0.00     0.191 A 
ATOM     21  C   UNL A   1      34.274  19.848  24.783  1.00  0.00     0.056 A 
ATOM     22  O   UNL A   1      32.037  19.806  24.898  1.00  0.00    -0.459 OA
ATOM     23  C   UNL A   1      33.833  18.553  24.417  1.00  0.00     0.043 A 
ATOM     24  C   UNL A   1      32.463  18.578  24.514  1.00  0.00     0.196 A 
ENDBRANCH  17  20
ENDBRANCH  15  16
ENDBRANCH  13  15
ENDBRANCH   6  11
ENDBRANCH   3   5
ENDBRANCH   2   3
ENDBRANCH   1   2
BRANCH   1  25
ATOM     25  C   UNL A   1      43.185  18.494  25.965  1.00  0.00     0.275 C 
BRANCH  25  26
ATOM     26  O   UNL A   1      43.378  19.173  24.711  1.00  0.00    -0.458 OA
BRANCH  26  27
ATOM     27  C   UNL A   1      44.658  19.434  24.369  1.00  0.00     0.338 C 
ATOM     28  O   UNL A   1      45.480  18.677  23.890  1.00  0.00    -0.246 OA
BRANCH  27  29
ATOM     29  C   UNL A   1      44.935  20.855  24.633  1.00  0.00     0.060 A 
ATOM     30  C   UNL A   1      45.557  21.205  25.828  1.00  0.00     0.016 A 
ATOM     31  C   UNL A   1      44.488  21.843  23.761  1.00  0.00     0.016 A 
ATOM     32  C   UNL A   1      45.663  22.538  26.206  1.00  0.00     0.010 A 
ATOM     33  C   UNL A   1      44.687  23.187  24.095  1.00  0.00     0.010 A 
ATOM     34  C   UNL A   1      45.250  23.551  25.334  1.00  0.00    -0.014 A 
BRANCH  34  35
ATOM     35  C   UNL A   1      45.375  24.982  25.722  1.00  0.00     0.031 A 
ATOM     36  C   UNL A   1      46.693  25.689  25.566  1.00  0.00     0.074 A 
ATOM     37  C   UNL A   1      44.317  25.656  26.216  1.00  0.00     0.049 A 
ATOM     38  N   UNL A   1      47.080  26.841  26.052  1.00  0.00    -0.248 NA
ATOM     39  C   UNL A   1      47.720  25.001  24.766  1.00  0.00     0.031 C 
ATOM     40  C   UNL A   1      42.961  25.122  26.366  1.00  0.00     0.029 A 
ATOM     41  N   UNL A   1      44.218  26.942  26.690  1.00  0.00    -0.354 N 
ATOM     42  C   UNL A   1      48.410  26.983  25.677  1.00  0.00     0.074 A 
ATOM     43  C   UNL A   1      48.762  25.805  24.915  1.00  0.00     0.031 C 
ATOM     44  C   UNL A   1      42.164  26.077  26.868  1.00  0.00     0.029 A 
ATOM     45  C   UNL A   1      42.968  27.256  27.167  1.00  0.00     0.049 A 
ATOM     46  H   UNL A   1      44.970  27.576  26.688  1.00  0.00     0.167 HD
ATOM     47  C   UNL A   1      49.259  28.002  25.953  1.00  0.00     0.037 A 
ATOM     48  C   UNL A   1      42.526  28.347  27.821  1.00  0.00     0.037 A 
ATOM     49  C   UNL A   1      48.886  29.199  26.660  1.00  0.00     0.049 A 
ATOM     50  C   UNL A   1      43.492  29.450  28.144  1.00  0.00     0.074 A 
ATOM     51  C   UNL A   1      49.670  30.293  26.978  1.00  0.00     0.029 A 
ATOM     52  N   UNL A   1      47.612  29.464  27.141  1.00  0.00    -0.354 N 
ATOM     53  N   UNL A   1      44.766  29.543  27.850  1.00  0.00    -0.248 NA
ATOM     54  C   UNL A   1      42.966  30.587  28.911  1.00  0.00     0.031 C 
ATOM     55  C   UNL A   1      48.877  31.211  27.677  1.00  0.00     0.029 A 
ATOM     56  C   UNL A   1      47.591  30.702  27.761  1.00  0.00     0.049 A 
ATOM     57  H   UNL A   1      46.838  28.862  27.055  1.00  0.00     0.167 HD
ATOM     58  C   UNL A   1      45.191  30.751  28.385  1.00  0.00     0.074 A 
ATOM     59  C   UNL A   1      44.036  31.364  29.007  1.00  0.00     0.031 C 
ATOM     60  C   UNL A   1      46.430  31.300  28.366  1.00  0.00     0.037 A 
BRANCH  47  61
ATOM     61  C   UNL A   1      50.688  27.848  25.524  1.00  0.00     0.057 A 
ATOM     62  C   UNL A   1      51.701  27.475  26.415  1.00  0.00     0.134 A 
ATOM     63  C   UNL A   1      51.046  28.045  24.183  1.00  0.00     0.134 A 
ATOM     64  F   UNL A   1      51.426  27.287  27.715  1.00  0.00    -0.206 F 
ATOM     65  C   UNL A   1      53.023  27.324  25.993  1.00  0.00     0.040 A 
ATOM     66  C   UNL A   1      52.360  27.874  23.745  1.00  0.00     0.040 A 
ATOM     67  F   UNL A   1      50.123  28.400  23.277  1.00  0.00    -0.206 F 
ATOM     68  C   UNL A   1      53.354  27.518  24.653  1.00  0.00     0.006 A 
ENDBRANCH  47  61
BRANCH  48  69
ATOM     69  C   UNL A   1      41.111  28.420  28.262  1.00  0.00     0.057 A 
ATOM     70  C   UNL A   1      40.113  28.905  27.411  1.00  0.00     0.134 A 
ATOM     71  C   UNL A   1      40.721  27.996  29.538  1.00  0.00     0.134 A 
ATOM     72  F   UNL A   1      40.428  29.351  26.185  1.00  0.00    -0.206 F 
ATOM     73  C   UNL A   1      38.777  28.970  27.814  1.00  0.00     0.040 A 
ATOM     74  C   UNL A   1      39.387  28.029  29.945  1.00  0.00     0.040 A 
ATOM     75  F   UNL A   1      41.631  27.520  30.402  1.00  0.00    -0.206 F 
ATOM     76  C   UNL A   1      38.411  28.522  29.082  1.00  0.00     0.006 A 
ENDBRANCH  48  69
BRANCH  60  77
ATOM     77  C   UNL A   1      46.589  32.644  29.007  1.00  0.00     0.057 A 
ATOM     78  C   UNL A   1      46.376  33.831  28.294  1.00  0.00     0.134 A 
ATOM     79  C   UNL A   1      46.922  32.751  30.364  1.00  0.00     0.134 A 
ATOM     80  F   UNL A   1      46.070  33.793  26.988  1.00  0.00    -0.206 F 
ATOM     81  C   UNL A   1      46.501  35.078  28.906  1.00  0.00     0.040 A 
ATOM     82  C   UNL A   1      47.030  33.992  30.990  1.00  0.00     0.040 A 
ATOM     83  F   UNL A   1      47.132  31.651  31.101  1.00  0.00    -0.206 F 
ATOM     84  C   UNL A   1      46.824  35.161  30.260  1.00  0.00     0.006 A 
ENDBRANCH  60  77
ENDBRANCH  34  35
ENDBRANCH  27  29
ENDBRANCH  26  27
ENDBRANCH  25  26
ENDBRANCH   1  25
TORSDOF 15
ENDMDL
