MODEL 1
REMARK VINA RESULT:     -11.0      0.000      0.000
REMARK SMILES CC[C@@H](C)S(=O)(=O)c1cc(C(=O)OCCOC(=O)c2ccc(-c3c4nc(c(-c5c(F)cccc5F)c5ccc([nH]5)c(-c5c(F)cccc5F)c5nc(c(-c6c(F)cccc6F)c6ccc3[nH]6)C=C5)C=C4)cc2)c(C)cc1C
REMARK SMILES IDX 14 1 13 2 11 3 12 4 10 5 8 6 9 7 76 8 75 9 77 10 73 11 74 12
REMARK SMILES IDX 5 13 6 14 7 15 3 16 4 17 2 18 1 19 15 20 16 21 17 22 18 23
REMARK SMILES IDX 19 24 20 25 72 26 21 27 71 28 22 29 23 30 24 31 65 32 25 33
REMARK SMILES IDX 70 34 64 35 66 36 26 37 69 38 63 39 62 40 27 42 53 43 36 44
REMARK SMILES IDX 52 45 37 46 40 47 51 48 67 49 38 50 39 51 50 53 68 54 41 55
REMARK SMILES IDX 28 56 29 57 34 58 30 59 31 60 33 61 35 62 32 63 54 64 55 65
REMARK SMILES IDX 60 66 56 67 57 68 59 69 61 70 58 71 42 72 43 73 48 74 44 75
REMARK SMILES IDX 45 76 47 77 49 78 46 79
REMARK H PARENT 66 41 40 52
REMARK Flexibility Score: inf
ROOT
ATOM      1  C   UNL A   1      35.098  20.719  24.614  1.00  0.00     0.275 C 
ENDROOT
BRANCH   1   2
ATOM      2  O   UNL A   1      34.084  20.232  25.520  1.00  0.00    -0.458 OA
BRANCH   2   3
ATOM      3  C   UNL A   1      32.849  20.064  24.993  1.00  0.00     0.338 C 
ATOM      4  O   UNL A   1      32.194  19.034  24.974  1.00  0.00    -0.246 OA
BRANCH   3   5
ATOM      5  C   UNL A   1      32.291  21.344  24.493  1.00  0.00     0.064 A 
ATOM      6  C   UNL A   1      31.444  23.550  25.153  1.00  0.00     0.071 A 
ATOM      7  C   UNL A   1      32.062  22.330  25.465  1.00  0.00     0.036 A 
ATOM      8  C   UNL A   1      31.016  23.792  23.841  1.00  0.00    -0.032 A 
ATOM      9  C   UNL A   1      31.280  22.805  22.866  1.00  0.00     0.009 A 
ATOM     10  C   UNL A   1      30.323  25.045  23.387  1.00  0.00     0.046 C 
ATOM     11  C   UNL A   1      31.907  21.578  23.168  1.00  0.00    -0.036 A 
ATOM     12  C   UNL A   1      32.088  20.598  22.044  1.00  0.00     0.045 C 
BRANCH   6  13
ATOM     13  S   UNL A   1      31.368  24.756  26.483  1.00  0.00     0.181 S 
ATOM     14  O   UNL A   1      31.750  24.103  27.720  1.00  0.00    -0.223 OA
ATOM     15  O   UNL A   1      30.053  25.366  26.388  1.00  0.00    -0.223 OA
BRANCH  13  16
ATOM     16  C   UNL A   1      32.607  26.017  26.114  1.00  0.00     0.110 C 
ATOM     17  C   UNL A   1      31.978  27.373  25.801  1.00  0.00     0.025 C 
BRANCH  16  18
ATOM     18  C   UNL A   1      33.588  25.549  25.031  1.00  0.00     0.016 C 
ATOM     19  C   UNL A   1      34.789  24.796  25.584  1.00  0.00     0.005 C 
ENDBRANCH  16  18
ENDBRANCH  13  16
ENDBRANCH   6  13
ENDBRANCH   3   5
ENDBRANCH   2   3
ENDBRANCH   1   2
BRANCH   1  20
ATOM     20  C   UNL A   1      36.464  20.155  24.988  1.00  0.00     0.275 C 
BRANCH  20  21
ATOM     21  O   UNL A   1      37.349  21.250  25.282  1.00  0.00    -0.458 OA
BRANCH  21  22
ATOM     22  C   UNL A   1      38.579  20.915  25.730  1.00  0.00     0.338 C 
ATOM     23  O   UNL A   1      39.149  19.840  25.624  1.00  0.00    -0.246 OA
BRANCH  22  24
ATOM     24  C   UNL A   1      39.191  22.093  26.363  1.00  0.00     0.060 A 
ATOM     25  C   UNL A   1      38.648  23.350  26.115  1.00  0.00     0.016 A 
ATOM     26  C   UNL A   1      40.369  21.975  27.099  1.00  0.00     0.016 A 
ATOM     27  C   UNL A   1      39.338  24.494  26.503  1.00  0.00     0.010 A 
ATOM     28  C   UNL A   1      40.999  23.129  27.583  1.00  0.00     0.010 A 
ATOM     29  C   UNL A   1      40.517  24.409  27.253  1.00  0.00    -0.014 A 
BRANCH  29  30
ATOM     30  C   UNL A   1      41.275  25.643  27.626  1.00  0.00     0.031 A 
ATOM     31  C   UNL A   1      40.632  26.685  28.508  1.00  0.00     0.074 A 
ATOM     32  C   UNL A   1      42.545  25.841  27.216  1.00  0.00     0.049 A 
ATOM     33  N   UNL A   1      41.009  27.917  28.751  1.00  0.00    -0.248 NA
ATOM     34  C   UNL A   1      39.387  26.297  29.189  1.00  0.00     0.031 C 
ATOM     35  C   UNL A   1      43.340  24.905  26.418  1.00  0.00     0.029 A 
ATOM     36  N   UNL A   1      43.397  26.899  27.425  1.00  0.00    -0.354 N 
ATOM     37  C   UNL A   1      40.010  28.471  29.543  1.00  0.00     0.074 A 
ATOM     38  C   UNL A   1      39.014  27.440  29.747  1.00  0.00     0.031 C 
ATOM     39  C   UNL A   1      44.574  25.404  26.254  1.00  0.00     0.029 A 
ATOM     40  C   UNL A   1      44.630  26.738  26.840  1.00  0.00     0.049 A 
ATOM     41  H   UNL A   1      43.148  27.698  27.944  1.00  0.00     0.167 HD
ATOM     42  C   UNL A   1      39.927  29.725  30.048  1.00  0.00     0.037 A 
ATOM     43  C   UNL A   1      45.675  27.583  26.738  1.00  0.00     0.037 A 
ATOM     44  C   UNL A   1      40.961  30.721  29.930  1.00  0.00     0.049 A 
ATOM     45  C   UNL A   1      45.560  28.974  27.291  1.00  0.00     0.074 A 
ATOM     46  C   UNL A   1      40.977  32.014  30.426  1.00  0.00     0.029 A 
ATOM     47  N   UNL A   1      42.177  30.523  29.294  1.00  0.00    -0.354 N 
ATOM     48  N   UNL A   1      44.566  29.523  27.946  1.00  0.00    -0.248 NA
ATOM     49  C   UNL A   1      46.698  29.875  27.060  1.00  0.00     0.031 C 
ATOM     50  C   UNL A   1      42.192  32.607  30.068  1.00  0.00     0.029 A 
ATOM     51  C   UNL A   1      42.948  31.672  29.380  1.00  0.00     0.049 A 
ATOM     52  H   UNL A   1      42.453  29.691  28.849  1.00  0.00     0.167 HD
ATOM     53  C   UNL A   1      44.960  30.828  28.208  1.00  0.00     0.074 A 
ATOM     54  C   UNL A   1      46.292  30.984  27.663  1.00  0.00     0.031 C 
ATOM     55  C   UNL A   1      44.273  31.813  28.835  1.00  0.00     0.037 A 
BRANCH  42  56
ATOM     56  C   UNL A   1      38.655  30.110  30.745  1.00  0.00     0.057 A 
ATOM     57  C   UNL A   1      38.477  29.958  32.125  1.00  0.00     0.134 A 
ATOM     58  C   UNL A   1      37.600  30.676  30.016  1.00  0.00     0.134 A 
ATOM     59  F   UNL A   1      39.444  29.413  32.880  1.00  0.00    -0.206 F 
ATOM     60  C   UNL A   1      37.285  30.330  32.751  1.00  0.00     0.040 A 
ATOM     61  C   UNL A   1      36.414  31.075  30.634  1.00  0.00     0.040 A 
ATOM     62  F   UNL A   1      37.709  30.859  28.692  1.00  0.00    -0.206 F 
ATOM     63  C   UNL A   1      36.252  30.896  32.006  1.00  0.00     0.006 A 
ENDBRANCH  42  56
BRANCH  43  64
ATOM     64  C   UNL A   1      46.909  27.152  26.033  1.00  0.00     0.057 A 
ATOM     65  C   UNL A   1      47.950  26.521  26.723  1.00  0.00     0.134 A 
ATOM     66  C   UNL A   1      47.075  27.353  24.658  1.00  0.00     0.134 A 
ATOM     67  F   UNL A   1      47.862  26.325  28.047  1.00  0.00    -0.206 F 
ATOM     68  C   UNL A   1      49.114  26.109  26.071  1.00  0.00     0.040 A 
ATOM     69  C   UNL A   1      48.220  26.921  23.988  1.00  0.00     0.040 A 
ATOM     70  F   UNL A   1      46.114  27.954  23.940  1.00  0.00    -0.206 F 
ATOM     71  C   UNL A   1      49.246  26.300  24.696  1.00  0.00     0.006 A 
ENDBRANCH  43  64
BRANCH  55  72
ATOM     72  C   UNL A   1      44.961  33.137  28.986  1.00  0.00     0.057 A 
ATOM     73  C   UNL A   1      44.785  34.166  28.054  1.00  0.00     0.134 A 
ATOM     74  C   UNL A   1      45.786  33.391  30.088  1.00  0.00     0.134 A 
ATOM     75  F   UNL A   1      44.019  33.978  26.969  1.00  0.00    -0.206 F 
ATOM     76  C   UNL A   1      45.423  35.399  28.202  1.00  0.00     0.040 A 
ATOM     77  C   UNL A   1      46.413  34.627  30.258  1.00  0.00     0.040 A 
ATOM     78  F   UNL A   1      45.991  32.448  31.019  1.00  0.00    -0.206 F 
ATOM     79  C   UNL A   1      46.236  35.633  29.310  1.00  0.00     0.006 A 
ENDBRANCH  55  72
ENDBRANCH  29  30
ENDBRANCH  22  24
ENDBRANCH  21  22
ENDBRANCH  20  21
ENDBRANCH   1  20
TORSDOF 14
ENDMDL
MODEL 2
REMARK VINA RESULT:     -11.0      3.793      8.704
REMARK SMILES CC[C@@H](C)S(=O)(=O)c1cc(C(=O)OCCOC(=O)c2ccc(-c3c4nc(c(-c5c(F)cccc5F)c5ccc([nH]5)c(-c5c(F)cccc5F)c5nc(c(-c6c(F)cccc6F)c6ccc3[nH]6)C=C5)C=C4)cc2)c(C)cc1C
REMARK SMILES IDX 14 1 13 2 11 3 12 4 10 5 8 6 9 7 76 8 75 9 77 10 73 11 74 12
REMARK SMILES IDX 5 13 6 14 7 15 3 16 4 17 2 18 1 19 15 20 16 21 17 22 18 23
REMARK SMILES IDX 19 24 20 25 72 26 21 27 71 28 22 29 23 30 24 31 65 32 25 33
REMARK SMILES IDX 70 34 64 35 66 36 26 37 69 38 63 39 62 40 27 42 53 43 36 44
REMARK SMILES IDX 52 45 37 46 40 47 51 48 67 49 38 50 39 51 50 53 68 54 41 55
REMARK SMILES IDX 28 56 29 57 34 58 30 59 31 60 33 61 35 62 32 63 54 64 55 65
REMARK SMILES IDX 60 66 56 67 57 68 59 69 61 70 58 71 42 72 43 73 48 74 44 75
REMARK SMILES IDX 45 76 47 77 49 78 46 79
REMARK H PARENT 66 41 40 52
REMARK Flexibility Score: inf
ROOT
ATOM      1  C   UNL A   1      31.525  28.577  24.760  1.00  0.00     0.275 C 
ENDROOT
BRANCH   1   2
ATOM      2  O   UNL A   1      32.233  27.565  25.509  1.00  0.00    -0.458 OA
BRANCH   2   3
ATOM      3  C   UNL A   1      31.466  26.629  26.113  1.00  0.00     0.338 C 
ATOM      4  O   UNL A   1      30.712  26.797  27.058  1.00  0.00    -0.246 OA
BRANCH   3   5
ATOM      5  C   UNL A   1      31.558  25.319  25.423  1.00  0.00     0.064 A 
ATOM      6  C   UNL A   1      32.880  23.264  25.202  1.00  0.00     0.071 A 
ATOM      7  C   UNL A   1      32.609  24.486  25.835  1.00  0.00     0.036 A 
ATOM      8  C   UNL A   1      32.101  22.866  24.108  1.00  0.00    -0.032 A 
ATOM      9  C   UNL A   1      31.027  23.698  23.721  1.00  0.00     0.009 A 
ATOM     10  C   UNL A   1      32.305  21.596  23.332  1.00  0.00     0.046 C 
ATOM     11  C   UNL A   1      30.743  24.926  24.356  1.00  0.00    -0.036 A 
ATOM     12  C   UNL A   1      29.597  25.734  23.817  1.00  0.00     0.045 C 
BRANCH   6  13
ATOM     13  S   UNL A   1      34.162  22.255  25.954  1.00  0.00     0.181 S 
ATOM     14  O   UNL A   1      33.684  20.888  26.034  1.00  0.00    -0.223 OA
ATOM     15  O   UNL A   1      34.537  22.939  27.179  1.00  0.00    -0.223 OA
BRANCH  13  16
ATOM     16  C   UNL A   1      35.576  22.285  24.831  1.00  0.00     0.110 C 
ATOM     17  C   UNL A   1      36.508  21.094  25.040  1.00  0.00     0.025 C 
BRANCH  16  18
ATOM     18  C   UNL A   1      36.308  23.633  24.877  1.00  0.00     0.016 C 
ATOM     19  C   UNL A   1      37.567  23.612  25.734  1.00  0.00     0.005 C 
ENDBRANCH  16  18
ENDBRANCH  13  16
ENDBRANCH   6  13
ENDBRANCH   3   5
ENDBRANCH   2   3
ENDBRANCH   1   2
BRANCH   1  20
ATOM     20  C   UNL A   1      31.482  29.886  25.541  1.00  0.00     0.275 C 
BRANCH  20  21
ATOM     21  O   UNL A   1      32.829  30.351  25.735  1.00  0.00    -0.458 OA
BRANCH  21  22
ATOM     22  C   UNL A   1      33.026  31.178  26.785  1.00  0.00     0.338 C 
ATOM     23  O   UNL A   1      32.248  31.997  27.250  1.00  0.00    -0.246 OA
BRANCH  22  24
ATOM     24  C   UNL A   1      34.359  30.921  27.349  1.00  0.00     0.060 A 
ATOM     25  C   UNL A   1      34.731  29.610  27.627  1.00  0.00     0.016 A 
ATOM     26  C   UNL A   1      35.191  31.976  27.718  1.00  0.00     0.016 A 
ATOM     27  C   UNL A   1      35.879  29.356  28.372  1.00  0.00     0.010 A 
ATOM     28  C   UNL A   1      36.402  31.705  28.370  1.00  0.00     0.010 A 
ATOM     29  C   UNL A   1      36.742  30.394  28.747  1.00  0.00    -0.014 A 
BRANCH  29  30
ATOM     30  C   UNL A   1      37.949  30.115  29.586  1.00  0.00     0.031 A 
ATOM     31  C   UNL A   1      39.083  29.293  29.027  1.00  0.00     0.074 A 
ATOM     32  C   UNL A   1      38.066  30.611  30.836  1.00  0.00     0.049 A 
ATOM     33  N   UNL A   1      40.094  28.738  29.650  1.00  0.00    -0.248 NA
ATOM     34  C   UNL A   1      39.066  29.043  27.578  1.00  0.00     0.031 C 
ATOM     35  C   UNL A   1      37.097  31.480  31.505  1.00  0.00     0.029 A 
ATOM     36  N   UNL A   1      39.066  30.458  31.768  1.00  0.00    -0.354 N 
ATOM     37  C   UNL A   1      40.782  28.011  28.685  1.00  0.00     0.074 A 
ATOM     38  C   UNL A   1      40.079  28.201  27.434  1.00  0.00     0.031 C 
ATOM     39  C   UNL A   1      37.574  31.827  32.710  1.00  0.00     0.029 A 
ATOM     40  C   UNL A   1      38.828  31.123  32.947  1.00  0.00     0.049 A 
ATOM     41  H   UNL A   1      39.876  29.922  31.606  1.00  0.00     0.167 HD
ATOM     42  C   UNL A   1      41.894  27.250  28.830  1.00  0.00     0.037 A 
ATOM     43  C   UNL A   1      39.511  31.130  34.108  1.00  0.00     0.037 A 
ATOM     44  C   UNL A   1      42.650  27.138  30.050  1.00  0.00     0.049 A 
ATOM     45  C   UNL A   1      40.732  30.269  34.255  1.00  0.00     0.074 A 
ATOM     46  C   UNL A   1      43.802  26.407  30.289  1.00  0.00     0.029 A 
ATOM     47  N   UNL A   1      42.348  27.801  31.230  1.00  0.00    -0.354 N 
ATOM     48  N   UNL A   1      41.313  29.501  33.367  1.00  0.00    -0.248 NA
ATOM     49  C   UNL A   1      41.372  30.248  35.579  1.00  0.00     0.031 C 
ATOM     50  C   UNL A   1      44.182  26.607  31.620  1.00  0.00     0.029 A 
ATOM     51  C   UNL A   1      43.287  27.491  32.201  1.00  0.00     0.049 A 
ATOM     52  H   UNL A   1      41.581  28.403  31.358  1.00  0.00     0.167 HD
ATOM     53  C   UNL A   1      42.387  28.910  34.020  1.00  0.00     0.074 A 
ATOM     54  C   UNL A   1      42.392  29.426  35.372  1.00  0.00     0.031 C 
ATOM     55  C   UNL A   1      43.282  28.012  33.542  1.00  0.00     0.037 A 
BRANCH  42  56
ATOM     56  C   UNL A   1      42.341  26.442  27.647  1.00  0.00     0.057 A 
ATOM     57  C   UNL A   1      41.911  25.128  27.428  1.00  0.00     0.134 A 
ATOM     58  C   UNL A   1      43.194  27.011  26.692  1.00  0.00     0.134 A 
ATOM     59  F   UNL A   1      41.103  24.521  28.309  1.00  0.00    -0.206 F 
ATOM     60  C   UNL A   1      42.337  24.399  26.315  1.00  0.00     0.040 A 
ATOM     61  C   UNL A   1      43.606  26.302  25.562  1.00  0.00     0.040 A 
ATOM     62  F   UNL A   1      43.634  28.271  26.836  1.00  0.00    -0.206 F 
ATOM     63  C   UNL A   1      43.182  24.988  25.375  1.00  0.00     0.006 A 
ENDBRANCH  42  56
BRANCH  43  64
ATOM     64  C   UNL A   1      39.021  31.944  35.249  1.00  0.00     0.057 A 
ATOM     65  C   UNL A   1      38.242  31.373  36.261  1.00  0.00     0.134 A 
ATOM     66  C   UNL A   1      39.322  33.307  35.359  1.00  0.00     0.134 A 
ATOM     67  F   UNL A   1      37.897  30.078  36.197  1.00  0.00    -0.206 F 
ATOM     68  C   UNL A   1      37.777  32.127  37.339  1.00  0.00     0.040 A 
ATOM     69  C   UNL A   1      38.889  34.067  36.445  1.00  0.00     0.040 A 
ATOM     70  F   UNL A   1      40.063  33.915  34.420  1.00  0.00    -0.206 F 
ATOM     71  C   UNL A   1      38.110  33.477  37.439  1.00  0.00     0.006 A 
ENDBRANCH  43  64
BRANCH  55  72
ATOM     72  C   UNL A   1      44.354  27.550  34.483  1.00  0.00     0.057 A 
ATOM     73  C   UNL A   1      44.199  26.400  35.266  1.00  0.00     0.134 A 
ATOM     74  C   UNL A   1      45.563  28.250  34.588  1.00  0.00     0.134 A 
ATOM     75  F   UNL A   1      43.058  25.696  35.222  1.00  0.00    -0.206 F 
ATOM     76  C   UNL A   1      45.203  25.971  36.135  1.00  0.00     0.040 A 
ATOM     77  C   UNL A   1      46.582  27.818  35.439  1.00  0.00     0.040 A 
ATOM     78  F   UNL A   1      45.774  29.357  33.861  1.00  0.00    -0.206 F 
ATOM     79  C   UNL A   1      46.401  26.678  36.219  1.00  0.00     0.006 A 
ENDBRANCH  55  72
ENDBRANCH  29  30
ENDBRANCH  22  24
ENDBRANCH  21  22
ENDBRANCH  20  21
ENDBRANCH   1  20
TORSDOF 14
ENDMDL
MODEL 3
REMARK VINA RESULT:     -10.9      4.029      8.915
REMARK SMILES CC[C@@H](C)S(=O)(=O)c1cc(C(=O)OCCOC(=O)c2ccc(-c3c4nc(c(-c5c(F)cccc5F)c5ccc([nH]5)c(-c5c(F)cccc5F)c5nc(c(-c6c(F)cccc6F)c6ccc3[nH]6)C=C5)C=C4)cc2)c(C)cc1C
REMARK SMILES IDX 14 1 13 2 11 3 12 4 10 5 8 6 9 7 76 8 75 9 77 10 73 11 74 12
REMARK SMILES IDX 5 13 6 14 7 15 3 16 4 17 2 18 1 19 15 20 16 21 17 22 18 23
REMARK SMILES IDX 19 24 20 25 72 26 21 27 71 28 22 29 23 30 24 31 65 32 25 33
REMARK SMILES IDX 70 34 64 35 66 36 26 37 69 38 63 39 62 40 27 42 53 43 36 44
REMARK SMILES IDX 52 45 37 46 40 47 51 48 67 49 38 50 39 51 50 53 68 54 41 55
REMARK SMILES IDX 28 56 29 57 34 58 30 59 31 60 33 61 35 62 32 63 54 64 55 65
REMARK SMILES IDX 60 66 56 67 57 68 59 69 61 70 58 71 42 72 43 73 48 74 44 75
REMARK SMILES IDX 45 76 47 77 49 78 46 79
REMARK H PARENT 66 41 40 52
REMARK Flexibility Score: inf
ROOT
ATOM      1  C   UNL A   1      31.049  29.657  24.622  1.00  0.00     0.275 C 
ENDROOT
BRANCH   1   2
ATOM      2  O   UNL A   1      31.210  29.578  23.188  1.00  0.00    -0.458 OA
BRANCH   2   3
ATOM      3  C   UNL A   1      30.311  28.809  22.532  1.00  0.00     0.338 C 
ATOM      4  O   UNL A   1      29.517  29.174  21.681  1.00  0.00    -0.246 OA
BRANCH   3   5
ATOM      5  C   UNL A   1      30.448  27.378  22.898  1.00  0.00     0.064 A 
ATOM      6  C   UNL A   1      31.895  25.403  22.736  1.00  0.00     0.071 A 
ATOM      7  C   UNL A   1      31.664  26.773  22.545  1.00  0.00     0.036 A 
ATOM      8  C   UNL A   1      30.878  24.600  23.270  1.00  0.00    -0.032 A 
ATOM      9  C   UNL A   1      29.671  25.225  23.651  1.00  0.00     0.009 A 
ATOM     10  C   UNL A   1      30.993  23.120  23.501  1.00  0.00     0.046 C 
ATOM     11  C   UNL A   1      29.432  26.604  23.468  1.00  0.00    -0.036 A 
ATOM     12  C   UNL A   1      28.087  27.133  23.877  1.00  0.00     0.045 C 
BRANCH   6  13
ATOM     13  S   UNL A   1      33.557  24.826  22.372  1.00  0.00     0.181 S 
ATOM     14  O   UNL A   1      34.370  25.968  22.001  1.00  0.00    -0.223 OA
ATOM     15  O   UNL A   1      33.398  23.740  21.421  1.00  0.00    -0.223 OA
BRANCH  13  16
ATOM     16  C   UNL A   1      34.220  24.144  23.907  1.00  0.00     0.110 C 
ATOM     17  C   UNL A   1      34.403  25.212  24.983  1.00  0.00     0.025 C 
BRANCH  16  18
ATOM     18  C   UNL A   1      35.490  23.320  23.660  1.00  0.00     0.016 C 
ATOM     19  C   UNL A   1      35.509  21.995  24.409  1.00  0.00     0.005 C 
ENDBRANCH  16  18
ENDBRANCH  13  16
ENDBRANCH   6  13
ENDBRANCH   3   5
ENDBRANCH   2   3
ENDBRANCH   1   2
BRANCH   1  20
ATOM     20  C   UNL A   1      32.407  29.774  25.306  1.00  0.00     0.275 C 
BRANCH  20  21
ATOM     21  O   UNL A   1      32.199  30.098  26.691  1.00  0.00    -0.458 OA
BRANCH  21  22
ATOM     22  C   UNL A   1      32.706  31.279  27.107  1.00  0.00     0.338 C 
ATOM     23  O   UNL A   1      32.157  32.370  27.114  1.00  0.00    -0.246 OA
BRANCH  22  24
ATOM     24  C   UNL A   1      34.068  31.058  27.618  1.00  0.00     0.060 A 
ATOM     25  C   UNL A   1      34.501  29.755  27.840  1.00  0.00     0.016 A 
ATOM     26  C   UNL A   1      34.871  32.134  27.992  1.00  0.00     0.016 A 
ATOM     27  C   UNL A   1      35.683  29.524  28.536  1.00  0.00     0.010 A 
ATOM     28  C   UNL A   1      36.113  31.891  28.593  1.00  0.00     0.010 A 
ATOM     29  C   UNL A   1      36.517  30.583  28.916  1.00  0.00    -0.014 A 
BRANCH  29  30
ATOM     30  C   UNL A   1      37.763  30.328  29.704  1.00  0.00     0.031 A 
ATOM     31  C   UNL A   1      38.892  29.534  29.094  1.00  0.00     0.074 A 
ATOM     32  C   UNL A   1      37.920  30.819  30.951  1.00  0.00     0.049 A 
ATOM     33  N   UNL A   1      39.939  28.999  29.673  1.00  0.00    -0.248 NA
ATOM     34  C   UNL A   1      38.821  29.291  27.646  1.00  0.00     0.031 C 
ATOM     35  C   UNL A   1      36.959  31.663  31.664  1.00  0.00     0.029 A 
ATOM     36  N   UNL A   1      38.960  30.684  31.841  1.00  0.00    -0.354 N 
ATOM     37  C   UNL A   1      40.603  28.292  28.677  1.00  0.00     0.074 A 
ATOM     38  C   UNL A   1      39.846  28.473  27.456  1.00  0.00     0.031 C 
ATOM     39  C   UNL A   1      37.477  32.014  32.851  1.00  0.00     0.029 A 
ATOM     40  C   UNL A   1      38.755  31.337  33.032  1.00  0.00     0.049 A 
ATOM     41  H   UNL A   1      39.774  30.167  31.643  1.00  0.00     0.167 HD
ATOM     42  C   UNL A   1      41.736  27.556  28.772  1.00  0.00     0.037 A 
ATOM     43  C   UNL A   1      39.484  31.353  34.165  1.00  0.00     0.037 A 
ATOM     44  C   UNL A   1      42.544  27.454  29.960  1.00  0.00     0.049 A 
ATOM     45  C   UNL A   1      40.729  30.519  34.258  1.00  0.00     0.074 A 
ATOM     46  C   UNL A   1      43.720  26.747  30.148  1.00  0.00     0.029 A 
ATOM     47  N   UNL A   1      42.275  28.104  31.155  1.00  0.00    -0.354 N 
ATOM     48  N   UNL A   1      41.290  29.769  33.342  1.00  0.00    -0.248 NA
ATOM     49  C   UNL A   1      41.422  30.506  35.554  1.00  0.00     0.031 C 
ATOM     50  C   UNL A   1      44.149  26.949  31.464  1.00  0.00     0.029 A 
ATOM     51  C   UNL A   1      43.259  27.809  32.085  1.00  0.00     0.049 A 
ATOM     52  H   UNL A   1      41.501  28.688  31.318  1.00  0.00     0.167 HD
ATOM     53  C   UNL A   1      42.402  29.199  33.947  1.00  0.00     0.074 A 
ATOM     54  C   UNL A   1      42.450  29.708  35.302  1.00  0.00     0.031 C 
ATOM     55  C   UNL A   1      43.297  28.324  33.429  1.00  0.00     0.037 A 
BRANCH  42  56
ATOM     56  C   UNL A   1      42.153  26.764  27.567  1.00  0.00     0.057 A 
ATOM     57  C   UNL A   1      42.961  27.299  26.557  1.00  0.00     0.134 A 
ATOM     58  C   UNL A   1      41.758  25.425  27.437  1.00  0.00     0.134 A 
ATOM     59  F   UNL A   1      43.365  28.577  26.615  1.00  0.00    -0.206 F 
ATOM     60  C   UNL A   1      43.340  26.539  25.448  1.00  0.00     0.040 A 
ATOM     61  C   UNL A   1      42.151  24.647  26.347  1.00  0.00     0.040 A 
ATOM     62  F   UNL A   1      40.991  24.847  28.374  1.00  0.00    -0.206 F 
ATOM     63  C   UNL A   1      42.940  25.208  25.344  1.00  0.00     0.006 A 
ENDBRANCH  42  56
BRANCH  43  64
ATOM     64  C   UNL A   1      39.022  32.151  35.330  1.00  0.00     0.057 A 
ATOM     65  C   UNL A   1      39.353  33.505  35.453  1.00  0.00     0.134 A 
ATOM     66  C   UNL A   1      38.238  31.584  36.342  1.00  0.00     0.134 A 
ATOM     67  F   UNL A   1      40.125  34.098  34.530  1.00  0.00    -0.206 F 
ATOM     68  C   UNL A   1      38.923  34.265  36.542  1.00  0.00     0.040 A 
ATOM     69  C   UNL A   1      37.777  32.338  37.421  1.00  0.00     0.040 A 
ATOM     70  F   UNL A   1      37.889  30.289  36.283  1.00  0.00    -0.206 F 
ATOM     71  C   UNL A   1      38.124  33.684  37.525  1.00  0.00     0.006 A 
ENDBRANCH  43  64
BRANCH  55  72
ATOM     72  C   UNL A   1      44.416  27.881  34.323  1.00  0.00     0.057 A 
ATOM     73  C   UNL A   1      44.316  26.727  35.108  1.00  0.00     0.134 A 
ATOM     74  C   UNL A   1      45.614  28.604  34.379  1.00  0.00     0.134 A 
ATOM     75  F   UNL A   1      43.189  25.999  35.109  1.00  0.00    -0.206 F 
ATOM     76  C   UNL A   1      45.364  26.315  35.933  1.00  0.00     0.040 A 
ATOM     77  C   UNL A   1      46.676  28.191  35.186  1.00  0.00     0.040 A 
ATOM     78  F   UNL A   1      45.773  29.716  33.648  1.00  0.00    -0.206 F 
ATOM     79  C   UNL A   1      46.550  27.046  35.970  1.00  0.00     0.006 A 
ENDBRANCH  55  72
ENDBRANCH  29  30
ENDBRANCH  22  24
ENDBRANCH  21  22
ENDBRANCH  20  21
ENDBRANCH   1  20
TORSDOF 14
ENDMDL
