MODEL 1
REMARK VINA RESULT:     -12.4      0.000      0.000
REMARK SMILES Cc1cc(C(=O)OCCOC(=O)c2ccc(-c3c4nc(c(-c5c(F)cccc5F)c5ccc([nH]5)c(-c5c(F)cccc5F)c5nc(c(-c6c(F)cccc6F)c6ccc3[nH]6)C=C5)C=C4)cc2)ccc1NS(=O)(=O)c1c(F)cccc1F
REMARK SMILES IDX 8 1 7 2 5 3 6 4 4 5 1 6 2 7 3 8 69 9 68 10 67 11 70 12 71 14
REMARK SMILES IDX 72 15 73 16 74 17 75 18 80 19 76 20 77 21 79 22 81 23 78 24
REMARK SMILES IDX 9 25 10 26 11 27 12 28 13 29 14 30 66 31 15 32 65 33 16 34
REMARK SMILES IDX 17 35 18 36 59 37 19 38 64 39 58 40 60 41 20 42 63 43 57 44
REMARK SMILES IDX 56 45 21 47 47 48 30 49 46 50 31 51 34 52 45 53 61 54 32 55
REMARK SMILES IDX 33 56 44 58 62 59 35 60 22 61 23 62 28 63 24 64 25 65 27 66
REMARK SMILES IDX 29 67 26 68 48 69 49 70 54 71 50 72 51 73 53 74 55 75 52 76
REMARK SMILES IDX 36 77 37 78 42 79 38 80 39 81 41 82 43 83 40 84
REMARK H PARENT 70 13 60 46 34 57
REMARK Flexibility Score: inf
ROOT
ATOM      1  C   UNL A   1      33.200  29.400  27.512  1.00  0.00     0.275 C 
ENDROOT
BRANCH   1   2
ATOM      2  O   UNL A   1      32.022  29.130  26.745  1.00  0.00    -0.458 OA
BRANCH   2   3
ATOM      3  C   UNL A   1      32.304  28.708  25.484  1.00  0.00     0.338 C 
ATOM      4  O   UNL A   1      32.310  29.420  24.488  1.00  0.00    -0.246 OA
BRANCH   3   5
ATOM      5  C   UNL A   1      32.545  27.244  25.408  1.00  0.00     0.060 A 
ATOM      6  C   UNL A   1      34.798  24.671  23.783  1.00  0.00     0.046 C 
ATOM      7  C   UNL A   1      33.922  25.347  24.801  1.00  0.00    -0.026 A 
ATOM      8  C   UNL A   1      33.533  26.678  24.599  1.00  0.00     0.021 A 
ATOM      9  C   UNL A   1      33.402  24.674  25.918  1.00  0.00     0.052 A 
ATOM     10  C   UNL A   1      32.198  25.097  26.470  1.00  0.00     0.028 A 
ATOM     11  C   UNL A   1      31.787  26.408  26.239  1.00  0.00     0.018 A 
BRANCH   9  12
ATOM     12  N   UNL A   1      34.235  23.711  26.564  1.00  0.00    -0.279 N 
ATOM     13  H   UNL A   1      34.868  24.022  27.252  1.00  0.00     0.180 HD
BRANCH  12  14
ATOM     14  S   UNL A   1      34.185  22.052  26.201  1.00  0.00     0.267 S 
ATOM     15  O   UNL A   1      33.955  21.399  27.470  1.00  0.00    -0.201 OA
ATOM     16  O   UNL A   1      33.231  21.926  25.114  1.00  0.00    -0.201 OA
BRANCH  14  17
ATOM     17  C   UNL A   1      35.733  21.494  25.577  1.00  0.00     0.158 A 
ATOM     18  C   UNL A   1      35.809  20.196  25.079  1.00  0.00     0.146 A 
ATOM     19  C   UNL A   1      36.902  22.233  25.687  1.00  0.00     0.146 A 
ATOM     20  F   UNL A   1      34.705  19.476  24.840  1.00  0.00    -0.205 F 
ATOM     21  C   UNL A   1      37.039  19.600  24.805  1.00  0.00     0.041 A 
ATOM     22  C   UNL A   1      38.145  21.635  25.451  1.00  0.00     0.041 A 
ATOM     23  F   UNL A   1      36.883  23.514  26.081  1.00  0.00    -0.205 F 
ATOM     24  C   UNL A   1      38.217  20.307  25.030  1.00  0.00     0.006 A 
ENDBRANCH  14  17
ENDBRANCH  12  14
ENDBRANCH   9  12
ENDBRANCH   3   5
ENDBRANCH   2   3
ENDBRANCH   1   2
BRANCH   1  25
ATOM     25  C   UNL A   1      33.765  30.816  27.316  1.00  0.00     0.275 C 
BRANCH  25  26
ATOM     26  O   UNL A   1      35.181  31.042  27.546  1.00  0.00    -0.458 OA
BRANCH  26  27
ATOM     27  C   UNL A   1      35.878  30.971  28.706  1.00  0.00     0.338 C 
ATOM     28  O   UNL A   1      35.489  31.501  29.740  1.00  0.00    -0.246 OA
BRANCH  27  29
ATOM     29  C   UNL A   1      37.068  30.114  28.734  1.00  0.00     0.060 A 
ATOM     30  C   UNL A   1      37.191  29.182  29.774  1.00  0.00     0.016 A 
ATOM     31  C   UNL A   1      37.997  30.171  27.700  1.00  0.00     0.016 A 
ATOM     32  C   UNL A   1      38.190  28.214  29.718  1.00  0.00     0.010 A 
ATOM     33  C   UNL A   1      38.935  29.165  27.600  1.00  0.00     0.010 A 
ATOM     34  C   UNL A   1      39.043  28.198  28.614  1.00  0.00    -0.014 A 
BRANCH  34  35
ATOM     35  C   UNL A   1      40.296  27.456  28.610  1.00  0.00     0.031 A 
ATOM     36  C   UNL A   1      40.418  26.017  28.322  1.00  0.00     0.074 A 
ATOM     37  C   UNL A   1      41.359  28.241  28.877  1.00  0.00     0.049 A 
ATOM     38  N   UNL A   1      41.371  25.270  28.769  1.00  0.00    -0.248 NA
ATOM     39  C   UNL A   1      39.451  25.281  27.520  1.00  0.00     0.031 C 
ATOM     40  C   UNL A   1      42.777  27.958  28.779  1.00  0.00     0.029 A 
ATOM     41  N   UNL A   1      41.287  29.486  29.518  1.00  0.00    -0.354 N 
ATOM     42  C   UNL A   1      41.304  24.055  28.115  1.00  0.00     0.074 A 
ATOM     43  C   UNL A   1      40.034  24.078  27.426  1.00  0.00     0.031 C 
ATOM     44  C   UNL A   1      43.431  28.834  29.565  1.00  0.00     0.029 A 
ATOM     45  C   UNL A   1      42.425  29.582  30.315  1.00  0.00     0.049 A 
ATOM     46  H   UNL A   1      40.574  30.158  29.423  1.00  0.00     0.167 HD
ATOM     47  C   UNL A   1      42.403  23.242  28.099  1.00  0.00     0.037 A 
ATOM     48  C   UNL A   1      42.286  29.577  31.674  1.00  0.00     0.037 A 
ATOM     49  C   UNL A   1      43.488  23.853  28.863  1.00  0.00     0.049 A 
ATOM     50  C   UNL A   1      43.016  28.415  32.291  1.00  0.00     0.074 A 
ATOM     51  C   UNL A   1      44.526  24.678  28.461  1.00  0.00     0.029 A 
ATOM     52  N   UNL A   1      43.405  23.957  30.247  1.00  0.00    -0.354 N 
ATOM     53  N   UNL A   1      43.156  27.253  31.716  1.00  0.00    -0.248 NA
ATOM     54  C   UNL A   1      43.685  28.502  33.584  1.00  0.00     0.031 C 
ATOM     55  C   UNL A   1      45.002  25.363  29.604  1.00  0.00     0.029 A 
ATOM     56  C   UNL A   1      44.283  24.920  30.702  1.00  0.00     0.049 A 
ATOM     57  H   UNL A   1      42.807  23.422  30.818  1.00  0.00     0.167 HD
ATOM     58  C   UNL A   1      43.972  26.474  32.494  1.00  0.00     0.074 A 
ATOM     59  C   UNL A   1      44.257  27.290  33.660  1.00  0.00     0.031 C 
ATOM     60  C   UNL A   1      44.394  25.234  32.115  1.00  0.00     0.037 A 
BRANCH  47  61
ATOM     61  C   UNL A   1      42.630  22.097  27.126  1.00  0.00     0.057 A 
ATOM     62  C   UNL A   1      41.892  20.898  27.238  1.00  0.00     0.134 A 
ATOM     63  C   UNL A   1      43.586  22.084  26.096  1.00  0.00     0.134 A 
ATOM     64  F   UNL A   1      40.860  20.779  28.085  1.00  0.00    -0.206 F 
ATOM     65  C   UNL A   1      42.169  19.748  26.486  1.00  0.00     0.040 A 
ATOM     66  C   UNL A   1      43.901  20.928  25.360  1.00  0.00     0.040 A 
ATOM     67  F   UNL A   1      44.223  23.200  25.720  1.00  0.00    -0.206 F 
ATOM     68  C   UNL A   1      43.204  19.746  25.567  1.00  0.00     0.006 A 
ENDBRANCH  47  61
BRANCH  48  69
ATOM     69  C   UNL A   1      41.010  30.154  32.202  1.00  0.00     0.057 A 
ATOM     70  C   UNL A   1      40.760  31.534  32.063  1.00  0.00     0.134 A 
ATOM     71  C   UNL A   1      39.935  29.372  32.639  1.00  0.00     0.134 A 
ATOM     72  F   UNL A   1      41.737  32.359  31.653  1.00  0.00    -0.206 F 
ATOM     73  C   UNL A   1      39.493  32.094  32.266  1.00  0.00     0.040 A 
ATOM     74  C   UNL A   1      38.662  29.924  32.862  1.00  0.00     0.040 A 
ATOM     75  F   UNL A   1      40.070  28.048  32.800  1.00  0.00    -0.206 F 
ATOM     76  C   UNL A   1      38.432  31.282  32.652  1.00  0.00     0.006 A 
ENDBRANCH  48  69
BRANCH  60  77
ATOM     77  C   UNL A   1      45.075  24.253  33.025  1.00  0.00     0.057 A 
ATOM     78  C   UNL A   1      46.375  24.438  33.516  1.00  0.00     0.134 A 
ATOM     79  C   UNL A   1      44.366  23.163  33.572  1.00  0.00     0.134 A 
ATOM     80  F   UNL A   1      47.114  25.497  33.156  1.00  0.00    -0.206 F 
ATOM     81  C   UNL A   1      46.953  23.566  34.443  1.00  0.00     0.040 A 
ATOM     82  C   UNL A   1      44.914  22.317  34.537  1.00  0.00     0.040 A 
ATOM     83  F   UNL A   1      43.104  22.888  33.210  1.00  0.00    -0.206 F 
ATOM     84  C   UNL A   1      46.219  22.509  34.967  1.00  0.00     0.006 A 
ENDBRANCH  60  77
ENDBRANCH  34  35
ENDBRANCH  27  29
ENDBRANCH  26  27
ENDBRANCH  25  26
ENDBRANCH   1  25
TORSDOF 14
ENDMDL
MODEL 2
REMARK VINA RESULT:     -12.3      1.957      2.768
REMARK SMILES Cc1cc(C(=O)OCCOC(=O)c2ccc(-c3c4nc(c(-c5c(F)cccc5F)c5ccc([nH]5)c(-c5c(F)cccc5F)c5nc(c(-c6c(F)cccc6F)c6ccc3[nH]6)C=C5)C=C4)cc2)ccc1NS(=O)(=O)c1c(F)cccc1F
REMARK SMILES IDX 8 1 7 2 5 3 6 4 4 5 1 6 2 7 3 8 69 9 68 10 67 11 70 12 71 14
REMARK SMILES IDX 72 15 73 16 74 17 75 18 80 19 76 20 77 21 79 22 81 23 78 24
REMARK SMILES IDX 9 25 10 26 11 27 12 28 13 29 14 30 66 31 15 32 65 33 16 34
REMARK SMILES IDX 17 35 18 36 59 37 19 38 64 39 58 40 60 41 20 42 63 43 57 44
REMARK SMILES IDX 56 45 21 47 47 48 30 49 46 50 31 51 34 52 45 53 61 54 32 55
REMARK SMILES IDX 33 56 44 58 62 59 35 60 22 61 23 62 28 63 24 64 25 65 27 66
REMARK SMILES IDX 29 67 26 68 48 69 49 70 54 71 50 72 51 73 53 74 55 75 52 76
REMARK SMILES IDX 36 77 37 78 42 79 38 80 39 81 41 82 43 83 40 84
REMARK H PARENT 70 13 60 46 34 57
REMARK Flexibility Score: inf
ROOT
ATOM      1  C   UNL A   1      33.875  28.698  26.449  1.00  0.00     0.275 C 
ENDROOT
BRANCH   1   2
ATOM      2  O   UNL A   1      33.120  27.682  27.116  1.00  0.00    -0.458 OA
BRANCH   2   3
ATOM      3  C   UNL A   1      31.779  27.903  27.058  1.00  0.00     0.338 C 
ATOM      4  O   UNL A   1      31.081  28.246  28.002  1.00  0.00    -0.246 OA
BRANCH   3   5
ATOM      5  C   UNL A   1      31.208  27.617  25.717  1.00  0.00     0.060 A 
ATOM      6  C   UNL A   1      30.526  29.228  22.359  1.00  0.00     0.046 C 
ATOM      7  C   UNL A   1      30.867  28.187  23.388  1.00  0.00    -0.026 A 
ATOM      8  C   UNL A   1      31.115  28.581  24.709  1.00  0.00     0.021 A 
ATOM      9  C   UNL A   1      30.871  26.813  23.102  1.00  0.00     0.052 A 
ATOM     10  C   UNL A   1      30.604  25.903  24.119  1.00  0.00     0.028 A 
ATOM     11  C   UNL A   1      30.810  26.303  25.438  1.00  0.00     0.018 A 
BRANCH   9  12
ATOM     12  N   UNL A   1      31.349  26.398  21.822  1.00  0.00    -0.279 N 
ATOM     13  H   UNL A   1      30.717  26.380  21.067  1.00  0.00     0.180 HD
BRANCH  12  14
ATOM     14  S   UNL A   1      32.959  25.933  21.541  1.00  0.00     0.267 S 
ATOM     15  O   UNL A   1      32.928  25.226  20.280  1.00  0.00    -0.201 OA
ATOM     16  O   UNL A   1      33.741  27.146  21.697  1.00  0.00    -0.201 OA
BRANCH  14  17
ATOM     17  C   UNL A   1      33.518  24.813  22.777  1.00  0.00     0.158 A 
ATOM     18  C   UNL A   1      34.107  25.342  23.923  1.00  0.00     0.146 A 
ATOM     19  C   UNL A   1      33.526  23.437  22.600  1.00  0.00     0.146 A 
ATOM     20  F   UNL A   1      34.028  26.648  24.207  1.00  0.00    -0.205 F 
ATOM     21  C   UNL A   1      34.795  24.527  24.821  1.00  0.00     0.041 A 
ATOM     22  C   UNL A   1      34.245  22.612  23.475  1.00  0.00     0.041 A 
ATOM     23  F   UNL A   1      32.905  22.863  21.561  1.00  0.00    -0.205 F 
ATOM     24  C   UNL A   1      34.901  23.161  24.576  1.00  0.00     0.006 A 
ENDBRANCH  14  17
ENDBRANCH  12  14
ENDBRANCH   9  12
ENDBRANCH   3   5
ENDBRANCH   2   3
ENDBRANCH   1   2
BRANCH   1  25
ATOM     25  C   UNL A   1      33.885  30.053  27.175  1.00  0.00     0.275 C 
BRANCH  25  26
ATOM     26  O   UNL A   1      34.718  30.208  28.355  1.00  0.00    -0.458 OA
BRANCH  26  27
ATOM     27  C   UNL A   1      35.910  30.840  28.479  1.00  0.00     0.338 C 
ATOM     28  O   UNL A   1      35.998  32.053  28.627  1.00  0.00    -0.246 OA
BRANCH  27  29
ATOM     29  C   UNL A   1      37.115  30.009  28.568  1.00  0.00     0.060 A 
ATOM     30  C   UNL A   1      37.209  29.087  29.620  1.00  0.00     0.016 A 
ATOM     31  C   UNL A   1      38.090  30.078  27.578  1.00  0.00     0.016 A 
ATOM     32  C   UNL A   1      38.229  28.140  29.619  1.00  0.00     0.010 A 
ATOM     33  C   UNL A   1      39.052  29.091  27.529  1.00  0.00     0.010 A 
ATOM     34  C   UNL A   1      39.133  28.134  28.556  1.00  0.00    -0.014 A 
BRANCH  34  35
ATOM     35  C   UNL A   1      40.399  27.419  28.615  1.00  0.00     0.031 A 
ATOM     36  C   UNL A   1      40.576  25.996  28.279  1.00  0.00     0.074 A 
ATOM     37  C   UNL A   1      41.421  28.213  28.994  1.00  0.00     0.049 A 
ATOM     38  N   UNL A   1      41.510  25.250  28.765  1.00  0.00    -0.248 NA
ATOM     39  C   UNL A   1      39.689  25.275  27.376  1.00  0.00     0.031 C 
ATOM     40  C   UNL A   1      42.849  27.963  28.991  1.00  0.00     0.029 A 
ATOM     41  N   UNL A   1      41.272  29.427  29.678  1.00  0.00    -0.354 N 
ATOM     42  C   UNL A   1      41.521  24.062  28.059  1.00  0.00     0.074 A 
ATOM     43  C   UNL A   1      40.305  24.090  27.278  1.00  0.00     0.031 C 
ATOM     44  C   UNL A   1      43.421  28.818  29.859  1.00  0.00     0.029 A 
ATOM     45  C   UNL A   1      42.345  29.513  30.562  1.00  0.00     0.049 A 
ATOM     46  H   UNL A   1      40.553  30.089  29.557  1.00  0.00     0.167 HD
ATOM     47  C   UNL A   1      42.637  23.273  28.092  1.00  0.00     0.037 A 
ATOM     48  C   UNL A   1      42.106  29.447  31.905  1.00  0.00     0.037 A 
ATOM     49  C   UNL A   1      43.648  23.874  28.960  1.00  0.00     0.049 A 
ATOM     50  C   UNL A   1      42.815  28.275  32.527  1.00  0.00     0.074 A 
ATOM     51  C   UNL A   1      44.693  24.736  28.672  1.00  0.00     0.029 A 
ATOM     52  N   UNL A   1      43.459  23.917  30.337  1.00  0.00    -0.354 N 
ATOM     53  N   UNL A   1      43.024  27.141  31.917  1.00  0.00    -0.248 NA
ATOM     54  C   UNL A   1      43.383  28.321  33.869  1.00  0.00     0.031 C 
ATOM     55  C   UNL A   1      45.066  25.381  29.875  1.00  0.00     0.029 A 
ATOM     56  C   UNL A   1      44.279  24.877  30.896  1.00  0.00     0.049 A 
ATOM     57  H   UNL A   1      42.833  23.346  30.839  1.00  0.00     0.167 HD
ATOM     58  C   UNL A   1      43.798  26.347  32.721  1.00  0.00     0.074 A 
ATOM     59  C   UNL A   1      43.976  27.118  33.939  1.00  0.00     0.031 C 
ATOM     60  C   UNL A   1      44.276  25.133  32.325  1.00  0.00     0.037 A 
BRANCH  47  61
ATOM     61  C   UNL A   1      42.963  22.176  27.093  1.00  0.00     0.057 A 
ATOM     62  C   UNL A   1      42.281  20.940  27.132  1.00  0.00     0.134 A 
ATOM     63  C   UNL A   1      43.962  22.245  26.108  1.00  0.00     0.134 A 
ATOM     64  F   UNL A   1      41.220  20.742  27.927  1.00  0.00    -0.206 F 
ATOM     65  C   UNL A   1      42.646  19.831  26.355  1.00  0.00     0.040 A 
ATOM     66  C   UNL A   1      44.365  21.132  25.348  1.00  0.00     0.040 A 
ATOM     67  F   UNL A   1      44.559  23.403  25.798  1.00  0.00    -0.206 F 
ATOM     68  C   UNL A   1      43.720  19.912  25.485  1.00  0.00     0.006 A 
ENDBRANCH  47  61
BRANCH  48  69
ATOM     69  C   UNL A   1      40.781  29.975  32.359  1.00  0.00     0.057 A 
ATOM     70  C   UNL A   1      40.500  31.351  32.236  1.00  0.00     0.134 A 
ATOM     71  C   UNL A   1      39.701  29.152  32.702  1.00  0.00     0.134 A 
ATOM     72  F   UNL A   1      41.478  32.213  31.913  1.00  0.00    -0.206 F 
ATOM     73  C   UNL A   1      39.207  31.870  32.365  1.00  0.00     0.040 A 
ATOM     74  C   UNL A   1      38.402  29.663  32.852  1.00  0.00     0.040 A 
ATOM     75  F   UNL A   1      39.865  27.829  32.841  1.00  0.00    -0.206 F 
ATOM     76  C   UNL A   1      38.147  31.020  32.659  1.00  0.00     0.006 A 
ENDBRANCH  48  69
BRANCH  60  77
ATOM     77  C   UNL A   1      44.910  24.128  33.243  1.00  0.00     0.057 A 
ATOM     78  C   UNL A   1      44.278  22.939  33.631  1.00  0.00     0.134 A 
ATOM     79  C   UNL A   1      46.260  24.256  33.631  1.00  0.00     0.134 A 
ATOM     80  F   UNL A   1      43.030  22.649  33.235  1.00  0.00    -0.206 F 
ATOM     81  C   UNL A   1      44.923  21.968  34.403  1.00  0.00     0.040 A 
ATOM     82  C   UNL A   1      46.930  23.270  34.357  1.00  0.00     0.040 A 
ATOM     83  F   UNL A   1      46.991  25.331  33.304  1.00  0.00    -0.206 F 
ATOM     84  C   UNL A   1      46.258  22.125  34.758  1.00  0.00     0.006 A 
ENDBRANCH  60  77
ENDBRANCH  34  35
ENDBRANCH  27  29
ENDBRANCH  26  27
ENDBRANCH  25  26
ENDBRANCH   1  25
TORSDOF 14
ENDMDL
MODEL 3
REMARK VINA RESULT:     -12.2      1.471      2.534
REMARK SMILES Cc1cc(C(=O)OCCOC(=O)c2ccc(-c3c4nc(c(-c5c(F)cccc5F)c5ccc([nH]5)c(-c5c(F)cccc5F)c5nc(c(-c6c(F)cccc6F)c6ccc3[nH]6)C=C5)C=C4)cc2)ccc1NS(=O)(=O)c1c(F)cccc1F
REMARK SMILES IDX 8 1 7 2 5 3 6 4 4 5 1 6 2 7 3 8 69 9 68 10 67 11 70 12 71 14
REMARK SMILES IDX 72 15 73 16 74 17 75 18 80 19 76 20 77 21 79 22 81 23 78 24
REMARK SMILES IDX 9 25 10 26 11 27 12 28 13 29 14 30 66 31 15 32 65 33 16 34
REMARK SMILES IDX 17 35 18 36 59 37 19 38 64 39 58 40 60 41 20 42 63 43 57 44
REMARK SMILES IDX 56 45 21 47 47 48 30 49 46 50 31 51 34 52 45 53 61 54 32 55
REMARK SMILES IDX 33 56 44 58 62 59 35 60 22 61 23 62 28 63 24 64 25 65 27 66
REMARK SMILES IDX 29 67 26 68 48 69 49 70 54 71 50 72 51 73 53 74 55 75 52 76
REMARK SMILES IDX 36 77 37 78 42 79 38 80 39 81 41 82 43 83 40 84
REMARK H PARENT 70 13 60 46 34 57
REMARK Flexibility Score: inf
ROOT
ATOM      1  C   UNL A   1      32.728  29.835  26.460  1.00  0.00     0.275 C 
ENDROOT
BRANCH   1   2
ATOM      2  O   UNL A   1      33.256  28.908  25.506  1.00  0.00    -0.458 OA
BRANCH   2   3
ATOM      3  C   UNL A   1      32.867  27.628  25.749  1.00  0.00     0.338 C 
ATOM      4  O   UNL A   1      32.058  27.288  26.604  1.00  0.00    -0.246 OA
BRANCH   3   5
ATOM      5  C   UNL A   1      33.584  26.639  24.905  1.00  0.00     0.060 A 
ATOM      6  C   UNL A   1      35.863  23.623  25.126  1.00  0.00     0.046 C 
ATOM      7  C   UNL A   1      34.794  24.559  24.634  1.00  0.00    -0.026 A 
ATOM      8  C   UNL A   1      34.403  25.639  25.436  1.00  0.00     0.021 A 
ATOM      9  C   UNL A   1      34.219  24.447  23.359  1.00  0.00     0.052 A 
ATOM     10  C   UNL A   1      33.724  25.585  22.731  1.00  0.00     0.028 A 
ATOM     11  C   UNL A   1      33.371  26.677  23.521  1.00  0.00     0.018 A 
BRANCH   9  12
ATOM     12  N   UNL A   1      33.984  23.136  22.845  1.00  0.00    -0.279 N 
ATOM     13  H   UNL A   1      34.514  22.831  22.073  1.00  0.00     0.180 HD
BRANCH  12  14
ATOM     14  S   UNL A   1      32.830  22.077  23.503  1.00  0.00     0.267 S 
ATOM     15  O   UNL A   1      32.049  21.626  22.372  1.00  0.00    -0.201 OA
ATOM     16  O   UNL A   1      33.587  21.137  24.308  1.00  0.00    -0.201 OA
BRANCH  14  17
ATOM     17  C   UNL A   1      31.749  22.924  24.603  1.00  0.00     0.158 A 
ATOM     18  C   UNL A   1      30.913  23.904  24.075  1.00  0.00     0.146 A 
ATOM     19  C   UNL A   1      31.792  22.759  25.980  1.00  0.00     0.146 A 
ATOM     20  F   UNL A   1      30.739  24.033  22.753  1.00  0.00    -0.205 F 
ATOM     21  C   UNL A   1      30.219  24.784  24.905  1.00  0.00     0.041 A 
ATOM     22  C   UNL A   1      31.131  23.659  26.825  1.00  0.00     0.041 A 
ATOM     23  F   UNL A   1      32.513  21.780  26.543  1.00  0.00    -0.205 F 
ATOM     24  C   UNL A   1      30.360  24.689  26.286  1.00  0.00     0.006 A 
ENDBRANCH  14  17
ENDBRANCH  12  14
ENDBRANCH   9  12
ENDBRANCH   3   5
ENDBRANCH   2   3
ENDBRANCH   1   2
BRANCH   1  25
ATOM     25  C   UNL A   1      33.800  30.606  27.246  1.00  0.00     0.275 C 
BRANCH  25  26
ATOM     26  O   UNL A   1      35.071  29.957  27.518  1.00  0.00    -0.458 OA
BRANCH  26  27
ATOM     27  C   UNL A   1      36.063  30.345  28.355  1.00  0.00     0.338 C 
ATOM     28  O   UNL A   1      35.924  31.257  29.161  1.00  0.00    -0.246 OA
BRANCH  27  29
ATOM     29  C   UNL A   1      37.292  29.545  28.370  1.00  0.00     0.060 A 
ATOM     30  C   UNL A   1      38.179  29.670  27.291  1.00  0.00     0.016 A 
ATOM     31  C   UNL A   1      37.603  28.757  29.473  1.00  0.00     0.016 A 
ATOM     32  C   UNL A   1      39.444  29.095  27.368  1.00  0.00     0.010 A 
ATOM     33  C   UNL A   1      38.882  28.257  29.588  1.00  0.00     0.010 A 
ATOM     34  C   UNL A   1      39.797  28.410  28.531  1.00  0.00    -0.014 A 
BRANCH  34  35
ATOM     35  C   UNL A   1      40.942  27.514  28.589  1.00  0.00     0.031 A 
ATOM     36  C   UNL A   1      40.896  26.072  28.295  1.00  0.00     0.074 A 
ATOM     37  C   UNL A   1      42.080  28.155  28.922  1.00  0.00     0.049 A 
ATOM     38  N   UNL A   1      41.719  25.208  28.786  1.00  0.00    -0.248 NA
ATOM     39  C   UNL A   1      39.889  25.467  27.433  1.00  0.00     0.031 C 
ATOM     40  C   UNL A   1      43.454  27.693  28.899  1.00  0.00     0.029 A 
ATOM     41  N   UNL A   1      42.133  29.398  29.569  1.00  0.00    -0.354 N 
ATOM     42  C   UNL A   1      41.534  24.012  28.118  1.00  0.00     0.074 A 
ATOM     43  C   UNL A   1      40.318  24.200  27.361  1.00  0.00     0.031 C 
ATOM     44  C   UNL A   1      44.170  28.477  29.728  1.00  0.00     0.029 A 
ATOM     45  C   UNL A   1      43.227  29.346  30.429  1.00  0.00     0.049 A 
ATOM     46  H   UNL A   1      41.518  30.156  29.442  1.00  0.00     0.167 HD
ATOM     47  C   UNL A   1      42.520  23.065  28.155  1.00  0.00     0.037 A 
ATOM     48  C   UNL A   1      43.013  29.355  31.778  1.00  0.00     0.037 A 
ATOM     49  C   UNL A   1      43.630  23.531  28.983  1.00  0.00     0.049 A 
ATOM     50  C   UNL A   1      43.553  28.108  32.423  1.00  0.00     0.074 A 
ATOM     51  C   UNL A   1      44.785  24.217  28.647  1.00  0.00     0.029 A 
ATOM     52  N   UNL A   1      43.483  23.641  30.361  1.00  0.00    -0.354 N 
ATOM     53  N   UNL A   1      43.575  26.938  31.846  1.00  0.00    -0.248 NA
ATOM     54  C   UNL A   1      44.155  28.106  33.751  1.00  0.00     0.031 C 
ATOM     55  C   UNL A   1      45.280  24.833  29.821  1.00  0.00     0.029 A 
ATOM     56  C   UNL A   1      44.451  24.483  30.873  1.00  0.00     0.049 A 
ATOM     57  H   UNL A   1      42.791  23.186  30.893  1.00  0.00     0.167 HD
ATOM     58  C   UNL A   1      44.240  26.060  32.659  1.00  0.00     0.074 A 
ATOM     59  C   UNL A   1      44.562  26.830  33.848  1.00  0.00     0.031 C 
ATOM     60  C   UNL A   1      44.521  24.777  32.293  1.00  0.00     0.037 A 
BRANCH  47  61
ATOM     61  C   UNL A   1      42.653  21.904  27.185  1.00  0.00     0.057 A 
ATOM     62  C   UNL A   1      41.820  20.768  27.301  1.00  0.00     0.134 A 
ATOM     63  C   UNL A   1      43.603  21.811  26.154  1.00  0.00     0.134 A 
ATOM     64  F   UNL A   1      40.783  20.735  28.149  1.00  0.00    -0.206 F 
ATOM     65  C   UNL A   1      42.003  19.597  26.552  1.00  0.00     0.040 A 
ATOM     66  C   UNL A   1      43.823  20.631  25.421  1.00  0.00     0.040 A 
ATOM     67  F   UNL A   1      44.328  22.871  25.774  1.00  0.00    -0.206 F 
ATOM     68  C   UNL A   1      43.034  19.510  25.632  1.00  0.00     0.006 A 
ENDBRANCH  47  61
BRANCH  48  69
ATOM     69  C   UNL A   1      41.794  30.089  32.241  1.00  0.00     0.057 A 
ATOM     70  C   UNL A   1      41.791  31.499  32.249  1.00  0.00     0.134 A 
ATOM     71  C   UNL A   1      40.560  29.467  32.465  1.00  0.00     0.134 A 
ATOM     72  F   UNL A   1      42.933  32.177  32.046  1.00  0.00    -0.206 F 
ATOM     73  C   UNL A   1      40.617  32.248  32.389  1.00  0.00     0.040 A 
ATOM     74  C   UNL A   1      39.377  30.208  32.624  1.00  0.00     0.040 A 
ATOM     75  F   UNL A   1      40.457  28.131  32.474  1.00  0.00    -0.206 F 
ATOM     76  C   UNL A   1      39.400  31.601  32.561  1.00  0.00     0.006 A 
ENDBRANCH  48  69
BRANCH  60  77
ATOM     77  C   UNL A   1      45.020  23.715  33.229  1.00  0.00     0.057 A 
ATOM     78  C   UNL A   1      46.312  23.717  33.772  1.00  0.00     0.134 A 
ATOM     79  C   UNL A   1      44.143  22.739  33.748  1.00  0.00     0.134 A 
ATOM     80  F   UNL A   1      47.207  24.658  33.442  1.00  0.00    -0.206 F 
ATOM     81  C   UNL A   1      46.724  22.777  34.722  1.00  0.00     0.040 A 
ATOM     82  C   UNL A   1      44.527  21.830  34.734  1.00  0.00     0.040 A 
ATOM     83  F   UNL A   1      42.870  22.643  33.336  1.00  0.00    -0.206 F 
ATOM     84  C   UNL A   1      45.827  21.837  35.216  1.00  0.00     0.006 A 
ENDBRANCH  60  77
ENDBRANCH  34  35
ENDBRANCH  27  29
ENDBRANCH  26  27
ENDBRANCH  25  26
ENDBRANCH   1  25
TORSDOF 14
ENDMDL
