MODEL 1
REMARK VINA RESULT:     -13.4      0.000      0.000
REMARK SMILES Cc1ccc(C(=O)N2C[C@@H](C(=O)OCCOC(=O)c3ccc(-c4c5nc(c(-c6c(F)cccc6F)c6ccc([nH]6)c(-c6c(F)cccc6F)c6nc(c(-c7c(F)cccc7F)c7ccc4[nH]7)C=C6)C=C5)cc3)C[C@H](C(=O)N3CCOCC3)C2)cc1F
REMARK SMILES IDX 14 1 13 2 11 3 12 4 10 5 8 6 9 7 83 8 74 9 73 10 6 11 7 12
REMARK SMILES IDX 5 13 1 14 2 15 3 16 85 17 4 18 84 19 86 20 75 21 76 22 77 23
REMARK SMILES IDX 78 24 82 25 79 26 81 27 80 28 15 29 16 30 17 31 18 32 19 33
REMARK SMILES IDX 20 34 72 35 21 36 71 37 22 38 23 39 24 40 65 41 25 42 70 43
REMARK SMILES IDX 64 44 66 45 26 46 69 47 63 48 62 49 27 51 53 52 36 53 52 54
REMARK SMILES IDX 37 55 40 56 51 57 67 58 38 59 39 60 50 62 68 63 41 64 28 65
REMARK SMILES IDX 29 66 34 67 30 68 31 69 33 70 35 71 32 72 54 73 55 74 60 75
REMARK SMILES IDX 56 76 57 77 59 78 61 79 58 80 42 81 43 82 48 83 44 84 45 85
REMARK SMILES IDX 47 86 49 87 46 88
REMARK H PARENT 66 50 40 61
REMARK Flexibility Score: inf
ROOT
ATOM      1  C   UNL A   1      32.909  30.610  27.254  1.00  0.00     0.274 C 
ENDROOT
BRANCH   1   2
ATOM      2  O   UNL A   1      33.256  30.184  25.915  1.00  0.00    -0.462 OA
BRANCH   2   3
ATOM      3  C   UNL A   1      33.379  28.841  25.733  1.00  0.00     0.310 C 
ATOM      4  O   UNL A   1      34.292  28.160  26.185  1.00  0.00    -0.252 OA
BRANCH   3   5
ATOM      5  C   UNL A   1      32.287  28.240  24.874  1.00  0.00     0.119 C 
ATOM      6  N   UNL A   1      31.631  26.203  23.734  1.00  0.00    -0.337 N 
ATOM      7  C   UNL A   1      32.705  26.849  24.466  1.00  0.00     0.135 C 
ATOM      8  C   UNL A   1      31.193  26.851  22.500  1.00  0.00     0.133 C 
ATOM      9  C   UNL A   1      30.860  28.342  22.707  1.00  0.00     0.099 C 
ATOM     10  C   UNL A   1      31.832  29.066  23.661  1.00  0.00     0.032 C 
BRANCH   6  11
ATOM     11  C   UNL A   1      30.993  25.114  24.319  1.00  0.00     0.254 C 
ATOM     12  O   UNL A   1      29.974  25.218  24.970  1.00  0.00    -0.269 OA
BRANCH  11  13
ATOM     13  C   UNL A   1      31.686  23.801  24.273  1.00  0.00     0.042 A 
ATOM     14  C   UNL A   1      32.857  19.668  24.250  1.00  0.00     0.047 C 
ATOM     15  C   UNL A   1      32.526  21.129  24.260  1.00  0.00    -0.015 A 
ATOM     16  C   UNL A   1      32.516  21.853  25.457  1.00  0.00     0.007 A 
ATOM     17  C   UNL A   1      32.153  21.772  23.075  1.00  0.00     0.126 A 
ATOM     18  C   UNL A   1      32.091  23.181  25.463  1.00  0.00     0.014 A 
ATOM     19  C   UNL A   1      31.728  23.096  23.069  1.00  0.00     0.053 A 
ATOM     20  F   UNL A   1      32.154  21.089  21.921  1.00  0.00    -0.207 F 
ENDBRANCH  11  13
ENDBRANCH   6  11
BRANCH   9  21
ATOM     21  C   UNL A   1      29.326  28.474  22.819  1.00  0.00     0.227 C 
ATOM     22  O   UNL A   1      28.713  27.553  23.375  1.00  0.00    -0.275 OA
ATOM     23  N   UNL A   1      28.678  29.653  22.546  1.00  0.00    -0.338 N 
ATOM     24  C   UNL A   1      28.780  30.434  21.324  1.00  0.00     0.148 C 
ATOM     25  C   UNL A   1      27.513  30.041  23.345  1.00  0.00     0.148 C 
ATOM     26  C   UNL A   1      28.811  31.931  21.641  1.00  0.00     0.181 C 
ATOM     27  C   UNL A   1      27.572  31.550  23.621  1.00  0.00     0.181 C 
ATOM     28  O   UNL A   1      27.644  32.300  22.394  1.00  0.00    -0.378 OA
ENDBRANCH   9  21
ENDBRANCH   3   5
ENDBRANCH   2   3
ENDBRANCH   1   2
BRANCH   1  29
ATOM     29  C   UNL A   1      33.749  31.781  27.780  1.00  0.00     0.275 C 
BRANCH  29  30
ATOM     30  O   UNL A   1      35.089  31.770  27.273  1.00  0.00    -0.458 OA
BRANCH  30  31
ATOM     31  C   UNL A   1      35.993  31.551  28.242  1.00  0.00     0.338 C 
ATOM     32  O   UNL A   1      36.414  32.358  29.065  1.00  0.00    -0.246 OA
BRANCH  31  33
ATOM     33  C   UNL A   1      36.576  30.217  28.173  1.00  0.00     0.060 A 
ATOM     34  C   UNL A   1      36.526  29.464  29.355  1.00  0.00     0.016 A 
ATOM     35  C   UNL A   1      37.595  30.073  27.244  1.00  0.00     0.016 A 
ATOM     36  C   UNL A   1      37.641  28.746  29.751  1.00  0.00     0.010 A 
ATOM     37  C   UNL A   1      38.695  29.343  27.628  1.00  0.00     0.010 A 
ATOM     38  C   UNL A   1      38.750  28.770  28.913  1.00  0.00    -0.014 A 
BRANCH  38  39
ATOM     39  C   UNL A   1      40.035  28.194  29.257  1.00  0.00     0.031 A 
ATOM     40  C   UNL A   1      40.426  26.896  28.686  1.00  0.00     0.074 A 
ATOM     41  C   UNL A   1      40.948  28.984  29.862  1.00  0.00     0.049 A 
ATOM     42  N   UNL A   1      41.504  26.266  29.004  1.00  0.00    -0.248 NA
ATOM     43  C   UNL A   1      39.597  26.184  27.719  1.00  0.00     0.031 C 
ATOM     44  C   UNL A   1      42.395  28.900  29.731  1.00  0.00     0.029 A 
ATOM     45  N   UNL A   1      40.740  29.965  30.836  1.00  0.00    -0.354 N 
ATOM     46  C   UNL A   1      41.660  25.246  28.100  1.00  0.00     0.074 A 
ATOM     47  C   UNL A   1      40.412  25.181  27.374  1.00  0.00     0.031 C 
ATOM     48  C   UNL A   1      42.968  29.618  30.710  1.00  0.00     0.029 A 
ATOM     49  C   UNL A   1      41.913  29.998  31.628  1.00  0.00     0.049 A 
ATOM     50  H   UNL A   1      39.936  30.522  30.948  1.00  0.00     0.167 HD
ATOM     51  C   UNL A   1      42.879  24.655  27.968  1.00  0.00     0.037 A 
ATOM     52  C   UNL A   1      41.885  29.651  32.952  1.00  0.00     0.037 A 
ATOM     53  C   UNL A   1      43.858  25.214  28.889  1.00  0.00     0.049 A 
ATOM     54  C   UNL A   1      42.745  28.466  33.329  1.00  0.00     0.074 A 
ATOM     55  C   UNL A   1      44.800  26.225  28.792  1.00  0.00     0.029 A 
ATOM     56  N   UNL A   1      43.737  24.929  30.232  1.00  0.00    -0.354 N 
ATOM     57  N   UNL A   1      43.368  27.716  32.465  1.00  0.00    -0.248 NA
ATOM     58  C   UNL A   1      42.880  27.966  34.700  1.00  0.00     0.031 C 
ATOM     59  C   UNL A   1      45.238  26.550  30.107  1.00  0.00     0.029 A 
ATOM     60  C   UNL A   1      44.565  25.729  30.993  1.00  0.00     0.049 A 
ATOM     61  H   UNL A   1      43.137  24.243  30.602  1.00  0.00     0.167 HD
ATOM     62  C   UNL A   1      43.898  26.635  33.108  1.00  0.00     0.074 A 
ATOM     63  C   UNL A   1      43.588  26.840  34.509  1.00  0.00     0.031 C 
ATOM     64  C   UNL A   1      44.504  25.618  32.438  1.00  0.00     0.037 A 
BRANCH  51  65
ATOM     65  C   UNL A   1      43.231  23.728  26.843  1.00  0.00     0.057 A 
ATOM     66  C   UNL A   1      43.032  22.341  26.969  1.00  0.00     0.134 A 
ATOM     67  C   UNL A   1      43.779  24.143  25.619  1.00  0.00     0.134 A 
ATOM     68  F   UNL A   1      42.459  21.808  28.056  1.00  0.00    -0.206 F 
ATOM     69  C   UNL A   1      43.422  21.429  25.984  1.00  0.00     0.040 A 
ATOM     70  C   UNL A   1      44.224  23.236  24.647  1.00  0.00     0.040 A 
ATOM     71  F   UNL A   1      43.872  25.441  25.300  1.00  0.00    -0.206 F 
ATOM     72  C   UNL A   1      44.051  21.872  24.831  1.00  0.00     0.006 A 
ENDBRANCH  51  65
BRANCH  52  73
ATOM     73  C   UNL A   1      40.569  29.937  33.577  1.00  0.00     0.057 A 
ATOM     74  C   UNL A   1      40.319  31.245  34.024  1.00  0.00     0.134 A 
ATOM     75  C   UNL A   1      39.471  29.119  33.293  1.00  0.00     0.134 A 
ATOM     76  F   UNL A   1      41.339  32.067  34.320  1.00  0.00    -0.206 F 
ATOM     77  C   UNL A   1      39.033  31.773  34.022  1.00  0.00     0.040 A 
ATOM     78  C   UNL A   1      38.178  29.635  33.295  1.00  0.00     0.040 A 
ATOM     79  F   UNL A   1      39.647  27.855  32.881  1.00  0.00    -0.206 F 
ATOM     80  C   UNL A   1      37.968  30.976  33.612  1.00  0.00     0.006 A 
ENDBRANCH  52  73
BRANCH  64  81
ATOM     81  C   UNL A   1      45.082  24.422  33.118  1.00  0.00     0.057 A 
ATOM     82  C   UNL A   1      44.326  23.268  33.351  1.00  0.00     0.134 A 
ATOM     83  C   UNL A   1      46.372  24.448  33.679  1.00  0.00     0.134 A 
ATOM     84  F   UNL A   1      43.072  23.161  32.885  1.00  0.00    -0.206 F 
ATOM     85  C   UNL A   1      44.830  22.194  34.090  1.00  0.00     0.040 A 
ATOM     86  C   UNL A   1      46.869  23.402  34.456  1.00  0.00     0.040 A 
ATOM     87  F   UNL A   1      47.202  25.483  33.479  1.00  0.00    -0.206 F 
ATOM     88  C   UNL A   1      46.098  22.266  34.659  1.00  0.00     0.006 A 
ENDBRANCH  64  81
ENDBRANCH  38  39
ENDBRANCH  31  33
ENDBRANCH  30  31
ENDBRANCH  29  30
ENDBRANCH   1  29
TORSDOF 14
ENDMDL
MODEL 2
REMARK VINA RESULT:     -13.2      3.796      9.161
REMARK SMILES Cc1ccc(C(=O)N2C[C@@H](C(=O)OCCOC(=O)c3ccc(-c4c5nc(c(-c6c(F)cccc6F)c6ccc([nH]6)c(-c6c(F)cccc6F)c6nc(c(-c7c(F)cccc7F)c7ccc4[nH]7)C=C6)C=C5)cc3)C[C@H](C(=O)N3CCOCC3)C2)cc1F
REMARK SMILES IDX 14 1 13 2 11 3 12 4 10 5 8 6 9 7 83 8 74 9 73 10 6 11 7 12
REMARK SMILES IDX 5 13 1 14 2 15 3 16 85 17 4 18 84 19 86 20 75 21 76 22 77 23
REMARK SMILES IDX 78 24 82 25 79 26 81 27 80 28 15 29 16 30 17 31 18 32 19 33
REMARK SMILES IDX 20 34 72 35 21 36 71 37 22 38 23 39 24 40 65 41 25 42 70 43
REMARK SMILES IDX 64 44 66 45 26 46 69 47 63 48 62 49 27 51 53 52 36 53 52 54
REMARK SMILES IDX 37 55 40 56 51 57 67 58 38 59 39 60 50 62 68 63 41 64 28 65
REMARK SMILES IDX 29 66 34 67 30 68 31 69 33 70 35 71 32 72 54 73 55 74 60 75
REMARK SMILES IDX 56 76 57 77 59 78 61 79 58 80 42 81 43 82 48 83 44 84 45 85
REMARK SMILES IDX 47 86 49 87 46 88
REMARK H PARENT 66 50 40 61
REMARK Flexibility Score: inf
ROOT
ATOM      1  C   UNL A   1      38.639  22.146  25.891  1.00  0.00     0.274 C 
ENDROOT
BRANCH   1   2
ATOM      2  O   UNL A   1      37.598  22.409  24.920  1.00  0.00    -0.462 OA
BRANCH   2   3
ATOM      3  C   UNL A   1      36.607  23.249  25.325  1.00  0.00     0.310 C 
ATOM      4  O   UNL A   1      36.787  24.390  25.733  1.00  0.00    -0.252 OA
BRANCH   3   5
ATOM      5  C   UNL A   1      35.225  22.634  25.264  1.00  0.00     0.119 C 
ATOM      6  N   UNL A   1      32.921  22.996  25.929  1.00  0.00    -0.337 N 
ATOM      7  C   UNL A   1      34.277  23.498  26.059  1.00  0.00     0.135 C 
ATOM      8  C   UNL A   1      32.677  21.632  26.389  1.00  0.00     0.133 C 
ATOM      9  C   UNL A   1      33.667  20.621  25.777  1.00  0.00     0.099 C 
ATOM     10  C   UNL A   1      35.110  21.157  25.669  1.00  0.00     0.032 C 
BRANCH   6  11
ATOM     11  C   UNL A   1      31.991  23.774  25.246  1.00  0.00     0.254 C 
ATOM     12  O   UNL A   1      31.169  23.304  24.486  1.00  0.00    -0.269 OA
BRANCH  11  13
ATOM     13  C   UNL A   1      32.127  25.251  25.334  1.00  0.00     0.042 A 
ATOM     14  C   UNL A   1      31.669  29.521  25.280  1.00  0.00     0.047 C 
ATOM     15  C   UNL A   1      31.906  28.043  25.315  1.00  0.00    -0.015 A 
ATOM     16  C   UNL A   1      32.432  27.375  24.204  1.00  0.00     0.007 A 
ATOM     17  C   UNL A   1      31.537  27.298  26.440  1.00  0.00     0.126 A 
ATOM     18  C   UNL A   1      32.535  25.984  24.211  1.00  0.00     0.014 A 
ATOM     19  C   UNL A   1      31.635  25.911  26.460  1.00  0.00     0.053 A 
ATOM     20  F   UNL A   1      31.027  27.925  27.511  1.00  0.00    -0.207 F 
ENDBRANCH  11  13
ENDBRANCH   6  11
BRANCH   9  21
ATOM     21  C   UNL A   1      32.954  19.902  24.613  1.00  0.00     0.227 C 
ATOM     22  O   UNL A   1      32.570  20.597  23.663  1.00  0.00    -0.275 OA
ATOM     23  N   UNL A   1      32.952  18.535  24.497  1.00  0.00    -0.338 N 
ATOM     24  C   UNL A   1      32.528  17.580  25.509  1.00  0.00     0.148 C 
ATOM     25  C   UNL A   1      33.037  17.920  23.170  1.00  0.00     0.148 C 
ATOM     26  C   UNL A   1      33.458  16.366  25.529  1.00  0.00     0.181 C 
ATOM     27  C   UNL A   1      33.960  16.695  23.240  1.00  0.00     0.181 C 
ATOM     28  O   UNL A   1      33.501  15.755  24.229  1.00  0.00    -0.378 OA
ENDBRANCH   9  21
ENDBRANCH   3   5
ENDBRANCH   2   3
ENDBRANCH   1   2
BRANCH   1  29
ATOM     29  C   UNL A   1      39.242  20.738  25.801  1.00  0.00     0.275 C 
BRANCH  29  30
ATOM     30  O   UNL A   1      40.306  20.533  26.739  1.00  0.00    -0.458 OA
BRANCH  30  31
ATOM     31  C   UNL A   1      41.488  20.348  26.128  1.00  0.00     0.338 C 
ATOM     32  O   UNL A   1      41.776  19.480  25.310  1.00  0.00    -0.246 OA
BRANCH  31  33
ATOM     33  C   UNL A   1      42.522  21.245  26.625  1.00  0.00     0.060 A 
ATOM     34  C   UNL A   1      42.658  21.312  28.019  1.00  0.00     0.016 A 
ATOM     35  C   UNL A   1      42.806  22.323  25.800  1.00  0.00     0.016 A 
ATOM     36  C   UNL A   1      42.824  22.544  28.628  1.00  0.00     0.010 A 
ATOM     37  C   UNL A   1      42.992  23.543  26.404  1.00  0.00     0.010 A 
ATOM     38  C   UNL A   1      42.901  23.662  27.804  1.00  0.00    -0.014 A 
BRANCH  38  39
ATOM     39  C   UNL A   1      42.925  25.025  28.294  1.00  0.00     0.031 A 
ATOM     40  C   UNL A   1      41.759  25.895  28.079  1.00  0.00     0.074 A 
ATOM     41  C   UNL A   1      43.891  25.372  29.171  1.00  0.00     0.049 A 
ATOM     42  N   UNL A   1      41.725  27.143  28.397  1.00  0.00    -0.248 NA
ATOM     43  C   UNL A   1      40.532  25.420  27.447  1.00  0.00     0.031 C 
ATOM     44  C   UNL A   1      43.786  26.357  30.238  1.00  0.00     0.029 A 
ATOM     45  N   UNL A   1      45.232  24.978  29.189  1.00  0.00    -0.354 N 
ATOM     46  C   UNL A   1      40.420  27.554  28.293  1.00  0.00     0.074 A 
ATOM     47  C   UNL A   1      39.731  26.476  27.620  1.00  0.00     0.031 C 
ATOM     48  C   UNL A   1      45.017  26.659  30.681  1.00  0.00     0.029 A 
ATOM     49  C   UNL A   1      45.958  26.050  29.762  1.00  0.00     0.049 A 
ATOM     50  H   UNL A   1      45.599  24.124  28.865  1.00  0.00     0.167 HD
ATOM     51  C   UNL A   1      40.033  28.703  28.909  1.00  0.00     0.037 A 
ATOM     52  C   UNL A   1      46.885  26.748  29.036  1.00  0.00     0.037 A 
ATOM     53  C   UNL A   1      41.143  29.360  29.584  1.00  0.00     0.049 A 
ATOM     54  C   UNL A   1      46.594  28.221  28.862  1.00  0.00     0.074 A 
ATOM     55  C   UNL A   1      41.639  29.323  30.878  1.00  0.00     0.029 A 
ATOM     56  N   UNL A   1      42.117  29.964  28.818  1.00  0.00    -0.354 N 
ATOM     57  N   UNL A   1      45.485  28.792  29.236  1.00  0.00    -0.248 NA
ATOM     58  C   UNL A   1      47.483  29.145  28.153  1.00  0.00     0.031 C 
ATOM     59  C   UNL A   1      42.936  29.909  30.871  1.00  0.00     0.029 A 
ATOM     60  C   UNL A   1      43.216  30.305  29.577  1.00  0.00     0.049 A 
ATOM     61  H   UNL A   1      42.037  30.130  27.851  1.00  0.00     0.167 HD
ATOM     62  C   UNL A   1      45.462  30.077  28.774  1.00  0.00     0.074 A 
ATOM     63  C   UNL A   1      46.741  30.264  28.119  1.00  0.00     0.031 C 
ATOM     64  C   UNL A   1      44.371  30.878  28.912  1.00  0.00     0.037 A 
BRANCH  51  65
ATOM     65  C   UNL A   1      38.599  29.105  29.087  1.00  0.00     0.057 A 
ATOM     66  C   UNL A   1      37.874  29.661  28.017  1.00  0.00     0.134 A 
ATOM     67  C   UNL A   1      37.885  28.977  30.289  1.00  0.00     0.134 A 
ATOM     68  F   UNL A   1      38.406  29.786  26.795  1.00  0.00    -0.206 F 
ATOM     69  C   UNL A   1      36.564  30.129  28.155  1.00  0.00     0.040 A 
ATOM     70  C   UNL A   1      36.591  29.490  30.454  1.00  0.00     0.040 A 
ATOM     71  F   UNL A   1      38.396  28.318  31.338  1.00  0.00    -0.206 F 
ATOM     72  C   UNL A   1      35.928  30.074  29.386  1.00  0.00     0.006 A 
ENDBRANCH  51  65
BRANCH  52  73
ATOM     73  C   UNL A   1      47.520  25.911  27.988  1.00  0.00     0.057 A 
ATOM     74  C   UNL A   1      47.048  26.030  26.671  1.00  0.00     0.134 A 
ATOM     75  C   UNL A   1      48.815  25.419  28.180  1.00  0.00     0.134 A 
ATOM     76  F   UNL A   1      45.808  26.488  26.433  1.00  0.00    -0.206 F 
ATOM     77  C   UNL A   1      47.892  25.831  25.583  1.00  0.00     0.040 A 
ATOM     78  C   UNL A   1      49.666  25.209  27.098  1.00  0.00     0.040 A 
ATOM     79  F   UNL A   1      49.314  25.265  29.415  1.00  0.00    -0.206 F 
ATOM     80  C   UNL A   1      49.216  25.464  25.803  1.00  0.00     0.006 A 
ENDBRANCH  52  73
BRANCH  64  81
ATOM     81  C   UNL A   1      44.320  32.282  28.407  1.00  0.00     0.057 A 
ATOM     82  C   UNL A   1      44.321  33.378  29.276  1.00  0.00     0.134 A 
ATOM     83  C   UNL A   1      44.129  32.565  27.042  1.00  0.00     0.134 A 
ATOM     84  F   UNL A   1      44.463  33.208  30.599  1.00  0.00    -0.206 F 
ATOM     85  C   UNL A   1      44.156  34.686  28.811  1.00  0.00     0.040 A 
ATOM     86  C   UNL A   1      43.918  33.860  26.572  1.00  0.00     0.040 A 
ATOM     87  F   UNL A   1      44.158  31.596  26.115  1.00  0.00    -0.206 F 
ATOM     88  C   UNL A   1      43.936  34.929  27.458  1.00  0.00     0.006 A 
ENDBRANCH  64  81
ENDBRANCH  38  39
ENDBRANCH  31  33
ENDBRANCH  30  31
ENDBRANCH  29  30
ENDBRANCH   1  29
TORSDOF 14
ENDMDL
MODEL 3
REMARK VINA RESULT:     -13.2      1.949      4.338
REMARK SMILES Cc1ccc(C(=O)N2C[C@@H](C(=O)OCCOC(=O)c3ccc(-c4c5nc(c(-c6c(F)cccc6F)c6ccc([nH]6)c(-c6c(F)cccc6F)c6nc(c(-c7c(F)cccc7F)c7ccc4[nH]7)C=C6)C=C5)cc3)C[C@H](C(=O)N3CCOCC3)C2)cc1F
REMARK SMILES IDX 14 1 13 2 11 3 12 4 10 5 8 6 9 7 83 8 74 9 73 10 6 11 7 12
REMARK SMILES IDX 5 13 1 14 2 15 3 16 85 17 4 18 84 19 86 20 75 21 76 22 77 23
REMARK SMILES IDX 78 24 82 25 79 26 81 27 80 28 15 29 16 30 17 31 18 32 19 33
REMARK SMILES IDX 20 34 72 35 21 36 71 37 22 38 23 39 24 40 65 41 25 42 70 43
REMARK SMILES IDX 64 44 66 45 26 46 69 47 63 48 62 49 27 51 53 52 36 53 52 54
REMARK SMILES IDX 37 55 40 56 51 57 67 58 38 59 39 60 50 62 68 63 41 64 28 65
REMARK SMILES IDX 29 66 34 67 30 68 31 69 33 70 35 71 32 72 54 73 55 74 60 75
REMARK SMILES IDX 56 76 57 77 59 78 61 79 58 80 42 81 43 82 48 83 44 84 45 85
REMARK SMILES IDX 47 86 49 87 46 88
REMARK H PARENT 66 50 40 61
REMARK Flexibility Score: inf
ROOT
ATOM      1  C   UNL A   1      32.548  30.183  27.229  1.00  0.00     0.274 C 
ENDROOT
BRANCH   1   2
ATOM      2  O   UNL A   1      32.969  28.857  26.829  1.00  0.00    -0.462 OA
BRANCH   2   3
ATOM      3  C   UNL A   1      32.134  27.839  27.173  1.00  0.00     0.310 C 
ATOM      4  O   UNL A   1      31.420  27.833  28.169  1.00  0.00    -0.252 OA
BRANCH   3   5
ATOM      5  C   UNL A   1      32.180  26.665  26.219  1.00  0.00     0.119 C 
ATOM      6  N   UNL A   1      30.771  25.089  25.030  1.00  0.00    -0.337 N 
ATOM      7  C   UNL A   1      30.776  26.145  26.027  1.00  0.00     0.135 C 
ATOM      8  C   UNL A   1      31.582  23.910  25.318  1.00  0.00     0.133 C 
ATOM      9  C   UNL A   1      33.035  24.272  25.685  1.00  0.00     0.099 C 
ATOM     10  C   UNL A   1      33.154  25.530  26.570  1.00  0.00     0.032 C 
BRANCH   6  11
ATOM     11  C   UNL A   1      30.130  25.326  23.818  1.00  0.00     0.254 C 
ATOM     12  O   UNL A   1      30.090  24.507  22.923  1.00  0.00    -0.269 OA
BRANCH  11  13
ATOM     13  C   UNL A   1      29.620  26.698  23.563  1.00  0.00     0.042 A 
ATOM     14  C   UNL A   1      27.902  30.320  22.022  1.00  0.00     0.047 C 
ATOM     15  C   UNL A   1      28.528  29.099  22.622  1.00  0.00    -0.015 A 
ATOM     16  C   UNL A   1      29.891  28.835  22.449  1.00  0.00     0.007 A 
ATOM     17  C   UNL A   1      27.739  28.167  23.304  1.00  0.00     0.126 A 
ATOM     18  C   UNL A   1      30.432  27.636  22.912  1.00  0.00     0.014 A 
ATOM     19  C   UNL A   1      28.267  26.969  23.771  1.00  0.00     0.053 A 
ATOM     20  F   UNL A   1      26.429  28.405  23.472  1.00  0.00    -0.207 F 
ENDBRANCH  11  13
ENDBRANCH   6  11
BRANCH   9  21
ATOM     21  C   UNL A   1      33.911  24.045  24.434  1.00  0.00     0.227 C 
ATOM     22  O   UNL A   1      33.960  24.958  23.599  1.00  0.00    -0.275 OA
ATOM     23  N   UNL A   1      34.793  22.998  24.348  1.00  0.00    -0.338 N 
ATOM     24  C   UNL A   1      34.488  21.589  24.540  1.00  0.00     0.148 C 
ATOM     25  C   UNL A   1      36.080  23.188  23.673  1.00  0.00     0.148 C 
ATOM     26  C   UNL A   1      35.613  20.893  25.307  1.00  0.00     0.181 C 
ATOM     27  C   UNL A   1      37.175  22.456  24.461  1.00  0.00     0.181 C 
ATOM     28  O   UNL A   1      36.860  21.059  24.613  1.00  0.00    -0.378 OA
ENDBRANCH   9  21
ENDBRANCH   3   5
ENDBRANCH   2   3
ENDBRANCH   1   2
BRANCH   1  29
ATOM     29  C   UNL A   1      33.663  31.236  27.191  1.00  0.00     0.275 C 
BRANCH  29  30
ATOM     30  O   UNL A   1      34.255  31.460  28.476  1.00  0.00    -0.458 OA
BRANCH  30  31
ATOM     31  C   UNL A   1      35.594  31.548  28.406  1.00  0.00     0.338 C 
ATOM     32  O   UNL A   1      36.267  32.566  28.272  1.00  0.00    -0.246 OA
BRANCH  31  33
ATOM     33  C   UNL A   1      36.241  30.244  28.379  1.00  0.00     0.060 A 
ATOM     34  C   UNL A   1      36.319  29.572  29.607  1.00  0.00     0.016 A 
ATOM     35  C   UNL A   1      37.195  30.086  27.386  1.00  0.00     0.016 A 
ATOM     36  C   UNL A   1      37.498  28.938  29.962  1.00  0.00     0.010 A 
ATOM     37  C   UNL A   1      38.358  29.439  27.729  1.00  0.00     0.010 A 
ATOM     38  C   UNL A   1      38.539  28.959  29.041  1.00  0.00    -0.014 A 
BRANCH  38  39
ATOM     39  C   UNL A   1      39.875  28.472  29.322  1.00  0.00     0.031 A 
ATOM     40  C   UNL A   1      40.303  27.173  28.781  1.00  0.00     0.074 A 
ATOM     41  C   UNL A   1      40.777  29.338  29.829  1.00  0.00     0.049 A 
ATOM     42  N   UNL A   1      41.434  26.619  29.051  1.00  0.00    -0.248 NA
ATOM     43  C   UNL A   1      39.456  26.372  27.903  1.00  0.00     0.031 C 
ATOM     44  C   UNL A   1      42.216  29.329  29.605  1.00  0.00     0.029 A 
ATOM     45  N   UNL A   1      40.577  30.350  30.773  1.00  0.00    -0.354 N 
ATOM     46  C   UNL A   1      41.591  25.569  28.183  1.00  0.00     0.074 A 
ATOM     47  C   UNL A   1      40.304  25.401  27.547  1.00  0.00     0.031 C 
ATOM     48  C   UNL A   1      42.808  30.122  30.511  1.00  0.00     0.029 A 
ATOM     49  C   UNL A   1      41.794  30.485  31.482  1.00  0.00     0.049 A 
ATOM     50  H   UNL A   1      39.751  30.866  30.915  1.00  0.00     0.167 HD
ATOM     51  C   UNL A   1      42.831  25.041  27.994  1.00  0.00     0.037 A 
ATOM     52  C   UNL A   1      41.873  30.198  32.819  1.00  0.00     0.037 A 
ATOM     53  C   UNL A   1      43.833  25.695  28.822  1.00  0.00     0.049 A 
ATOM     54  C   UNL A   1      42.823  29.082  33.186  1.00  0.00     0.074 A 
ATOM     55  C   UNL A   1      44.707  26.751  28.619  1.00  0.00     0.029 A 
ATOM     56  N   UNL A   1      43.818  25.466  30.181  1.00  0.00    -0.354 N 
ATOM     57  N   UNL A   1      43.432  28.329  32.315  1.00  0.00    -0.248 NA
ATOM     58  C   UNL A   1      43.077  28.654  34.564  1.00  0.00     0.031 C 
ATOM     59  C   UNL A   1      45.209  27.160  29.887  1.00  0.00     0.029 A 
ATOM     60  C   UNL A   1      44.645  26.345  30.850  1.00  0.00     0.049 A 
ATOM     61  H   UNL A   1      43.284  24.765  30.620  1.00  0.00     0.167 HD
ATOM     62  C   UNL A   1      44.065  27.309  32.965  1.00  0.00     0.074 A 
ATOM     63  C   UNL A   1      43.836  27.561  34.374  1.00  0.00     0.031 C 
ATOM     64  C   UNL A   1      44.684  26.297  32.299  1.00  0.00     0.037 A 
BRANCH  51  65
ATOM     65  C   UNL A   1      43.163  24.084  26.888  1.00  0.00     0.057 A 
ATOM     66  C   UNL A   1      43.174  22.697  27.121  1.00  0.00     0.134 A 
ATOM     67  C   UNL A   1      43.490  24.471  25.579  1.00  0.00     0.134 A 
ATOM     68  F   UNL A   1      42.823  22.179  28.305  1.00  0.00    -0.206 F 
ATOM     69  C   UNL A   1      43.560  21.770  26.148  1.00  0.00     0.040 A 
ATOM     70  C   UNL A   1      43.929  23.558  24.611  1.00  0.00     0.040 A 
ATOM     71  F   UNL A   1      43.362  25.743  25.175  1.00  0.00    -0.206 F 
ATOM     72  C   UNL A   1      43.971  22.201  24.896  1.00  0.00     0.006 A 
ENDBRANCH  51  65
BRANCH  52  73
ATOM     73  C   UNL A   1      40.586  30.440  33.518  1.00  0.00     0.057 A 
ATOM     74  C   UNL A   1      40.253  31.762  33.854  1.00  0.00     0.134 A 
ATOM     75  C   UNL A   1      39.548  29.508  33.407  1.00  0.00     0.134 A 
ATOM     76  F   UNL A   1      41.214  32.691  33.982  1.00  0.00    -0.206 F 
ATOM     77  C   UNL A   1      38.927  32.179  33.905  1.00  0.00     0.040 A 
ATOM     78  C   UNL A   1      38.218  29.914  33.465  1.00  0.00     0.040 A 
ATOM     79  F   UNL A   1      39.807  28.227  33.108  1.00  0.00    -0.206 F 
ATOM     80  C   UNL A   1      37.911  31.259  33.665  1.00  0.00     0.006 A 
ENDBRANCH  52  73
BRANCH  64  81
ATOM     81  C   UNL A   1      45.375  25.168  32.989  1.00  0.00     0.057 A 
ATOM     82  C   UNL A   1      44.679  24.037  33.430  1.00  0.00     0.134 A 
ATOM     83  C   UNL A   1      46.732  25.247  33.351  1.00  0.00     0.134 A 
ATOM     84  F   UNL A   1      43.373  23.885  33.163  1.00  0.00    -0.206 F 
ATOM     85  C   UNL A   1      45.302  23.033  34.177  1.00  0.00     0.040 A 
ATOM     86  C   UNL A   1      47.353  24.276  34.134  1.00  0.00     0.040 A 
ATOM     87  F   UNL A   1      47.507  26.263  32.942  1.00  0.00    -0.206 F 
ATOM     88  C   UNL A   1      46.639  23.159  34.546  1.00  0.00     0.006 A 
ENDBRANCH  64  81
ENDBRANCH  38  39
ENDBRANCH  31  33
ENDBRANCH  30  31
ENDBRANCH  29  30
ENDBRANCH   1  29
TORSDOF 14
ENDMDL
