MODEL 1
REMARK VINA RESULT:     -11.5      0.000      0.000
REMARK SMILES CN(Cc1ccccc1Br)C(=O)N[C@H]1C=C[C@H](C(=O)OCCOC(=O)c2ccc(-c3c4nc(c(-c5c(F)cccc5F)c5ccc([nH]5)c(-c5c(F)cccc5F)c5nc(c(-c6c(F)cccc6F)c6ccc3[nH]6)C=C5)C=C4)cc2)C1
REMARK SMILES IDX 21 1 20 2 18 3 19 4 17 5 14 6 15 7 80 8 16 9 13 10 11 11
REMARK SMILES IDX 12 12 2 14 1 15 3 16 4 17 5 18 9 19 6 20 8 21 10 22 7 23
REMARK SMILES IDX 22 24 23 25 24 26 25 27 26 28 27 29 79 30 28 31 78 32 29 33
REMARK SMILES IDX 30 34 31 35 72 36 32 37 77 38 71 39 73 40 33 41 76 42 70 43
REMARK SMILES IDX 69 44 34 46 60 47 43 48 59 49 44 50 47 51 58 52 74 53 45 54
REMARK SMILES IDX 46 55 57 57 75 58 48 59 35 60 36 61 41 62 37 63 38 64 40 65
REMARK SMILES IDX 42 66 39 67 61 68 62 69 67 70 63 71 64 72 66 73 68 74 65 75
REMARK SMILES IDX 49 76 50 77 55 78 51 79 52 80 54 81 56 82 53 83
REMARK H PARENT 13 13 73 45 47 56
REMARK Flexibility Score: inf
ROOT
ATOM      1  C   UNL A   1      31.290  31.769  26.601  1.00  0.00     0.274 C 
ENDROOT
BRANCH   1   2
ATOM      2  O   UNL A   1      31.607  30.652  25.737  1.00  0.00    -0.462 OA
BRANCH   2   3
ATOM      3  C   UNL A   1      32.159  29.588  26.376  1.00  0.00     0.312 C 
ATOM      4  O   UNL A   1      31.616  29.022  27.316  1.00  0.00    -0.252 OA
BRANCH   3   5
ATOM      5  C   UNL A   1      33.510  29.155  25.813  1.00  0.00     0.124 C 
ATOM      6  C   UNL A   1      32.929  27.567  24.062  1.00  0.00     0.107 C 
ATOM      7  C   UNL A   1      33.619  26.879  25.202  1.00  0.00    -0.006 C 
ATOM      8  C   UNL A   1      33.422  28.998  24.280  1.00  0.00     0.048 C 
ATOM      9  C   UNL A   1      33.894  27.749  26.188  1.00  0.00    -0.014 C 
BRANCH   6  10
ATOM     10  N   UNL A   1      33.290  27.004  22.795  1.00  0.00    -0.332 N 
ATOM     11  C   UNL A   1      33.037  25.835  22.181  1.00  0.00     0.317 C 
ATOM     12  O   UNL A   1      33.359  25.811  20.986  1.00  0.00    -0.249 OA
ATOM     13  H   UNL A   1      33.848  27.608  22.253  1.00  0.00     0.165 HD
BRANCH  11  14
ATOM     14  N   UNL A   1      32.415  24.767  22.768  1.00  0.00    -0.324 N 
ATOM     15  C   UNL A   1      31.002  24.979  23.093  1.00  0.00     0.149 C 
BRANCH  14  16
ATOM     16  C   UNL A   1      32.939  23.469  23.213  1.00  0.00     0.157 C 
BRANCH  16  17
ATOM     17  C   UNL A   1      34.034  23.395  24.257  1.00  0.00    -0.014 A 
ATOM     18  C   UNL A   1      35.357  23.565  23.803  1.00  0.00     0.007 A 
ATOM     19  C   UNL A   1      33.863  23.328  25.643  1.00  0.00     0.022 A 
ATOM     20  C   UNL A   1      36.470  23.518  24.637  1.00  0.00     0.000 A 
ATOM     21  C   UNL A   1      34.980  23.321  26.502  1.00  0.00     0.016 A 
ATOM     22  Br  UNL A   1      32.163  23.368  26.475  1.00  0.00    -0.050 Br
ATOM     23  C   UNL A   1      36.280  23.387  25.998  1.00  0.00     0.001 A 
ENDBRANCH  16  17
ENDBRANCH  14  16
ENDBRANCH  11  14
ENDBRANCH   6  10
ENDBRANCH   3   5
ENDBRANCH   2   3
ENDBRANCH   1   2
BRANCH   1  24
ATOM     24  C   UNL A   1      32.516  32.402  27.283  1.00  0.00     0.275 C 
BRANCH  24  25
ATOM     25  O   UNL A   1      32.481  33.847  27.306  1.00  0.00    -0.458 OA
BRANCH  25  26
ATOM     26  C   UNL A   1      33.075  34.426  28.379  1.00  0.00     0.338 C 
ATOM     27  O   UNL A   1      32.618  35.333  29.056  1.00  0.00    -0.246 OA
BRANCH  26  28
ATOM     28  C   UNL A   1      34.303  33.692  28.770  1.00  0.00     0.060 A 
ATOM     29  C   UNL A   1      34.146  32.656  29.694  1.00  0.00     0.016 A 
ATOM     30  C   UNL A   1      35.583  34.022  28.317  1.00  0.00     0.016 A 
ATOM     31  C   UNL A   1      35.239  31.911  30.133  1.00  0.00     0.010 A 
ATOM     32  C   UNL A   1      36.695  33.304  28.796  1.00  0.00     0.010 A 
ATOM     33  C   UNL A   1      36.528  32.242  29.702  1.00  0.00    -0.014 A 
BRANCH  33  34
ATOM     34  C   UNL A   1      37.683  31.531  30.309  1.00  0.00     0.031 A 
ATOM     35  C   UNL A   1      38.016  31.769  31.755  1.00  0.00     0.074 A 
ATOM     36  C   UNL A   1      38.376  30.613  29.611  1.00  0.00     0.049 A 
ATOM     37  N   UNL A   1      38.964  31.241  32.487  1.00  0.00    -0.248 NA
ATOM     38  C   UNL A   1      37.160  32.725  32.472  1.00  0.00     0.031 C 
ATOM     39  C   UNL A   1      38.114  30.233  28.227  1.00  0.00     0.029 A 
ATOM     40  N   UNL A   1      39.430  29.814  29.984  1.00  0.00    -0.354 N 
ATOM     41  C   UNL A   1      38.832  31.813  33.746  1.00  0.00     0.074 A 
ATOM     42  C   UNL A   1      37.710  32.726  33.677  1.00  0.00     0.031 C 
ATOM     43  C   UNL A   1      38.960  29.250  27.875  1.00  0.00     0.029 A 
ATOM     44  C   UNL A   1      39.866  28.974  28.989  1.00  0.00     0.049 A 
ATOM     45  H   UNL A   1      39.836  29.842  30.881  1.00  0.00     0.167 HD
ATOM     46  C   UNL A   1      39.586  31.611  34.852  1.00  0.00     0.037 A 
ATOM     47  C   UNL A   1      40.893  28.100  28.972  1.00  0.00     0.037 A 
ATOM     48  C   UNL A   1      40.714  30.717  34.921  1.00  0.00     0.049 A 
ATOM     49  C   UNL A   1      41.775  27.965  30.189  1.00  0.00     0.074 A 
ATOM     50  C   UNL A   1      41.544  30.461  35.999  1.00  0.00     0.029 A 
ATOM     51  N   UNL A   1      41.178  29.946  33.868  1.00  0.00    -0.354 N 
ATOM     52  N   UNL A   1      41.650  28.518  31.370  1.00  0.00    -0.248 NA
ATOM     53  C   UNL A   1      42.956  27.098  30.057  1.00  0.00     0.031 C 
ATOM     54  C   UNL A   1      42.546  29.577  35.581  1.00  0.00     0.029 A 
ATOM     55  C   UNL A   1      42.304  29.238  34.259  1.00  0.00     0.049 A 
ATOM     56  H   UNL A   1      40.768  29.906  32.973  1.00  0.00     0.167 HD
ATOM     57  C   UNL A   1      42.719  28.050  32.128  1.00  0.00     0.074 A 
ATOM     58  C   UNL A   1      43.473  27.154  31.278  1.00  0.00     0.031 C 
ATOM     59  C   UNL A   1      43.046  28.340  33.410  1.00  0.00     0.037 A 
BRANCH  46  60
ATOM     60  C   UNL A   1      39.255  32.432  36.063  1.00  0.00     0.057 A 
ATOM     61  C   UNL A   1      39.816  33.695  36.286  1.00  0.00     0.134 A 
ATOM     62  C   UNL A   1      38.354  31.945  37.019  1.00  0.00     0.134 A 
ATOM     63  F   UNL A   1      40.699  34.211  35.417  1.00  0.00    -0.206 F 
ATOM     64  C   UNL A   1      39.514  34.434  37.432  1.00  0.00     0.040 A 
ATOM     65  C   UNL A   1      38.024  32.685  38.155  1.00  0.00     0.040 A 
ATOM     66  F   UNL A   1      37.779  30.743  36.863  1.00  0.00    -0.206 F 
ATOM     67  C   UNL A   1      38.611  33.930  38.368  1.00  0.00     0.006 A 
ENDBRANCH  46  60
BRANCH  47  68
ATOM     68  C   UNL A   1      41.184  27.299  27.753  1.00  0.00     0.057 A 
ATOM     69  C   UNL A   1      40.721  25.984  27.623  1.00  0.00     0.134 A 
ATOM     70  C   UNL A   1      41.976  27.806  26.716  1.00  0.00     0.134 A 
ATOM     71  F   UNL A   1      39.988  25.427  28.598  1.00  0.00    -0.206 F 
ATOM     72  C   UNL A   1      41.051  25.197  26.517  1.00  0.00     0.040 A 
ATOM     73  C   UNL A   1      42.290  27.041  25.591  1.00  0.00     0.040 A 
ATOM     74  F   UNL A   1      42.462  29.056  26.782  1.00  0.00    -0.206 F 
ATOM     75  C   UNL A   1      41.834  25.728  25.495  1.00  0.00     0.006 A 
ENDBRANCH  47  68
BRANCH  59  76
ATOM     76  C   UNL A   1      44.252  27.658  33.993  1.00  0.00     0.057 A 
ATOM     77  C   UNL A   1      45.523  28.248  33.970  1.00  0.00     0.134 A 
ATOM     78  C   UNL A   1      44.130  26.415  34.627  1.00  0.00     0.134 A 
ATOM     79  F   UNL A   1      45.713  29.432  33.369  1.00  0.00    -0.206 F 
ATOM     80  C   UNL A   1      46.632  27.616  34.539  1.00  0.00     0.040 A 
ATOM     81  C   UNL A   1      45.225  25.786  35.222  1.00  0.00     0.040 A 
ATOM     82  F   UNL A   1      42.941  25.798  34.695  1.00  0.00    -0.206 F 
ATOM     83  C   UNL A   1      46.483  26.384  35.174  1.00  0.00     0.006 A 
ENDBRANCH  59  76
ENDBRANCH  33  34
ENDBRANCH  26  28
ENDBRANCH  25  26
ENDBRANCH  24  25
ENDBRANCH   1  24
TORSDOF 15
ENDMDL
MODEL 2
REMARK VINA RESULT:     -11.4      1.442      2.513
REMARK SMILES CN(Cc1ccccc1Br)C(=O)N[C@H]1C=C[C@H](C(=O)OCCOC(=O)c2ccc(-c3c4nc(c(-c5c(F)cccc5F)c5ccc([nH]5)c(-c5c(F)cccc5F)c5nc(c(-c6c(F)cccc6F)c6ccc3[nH]6)C=C5)C=C4)cc2)C1
REMARK SMILES IDX 21 1 20 2 18 3 19 4 17 5 14 6 15 7 80 8 16 9 13 10 11 11
REMARK SMILES IDX 12 12 2 14 1 15 3 16 4 17 5 18 9 19 6 20 8 21 10 22 7 23
REMARK SMILES IDX 22 24 23 25 24 26 25 27 26 28 27 29 79 30 28 31 78 32 29 33
REMARK SMILES IDX 30 34 31 35 72 36 32 37 77 38 71 39 73 40 33 41 76 42 70 43
REMARK SMILES IDX 69 44 34 46 60 47 43 48 59 49 44 50 47 51 58 52 74 53 45 54
REMARK SMILES IDX 46 55 57 57 75 58 48 59 35 60 36 61 41 62 37 63 38 64 40 65
REMARK SMILES IDX 42 66 39 67 61 68 62 69 67 70 63 71 64 72 66 73 68 74 65 75
REMARK SMILES IDX 49 76 50 77 55 78 51 79 52 80 54 81 56 82 53 83
REMARK H PARENT 13 13 73 45 47 56
REMARK Flexibility Score: inf
ROOT
ATOM      1  C   UNL A   1      30.960  31.555  25.575  1.00  0.00     0.274 C 
ENDROOT
BRANCH   1   2
ATOM      2  O   UNL A   1      31.037  30.109  25.615  1.00  0.00    -0.462 OA
BRANCH   2   3
ATOM      3  C   UNL A   1      32.296  29.612  25.510  1.00  0.00     0.312 C 
ATOM      4  O   UNL A   1      33.017  29.825  24.544  1.00  0.00    -0.252 OA
BRANCH   3   5
ATOM      5  C   UNL A   1      32.737  28.773  26.707  1.00  0.00     0.124 C 
ATOM      6  C   UNL A   1      32.647  26.486  25.880  1.00  0.00     0.107 C 
ATOM      7  C   UNL A   1      31.595  26.721  26.923  1.00  0.00    -0.006 C 
ATOM      8  C   UNL A   1      33.628  27.603  26.239  1.00  0.00     0.048 C 
ATOM      9  C   UNL A   1      31.614  27.997  27.342  1.00  0.00    -0.014 C 
BRANCH   6  10
ATOM     10  N   UNL A   1      33.200  25.166  25.960  1.00  0.00    -0.332 N 
ATOM     11  C   UNL A   1      32.772  23.946  25.595  1.00  0.00     0.317 C 
ATOM     12  O   UNL A   1      33.644  23.068  25.645  1.00  0.00    -0.249 OA
ATOM     13  H   UNL A   1      34.093  25.151  26.376  1.00  0.00     0.165 HD
BRANCH  11  14
ATOM     14  N   UNL A   1      31.515  23.669  25.134  1.00  0.00    -0.324 N 
ATOM     15  C   UNL A   1      30.688  22.868  26.040  1.00  0.00     0.149 C 
BRANCH  14  16
ATOM     16  C   UNL A   1      30.873  23.959  23.844  1.00  0.00     0.157 C 
BRANCH  16  17
ATOM     17  C   UNL A   1      30.604  25.388  23.419  1.00  0.00    -0.014 A 
ATOM     18  C   UNL A   1      29.458  26.006  23.958  1.00  0.00     0.007 A 
ATOM     19  C   UNL A   1      31.450  26.209  22.669  1.00  0.00     0.022 A 
ATOM     20  C   UNL A   1      29.073  27.309  23.661  1.00  0.00     0.000 A 
ATOM     21  C   UNL A   1      31.092  27.544  22.395  1.00  0.00     0.016 A 
ATOM     22  Br  UNL A   1      33.164  25.660  22.079  1.00  0.00    -0.050 Br
ATOM     23  C   UNL A   1      29.894  28.082  22.865  1.00  0.00     0.001 A 
ENDBRANCH  16  17
ENDBRANCH  14  16
ENDBRANCH  11  14
ENDBRANCH   6  10
ENDBRANCH   3   5
ENDBRANCH   2   3
ENDBRANCH   1   2
BRANCH   1  24
ATOM     24  C   UNL A   1      31.448  32.244  26.862  1.00  0.00     0.275 C 
BRANCH  24  25
ATOM     25  O   UNL A   1      32.678  32.983  26.688  1.00  0.00    -0.458 OA
BRANCH  25  26
ATOM     26  C   UNL A   1      33.123  33.638  27.790  1.00  0.00     0.338 C 
ATOM     27  O   UNL A   1      32.517  34.491  28.417  1.00  0.00    -0.246 OA
BRANCH  26  28
ATOM     28  C   UNL A   1      34.398  33.057  28.277  1.00  0.00     0.060 A 
ATOM     29  C   UNL A   1      34.345  31.746  28.759  1.00  0.00     0.016 A 
ATOM     30  C   UNL A   1      35.602  33.764  28.333  1.00  0.00     0.016 A 
ATOM     31  C   UNL A   1      35.485  31.113  29.248  1.00  0.00     0.010 A 
ATOM     32  C   UNL A   1      36.745  33.143  28.871  1.00  0.00     0.010 A 
ATOM     33  C   UNL A   1      36.694  31.813  29.327  1.00  0.00    -0.014 A 
BRANCH  33  34
ATOM     34  C   UNL A   1      37.849  31.162  29.997  1.00  0.00     0.031 A 
ATOM     35  C   UNL A   1      38.101  31.428  31.454  1.00  0.00     0.074 A 
ATOM     36  C   UNL A   1      38.616  30.269  29.343  1.00  0.00     0.049 A 
ATOM     37  N   UNL A   1      39.035  30.950  32.236  1.00  0.00    -0.248 NA
ATOM     38  C   UNL A   1      37.169  32.351  32.118  1.00  0.00     0.031 C 
ATOM     39  C   UNL A   1      38.437  29.866  27.952  1.00  0.00     0.029 A 
ATOM     40  N   UNL A   1      39.685  29.523  29.775  1.00  0.00    -0.354 N 
ATOM     41  C   UNL A   1      38.817  31.528  33.480  1.00  0.00     0.074 A 
ATOM     42  C   UNL A   1      37.660  32.388  33.348  1.00  0.00     0.031 C 
ATOM     43  C   UNL A   1      39.344  28.918  27.653  1.00  0.00     0.029 A 
ATOM     44  C   UNL A   1      40.206  28.694  28.812  1.00  0.00     0.049 A 
ATOM     45  H   UNL A   1      40.045  29.578  30.690  1.00  0.00     0.167 HD
ATOM     46  C   UNL A   1      39.526  31.371  34.624  1.00  0.00     0.037 A 
ATOM     47  C   UNL A   1      41.270  27.867  28.854  1.00  0.00     0.037 A 
ATOM     48  C   UNL A   1      40.687  30.529  34.757  1.00  0.00     0.049 A 
ATOM     49  C   UNL A   1      42.098  27.784  30.113  1.00  0.00     0.074 A 
ATOM     50  C   UNL A   1      41.476  30.321  35.876  1.00  0.00     0.029 A 
ATOM     51  N   UNL A   1      41.236  29.770  33.736  1.00  0.00    -0.354 N 
ATOM     52  N   UNL A   1      41.891  28.342  31.280  1.00  0.00    -0.248 NA
ATOM     53  C   UNL A   1      43.322  26.971  30.048  1.00  0.00     0.031 C 
ATOM     54  C   UNL A   1      42.535  29.480  35.517  1.00  0.00     0.029 A 
ATOM     55  C   UNL A   1      42.372  29.118  34.189  1.00  0.00     0.049 A 
ATOM     56  H   UNL A   1      40.872  29.703  32.824  1.00  0.00     0.167 HD
ATOM     57  C   UNL A   1      42.943  27.930  32.093  1.00  0.00     0.074 A 
ATOM     58  C   UNL A   1      43.776  27.062  31.291  1.00  0.00     0.031 C 
ATOM     59  C   UNL A   1      43.194  28.247  33.387  1.00  0.00     0.037 A 
BRANCH  46  60
ATOM     60  C   UNL A   1      39.100  32.186  35.808  1.00  0.00     0.057 A 
ATOM     61  C   UNL A   1      39.547  33.498  36.012  1.00  0.00     0.134 A 
ATOM     62  C   UNL A   1      38.222  31.647  36.757  1.00  0.00     0.134 A 
ATOM     63  F   UNL A   1      40.404  34.067  35.150  1.00  0.00    -0.206 F 
ATOM     64  C   UNL A   1      39.159  34.233  37.134  1.00  0.00     0.040 A 
ATOM     65  C   UNL A   1      37.806  32.381  37.868  1.00  0.00     0.040 A 
ATOM     66  F   UNL A   1      37.753  30.397  36.618  1.00  0.00    -0.206 F 
ATOM     67  C   UNL A   1      38.281  33.675  38.064  1.00  0.00     0.006 A 
ENDBRANCH  46  60
BRANCH  47  68
ATOM     68  C   UNL A   1      41.656  27.070  27.659  1.00  0.00     0.057 A 
ATOM     69  C   UNL A   1      42.463  27.617  26.654  1.00  0.00     0.134 A 
ATOM     70  C   UNL A   1      41.184  25.767  27.464  1.00  0.00     0.134 A 
ATOM     71  F   UNL A   1      42.918  28.874  26.763  1.00  0.00    -0.206 F 
ATOM     72  C   UNL A   1      42.770  26.905  25.492  1.00  0.00     0.040 A 
ATOM     73  C   UNL A   1      41.506  25.033  26.321  1.00  0.00     0.040 A 
ATOM     74  F   UNL A   1      40.396  25.187  28.383  1.00  0.00    -0.206 F 
ATOM     75  C   UNL A   1      42.294  25.606  25.326  1.00  0.00     0.006 A 
ENDBRANCH  47  68
BRANCH  59  76
ATOM     76  C   UNL A   1      44.400  27.625  34.034  1.00  0.00     0.057 A 
ATOM     77  C   UNL A   1      45.637  28.282  34.087  1.00  0.00     0.134 A 
ATOM     78  C   UNL A   1      44.310  26.373  34.654  1.00  0.00     0.134 A 
ATOM     79  F   UNL A   1      45.796  29.480  33.503  1.00  0.00    -0.206 F 
ATOM     80  C   UNL A   1      46.744  27.706  34.715  1.00  0.00     0.040 A 
ATOM     81  C   UNL A   1      45.401  25.799  35.308  1.00  0.00     0.040 A 
ATOM     82  F   UNL A   1      43.154  25.692  34.651  1.00  0.00    -0.206 F 
ATOM     83  C   UNL A   1      46.625  26.464  35.335  1.00  0.00     0.006 A 
ENDBRANCH  59  76
ENDBRANCH  33  34
ENDBRANCH  26  28
ENDBRANCH  25  26
ENDBRANCH  24  25
ENDBRANCH   1  24
TORSDOF 15
ENDMDL
MODEL 3
REMARK VINA RESULT:     -11.4      4.424      8.536
REMARK SMILES CN(Cc1ccccc1Br)C(=O)N[C@H]1C=C[C@H](C(=O)OCCOC(=O)c2ccc(-c3c4nc(c(-c5c(F)cccc5F)c5ccc([nH]5)c(-c5c(F)cccc5F)c5nc(c(-c6c(F)cccc6F)c6ccc3[nH]6)C=C5)C=C4)cc2)C1
REMARK SMILES IDX 21 1 20 2 18 3 19 4 17 5 14 6 15 7 80 8 16 9 13 10 11 11
REMARK SMILES IDX 12 12 2 14 1 15 3 16 4 17 5 18 9 19 6 20 8 21 10 22 7 23
REMARK SMILES IDX 22 24 23 25 24 26 25 27 26 28 27 29 79 30 28 31 78 32 29 33
REMARK SMILES IDX 30 34 31 35 72 36 32 37 77 38 71 39 73 40 33 41 76 42 70 43
REMARK SMILES IDX 69 44 34 46 60 47 43 48 59 49 44 50 47 51 58 52 74 53 45 54
REMARK SMILES IDX 46 55 57 57 75 58 48 59 35 60 36 61 41 62 37 63 38 64 40 65
REMARK SMILES IDX 42 66 39 67 61 68 62 69 67 70 63 71 64 72 66 73 68 74 65 75
REMARK SMILES IDX 49 76 50 77 55 78 51 79 52 80 54 81 56 82 53 83
REMARK H PARENT 13 13 73 45 47 56
REMARK Flexibility Score: inf
ROOT
ATOM      1  C   UNL A   1      38.125  21.468  25.360  1.00  0.00     0.274 C 
ENDROOT
BRANCH   1   2
ATOM      2  O   UNL A   1      36.925  21.599  24.560  1.00  0.00    -0.462 OA
BRANCH   2   3
ATOM      3  C   UNL A   1      35.778  21.286  25.216  1.00  0.00     0.312 C 
ATOM      4  O   UNL A   1      35.043  20.371  24.870  1.00  0.00    -0.252 OA
BRANCH   3   5
ATOM      5  C   UNL A   1      35.492  22.170  26.428  1.00  0.00     0.124 C 
ATOM      6  C   UNL A   1      33.155  22.796  26.154  1.00  0.00     0.107 C 
ATOM      7  C   UNL A   1      34.053  23.985  25.982  1.00  0.00    -0.006 C 
ATOM      8  C   UNL A   1      34.075  21.887  26.971  1.00  0.00     0.048 C 
ATOM      9  C   UNL A   1      35.344  23.628  26.085  1.00  0.00    -0.014 C 
BRANCH   6  10
ATOM     10  N   UNL A   1      31.928  23.136  26.808  1.00  0.00    -0.332 N 
ATOM     11  C   UNL A   1      30.825  23.811  26.441  1.00  0.00     0.317 C 
ATOM     12  O   UNL A   1      29.881  23.708  27.236  1.00  0.00    -0.249 OA
ATOM     13  H   UNL A   1      31.882  22.802  27.733  1.00  0.00     0.165 HD
BRANCH  11  14
ATOM     14  N   UNL A   1      30.690  24.502  25.269  1.00  0.00    -0.324 N 
ATOM     15  C   UNL A   1      30.767  23.682  24.057  1.00  0.00     0.149 C 
BRANCH  14  16
ATOM     16  C   UNL A   1      30.569  25.942  25.005  1.00  0.00     0.157 C 
BRANCH  16  17
ATOM     17  C   UNL A   1      31.616  26.911  25.516  1.00  0.00    -0.014 A 
ATOM     18  C   UNL A   1      31.446  27.395  26.828  1.00  0.00     0.007 A 
ATOM     19  C   UNL A   1      32.812  27.259  24.882  1.00  0.00     0.022 A 
ATOM     20  C   UNL A   1      32.316  28.294  27.437  1.00  0.00     0.000 A 
ATOM     21  C   UNL A   1      33.722  28.136  25.504  1.00  0.00     0.016 A 
ATOM     22  Br  UNL A   1      33.362  26.507  23.234  1.00  0.00    -0.050 Br
ATOM     23  C   UNL A   1      33.461  28.674  26.765  1.00  0.00     0.001 A 
ENDBRANCH  16  17
ENDBRANCH  14  16
ENDBRANCH  11  14
ENDBRANCH   6  10
ENDBRANCH   3   5
ENDBRANCH   2   3
ENDBRANCH   1   2
BRANCH   1  24
ATOM     24  C   UNL A   1      38.793  20.084  25.265  1.00  0.00     0.275 C 
BRANCH  24  25
ATOM     25  O   UNL A   1      39.610  19.759  26.412  1.00  0.00    -0.458 OA
BRANCH  25  26
ATOM     26  C   UNL A   1      40.949  19.779  26.196  1.00  0.00     0.338 C 
ATOM     27  O   UNL A   1      41.599  18.928  25.610  1.00  0.00    -0.246 OA
BRANCH  26  28
ATOM     28  C   UNL A   1      41.536  21.079  26.602  1.00  0.00     0.060 A 
ATOM     29  C   UNL A   1      41.486  21.391  27.963  1.00  0.00     0.016 A 
ATOM     30  C   UNL A   1      42.063  22.008  25.702  1.00  0.00     0.016 A 
ATOM     31  C   UNL A   1      42.002  22.592  28.446  1.00  0.00     0.010 A 
ATOM     32  C   UNL A   1      42.540  23.243  26.180  1.00  0.00     0.010 A 
ATOM     33  C   UNL A   1      42.516  23.540  27.555  1.00  0.00    -0.014 A 
BRANCH  33  34
ATOM     34  C   UNL A   1      42.911  24.870  28.084  1.00  0.00     0.031 A 
ATOM     35  C   UNL A   1      41.850  25.898  28.357  1.00  0.00     0.074 A 
ATOM     36  C   UNL A   1      44.191  25.135  28.408  1.00  0.00     0.049 A 
ATOM     37  N   UNL A   1      41.972  27.110  28.837  1.00  0.00    -0.248 NA
ATOM     38  C   UNL A   1      40.467  25.503  28.055  1.00  0.00     0.031 C 
ATOM     39  C   UNL A   1      45.305  24.204  28.262  1.00  0.00     0.029 A 
ATOM     40  N   UNL A   1      44.761  26.261  28.950  1.00  0.00    -0.354 N 
ATOM     41  C   UNL A   1      40.685  27.631  28.877  1.00  0.00     0.074 A 
ATOM     42  C   UNL A   1      39.798  26.601  28.377  1.00  0.00     0.031 C 
ATOM     43  C   UNL A   1      46.423  24.783  28.736  1.00  0.00     0.029 A 
ATOM     44  C   UNL A   1      46.114  26.148  29.161  1.00  0.00     0.049 A 
ATOM     45  H   UNL A   1      44.249  27.073  29.166  1.00  0.00     0.167 HD
ATOM     46  C   UNL A   1      40.279  28.860  29.278  1.00  0.00     0.037 A 
ATOM     47  C   UNL A   1      47.004  27.050  29.621  1.00  0.00     0.037 A 
ATOM     48  C   UNL A   1      41.158  29.893  29.761  1.00  0.00     0.049 A 
ATOM     49  C   UNL A   1      46.538  28.443  29.970  1.00  0.00     0.074 A 
ATOM     50  C   UNL A   1      40.835  31.175  30.175  1.00  0.00     0.029 A 
ATOM     51  N   UNL A   1      42.533  29.771  29.880  1.00  0.00    -0.354 N 
ATOM     52  N   UNL A   1      45.322  28.929  29.994  1.00  0.00    -0.248 NA
ATOM     53  C   UNL A   1      47.579  29.417  30.334  1.00  0.00     0.031 C 
ATOM     54  C   UNL A   1      42.021  31.846  30.492  1.00  0.00     0.029 A 
ATOM     55  C   UNL A   1      43.078  30.965  30.330  1.00  0.00     0.049 A 
ATOM     56  H   UNL A   1      43.048  28.957  29.676  1.00  0.00     0.167 HD
ATOM     57  C   UNL A   1      45.448  30.255  30.397  1.00  0.00     0.074 A 
ATOM     58  C   UNL A   1      46.858  30.492  30.623  1.00  0.00     0.031 C 
ATOM     59  C   UNL A   1      44.482  31.191  30.561  1.00  0.00     0.037 A 
BRANCH  46  60
ATOM     60  C   UNL A   1      38.820  29.175  29.140  1.00  0.00     0.057 A 
ATOM     61  C   UNL A   1      38.247  29.546  27.917  1.00  0.00     0.134 A 
ATOM     62  C   UNL A   1      37.974  29.100  30.254  1.00  0.00     0.134 A 
ATOM     63  F   UNL A   1      39.006  29.654  26.815  1.00  0.00    -0.206 F 
ATOM     64  C   UNL A   1      36.891  29.860  27.813  1.00  0.00     0.040 A 
ATOM     65  C   UNL A   1      36.612  29.386  30.158  1.00  0.00     0.040 A 
ATOM     66  F   UNL A   1      38.459  28.746  31.454  1.00  0.00    -0.206 F 
ATOM     67  C   UNL A   1      36.068  29.775  28.937  1.00  0.00     0.006 A 
ENDBRANCH  46  60
BRANCH  47  68
ATOM     68  C   UNL A   1      48.443  26.696  29.749  1.00  0.00     0.057 A 
ATOM     69  C   UNL A   1      49.345  26.946  28.707  1.00  0.00     0.134 A 
ATOM     70  C   UNL A   1      48.940  26.050  30.887  1.00  0.00     0.134 A 
ATOM     71  F   UNL A   1      48.924  27.528  27.575  1.00  0.00    -0.206 F 
ATOM     72  C   UNL A   1      50.682  26.549  28.785  1.00  0.00     0.040 A 
ATOM     73  C   UNL A   1      50.280  25.674  30.990  1.00  0.00     0.040 A 
ATOM     74  F   UNL A   1      48.126  25.770  31.917  1.00  0.00    -0.206 F 
ATOM     75  C   UNL A   1      51.154  25.915  29.932  1.00  0.00     0.006 A 
ENDBRANCH  47  68
BRANCH  59  76
ATOM     76  C   UNL A   1      44.904  32.551  31.042  1.00  0.00     0.057 A 
ATOM     77  C   UNL A   1      45.049  32.846  32.405  1.00  0.00     0.134 A 
ATOM     78  C   UNL A   1      45.215  33.566  30.128  1.00  0.00     0.134 A 
ATOM     79  F   UNL A   1      44.756  31.924  33.334  1.00  0.00    -0.206 F 
ATOM     80  C   UNL A   1      45.468  34.106  32.840  1.00  0.00     0.040 A 
ATOM     81  C   UNL A   1      45.661  34.820  30.549  1.00  0.00     0.040 A 
ATOM     82  F   UNL A   1      45.109  33.350  28.808  1.00  0.00    -0.206 F 
ATOM     83  C   UNL A   1      45.783  35.095  31.910  1.00  0.00     0.006 A 
ENDBRANCH  59  76
ENDBRANCH  33  34
ENDBRANCH  26  28
ENDBRANCH  25  26
ENDBRANCH  24  25
ENDBRANCH   1  24
TORSDOF 15
ENDMDL
