MODEL 1
REMARK VINA RESULT:     -11.5      0.000      0.000
REMARK SMILES O=C(CCCN1C(=O)C(=O)/C(=C(/[O-])c2ccccc2)[C@@H]1/C=C/c1ccccc1)OCCOC(=O)c1ccc(-c2c3nc(c(-c4c(F)cccc4F)c4ccc([nH]4)c(-c4c(F)cccc4F)c4nc(c(-c5c(F)cccc5F)c5ccc2[nH]5)C=C4)C=C3)cc1
REMARK SMILES IDX 29 1 2 2 1 3 3 4 4 5 5 6 6 7 7 8 20 9 8 10 9 11 11 12 10 13
REMARK SMILES IDX 12 14 13 15 21 16 22 17 23 18 24 19 28 20 25 21 27 22 26 23
REMARK SMILES IDX 14 24 15 25 19 26 16 27 18 28 17 29 30 30 31 31 32 32 33 33
REMARK SMILES IDX 34 34 35 35 36 36 88 37 37 38 87 39 38 40 39 41 40 42 81 43
REMARK SMILES IDX 41 44 86 45 80 46 82 47 42 48 85 49 79 50 78 51 43 53 69 54
REMARK SMILES IDX 52 55 68 56 53 57 56 58 67 59 83 60 54 61 55 62 66 64 84 65
REMARK SMILES IDX 57 66 44 67 45 68 50 69 46 70 47 71 49 72 51 73 48 74 70 75
REMARK SMILES IDX 71 76 76 77 72 78 73 79 75 80 77 81 74 82 58 83 59 84 64 85
REMARK SMILES IDX 60 86 61 87 63 88 65 89 62 90
REMARK H PARENT 82 52 56 63
REMARK Flexibility Score: inf
ROOT
ATOM      1  O   UNL A   1      33.384  33.899  29.158  1.00  0.00    -0.462 OA
ENDROOT
BRANCH   1   2
ATOM      2  C   UNL A   1      33.952  33.212  28.135  1.00  0.00     0.305 C 
ATOM      3  O   UNL A   1      35.051  33.474  27.658  1.00  0.00    -0.252 OA
BRANCH   2   4
ATOM      4  C   UNL A   1      32.971  32.241  27.523  1.00  0.00     0.124 C 
BRANCH   4   5
ATOM      5  C   UNL A   1      33.420  30.774  27.323  1.00  0.00     0.033 C 
BRANCH   5   6
ATOM      6  C   UNL A   1      32.471  29.500  27.161  1.00  0.00     0.121 C 
BRANCH   6   7
ATOM      7  N   UNL A   1      32.396  28.753  25.860  1.00  0.00    -0.325 N 
ATOM      8  C   UNL A   1      33.511  27.917  25.707  1.00  0.00     0.295 C 
ATOM      9  C   UNL A   1      31.137  28.129  25.175  1.00  0.00     0.143 C 
ATOM     10  O   UNL A   1      34.555  27.915  26.309  1.00  0.00    -0.265 OA
ATOM     11  C   UNL A   1      33.163  26.831  24.731  1.00  0.00     0.248 C 
ATOM     12  C   UNL A   1      31.686  26.835  24.558  1.00  0.00     0.024 C 
ATOM     13  O   UNL A   1      34.005  26.188  24.167  1.00  0.00    -0.283 OA
ATOM     14  C   UNL A   1      31.082  25.799  23.943  1.00  0.00    -0.092 C 
ATOM     15  O   UNL A   1      29.746  25.770  23.614  1.00  0.00    -0.872 OA
BRANCH   9  16
ATOM     16  C   UNL A   1      30.416  28.988  24.060  1.00  0.00     0.003 C 
ATOM     17  C   UNL A   1      29.093  29.100  23.693  1.00  0.00     0.006 C 
BRANCH  17  18
ATOM     18  C   UNL A   1      28.481  30.220  22.822  1.00  0.00    -0.026 A 
ATOM     19  C   UNL A   1      28.398  31.542  23.338  1.00  0.00     0.008 A 
ATOM     20  C   UNL A   1      28.190  30.097  21.458  1.00  0.00     0.008 A 
ATOM     21  C   UNL A   1      28.420  32.680  22.503  1.00  0.00     0.001 A 
ATOM     22  C   UNL A   1      28.049  31.244  20.633  1.00  0.00     0.001 A 
ATOM     23  C   UNL A   1      28.259  32.529  21.138  1.00  0.00     0.000 A 
ENDBRANCH  17  18
ENDBRANCH   9  16
BRANCH  14  24
ATOM     24  C   UNL A   1      31.786  24.538  23.613  1.00  0.00    -0.033 A 
ATOM     25  C   UNL A   1      31.764  23.442  24.484  1.00  0.00     0.007 A 
ATOM     26  C   UNL A   1      32.421  24.399  22.367  1.00  0.00     0.007 A 
ATOM     27  C   UNL A   1      32.348  22.226  24.108  1.00  0.00     0.001 A 
ATOM     28  C   UNL A   1      33.000  23.182  21.993  1.00  0.00     0.001 A 
ATOM     29  C   UNL A   1      32.962  22.096  22.862  1.00  0.00     0.000 A 
ENDBRANCH  14  24
ENDBRANCH   6   7
ENDBRANCH   5   6
ENDBRANCH   4   5
ENDBRANCH   2   4
ENDBRANCH   1   2
BRANCH   1  30
ATOM     30  C   UNL A   1      33.741  35.269  29.064  1.00  0.00     0.274 C 
BRANCH  30  31
ATOM     31  C   UNL A   1      32.916  36.109  30.037  1.00  0.00     0.275 C 
BRANCH  31  32
ATOM     32  O   UNL A   1      32.438  35.459  31.235  1.00  0.00    -0.458 OA
BRANCH  32  33
ATOM     33  C   UNL A   1      32.912  35.802  32.446  1.00  0.00     0.338 C 
ATOM     34  O   UNL A   1      32.461  36.590  33.249  1.00  0.00    -0.246 OA
BRANCH  33  35
ATOM     35  C   UNL A   1      34.065  35.028  32.866  1.00  0.00     0.060 A 
ATOM     36  C   UNL A   1      35.277  35.642  32.569  1.00  0.00     0.016 A 
ATOM     37  C   UNL A   1      33.996  33.697  33.295  1.00  0.00     0.016 A 
ATOM     38  C   UNL A   1      36.448  34.927  32.715  1.00  0.00     0.010 A 
ATOM     39  C   UNL A   1      35.187  32.993  33.490  1.00  0.00     0.010 A 
ATOM     40  C   UNL A   1      36.414  33.611  33.201  1.00  0.00    -0.014 A 
BRANCH  40  41
ATOM     41  C   UNL A   1      37.709  32.971  33.490  1.00  0.00     0.031 A 
ATOM     42  C   UNL A   1      38.454  33.248  34.755  1.00  0.00     0.074 A 
ATOM     43  C   UNL A   1      38.133  32.032  32.624  1.00  0.00     0.049 A 
ATOM     44  N   UNL A   1      39.524  32.656  35.220  1.00  0.00    -0.248 NA
ATOM     45  C   UNL A   1      37.930  34.316  35.616  1.00  0.00     0.031 C 
ATOM     46  C   UNL A   1      37.448  31.675  31.378  1.00  0.00     0.029 A 
ATOM     47  N   UNL A   1      39.207  31.187  32.673  1.00  0.00    -0.354 N 
ATOM     48  C   UNL A   1      39.800  33.270  36.433  1.00  0.00     0.074 A 
ATOM     49  C   UNL A   1      38.803  34.305  36.617  1.00  0.00     0.031 C 
ATOM     50  C   UNL A   1      38.103  30.660  30.797  1.00  0.00     0.029 A 
ATOM     51  C   UNL A   1      39.269  30.328  31.606  1.00  0.00     0.049 A 
ATOM     52  H   UNL A   1      39.867  31.194  33.403  1.00  0.00     0.167 HD
ATOM     53  C   UNL A   1      40.791  32.982  37.311  1.00  0.00     0.037 A 
ATOM     54  C   UNL A   1      40.177  29.382  31.309  1.00  0.00     0.037 A 
ATOM     55  C   UNL A   1      41.786  31.959  37.098  1.00  0.00     0.049 A 
ATOM     56  C   UNL A   1      41.305  29.138  32.267  1.00  0.00     0.074 A 
ATOM     57  C   UNL A   1      42.831  31.586  37.927  1.00  0.00     0.029 A 
ATOM     58  N   UNL A   1      41.868  31.154  35.970  1.00  0.00    -0.354 N 
ATOM     59  N   UNL A   1      41.538  29.699  33.428  1.00  0.00    -0.248 NA
ATOM     60  C   UNL A   1      42.296  28.130  31.874  1.00  0.00     0.031 C 
ATOM     61  C   UNL A   1      43.575  30.596  37.277  1.00  0.00     0.029 A 
ATOM     62  C   UNL A   1      42.961  30.308  36.068  1.00  0.00     0.049 A 
ATOM     63  H   UNL A   1      41.241  31.181  35.211  1.00  0.00     0.167 HD
ATOM     64  C   UNL A   1      42.688  29.095  33.918  1.00  0.00     0.074 A 
ATOM     65  C   UNL A   1      43.092  28.112  32.933  1.00  0.00     0.031 C 
ATOM     66  C   UNL A   1      43.348  29.333  35.077  1.00  0.00     0.037 A 
BRANCH  53  67
ATOM     67  C   UNL A   1      40.864  33.799  38.568  1.00  0.00     0.057 A 
ATOM     68  C   UNL A   1      41.692  34.925  38.672  1.00  0.00     0.134 A 
ATOM     69  C   UNL A   1      40.064  33.484  39.674  1.00  0.00     0.134 A 
ATOM     70  F   UNL A   1      42.489  35.279  37.652  1.00  0.00    -0.206 F 
ATOM     71  C   UNL A   1      41.737  35.693  39.837  1.00  0.00     0.040 A 
ATOM     72  C   UNL A   1      40.083  34.259  40.834  1.00  0.00     0.040 A 
ATOM     73  F   UNL A   1      39.241  32.425  39.639  1.00  0.00    -0.206 F 
ATOM     74  C   UNL A   1      40.925  35.364  40.920  1.00  0.00     0.006 A 
ENDBRANCH  53  67
BRANCH  54  75
ATOM     75  C   UNL A   1      40.051  28.608  30.050  1.00  0.00     0.057 A 
ATOM     76  C   UNL A   1      39.302  27.428  29.993  1.00  0.00     0.134 A 
ATOM     77  C   UNL A   1      40.678  29.035  28.872  1.00  0.00     0.134 A 
ATOM     78  F   UNL A   1      38.689  26.963  31.091  1.00  0.00    -0.206 F 
ATOM     79  C   UNL A   1      39.198  26.688  28.814  1.00  0.00     0.040 A 
ATOM     80  C   UNL A   1      40.558  28.320  27.681  1.00  0.00     0.040 A 
ATOM     81  F   UNL A   1      41.401  30.165  28.860  1.00  0.00    -0.206 F 
ATOM     82  C   UNL A   1      39.825  27.137  27.653  1.00  0.00     0.006 A 
ENDBRANCH  54  75
BRANCH  66  83
ATOM     83  C   UNL A   1      44.560  28.491  35.355  1.00  0.00     0.057 A 
ATOM     84  C   UNL A   1      44.475  27.271  36.037  1.00  0.00     0.134 A 
ATOM     85  C   UNL A   1      45.826  28.895  34.909  1.00  0.00     0.134 A 
ATOM     86  F   UNL A   1      43.295  26.834  36.505  1.00  0.00    -0.206 F 
ATOM     87  C   UNL A   1      45.607  26.494  36.288  1.00  0.00     0.040 A 
ATOM     88  C   UNL A   1      46.960  28.114  35.128  1.00  0.00     0.040 A 
ATOM     89  F   UNL A   1      45.976  30.050  34.244  1.00  0.00    -0.206 F 
ATOM     90  C   UNL A   1      46.854  26.913  35.826  1.00  0.00     0.006 A 
ENDBRANCH  66  83
ENDBRANCH  40  41
ENDBRANCH  33  35
ENDBRANCH  32  33
ENDBRANCH  31  32
ENDBRANCH  30  31
ENDBRANCH   1  30
TORSDOF 17
ENDMDL
MODEL 2
REMARK VINA RESULT:     -11.5      3.130      8.652
REMARK SMILES O=C(CCCN1C(=O)C(=O)/C(=C(/[O-])c2ccccc2)[C@@H]1/C=C/c1ccccc1)OCCOC(=O)c1ccc(-c2c3nc(c(-c4c(F)cccc4F)c4ccc([nH]4)c(-c4c(F)cccc4F)c4nc(c(-c5c(F)cccc5F)c5ccc2[nH]5)C=C4)C=C3)cc1
REMARK SMILES IDX 29 1 2 2 1 3 3 4 4 5 5 6 6 7 7 8 20 9 8 10 9 11 11 12 10 13
REMARK SMILES IDX 12 14 13 15 21 16 22 17 23 18 24 19 28 20 25 21 27 22 26 23
REMARK SMILES IDX 14 24 15 25 19 26 16 27 18 28 17 29 30 30 31 31 32 32 33 33
REMARK SMILES IDX 34 34 35 35 36 36 88 37 37 38 87 39 38 40 39 41 40 42 81 43
REMARK SMILES IDX 41 44 86 45 80 46 82 47 42 48 85 49 79 50 78 51 43 53 69 54
REMARK SMILES IDX 52 55 68 56 53 57 56 58 67 59 83 60 54 61 55 62 66 64 84 65
REMARK SMILES IDX 57 66 44 67 45 68 50 69 46 70 47 71 49 72 51 73 48 74 70 75
REMARK SMILES IDX 71 76 76 77 72 78 73 79 75 80 77 81 74 82 58 83 59 84 64 85
REMARK SMILES IDX 60 86 61 87 63 88 65 89 62 90
REMARK H PARENT 82 52 56 63
REMARK Flexibility Score: inf
ROOT
ATOM      1  O   UNL A   1      30.967  26.727  26.570  1.00  0.00    -0.462 OA
ENDROOT
BRANCH   1   2
ATOM      2  C   UNL A   1      31.692  25.645  26.190  1.00  0.00     0.305 C 
ATOM      3  O   UNL A   1      32.917  25.621  26.144  1.00  0.00    -0.252 OA
BRANCH   2   4
ATOM      4  C   UNL A   1      30.801  24.565  25.626  1.00  0.00     0.124 C 
BRANCH   4   5
ATOM      5  C   UNL A   1      30.579  24.523  24.095  1.00  0.00     0.033 C 
BRANCH   5   6
ATOM      6  C   UNL A   1      31.633  24.054  22.992  1.00  0.00     0.121 C 
BRANCH   6   7
ATOM      7  N   UNL A   1      32.814  23.204  23.365  1.00  0.00    -0.325 N 
ATOM      8  C   UNL A   1      34.008  23.811  22.953  1.00  0.00     0.295 C 
ATOM      9  C   UNL A   1      33.034  22.377  24.673  1.00  0.00     0.143 C 
ATOM     10  O   UNL A   1      34.178  24.719  22.179  1.00  0.00    -0.265 OA
ATOM     11  C   UNL A   1      35.134  23.258  23.777  1.00  0.00     0.248 C 
ATOM     12  C   UNL A   1      34.537  22.546  24.938  1.00  0.00     0.024 C 
ATOM     13  O   UNL A   1      36.280  23.341  23.428  1.00  0.00    -0.283 OA
ATOM     14  C   UNL A   1      35.319  22.182  25.973  1.00  0.00    -0.092 C 
ATOM     15  O   UNL A   1      34.893  21.405  27.026  1.00  0.00    -0.872 OA
BRANCH   9  16
ATOM     16  C   UNL A   1      32.670  20.838  24.630  1.00  0.00     0.003 C 
ATOM     17  C   UNL A   1      33.062  19.820  23.788  1.00  0.00     0.006 C 
BRANCH  17  18
ATOM     18  C   UNL A   1      32.906  18.308  24.055  1.00  0.00    -0.026 A 
ATOM     19  C   UNL A   1      33.604  17.376  23.239  1.00  0.00     0.008 A 
ATOM     20  C   UNL A   1      32.294  17.759  25.189  1.00  0.00     0.008 A 
ATOM     21  C   UNL A   1      33.997  16.105  23.712  1.00  0.00     0.001 A 
ATOM     22  C   UNL A   1      32.558  16.422  25.589  1.00  0.00     0.001 A 
ATOM     23  C   UNL A   1      33.481  15.630  24.904  1.00  0.00     0.000 A 
ENDBRANCH  17  18
ENDBRANCH   9  16
BRANCH  14  24
ATOM     24  C   UNL A   1      36.720  22.642  26.124  1.00  0.00    -0.033 A 
ATOM     25  C   UNL A   1      37.799  21.805  25.812  1.00  0.00     0.007 A 
ATOM     26  C   UNL A   1      36.982  23.969  26.505  1.00  0.00     0.007 A 
ATOM     27  C   UNL A   1      39.111  22.292  25.862  1.00  0.00     0.001 A 
ATOM     28  C   UNL A   1      38.293  24.453  26.551  1.00  0.00     0.001 A 
ATOM     29  C   UNL A   1      39.357  23.615  26.228  1.00  0.00     0.000 A 
ENDBRANCH  14  24
ENDBRANCH   6   7
ENDBRANCH   5   6
ENDBRANCH   4   5
ENDBRANCH   2   4
ENDBRANCH   1   2
BRANCH   1  30
ATOM     30  C   UNL A   1      31.375  27.859  25.819  1.00  0.00     0.274 C 
BRANCH  30  31
ATOM     31  C   UNL A   1      31.883  28.964  26.743  1.00  0.00     0.275 C 
BRANCH  31  32
ATOM     32  O   UNL A   1      32.789  29.939  26.177  1.00  0.00    -0.458 OA
BRANCH  32  33
ATOM     33  C   UNL A   1      33.156  31.029  26.873  1.00  0.00     0.338 C 
ATOM     34  O   UNL A   1      32.524  32.038  27.105  1.00  0.00    -0.246 OA
BRANCH  33  35
ATOM     35  C   UNL A   1      34.453  30.908  27.512  1.00  0.00     0.060 A 
ATOM     36  C   UNL A   1      34.696  29.639  28.025  1.00  0.00     0.016 A 
ATOM     37  C   UNL A   1      35.278  31.998  27.814  1.00  0.00     0.016 A 
ATOM     38  C   UNL A   1      35.789  29.441  28.843  1.00  0.00     0.010 A 
ATOM     39  C   UNL A   1      36.412  31.783  28.601  1.00  0.00     0.010 A 
ATOM     40  C   UNL A   1      36.668  30.501  29.114  1.00  0.00    -0.014 A 
BRANCH  40  41
ATOM     41  C   UNL A   1      37.901  30.177  29.853  1.00  0.00     0.031 A 
ATOM     42  C   UNL A   1      39.022  29.426  29.213  1.00  0.00     0.074 A 
ATOM     43  C   UNL A   1      38.025  30.695  31.089  1.00  0.00     0.049 A 
ATOM     44  N   UNL A   1      40.222  29.194  29.680  1.00  0.00    -0.248 NA
ATOM     45  C   UNL A   1      38.774  28.870  27.876  1.00  0.00     0.031 C 
ATOM     46  C   UNL A   1      36.989  31.470  31.778  1.00  0.00     0.029 A 
ATOM     47  N   UNL A   1      39.075  30.682  31.964  1.00  0.00    -0.354 N 
ATOM     48  C   UNL A   1      40.880  28.475  28.693  1.00  0.00     0.074 A 
ATOM     49  C   UNL A   1      39.933  28.278  27.614  1.00  0.00     0.031 C 
ATOM     50  C   UNL A   1      37.470  31.887  32.958  1.00  0.00     0.029 A 
ATOM     51  C   UNL A   1      38.825  31.373  33.122  1.00  0.00     0.049 A 
ATOM     52  H   UNL A   1      39.927  30.223  31.780  1.00  0.00     0.167 HD
ATOM     53  C   UNL A   1      42.161  28.033  28.693  1.00  0.00     0.037 A 
ATOM     54  C   UNL A   1      39.602  31.563  34.202  1.00  0.00     0.037 A 
ATOM     55  C   UNL A   1      43.081  28.222  29.788  1.00  0.00     0.049 A 
ATOM     56  C   UNL A   1      40.990  30.995  34.200  1.00  0.00     0.074 A 
ATOM     57  C   UNL A   1      44.401  27.815  29.886  1.00  0.00     0.029 A 
ATOM     58  N   UNL A   1      42.773  28.863  30.981  1.00  0.00    -0.354 N 
ATOM     59  N   UNL A   1      41.617  30.347  33.248  1.00  0.00    -0.248 NA
ATOM     60  C   UNL A   1      41.781  31.187  35.421  1.00  0.00     0.031 C 
ATOM     61  C   UNL A   1      44.873  28.161  31.156  1.00  0.00     0.029 A 
ATOM     62  C   UNL A   1      43.868  28.836  31.830  1.00  0.00     0.049 A 
ATOM     63  H   UNL A   1      41.905  29.275  31.192  1.00  0.00     0.167 HD
ATOM     64  C   UNL A   1      42.884  30.074  33.745  1.00  0.00     0.074 A 
ATOM     65  C   UNL A   1      42.940  30.645  35.076  1.00  0.00     0.031 C 
ATOM     66  C   UNL A   1      43.907  29.412  33.153  1.00  0.00     0.037 A 
BRANCH  53  67
ATOM     67  C   UNL A   1      42.634  27.278  27.484  1.00  0.00     0.057 A 
ATOM     68  C   UNL A   1      42.525  25.885  27.392  1.00  0.00     0.134 A 
ATOM     69  C   UNL A   1      43.165  27.957  26.380  1.00  0.00     0.134 A 
ATOM     70  F   UNL A   1      42.032  25.172  28.417  1.00  0.00    -0.206 F 
ATOM     71  C   UNL A   1      42.948  25.192  26.255  1.00  0.00     0.040 A 
ATOM     72  C   UNL A   1      43.568  27.279  25.229  1.00  0.00     0.040 A 
ATOM     73  F   UNL A   1      43.289  29.293  26.397  1.00  0.00    -0.206 F 
ATOM     74  C   UNL A   1      43.465  25.891  25.166  1.00  0.00     0.006 A 
ENDBRANCH  53  67
BRANCH  54  75
ATOM     75  C   UNL A   1      39.077  32.316  35.366  1.00  0.00     0.057 A 
ATOM     76  C   UNL A   1      38.398  31.671  36.405  1.00  0.00     0.134 A 
ATOM     77  C   UNL A   1      39.244  33.704  35.465  1.00  0.00     0.134 A 
ATOM     78  F   UNL A   1      38.198  30.346  36.360  1.00  0.00    -0.206 F 
ATOM     79  C   UNL A   1      37.886  32.381  37.492  1.00  0.00     0.040 A 
ATOM     80  C   UNL A   1      38.763  34.421  36.560  1.00  0.00     0.040 A 
ATOM     81  F   UNL A   1      39.896  34.378  34.507  1.00  0.00    -0.206 F 
ATOM     82  C   UNL A   1      38.073  33.760  37.572  1.00  0.00     0.006 A 
ENDBRANCH  54  75
BRANCH  66  83
ATOM     83  C   UNL A   1      45.185  29.298  33.932  1.00  0.00     0.057 A 
ATOM     84  C   UNL A   1      46.198  30.261  33.841  1.00  0.00     0.134 A 
ATOM     85  C   UNL A   1      45.393  28.222  34.806  1.00  0.00     0.134 A 
ATOM     86  F   UNL A   1      46.068  31.308  33.011  1.00  0.00    -0.206 F 
ATOM     87  C   UNL A   1      47.381  30.147  34.572  1.00  0.00     0.040 A 
ATOM     88  C   UNL A   1      46.559  28.112  35.563  1.00  0.00     0.040 A 
ATOM     89  F   UNL A   1      44.461  27.267  34.944  1.00  0.00    -0.206 F 
ATOM     90  C   UNL A   1      47.561  29.073  35.443  1.00  0.00     0.006 A 
ENDBRANCH  66  83
ENDBRANCH  40  41
ENDBRANCH  33  35
ENDBRANCH  32  33
ENDBRANCH  31  32
ENDBRANCH  30  31
ENDBRANCH   1  30
TORSDOF 17
ENDMDL
MODEL 3
REMARK VINA RESULT:     -11.5      0.543      6.011
REMARK SMILES O=C(CCCN1C(=O)C(=O)/C(=C(/[O-])c2ccccc2)[C@@H]1/C=C/c1ccccc1)OCCOC(=O)c1ccc(-c2c3nc(c(-c4c(F)cccc4F)c4ccc([nH]4)c(-c4c(F)cccc4F)c4nc(c(-c5c(F)cccc5F)c5ccc2[nH]5)C=C4)C=C3)cc1
REMARK SMILES IDX 29 1 2 2 1 3 3 4 4 5 5 6 6 7 7 8 20 9 8 10 9 11 11 12 10 13
REMARK SMILES IDX 12 14 13 15 21 16 22 17 23 18 24 19 28 20 25 21 27 22 26 23
REMARK SMILES IDX 14 24 15 25 19 26 16 27 18 28 17 29 30 30 31 31 32 32 33 33
REMARK SMILES IDX 34 34 35 35 36 36 88 37 37 38 87 39 38 40 39 41 40 42 81 43
REMARK SMILES IDX 41 44 86 45 80 46 82 47 42 48 85 49 79 50 78 51 43 53 69 54
REMARK SMILES IDX 52 55 68 56 53 57 56 58 67 59 83 60 54 61 55 62 66 64 84 65
REMARK SMILES IDX 57 66 44 67 45 68 50 69 46 70 47 71 49 72 51 73 48 74 70 75
REMARK SMILES IDX 71 76 76 77 72 78 73 79 75 80 77 81 74 82 58 83 59 84 64 85
REMARK SMILES IDX 60 86 61 87 63 88 65 89 62 90
REMARK H PARENT 82 52 56 63
REMARK Flexibility Score: inf
ROOT
ATOM      1  O   UNL A   1      33.809  33.865  29.378  1.00  0.00    -0.462 OA
ENDROOT
BRANCH   1   2
ATOM      2  C   UNL A   1      33.995  33.502  28.083  1.00  0.00     0.305 C 
ATOM      3  O   UNL A   1      34.815  34.024  27.335  1.00  0.00    -0.252 OA
BRANCH   2   4
ATOM      4  C   UNL A   1      32.924  32.540  27.629  1.00  0.00     0.124 C 
BRANCH   4   5
ATOM      5  C   UNL A   1      33.339  31.091  27.281  1.00  0.00     0.033 C 
BRANCH   5   6
ATOM      6  C   UNL A   1      32.365  29.842  27.086  1.00  0.00     0.121 C 
BRANCH   6   7
ATOM      7  N   UNL A   1      32.328  29.085  25.789  1.00  0.00    -0.325 N 
ATOM      8  C   UNL A   1      33.467  28.278  25.657  1.00  0.00     0.295 C 
ATOM      9  C   UNL A   1      31.096  28.424  25.090  1.00  0.00     0.143 C 
ATOM     10  O   UNL A   1      34.502  28.308  26.273  1.00  0.00    -0.265 OA
ATOM     11  C   UNL A   1      33.162  27.178  24.683  1.00  0.00     0.248 C 
ATOM     12  C   UNL A   1      31.688  27.142  24.488  1.00  0.00     0.024 C 
ATOM     13  O   UNL A   1      34.029  26.554  24.134  1.00  0.00    -0.283 OA
ATOM     14  C   UNL A   1      31.121  26.087  23.871  1.00  0.00    -0.092 C 
ATOM     15  O   UNL A   1      29.790  26.020  23.524  1.00  0.00    -0.872 OA
BRANCH   9  16
ATOM     16  C   UNL A   1      30.368  29.258  23.960  1.00  0.00     0.003 C 
ATOM     17  C   UNL A   1      29.068  29.256  23.505  1.00  0.00     0.006 C 
BRANCH  17  18
ATOM     18  C   UNL A   1      28.407  30.348  22.636  1.00  0.00    -0.026 A 
ATOM     19  C   UNL A   1      28.154  31.631  23.195  1.00  0.00     0.008 A 
ATOM     20  C   UNL A   1      28.223  30.260  21.250  1.00  0.00     0.008 A 
ATOM     21  C   UNL A   1      28.117  32.802  22.408  1.00  0.00     0.001 A 
ATOM     22  C   UNL A   1      28.023  31.424  20.462  1.00  0.00     0.001 A 
ATOM     23  C   UNL A   1      28.066  32.698  21.029  1.00  0.00     0.000 A 
ENDBRANCH  17  18
ENDBRANCH   9  16
BRANCH  14  24
ATOM     24  C   UNL A   1      31.863  24.843  23.559  1.00  0.00    -0.033 A 
ATOM     25  C   UNL A   1      31.945  23.792  24.481  1.00  0.00     0.007 A 
ATOM     26  C   UNL A   1      32.427  24.669  22.284  1.00  0.00     0.007 A 
ATOM     27  C   UNL A   1      32.562  22.586  24.128  1.00  0.00     0.001 A 
ATOM     28  C   UNL A   1      33.040  23.462  21.933  1.00  0.00     0.001 A 
ATOM     29  C   UNL A   1      33.106  22.420  22.854  1.00  0.00     0.000 A 
ENDBRANCH  14  24
ENDBRANCH   6   7
ENDBRANCH   5   6
ENDBRANCH   4   5
ENDBRANCH   2   4
ENDBRANCH   1   2
BRANCH   1  30
ATOM     30  C   UNL A   1      34.000  35.265  29.510  1.00  0.00     0.274 C 
BRANCH  30  31
ATOM     31  C   UNL A   1      32.706  35.946  29.950  1.00  0.00     0.275 C 
BRANCH  31  32
ATOM     32  O   UNL A   1      32.220  35.654  31.279  1.00  0.00    -0.458 OA
BRANCH  32  33
ATOM     33  C   UNL A   1      32.862  36.114  32.367  1.00  0.00     0.338 C 
ATOM     34  O   UNL A   1      32.642  37.112  33.020  1.00  0.00    -0.246 OA
BRANCH  33  35
ATOM     35  C   UNL A   1      33.885  35.217  32.869  1.00  0.00     0.060 A 
ATOM     36  C   UNL A   1      35.174  35.723  32.733  1.00  0.00     0.016 A 
ATOM     37  C   UNL A   1      33.648  33.883  33.222  1.00  0.00     0.016 A 
ATOM     38  C   UNL A   1      36.251  34.893  32.967  1.00  0.00     0.010 A 
ATOM     39  C   UNL A   1      34.741  33.061  33.508  1.00  0.00     0.010 A 
ATOM     40  C   UNL A   1      36.043  33.569  33.381  1.00  0.00    -0.014 A 
BRANCH  40  41
ATOM     41  C   UNL A   1      37.235  32.796  33.775  1.00  0.00     0.031 A 
ATOM     42  C   UNL A   1      37.858  31.796  32.855  1.00  0.00     0.074 A 
ATOM     43  C   UNL A   1      37.812  33.118  34.947  1.00  0.00     0.049 A 
ATOM     44  N   UNL A   1      38.986  31.148  32.996  1.00  0.00    -0.248 NA
ATOM     45  C   UNL A   1      37.131  31.488  31.616  1.00  0.00     0.031 C 
ATOM     46  C   UNL A   1      37.287  34.107  35.893  1.00  0.00     0.029 A 
ATOM     47  N   UNL A   1      38.972  32.682  35.524  1.00  0.00    -0.354 N 
ATOM     48  C   UNL A   1      39.114  30.362  31.860  1.00  0.00     0.074 A 
ATOM     49  C   UNL A   1      37.931  30.588  31.056  1.00  0.00     0.031 C 
ATOM     50  C   UNL A   1      38.142  34.227  36.918  1.00  0.00     0.029 A 
ATOM     51  C   UNL A   1      39.246  33.295  36.720  1.00  0.00     0.049 A 
ATOM     52  H   UNL A   1      39.553  31.998  35.120  1.00  0.00     0.167 HD
ATOM     53  C   UNL A   1      40.136  29.538  31.524  1.00  0.00     0.037 A 
ATOM     54  C   UNL A   1      40.273  33.116  37.569  1.00  0.00     0.037 A 
ATOM     55  C   UNL A   1      41.297  29.312  32.351  1.00  0.00     0.049 A 
ATOM     56  C   UNL A   1      41.351  32.140  37.202  1.00  0.00     0.074 A 
ATOM     57  C   UNL A   1      42.389  28.499  32.101  1.00  0.00     0.029 A 
ATOM     58  N   UNL A   1      41.510  29.892  33.594  1.00  0.00    -0.354 N 
ATOM     59  N   UNL A   1      41.483  31.427  36.109  1.00  0.00    -0.248 NA
ATOM     60  C   UNL A   1      42.424  31.944  38.183  1.00  0.00     0.031 C 
ATOM     61  C   UNL A   1      43.235  28.544  33.214  1.00  0.00     0.029 A 
ATOM     62  C   UNL A   1      42.701  29.432  34.134  1.00  0.00     0.049 A 
ATOM     63  H   UNL A   1      40.904  30.535  34.028  1.00  0.00     0.167 HD
ATOM     64  C   UNL A   1      42.666  30.716  36.260  1.00  0.00     0.074 A 
ATOM     65  C   UNL A   1      43.220  31.100  37.542  1.00  0.00     0.031 C 
ATOM     66  C   UNL A   1      43.239  29.827  35.414  1.00  0.00     0.037 A 
BRANCH  53  67
ATOM     67  C   UNL A   1      40.033  28.800  30.221  1.00  0.00     0.057 A 
ATOM     68  C   UNL A   1      39.305  27.609  30.101  1.00  0.00     0.134 A 
ATOM     69  C   UNL A   1      40.631  29.309  29.061  1.00  0.00     0.134 A 
ATOM     70  F   UNL A   1      38.712  27.062  31.173  1.00  0.00    -0.206 F 
ATOM     71  C   UNL A   1      39.195  26.940  28.879  1.00  0.00     0.040 A 
ATOM     72  C   UNL A   1      40.508  28.663  27.830  1.00  0.00     0.040 A 
ATOM     73  F   UNL A   1      41.335  30.450  29.102  1.00  0.00    -0.206 F 
ATOM     74  C   UNL A   1      39.792  27.471  27.738  1.00  0.00     0.006 A 
ENDBRANCH  53  67
BRANCH  54  75
ATOM     75  C   UNL A   1      40.318  33.874  38.842  1.00  0.00     0.057 A 
ATOM     76  C   UNL A   1      39.609  33.448  39.969  1.00  0.00     0.134 A 
ATOM     77  C   UNL A   1      41.078  35.046  38.960  1.00  0.00     0.134 A 
ATOM     78  F   UNL A   1      38.856  32.340  39.914  1.00  0.00    -0.206 F 
ATOM     79  C   UNL A   1      39.635  34.170  41.163  1.00  0.00     0.040 A 
ATOM     80  C   UNL A   1      41.135  35.762  40.156  1.00  0.00     0.040 A 
ATOM     81  F   UNL A   1      41.789  35.500  37.918  1.00  0.00    -0.206 F 
ATOM     82  C   UNL A   1      40.404  35.329  41.258  1.00  0.00     0.006 A 
ENDBRANCH  54  75
BRANCH  66  83
ATOM     83  C   UNL A   1      44.551  29.234  35.838  1.00  0.00     0.057 A 
ATOM     84  C   UNL A   1      45.776  29.821  35.496  1.00  0.00     0.134 A 
ATOM     85  C   UNL A   1      44.588  28.072  36.622  1.00  0.00     0.134 A 
ATOM     86  F   UNL A   1      45.812  30.925  34.734  1.00  0.00    -0.206 F 
ATOM     87  C   UNL A   1      46.991  29.262  35.899  1.00  0.00     0.040 A 
ATOM     88  C   UNL A   1      45.794  27.521  37.054  1.00  0.00     0.040 A 
ATOM     89  F   UNL A   1      43.450  27.463  36.989  1.00  0.00    -0.206 F 
ATOM     90  C   UNL A   1      47.001  28.112  36.687  1.00  0.00     0.006 A 
ENDBRANCH  66  83
ENDBRANCH  40  41
ENDBRANCH  33  35
ENDBRANCH  32  33
ENDBRANCH  31  32
ENDBRANCH  30  31
ENDBRANCH   1  30
TORSDOF 17
ENDMDL
