MODEL 1
REMARK VINA RESULT:     -10.4      0.000      0.000
REMARK SMILES C[NH+]1CCN(c2nc3c(cc2F)c(=O)c(C(=O)OCCOC(=O)c2ccc(-c4c5nc(c(-c6c(F)cccc6F)c6ccc([nH]6)c(-c6c(F)cccc6F)c6nc(c(-c7c(F)cccc7F)c7ccc4[nH]7)C=C6)C=C5)cc2)cn3-c2ccc(F)cc2F)CC1
REMARK SMILES IDX 20 1 19 2 18 3 16 4 17 5 15 6 6 7 7 8 11 9 8 10 10 11 12 12
REMARK SMILES IDX 9 13 79 14 13 15 78 16 14 17 5 18 1 19 2 20 3 21 89 22 4 24
REMARK SMILES IDX 88 25 80 26 81 27 86 28 82 29 85 30 87 31 83 32 84 33 21 34
REMARK SMILES IDX 22 35 23 36 24 37 25 38 77 39 26 40 76 41 27 42 28 43 29 44
REMARK SMILES IDX 70 45 30 46 75 47 69 48 71 49 31 50 74 51 68 52 67 53 32 55
REMARK SMILES IDX 58 56 41 57 57 58 42 59 45 60 56 61 72 62 43 63 44 64 55 66
REMARK SMILES IDX 73 67 46 68 33 69 34 70 39 71 35 72 36 73 38 74 40 75 37 76
REMARK SMILES IDX 59 77 60 78 65 79 61 80 62 81 64 82 66 83 63 84 47 85 48 86
REMARK SMILES IDX 53 87 49 88 50 89 52 90 54 91 51 92
REMARK H PARENT 2 23 71 54 45 65
REMARK Flexibility Score: inf
ROOT
ATOM      1  C   UNL A   1      42.904  18.928  25.754  1.00  0.00     0.275 C 
ENDROOT
BRANCH   1   2
ATOM      2  C   UNL A   1      44.193  19.239  25.001  1.00  0.00     0.275 C 
BRANCH   2   3
ATOM      3  O   UNL A   1      44.335  20.661  24.827  1.00  0.00    -0.458 OA
BRANCH   3   4
ATOM      4  C   UNL A   1      45.593  21.155  24.834  1.00  0.00     0.343 C 
ATOM      5  O   UNL A   1      46.619  20.517  24.643  1.00  0.00    -0.246 OA
BRANCH   4   6
ATOM      6  C   UNL A   1      45.585  22.615  25.014  1.00  0.00     0.124 A 
ATOM      7  C   UNL A   1      44.662  27.502  25.948  1.00  0.00     0.167 A 
ATOM      8  N   UNL A   1      45.777  26.735  26.006  1.00  0.00    -0.209 NA
ATOM      9  C   UNL A   1      43.457  26.994  25.449  1.00  0.00     0.166 A 
ATOM     10  C   UNL A   1      45.700  25.428  25.635  1.00  0.00     0.151 A 
ATOM     11  C   UNL A   1      43.379  25.691  25.002  1.00  0.00     0.059 A 
ATOM     12  F   UNL A   1      42.361  27.766  25.376  1.00  0.00    -0.203 F 
ATOM     13  C   UNL A   1      44.513  24.893  25.110  1.00  0.00     0.069 A 
ATOM     14  N   UNL A   1      46.830  24.563  25.805  1.00  0.00    -0.297 N 
ATOM     15  C   UNL A   1      44.424  23.473  24.719  1.00  0.00     0.205 A 
ATOM     16  C   UNL A   1      46.671  23.211  25.529  1.00  0.00     0.113 A 
ATOM     17  O   UNL A   1      43.387  23.033  24.236  1.00  0.00    -0.288 OA
BRANCH   7  18
ATOM     18  N   UNL A   1      44.722  28.797  26.396  1.00  0.00    -0.343 N 
ATOM     19  C   UNL A   1      44.405  32.983  26.301  1.00  0.00     0.332 C 
ATOM     20  N   UNL A   1      44.636  31.643  26.840  1.00  0.00    -0.334 N 
ATOM     21  C   UNL A   1      45.762  30.984  26.125  1.00  0.00     0.283 C 
ATOM     22  C   UNL A   1      43.402  30.832  26.707  1.00  0.00     0.283 C 
ATOM     23  H   UNL A   1      44.884  31.722  27.827  1.00  0.00     0.347 HD
ATOM     24  C   UNL A   1      45.987  29.504  26.542  1.00  0.00     0.179 C 
ATOM     25  C   UNL A   1      43.596  29.364  27.131  1.00  0.00     0.179 C 
ENDBRANCH   7  18
BRANCH  14  26
ATOM     26  C   UNL A   1      48.082  25.024  26.315  1.00  0.00     0.083 A 
ATOM     27  C   UNL A   1      48.440  24.789  27.652  1.00  0.00     0.033 A 
ATOM     28  C   UNL A   1      49.007  25.691  25.488  1.00  0.00     0.150 A 
ATOM     29  C   UNL A   1      49.685  25.202  28.137  1.00  0.00     0.041 A 
ATOM     30  C   UNL A   1      50.240  26.122  25.968  1.00  0.00     0.080 A 
ATOM     31  F   UNL A   1      48.704  25.931  24.202  1.00  0.00    -0.205 F 
ATOM     32  C   UNL A   1      50.568  25.867  27.292  1.00  0.00     0.126 A 
ATOM     33  F   UNL A   1      51.754  26.267  27.767  1.00  0.00    -0.207 F 
ENDBRANCH  14  26
ENDBRANCH   4   6
ENDBRANCH   3   4
ENDBRANCH   2   3
ENDBRANCH   1   2
BRANCH   1  34
ATOM     34  O   UNL A   1      42.039  20.079  25.727  1.00  0.00    -0.458 OA
BRANCH  34  35
ATOM     35  C   UNL A   1      41.478  20.415  26.910  1.00  0.00     0.338 C 
ATOM     36  O   UNL A   1      40.777  19.727  27.631  1.00  0.00    -0.246 OA
BRANCH  35  37
ATOM     37  C   UNL A   1      41.881  21.783  27.266  1.00  0.00     0.060 A 
ATOM     38  C   UNL A   1      42.837  21.970  28.261  1.00  0.00     0.016 A 
ATOM     39  C   UNL A   1      41.211  22.873  26.715  1.00  0.00     0.016 A 
ATOM     40  C   UNL A   1      43.053  23.236  28.793  1.00  0.00     0.010 A 
ATOM     41  C   UNL A   1      41.500  24.158  27.182  1.00  0.00     0.010 A 
ATOM     42  C   UNL A   1      42.389  24.346  28.258  1.00  0.00    -0.014 A 
BRANCH  42  43
ATOM     43  C   UNL A   1      42.572  25.693  28.855  1.00  0.00     0.031 A 
ATOM     44  C   UNL A   1      41.395  26.623  28.975  1.00  0.00     0.074 A 
ATOM     45  C   UNL A   1      43.781  26.085  29.301  1.00  0.00     0.049 A 
ATOM     46  N   UNL A   1      41.370  27.892  29.294  1.00  0.00    -0.248 NA
ATOM     47  C   UNL A   1      40.070  26.049  28.689  1.00  0.00     0.031 C 
ATOM     48  C   UNL A   1      44.994  25.267  29.300  1.00  0.00     0.029 A 
ATOM     49  N   UNL A   1      44.187  27.281  29.840  1.00  0.00    -0.354 N 
ATOM     50  C   UNL A   1      40.041  28.280  29.196  1.00  0.00     0.074 A 
ATOM     51  C   UNL A   1      39.287  27.114  28.787  1.00  0.00     0.031 C 
ATOM     52  C   UNL A   1      46.003  25.975  29.829  1.00  0.00     0.029 A 
ATOM     53  C   UNL A   1      45.528  27.320  30.136  1.00  0.00     0.049 A 
ATOM     54  H   UNL A   1      43.577  28.036  30.000  1.00  0.00     0.167 HD
ATOM     55  C   UNL A   1      39.498  29.500  29.426  1.00  0.00     0.037 A 
ATOM     56  C   UNL A   1      46.299  28.338  30.560  1.00  0.00     0.037 A 
ATOM     57  C   UNL A   1      40.240  30.648  29.876  1.00  0.00     0.049 A 
ATOM     58  C   UNL A   1      45.685  29.694  30.755  1.00  0.00     0.074 A 
ATOM     59  C   UNL A   1      39.777  31.920  30.162  1.00  0.00     0.029 A 
ATOM     60  N   UNL A   1      41.605  30.656  30.116  1.00  0.00    -0.354 N 
ATOM     61  N   UNL A   1      44.436  30.064  30.609  1.00  0.00    -0.248 NA
ATOM     62  C   UNL A   1      46.595  30.780  31.144  1.00  0.00     0.031 C 
ATOM     63  C   UNL A   1      40.869  32.708  30.545  1.00  0.00     0.029 A 
ATOM     64  C   UNL A   1      42.007  31.917  30.528  1.00  0.00     0.049 A 
ATOM     65  H   UNL A   1      42.202  29.880  30.011  1.00  0.00     0.167 HD
ATOM     66  C   UNL A   1      44.409  31.424  30.888  1.00  0.00     0.074 A 
ATOM     67  C   UNL A   1      45.763  31.808  31.235  1.00  0.00     0.031 C 
ATOM     68  C   UNL A   1      43.360  32.281  30.853  1.00  0.00     0.037 A 
BRANCH  55  69
ATOM     69  C   UNL A   1      38.031  29.659  29.158  1.00  0.00     0.057 A 
ATOM     70  C   UNL A   1      37.111  29.628  30.214  1.00  0.00     0.134 A 
ATOM     71  C   UNL A   1      37.526  29.831  27.864  1.00  0.00     0.134 A 
ATOM     72  F   UNL A   1      37.530  29.464  31.478  1.00  0.00    -0.206 F 
ATOM     73  C   UNL A   1      35.740  29.766  29.992  1.00  0.00     0.040 A 
ATOM     74  C   UNL A   1      36.158  29.991  27.631  1.00  0.00     0.040 A 
ATOM     75  F   UNL A   1      38.356  29.889  26.813  1.00  0.00    -0.206 F 
ATOM     76  C   UNL A   1      35.261  29.954  28.698  1.00  0.00     0.006 A 
ENDBRANCH  55  69
BRANCH  56  77
ATOM     77  C   UNL A   1      47.751  28.127  30.774  1.00  0.00     0.057 A 
ATOM     78  C   UNL A   1      48.687  28.441  29.782  1.00  0.00     0.134 A 
ATOM     79  C   UNL A   1      48.235  27.612  31.981  1.00  0.00     0.134 A 
ATOM     80  F   UNL A   1      48.284  28.940  28.604  1.00  0.00    -0.206 F 
ATOM     81  C   UNL A   1      50.054  28.236  29.975  1.00  0.00     0.040 A 
ATOM     82  C   UNL A   1      49.601  27.423  32.197  1.00  0.00     0.040 A 
ATOM     83  F   UNL A   1      47.388  27.317  32.978  1.00  0.00    -0.206 F 
ATOM     84  C   UNL A   1      50.514  27.730  31.189  1.00  0.00     0.006 A 
ENDBRANCH  56  77
BRANCH  68  85
ATOM     85  C   UNL A   1      43.646  33.710  31.199  1.00  0.00     0.057 A 
ATOM     86  C   UNL A   1      43.670  34.135  32.532  1.00  0.00     0.134 A 
ATOM     87  C   UNL A   1      43.886  34.668  30.206  1.00  0.00     0.134 A 
ATOM     88  F   UNL A   1      43.446  33.265  33.528  1.00  0.00    -0.206 F 
ATOM     89  C   UNL A   1      43.925  35.465  32.867  1.00  0.00     0.040 A 
ATOM     90  C   UNL A   1      44.160  35.997  30.529  1.00  0.00     0.040 A 
ATOM     91  F   UNL A   1      43.892  34.317  28.911  1.00  0.00    -0.206 F 
ATOM     92  C   UNL A   1      44.176  36.399  31.863  1.00  0.00     0.006 A 
ENDBRANCH  68  85
ENDBRANCH  42  43
ENDBRANCH  35  37
ENDBRANCH  34  35
ENDBRANCH   1  34
TORSDOF 13
ENDMDL
MODEL 2
REMARK VINA RESULT:     -10.3      3.137      7.181
REMARK SMILES C[NH+]1CCN(c2nc3c(cc2F)c(=O)c(C(=O)OCCOC(=O)c2ccc(-c4c5nc(c(-c6c(F)cccc6F)c6ccc([nH]6)c(-c6c(F)cccc6F)c6nc(c(-c7c(F)cccc7F)c7ccc4[nH]7)C=C6)C=C5)cc2)cn3-c2ccc(F)cc2F)CC1
REMARK SMILES IDX 20 1 19 2 18 3 16 4 17 5 15 6 6 7 7 8 11 9 8 10 10 11 12 12
REMARK SMILES IDX 9 13 79 14 13 15 78 16 14 17 5 18 1 19 2 20 3 21 89 22 4 24
REMARK SMILES IDX 88 25 80 26 81 27 86 28 82 29 85 30 87 31 83 32 84 33 21 34
REMARK SMILES IDX 22 35 23 36 24 37 25 38 77 39 26 40 76 41 27 42 28 43 29 44
REMARK SMILES IDX 70 45 30 46 75 47 69 48 71 49 31 50 74 51 68 52 67 53 32 55
REMARK SMILES IDX 58 56 41 57 57 58 42 59 45 60 56 61 72 62 43 63 44 64 55 66
REMARK SMILES IDX 73 67 46 68 33 69 34 70 39 71 35 72 36 73 38 74 40 75 37 76
REMARK SMILES IDX 59 77 60 78 65 79 61 80 62 81 64 82 66 83 63 84 47 85 48 86
REMARK SMILES IDX 53 87 49 88 50 89 52 90 54 91 51 92
REMARK H PARENT 2 23 71 54 45 65
REMARK Flexibility Score: inf
ROOT
ATOM      1  C   UNL A   1      45.079  22.848  24.255  1.00  0.00     0.275 C 
ENDROOT
BRANCH   1   2
ATOM      2  C   UNL A   1      46.397  23.579  24.495  1.00  0.00     0.275 C 
BRANCH   2   3
ATOM      3  O   UNL A   1      46.157  24.986  24.681  1.00  0.00    -0.458 OA
BRANCH   3   4
ATOM      4  C   UNL A   1      47.216  25.743  25.046  1.00  0.00     0.343 C 
ATOM      5  O   UNL A   1      48.335  25.702  24.555  1.00  0.00    -0.246 OA
BRANCH   4   6
ATOM      6  C   UNL A   1      46.834  26.721  26.076  1.00  0.00     0.124 A 
ATOM      7  C   UNL A   1      44.642  30.007  29.239  1.00  0.00     0.167 A 
ATOM      8  N   UNL A   1      45.665  29.128  29.368  1.00  0.00    -0.209 NA
ATOM      9  C   UNL A   1      44.030  30.233  28.001  1.00  0.00     0.166 A 
ATOM     10  C   UNL A   1      46.053  28.404  28.284  1.00  0.00     0.151 A 
ATOM     11  C   UNL A   1      44.459  29.558  26.876  1.00  0.00     0.059 A 
ATOM     12  F   UNL A   1      43.029  31.120  27.877  1.00  0.00    -0.203 F 
ATOM     13  C   UNL A   1      45.474  28.620  27.023  1.00  0.00     0.069 A 
ATOM     14  N   UNL A   1      47.045  27.378  28.420  1.00  0.00    -0.297 N 
ATOM     15  C   UNL A   1      45.886  27.826  25.848  1.00  0.00     0.205 A 
ATOM     16  C   UNL A   1      47.323  26.581  27.317  1.00  0.00     0.113 A 
ATOM     17  O   UNL A   1      45.388  28.051  24.752  1.00  0.00    -0.288 OA
BRANCH   7  18
ATOM     18  N   UNL A   1      44.200  30.680  30.350  1.00  0.00    -0.343 N 
ATOM     19  C   UNL A   1      43.249  33.936  32.826  1.00  0.00     0.332 C 
ATOM     20  N   UNL A   1      43.366  32.547  32.380  1.00  0.00    -0.334 N 
ATOM     21  C   UNL A   1      44.793  32.187  32.171  1.00  0.00     0.283 C 
ATOM     22  C   UNL A   1      42.602  32.362  31.123  1.00  0.00     0.283 C 
ATOM     23  H   UNL A   1      42.982  31.935  33.101  1.00  0.00     0.347 HD
ATOM     24  C   UNL A   1      45.000  30.771  31.564  1.00  0.00     0.179 C 
ATOM     25  C   UNL A   1      42.777  30.959  30.511  1.00  0.00     0.179 C 
ENDBRANCH   7  18
BRANCH  14  26
ATOM     26  C   UNL A   1      47.699  27.101  29.659  1.00  0.00     0.083 A 
ATOM     27  C   UNL A   1      47.242  26.068  30.493  1.00  0.00     0.033 A 
ATOM     28  C   UNL A   1      48.838  27.824  30.063  1.00  0.00     0.150 A 
ATOM     29  C   UNL A   1      47.911  25.769  31.684  1.00  0.00     0.041 A 
ATOM     30  C   UNL A   1      49.497  27.545  31.256  1.00  0.00     0.080 A 
ATOM     31  F   UNL A   1      49.309  28.817  29.291  1.00  0.00    -0.205 F 
ATOM     32  C   UNL A   1      49.027  26.512  32.054  1.00  0.00     0.126 A 
ATOM     33  F   UNL A   1      49.655  26.225  33.201  1.00  0.00    -0.207 F 
ENDBRANCH  14  26
ENDBRANCH   4   6
ENDBRANCH   3   4
ENDBRANCH   2   3
ENDBRANCH   1   2
BRANCH   1  34
ATOM     34  O   UNL A   1      43.979  23.746  24.495  1.00  0.00    -0.458 OA
BRANCH  34  35
ATOM     35  C   UNL A   1      42.961  23.239  25.224  1.00  0.00     0.338 C 
ATOM     36  O   UNL A   1      42.532  22.099  25.225  1.00  0.00    -0.246 OA
BRANCH  35  37
ATOM     37  C   UNL A   1      42.429  24.287  26.107  1.00  0.00     0.060 A 
ATOM     38  C   UNL A   1      42.903  25.591  25.972  1.00  0.00     0.016 A 
ATOM     39  C   UNL A   1      41.574  23.951  27.153  1.00  0.00     0.016 A 
ATOM     40  C   UNL A   1      42.615  26.543  26.943  1.00  0.00     0.010 A 
ATOM     41  C   UNL A   1      41.206  24.935  28.076  1.00  0.00     0.010 A 
ATOM     42  C   UNL A   1      41.761  26.226  28.006  1.00  0.00    -0.014 A 
BRANCH  42  43
ATOM     43  C   UNL A   1      41.491  27.220  29.077  1.00  0.00     0.031 A 
ATOM     44  C   UNL A   1      42.336  27.223  30.321  1.00  0.00     0.074 A 
ATOM     45  C   UNL A   1      40.505  28.125  28.937  1.00  0.00     0.049 A 
ATOM     46  N   UNL A   1      42.159  27.876  31.442  1.00  0.00    -0.248 NA
ATOM     47  C   UNL A   1      43.535  26.370  30.306  1.00  0.00     0.031 C 
ATOM     48  C   UNL A   1      39.647  28.274  27.761  1.00  0.00     0.029 A 
ATOM     49  N   UNL A   1      40.055  29.093  29.801  1.00  0.00    -0.354 N 
ATOM     50  C   UNL A   1      43.191  27.474  32.280  1.00  0.00     0.074 A 
ATOM     51  C   UNL A   1      43.990  26.520  31.542  1.00  0.00     0.031 C 
ATOM     52  C   UNL A   1      38.788  29.284  27.968  1.00  0.00     0.029 A 
ATOM     53  C   UNL A   1      38.983  29.803  29.317  1.00  0.00     0.049 A 
ATOM     54  H   UNL A   1      40.462  29.263  30.680  1.00  0.00     0.167 HD
ATOM     55  C   UNL A   1      43.447  27.865  33.552  1.00  0.00     0.037 A 
ATOM     56  C   UNL A   1      38.212  30.733  29.910  1.00  0.00     0.037 A 
ATOM     57  C   UNL A   1      42.678  28.847  34.270  1.00  0.00     0.049 A 
ATOM     58  C   UNL A   1      38.481  31.110  31.338  1.00  0.00     0.074 A 
ATOM     59  C   UNL A   1      42.872  29.330  35.552  1.00  0.00     0.029 A 
ATOM     60  N   UNL A   1      41.570  29.505  33.759  1.00  0.00    -0.354 N 
ATOM     61  N   UNL A   1      39.427  30.686  32.140  1.00  0.00    -0.248 NA
ATOM     62  C   UNL A   1      37.556  32.072  31.951  1.00  0.00     0.031 C 
ATOM     63  C   UNL A   1      41.861  30.258  35.829  1.00  0.00     0.029 A 
ATOM     64  C   UNL A   1      41.057  30.376  34.707  1.00  0.00     0.049 A 
ATOM     65  H   UNL A   1      41.202  29.374  32.855  1.00  0.00     0.167 HD
ATOM     66  C   UNL A   1      39.212  31.329  33.351  1.00  0.00     0.074 A 
ATOM     67  C   UNL A   1      38.061  32.190  33.172  1.00  0.00     0.031 C 
ATOM     68  C   UNL A   1      39.901  31.212  34.512  1.00  0.00     0.037 A 
BRANCH  55  69
ATOM     69  C   UNL A   1      44.590  27.199  34.257  1.00  0.00     0.057 A 
ATOM     70  C   UNL A   1      45.846  27.815  34.309  1.00  0.00     0.134 A 
ATOM     71  C   UNL A   1      44.456  25.949  34.875  1.00  0.00     0.134 A 
ATOM     72  F   UNL A   1      46.042  29.012  33.735  1.00  0.00    -0.206 F 
ATOM     73  C   UNL A   1      46.929  27.214  34.951  1.00  0.00     0.040 A 
ATOM     74  C   UNL A   1      45.527  25.347  35.539  1.00  0.00     0.040 A 
ATOM     75  F   UNL A   1      43.274  25.316  34.878  1.00  0.00    -0.206 F 
ATOM     76  C   UNL A   1      46.769  25.979  35.575  1.00  0.00     0.006 A 
ENDBRANCH  55  69
BRANCH  56  77
ATOM     77  C   UNL A   1      37.074  31.331  29.171  1.00  0.00     0.057 A 
ATOM     78  C   UNL A   1      37.129  32.644  28.688  1.00  0.00     0.134 A 
ATOM     79  C   UNL A   1      35.907  30.599  28.926  1.00  0.00     0.134 A 
ATOM     80  F   UNL A   1      38.220  33.395  28.891  1.00  0.00    -0.206 F 
ATOM     81  C   UNL A   1      36.057  33.214  28.000  1.00  0.00     0.040 A 
ATOM     82  C   UNL A   1      34.837  31.149  28.218  1.00  0.00     0.040 A 
ATOM     83  F   UNL A   1      35.808  29.328  29.341  1.00  0.00    -0.206 F 
ATOM     84  C   UNL A   1      34.908  32.463  27.760  1.00  0.00     0.006 A 
ENDBRANCH  56  77
BRANCH  68  85
ATOM     85  C   UNL A   1      39.421  32.036  35.667  1.00  0.00     0.057 A 
ATOM     86  C   UNL A   1      39.914  33.328  35.881  1.00  0.00     0.134 A 
ATOM     87  C   UNL A   1      38.475  31.541  36.574  1.00  0.00     0.134 A 
ATOM     88  F   UNL A   1      40.823  33.857  35.048  1.00  0.00    -0.206 F 
ATOM     89  C   UNL A   1      39.481  34.102  36.958  1.00  0.00     0.040 A 
ATOM     90  C   UNL A   1      38.022  32.313  37.644  1.00  0.00     0.040 A 
ATOM     91  F   UNL A   1      37.955  30.316  36.412  1.00  0.00    -0.206 F 
ATOM     92  C   UNL A   1      38.529  33.596  37.840  1.00  0.00     0.006 A 
ENDBRANCH  68  85
ENDBRANCH  42  43
ENDBRANCH  35  37
ENDBRANCH  34  35
ENDBRANCH   1  34
TORSDOF 13
ENDMDL
MODEL 3
REMARK VINA RESULT:     -10.3      4.411     10.585
REMARK SMILES C[NH+]1CCN(c2nc3c(cc2F)c(=O)c(C(=O)OCCOC(=O)c2ccc(-c4c5nc(c(-c6c(F)cccc6F)c6ccc([nH]6)c(-c6c(F)cccc6F)c6nc(c(-c7c(F)cccc7F)c7ccc4[nH]7)C=C6)C=C5)cc2)cn3-c2ccc(F)cc2F)CC1
REMARK SMILES IDX 20 1 19 2 18 3 16 4 17 5 15 6 6 7 7 8 11 9 8 10 10 11 12 12
REMARK SMILES IDX 9 13 79 14 13 15 78 16 14 17 5 18 1 19 2 20 3 21 89 22 4 24
REMARK SMILES IDX 88 25 80 26 81 27 86 28 82 29 85 30 87 31 83 32 84 33 21 34
REMARK SMILES IDX 22 35 23 36 24 37 25 38 77 39 26 40 76 41 27 42 28 43 29 44
REMARK SMILES IDX 70 45 30 46 75 47 69 48 71 49 31 50 74 51 68 52 67 53 32 55
REMARK SMILES IDX 58 56 41 57 57 58 42 59 45 60 56 61 72 62 43 63 44 64 55 66
REMARK SMILES IDX 73 67 46 68 33 69 34 70 39 71 35 72 36 73 38 74 40 75 37 76
REMARK SMILES IDX 59 77 60 78 65 79 61 80 62 81 64 82 66 83 63 84 47 85 48 86
REMARK SMILES IDX 53 87 49 88 50 89 52 90 54 91 51 92
REMARK H PARENT 2 23 71 54 45 65
REMARK Flexibility Score: inf
ROOT
ATOM      1  C   UNL A   1      34.129  33.053  28.437  1.00  0.00     0.275 C 
ENDROOT
BRANCH   1   2
ATOM      2  C   UNL A   1      33.981  34.084  29.552  1.00  0.00     0.275 C 
BRANCH   2   3
ATOM      3  O   UNL A   1      35.237  34.260  30.233  1.00  0.00    -0.458 OA
BRANCH   3   4
ATOM      4  C   UNL A   1      35.186  34.440  31.572  1.00  0.00     0.343 C 
ATOM      5  O   UNL A   1      34.366  35.116  32.178  1.00  0.00    -0.246 OA
BRANCH   4   6
ATOM      6  C   UNL A   1      36.209  33.632  32.252  1.00  0.00     0.124 A 
ATOM      7  C   UNL A   1      39.632  30.261  33.842  1.00  0.00     0.167 A 
ATOM      8  N   UNL A   1      39.517  31.604  33.969  1.00  0.00    -0.209 NA
ATOM      9  C   UNL A   1      38.616  29.497  33.255  1.00  0.00     0.166 A 
ATOM     10  C   UNL A   1      38.422  32.225  33.452  1.00  0.00     0.151 A 
ATOM     11  C   UNL A   1      37.467  30.102  32.790  1.00  0.00     0.059 A 
ATOM     12  F   UNL A   1      38.729  28.163  33.151  1.00  0.00    -0.203 F 
ATOM     13  C   UNL A   1      37.375  31.487  32.877  1.00  0.00     0.069 A 
ATOM     14  N   UNL A   1      38.333  33.655  33.460  1.00  0.00    -0.297 N 
ATOM     15  C   UNL A   1      36.192  32.159  32.305  1.00  0.00     0.205 A 
ATOM     16  C   UNL A   1      37.258  34.251  32.814  1.00  0.00     0.113 A 
ATOM     17  O   UNL A   1      35.277  31.495  31.833  1.00  0.00    -0.288 OA
BRANCH   7  18
ATOM     18  N   UNL A   1      40.772  29.646  34.293  1.00  0.00    -0.343 N 
ATOM     19  C   UNL A   1      43.335  26.525  35.445  1.00  0.00     0.332 C 
ATOM     20  N   UNL A   1      42.890  27.885  35.142  1.00  0.00    -0.334 N 
ATOM     21  C   UNL A   1      41.775  28.279  36.044  1.00  0.00     0.283 C 
ATOM     22  C   UNL A   1      42.454  27.963  33.726  1.00  0.00     0.283 C 
ATOM     23  H   UNL A   1      43.668  28.529  35.291  1.00  0.00     0.347 HD
ATOM     24  C   UNL A   1      41.149  29.660  35.700  1.00  0.00     0.179 C 
ATOM     25  C   UNL A   1      41.846  29.330  33.357  1.00  0.00     0.179 C 
ENDBRANCH   7  18
BRANCH  14  26
ATOM     26  C   UNL A   1      39.342  34.485  34.039  1.00  0.00     0.083 A 
ATOM     27  C   UNL A   1      39.150  35.070  35.301  1.00  0.00     0.033 A 
ATOM     28  C   UNL A   1      40.569  34.709  33.384  1.00  0.00     0.150 A 
ATOM     29  C   UNL A   1      40.157  35.844  35.885  1.00  0.00     0.041 A 
ATOM     30  C   UNL A   1      41.568  35.494  33.951  1.00  0.00     0.080 A 
ATOM     31  F   UNL A   1      40.793  34.164  32.178  1.00  0.00    -0.205 F 
ATOM     32  C   UNL A   1      41.351  36.052  35.203  1.00  0.00     0.126 A 
ATOM     33  F   UNL A   1      42.306  36.803  35.766  1.00  0.00    -0.207 F 
ENDBRANCH  14  26
ENDBRANCH   4   6
ENDBRANCH   3   4
ENDBRANCH   2   3
ENDBRANCH   1   2
BRANCH   1  34
ATOM     34  O   UNL A   1      35.104  32.064  28.819  1.00  0.00    -0.458 OA
BRANCH  34  35
ATOM     35  C   UNL A   1      34.981  30.861  28.217  1.00  0.00     0.338 C 
ATOM     36  O   UNL A   1      34.005  30.400  27.651  1.00  0.00    -0.246 OA
BRANCH  35  37
ATOM     37  C   UNL A   1      36.264  30.148  28.293  1.00  0.00     0.060 A 
ATOM     38  C   UNL A   1      36.581  29.447  29.455  1.00  0.00     0.016 A 
ATOM     39  C   UNL A   1      37.205  30.294  27.277  1.00  0.00     0.016 A 
ATOM     40  C   UNL A   1      37.875  28.980  29.657  1.00  0.00     0.010 A 
ATOM     41  C   UNL A   1      38.477  29.739  27.440  1.00  0.00     0.010 A 
ATOM     42  C   UNL A   1      38.838  29.119  28.651  1.00  0.00    -0.014 A 
BRANCH  42  43
ATOM     43  C   UNL A   1      40.236  28.672  28.879  1.00  0.00     0.031 A 
ATOM     44  C   UNL A   1      41.228  29.616  29.500  1.00  0.00     0.074 A 
ATOM     45  C   UNL A   1      40.618  27.425  28.547  1.00  0.00     0.049 A 
ATOM     46  N   UNL A   1      42.526  29.494  29.620  1.00  0.00    -0.248 NA
ATOM     47  C   UNL A   1      40.690  30.871  30.051  1.00  0.00     0.031 C 
ATOM     48  C   UNL A   1      39.748  26.388  27.992  1.00  0.00     0.029 A 
ATOM     49  N   UNL A   1      41.848  26.819  28.625  1.00  0.00    -0.354 N 
ATOM     50  C   UNL A   1      42.964  30.673  30.210  1.00  0.00     0.074 A 
ATOM     51  C   UNL A   1      41.796  31.499  30.424  1.00  0.00     0.031 C 
ATOM     52  C   UNL A   1      40.464  25.270  27.797  1.00  0.00     0.029 A 
ATOM     53  C   UNL A   1      41.857  25.534  28.141  1.00  0.00     0.049 A 
ATOM     54  H   UNL A   1      42.645  27.262  28.995  1.00  0.00     0.167 HD
ATOM     55  C   UNL A   1      44.227  31.032  30.543  1.00  0.00     0.037 A 
ATOM     56  C   UNL A   1      42.879  24.680  27.949  1.00  0.00     0.037 A 
ATOM     57  C   UNL A   1      45.383  30.191  30.371  1.00  0.00     0.049 A 
ATOM     58  C   UNL A   1      44.277  25.121  28.273  1.00  0.00     0.074 A 
ATOM     59  C   UNL A   1      46.701  30.455  30.700  1.00  0.00     0.029 A 
ATOM     60  N   UNL A   1      45.353  28.915  29.831  1.00  0.00    -0.354 N 
ATOM     61  N   UNL A   1      44.687  26.257  28.782  1.00  0.00    -0.248 NA
ATOM     62  C   UNL A   1      45.356  24.172  27.968  1.00  0.00     0.031 C 
ATOM     63  C   UNL A   1      47.475  29.348  30.330  1.00  0.00     0.029 A 
ATOM     64  C   UNL A   1      46.632  28.384  29.799  1.00  0.00     0.049 A 
ATOM     65  H   UNL A   1      44.542  28.453  29.517  1.00  0.00     0.167 HD
ATOM     66  C   UNL A   1      46.070  26.160  28.859  1.00  0.00     0.074 A 
ATOM     67  C   UNL A   1      46.426  24.845  28.367  1.00  0.00     0.031 C 
ATOM     68  C   UNL A   1      46.967  27.080  29.290  1.00  0.00     0.037 A 
BRANCH  55  69
ATOM     69  C   UNL A   1      44.424  32.412  31.094  1.00  0.00     0.057 A 
ATOM     70  C   UNL A   1      44.445  32.626  32.478  1.00  0.00     0.134 A 
ATOM     71  C   UNL A   1      44.583  33.529  30.265  1.00  0.00     0.134 A 
ATOM     72  F   UNL A   1      44.296  31.598  33.328  1.00  0.00    -0.206 F 
ATOM     73  C   UNL A   1      44.619  33.901  33.018  1.00  0.00     0.040 A 
ATOM     74  C   UNL A   1      44.779  34.807  30.793  1.00  0.00     0.040 A 
ATOM     75  F   UNL A   1      44.593  33.388  28.931  1.00  0.00    -0.206 F 
ATOM     76  C   UNL A   1      44.793  34.995  32.175  1.00  0.00     0.006 A 
ENDBRANCH  55  69
BRANCH  56  77
ATOM     77  C   UNL A   1      42.625  23.340  27.368  1.00  0.00     0.057 A 
ATOM     78  C   UNL A   1      42.736  23.110  25.991  1.00  0.00     0.134 A 
ATOM     79  C   UNL A   1      42.270  22.256  28.178  1.00  0.00     0.134 A 
ATOM     80  F   UNL A   1      43.074  24.109  25.162  1.00  0.00    -0.206 F 
ATOM     81  C   UNL A   1      42.489  21.853  25.438  1.00  0.00     0.040 A 
ATOM     82  C   UNL A   1      42.043  20.988  27.641  1.00  0.00     0.040 A 
ATOM     83  F   UNL A   1      42.174  22.410  29.507  1.00  0.00    -0.206 F 
ATOM     84  C   UNL A   1      42.146  20.787  26.265  1.00  0.00     0.006 A 
ENDBRANCH  56  77
BRANCH  68  85
ATOM     85  C   UNL A   1      48.411  26.686  29.245  1.00  0.00     0.057 A 
ATOM     86  C   UNL A   1      49.002  26.000  30.312  1.00  0.00     0.134 A 
ATOM     87  C   UNL A   1      49.219  26.999  28.144  1.00  0.00     0.134 A 
ATOM     88  F   UNL A   1      48.280  25.674  31.395  1.00  0.00    -0.206 F 
ATOM     89  C   UNL A   1      50.349  25.636  30.286  1.00  0.00     0.040 A 
ATOM     90  C   UNL A   1      50.562  26.624  28.099  1.00  0.00     0.040 A 
ATOM     91  F   UNL A   1      48.705  27.641  27.085  1.00  0.00    -0.206 F 
ATOM     92  C   UNL A   1      51.131  25.943  29.174  1.00  0.00     0.006 A 
ENDBRANCH  68  85
ENDBRANCH  42  43
ENDBRANCH  35  37
ENDBRANCH  34  35
ENDBRANCH   1  34
TORSDOF 13
ENDMDL
