MODEL 1
REMARK VINA RESULT:      -9.7      0.000      0.000
REMARK SMILES [NH3+][C@@H](CCC1=c2ccccc2=[NH+]C1)C(=O)OCCOC(=O)c1ccc(-c2c3nc(c(-c4c(F)cccc4F)c4ccc([nH]4)c(-c4c(F)cccc4F)c4nc(c(-c5c(F)cccc5F)c5ccc2[nH]5)C=C4)C=C3)cc1
REMARK SMILES IDX 17 1 16 2 14 3 15 4 2 5 1 6 3 10 4 11 5 12 6 13 13 14 7 15
REMARK SMILES IDX 11 16 12 17 8 18 10 19 9 21 18 22 19 23 20 24 21 25 22 26
REMARK SMILES IDX 23 27 75 28 24 29 74 30 25 31 26 32 27 33 68 34 28 35 73 36
REMARK SMILES IDX 67 37 69 38 29 39 72 40 66 41 65 42 30 44 56 45 39 46 55 47
REMARK SMILES IDX 40 48 43 49 54 50 70 51 41 52 42 53 53 55 71 56 44 57 31 58
REMARK SMILES IDX 32 59 37 60 33 61 34 62 36 63 38 64 35 65 57 66 58 67 63 68
REMARK SMILES IDX 59 69 60 70 62 71 64 72 61 73 45 74 46 75 51 76 47 77 48 78
REMARK SMILES IDX 50 79 52 80 49 81
REMARK H PARENT 1 7 1 8 1 9 12 20 69 43 43 54
REMARK Flexibility Score: inf
ROOT
ATOM      1  C   UNL A   1      44.713  18.944  25.093  1.00  0.00     0.274 C 
ENDROOT
BRANCH   1   2
ATOM      2  O   UNL A   1      44.940  20.360  24.956  1.00  0.00    -0.458 OA
BRANCH   2   3
ATOM      3  C   UNL A   1      46.223  20.766  24.737  1.00  0.00     0.364 C 
ATOM      4  O   UNL A   1      47.167  20.018  24.505  1.00  0.00    -0.245 OA
BRANCH   3   5
ATOM      5  C   UNL A   1      46.386  22.291  24.872  1.00  0.00     0.292 C 
BRANCH   5   6
ATOM      6  N   UNL A   1      46.853  22.934  23.631  1.00  0.00    -0.346 N 
ATOM      7  H   UNL A   1      46.215  22.705  22.869  1.00  0.00     0.345 HD
ATOM      8  H   UNL A   1      47.789  22.597  23.405  1.00  0.00     0.345 HD
ATOM      9  H   UNL A   1      46.878  23.946  23.762  1.00  0.00     0.345 HD
ENDBRANCH   5   6
BRANCH   5  10
ATOM     10  C   UNL A   1      45.137  22.956  25.473  1.00  0.00     0.082 C 
BRANCH  10  11
ATOM     11  C   UNL A   1      44.552  24.161  24.722  1.00  0.00     0.045 C 
BRANCH  11  12
ATOM     12  C   UNL A   1      44.722  25.485  25.392  1.00  0.00     0.008 C 
ATOM     13  C   UNL A   1      43.827  26.462  25.520  1.00  0.00     0.051 A 
ATOM     14  C   UNL A   1      46.025  25.883  26.024  1.00  0.00     0.381 C 
ATOM     15  C   UNL A   1      42.462  26.646  25.143  1.00  0.00     0.015 A 
ATOM     16  C   UNL A   1      44.563  27.484  26.282  1.00  0.00     0.206 A 
ATOM     17  N   UNL A   1      45.796  27.231  26.598  1.00  0.00    -0.237 N 
ATOM     18  C   UNL A   1      41.837  27.775  25.516  1.00  0.00     0.001 A 
ATOM     19  C   UNL A   1      43.810  28.704  26.648  1.00  0.00     0.079 A 
ATOM     20  H   UNL A   1      46.427  27.798  27.098  1.00  0.00     0.446 HD
ATOM     21  C   UNL A   1      42.522  28.805  26.281  1.00  0.00     0.007 A 
ENDBRANCH  11  12
ENDBRANCH  10  11
ENDBRANCH   5  10
ENDBRANCH   3   5
ENDBRANCH   2   3
ENDBRANCH   1   2
BRANCH   1  22
ATOM     22  C   UNL A   1      43.392  18.670  25.806  1.00  0.00     0.275 C 
BRANCH  22  23
ATOM     23  O   UNL A   1      42.325  19.349  25.135  1.00  0.00    -0.458 OA
BRANCH  23  24
ATOM     24  C   UNL A   1      41.259  19.664  25.911  1.00  0.00     0.338 C 
ATOM     25  O   UNL A   1      40.288  18.979  26.157  1.00  0.00    -0.246 OA
BRANCH  24  26
ATOM     26  C   UNL A   1      41.565  20.948  26.564  1.00  0.00     0.060 A 
ATOM     27  C   UNL A   1      41.799  21.003  27.940  1.00  0.00     0.016 A 
ATOM     28  C   UNL A   1      41.575  22.108  25.784  1.00  0.00     0.016 A 
ATOM     29  C   UNL A   1      42.027  22.235  28.542  1.00  0.00     0.010 A 
ATOM     30  C   UNL A   1      41.797  23.342  26.388  1.00  0.00     0.010 A 
ATOM     31  C   UNL A   1      42.023  23.409  27.770  1.00  0.00    -0.014 A 
BRANCH  31  32
ATOM     32  C   UNL A   1      42.354  24.694  28.414  1.00  0.00     0.031 A 
ATOM     33  C   UNL A   1      43.737  24.969  28.915  1.00  0.00     0.074 A 
ATOM     34  C   UNL A   1      41.380  25.614  28.515  1.00  0.00     0.049 A 
ATOM     35  N   UNL A   1      44.229  26.085  29.389  1.00  0.00    -0.248 NA
ATOM     36  C   UNL A   1      44.690  23.851  28.884  1.00  0.00     0.031 C 
ATOM     37  C   UNL A   1      39.993  25.419  28.086  1.00  0.00     0.029 A 
ATOM     38  N   UNL A   1      41.405  26.894  28.999  1.00  0.00    -0.354 N 
ATOM     39  C   UNL A   1      45.553  25.810  29.700  1.00  0.00     0.074 A 
ATOM     40  C   UNL A   1      45.778  24.412  29.397  1.00  0.00     0.031 C 
ATOM     41  C   UNL A   1      39.304  26.547  28.309  1.00  0.00     0.029 A 
ATOM     42  C   UNL A   1      40.195  27.536  28.905  1.00  0.00     0.049 A 
ATOM     43  H   UNL A   1      42.212  27.313  29.378  1.00  0.00     0.167 HD
ATOM     44  C   UNL A   1      46.492  26.660  30.181  1.00  0.00     0.037 A 
ATOM     45  C   UNL A   1      39.854  28.788  29.254  1.00  0.00     0.037 A 
ATOM     46  C   UNL A   1      46.243  28.046  30.487  1.00  0.00     0.049 A 
ATOM     47  C   UNL A   1      40.912  29.700  29.804  1.00  0.00     0.074 A 
ATOM     48  C   UNL A   1      47.135  29.009  30.924  1.00  0.00     0.029 A 
ATOM     49  N   UNL A   1      45.001  28.660  30.403  1.00  0.00    -0.354 N 
ATOM     50  N   UNL A   1      42.186  29.461  29.998  1.00  0.00    -0.248 NA
ATOM     51  C   UNL A   1      40.487  31.055  30.174  1.00  0.00     0.031 C 
ATOM     52  C   UNL A   1      46.424  30.194  31.147  1.00  0.00     0.029 A 
ATOM     53  C   UNL A   1      45.096  29.979  30.812  1.00  0.00     0.049 A 
ATOM     54  H   UNL A   1      44.174  28.221  30.098  1.00  0.00     0.167 HD
ATOM     55  C   UNL A   1      42.722  30.641  30.493  1.00  0.00     0.074 A 
ATOM     56  C   UNL A   1      41.635  31.599  30.553  1.00  0.00     0.031 C 
ATOM     57  C   UNL A   1      43.997  30.910  30.866  1.00  0.00     0.037 A 
BRANCH  44  58
ATOM     58  C   UNL A   1      47.870  26.115  30.409  1.00  0.00     0.057 A 
ATOM     59  C   UNL A   1      48.790  26.026  29.356  1.00  0.00     0.134 A 
ATOM     60  C   UNL A   1      48.274  25.634  31.661  1.00  0.00     0.134 A 
ATOM     61  F   UNL A   1      48.464  26.462  28.129  1.00  0.00    -0.206 F 
ATOM     62  C   UNL A   1      50.061  25.478  29.541  1.00  0.00     0.040 A 
ATOM     63  C   UNL A   1      49.550  25.101  31.863  1.00  0.00     0.040 A 
ATOM     64  F   UNL A   1      47.444  25.694  32.713  1.00  0.00    -0.206 F 
ATOM     65  C   UNL A   1      50.445  25.017  30.797  1.00  0.00     0.006 A 
ENDBRANCH  44  58
BRANCH  45  66
ATOM     66  C   UNL A   1      38.459  29.254  29.064  1.00  0.00     0.057 A 
ATOM     67  C   UNL A   1      38.006  29.701  27.817  1.00  0.00     0.134 A 
ATOM     68  C   UNL A   1      37.548  29.267  30.126  1.00  0.00     0.134 A 
ATOM     69  F   UNL A   1      38.835  29.721  26.762  1.00  0.00    -0.206 F 
ATOM     70  C   UNL A   1      36.697  30.147  27.634  1.00  0.00     0.040 A 
ATOM     71  C   UNL A   1      36.230  29.689  29.951  1.00  0.00     0.040 A 
ATOM     72  F   UNL A   1      37.922  28.839  31.341  1.00  0.00    -0.206 F 
ATOM     73  C   UNL A   1      35.802  30.135  28.702  1.00  0.00     0.006 A 
ENDBRANCH  45  66
BRANCH  57  74
ATOM     74  C   UNL A   1      44.275  32.298  31.356  1.00  0.00     0.057 A 
ATOM     75  C   UNL A   1      44.629  33.314  30.460  1.00  0.00     0.134 A 
ATOM     76  C   UNL A   1      44.211  32.622  32.716  1.00  0.00     0.134 A 
ATOM     77  F   UNL A   1      44.711  33.066  29.145  1.00  0.00    -0.206 F 
ATOM     78  C   UNL A   1      44.910  34.607  30.903  1.00  0.00     0.040 A 
ATOM     79  C   UNL A   1      44.467  33.918  33.168  1.00  0.00     0.040 A 
ATOM     80  F   UNL A   1      43.860  31.695  33.620  1.00  0.00    -0.206 F 
ATOM     81  C   UNL A   1      44.823  34.913  32.260  1.00  0.00     0.006 A 
ENDBRANCH  57  74
ENDBRANCH  31  32
ENDBRANCH  24  26
ENDBRANCH  23  24
ENDBRANCH  22  23
ENDBRANCH   1  22
TORSDOF 15
ENDMDL
MODEL 2
REMARK VINA RESULT:      -8.7      0.772      6.551
REMARK SMILES [NH3+][C@@H](CCC1=c2ccccc2=[NH+]C1)C(=O)OCCOC(=O)c1ccc(-c2c3nc(c(-c4c(F)cccc4F)c4ccc([nH]4)c(-c4c(F)cccc4F)c4nc(c(-c5c(F)cccc5F)c5ccc2[nH]5)C=C4)C=C3)cc1
REMARK SMILES IDX 17 1 16 2 14 3 15 4 2 5 1 6 3 10 4 11 5 12 6 13 13 14 7 15
REMARK SMILES IDX 11 16 12 17 8 18 10 19 9 21 18 22 19 23 20 24 21 25 22 26
REMARK SMILES IDX 23 27 75 28 24 29 74 30 25 31 26 32 27 33 68 34 28 35 73 36
REMARK SMILES IDX 67 37 69 38 29 39 72 40 66 41 65 42 30 44 56 45 39 46 55 47
REMARK SMILES IDX 40 48 43 49 54 50 70 51 41 52 42 53 53 55 71 56 44 57 31 58
REMARK SMILES IDX 32 59 37 60 33 61 34 62 36 63 38 64 35 65 57 66 58 67 63 68
REMARK SMILES IDX 59 69 60 70 62 71 64 72 61 73 45 74 46 75 51 76 47 77 48 78
REMARK SMILES IDX 50 79 52 80 49 81
REMARK H PARENT 1 7 1 8 1 9 12 20 69 43 43 54
REMARK Flexibility Score: inf
ROOT
ATOM      1  C   UNL A   1      44.845  19.651  24.524  1.00  0.00     0.274 C 
ENDROOT
BRANCH   1   2
ATOM      2  O   UNL A   1      45.394  20.877  25.046  1.00  0.00    -0.458 OA
BRANCH   2   3
ATOM      3  C   UNL A   1      45.174  22.013  24.325  1.00  0.00     0.364 C 
ATOM      4  O   UNL A   1      44.333  22.132  23.440  1.00  0.00    -0.245 OA
BRANCH   3   5
ATOM      5  C   UNL A   1      46.151  23.143  24.701  1.00  0.00     0.292 C 
BRANCH   5   6
ATOM      6  N   UNL A   1      47.178  23.383  23.673  1.00  0.00    -0.346 N 
ATOM      7  H   UNL A   1      47.440  24.369  23.678  1.00  0.00     0.345 HD
ATOM      8  H   UNL A   1      46.806  23.135  22.755  1.00  0.00     0.345 HD
ATOM      9  H   UNL A   1      47.999  22.812  23.873  1.00  0.00     0.345 HD
ENDBRANCH   5   6
BRANCH   5  10
ATOM     10  C   UNL A   1      45.417  24.419  25.143  1.00  0.00     0.082 C 
BRANCH  10  11
ATOM     11  C   UNL A   1      46.099  25.762  24.843  1.00  0.00     0.045 C 
BRANCH  11  12
ATOM     12  C   UNL A   1      45.592  26.933  25.619  1.00  0.00     0.008 C 
ATOM     13  C   UNL A   1      44.362  27.440  25.631  1.00  0.00     0.051 A 
ATOM     14  C   UNL A   1      46.494  27.726  26.520  1.00  0.00     0.381 C 
ATOM     15  C   UNL A   1      43.121  27.113  25.004  1.00  0.00     0.015 A 
ATOM     16  C   UNL A   1      44.474  28.552  26.588  1.00  0.00     0.206 A 
ATOM     17  N   UNL A   1      45.634  28.773  27.125  1.00  0.00    -0.237 N 
ATOM     18  C   UNL A   1      42.031  27.831  25.318  1.00  0.00     0.001 A 
ATOM     19  C   UNL A   1      43.232  29.302  26.878  1.00  0.00     0.079 A 
ATOM     20  H   UNL A   1      45.884  29.467  27.776  1.00  0.00     0.446 HD
ATOM     21  C   UNL A   1      42.093  28.929  26.270  1.00  0.00     0.007 A 
ENDBRANCH  11  12
ENDBRANCH  10  11
ENDBRANCH   5  10
ENDBRANCH   3   5
ENDBRANCH   2   3
ENDBRANCH   1   2
BRANCH   1  22
ATOM     22  C   UNL A   1      43.753  19.107  25.442  1.00  0.00     0.275 C 
BRANCH  22  23
ATOM     23  O   UNL A   1      42.472  19.574  25.006  1.00  0.00    -0.458 OA
BRANCH  23  24
ATOM     24  C   UNL A   1      41.560  19.771  25.988  1.00  0.00     0.338 C 
ATOM     25  O   UNL A   1      40.740  18.983  26.414  1.00  0.00    -0.246 OA
BRANCH  24  26
ATOM     26  C   UNL A   1      41.852  21.082  26.591  1.00  0.00     0.060 A 
ATOM     27  C   UNL A   1      41.967  21.213  27.978  1.00  0.00     0.016 A 
ATOM     28  C   UNL A   1      41.971  22.192  25.750  1.00  0.00     0.016 A 
ATOM     29  C   UNL A   1      42.184  22.471  28.526  1.00  0.00     0.010 A 
ATOM     30  C   UNL A   1      42.182  23.453  26.300  1.00  0.00     0.010 A 
ATOM     31  C   UNL A   1      42.289  23.596  27.691  1.00  0.00    -0.014 A 
BRANCH  31  32
ATOM     32  C   UNL A   1      42.607  24.907  28.287  1.00  0.00     0.031 A 
ATOM     33  C   UNL A   1      41.548  25.949  28.462  1.00  0.00     0.074 A 
ATOM     34  C   UNL A   1      43.872  25.126  28.685  1.00  0.00     0.049 A 
ATOM     35  N   UNL A   1      41.625  27.100  29.078  1.00  0.00    -0.248 NA
ATOM     36  C   UNL A   1      40.233  25.667  27.869  1.00  0.00     0.031 C 
ATOM     37  C   UNL A   1      44.978  24.180  28.521  1.00  0.00     0.029 A 
ATOM     38  N   UNL A   1      44.439  26.200  29.315  1.00  0.00    -0.354 N 
ATOM     39  C   UNL A   1      40.368  27.676  28.962  1.00  0.00     0.074 A 
ATOM     40  C   UNL A   1      39.556  26.765  28.182  1.00  0.00     0.031 C 
ATOM     41  C   UNL A   1      46.089  24.710  29.054  1.00  0.00     0.029 A 
ATOM     42  C   UNL A   1      45.774  26.032  29.585  1.00  0.00     0.049 A 
ATOM     43  H   UNL A   1      43.938  27.015  29.551  1.00  0.00     0.167 HD
ATOM     44  C   UNL A   1      39.937  28.853  29.475  1.00  0.00     0.037 A 
ATOM     45  C   UNL A   1      46.640  26.853  30.203  1.00  0.00     0.037 A 
ATOM     46  C   UNL A   1      40.766  29.751  30.238  1.00  0.00     0.049 A 
ATOM     47  C   UNL A   1      46.137  28.160  30.743  1.00  0.00     0.074 A 
ATOM     48  C   UNL A   1      40.416  30.940  30.854  1.00  0.00     0.029 A 
ATOM     49  N   UNL A   1      42.120  29.562  30.475  1.00  0.00    -0.354 N 
ATOM     50  N   UNL A   1      44.921  28.650  30.717  1.00  0.00    -0.248 NA
ATOM     51  C   UNL A   1      47.122  29.023  31.404  1.00  0.00     0.031 C 
ATOM     52  C   UNL A   1      41.569  31.492  31.424  1.00  0.00     0.029 A 
ATOM     53  C   UNL A   1      42.629  30.628  31.197  1.00  0.00     0.049 A 
ATOM     54  H   UNL A   1      42.644  28.784  30.172  1.00  0.00     0.167 HD
ATOM     55  C   UNL A   1      44.988  29.868  31.376  1.00  0.00     0.074 A 
ATOM     56  C   UNL A   1      46.363  30.034  31.805  1.00  0.00     0.031 C 
ATOM     57  C   UNL A   1      44.004  30.771  31.607  1.00  0.00     0.037 A 
BRANCH  44  58
ATOM     58  C   UNL A   1      38.509  29.238  29.226  1.00  0.00     0.057 A 
ATOM     59  C   UNL A   1      38.096  29.682  27.963  1.00  0.00     0.134 A 
ATOM     60  C   UNL A   1      37.551  29.215  30.247  1.00  0.00     0.134 A 
ATOM     61  F   UNL A   1      38.965  29.736  26.942  1.00  0.00    -0.206 F 
ATOM     62  C   UNL A   1      36.782  30.089  27.726  1.00  0.00     0.040 A 
ATOM     63  C   UNL A   1      36.228  29.601  30.017  1.00  0.00     0.040 A 
ATOM     64  F   UNL A   1      37.879  28.794  31.478  1.00  0.00    -0.206 F 
ATOM     65  C   UNL A   1      35.843  30.046  28.754  1.00  0.00     0.006 A 
ENDBRANCH  44  58
BRANCH  45  66
ATOM     66  C   UNL A   1      48.056  26.447  30.366  1.00  0.00     0.057 A 
ATOM     67  C   UNL A   1      48.467  25.666  31.453  1.00  0.00     0.134 A 
ATOM     68  C   UNL A   1      49.033  26.834  29.442  1.00  0.00     0.134 A 
ATOM     69  F   UNL A   1      47.579  25.271  32.378  1.00  0.00    -0.206 F 
ATOM     70  C   UNL A   1      49.800  25.286  31.616  1.00  0.00     0.040 A 
ATOM     71  C   UNL A   1      50.365  26.443  29.581  1.00  0.00     0.040 A 
ATOM     72  F   UNL A   1      48.696  27.574  28.375  1.00  0.00    -0.206 F 
ATOM     73  C   UNL A   1      50.752  25.669  30.674  1.00  0.00     0.006 A 
ENDBRANCH  45  66
BRANCH  57  74
ATOM     74  C   UNL A   1      44.386  32.004  32.366  1.00  0.00     0.057 A 
ATOM     75  C   UNL A   1      44.332  32.027  33.765  1.00  0.00     0.134 A 
ATOM     76  C   UNL A   1      44.790  33.173  31.711  1.00  0.00     0.134 A 
ATOM     77  F   UNL A   1      43.949  30.940  34.451  1.00  0.00    -0.206 F 
ATOM     78  C   UNL A   1      44.666  33.174  34.487  1.00  0.00     0.040 A 
ATOM     79  C   UNL A   1      45.149  34.318  32.423  1.00  0.00     0.040 A 
ATOM     80  F   UNL A   1      44.878  33.206  30.373  1.00  0.00    -0.206 F 
ATOM     81  C   UNL A   1      45.083  34.322  33.815  1.00  0.00     0.006 A 
ENDBRANCH  57  74
ENDBRANCH  31  32
ENDBRANCH  24  26
ENDBRANCH  23  24
ENDBRANCH  22  23
ENDBRANCH   1  22
TORSDOF 15
ENDMDL
MODEL 3
REMARK VINA RESULT:      -8.5      2.215      3.401
REMARK SMILES [NH3+][C@@H](CCC1=c2ccccc2=[NH+]C1)C(=O)OCCOC(=O)c1ccc(-c2c3nc(c(-c4c(F)cccc4F)c4ccc([nH]4)c(-c4c(F)cccc4F)c4nc(c(-c5c(F)cccc5F)c5ccc2[nH]5)C=C4)C=C3)cc1
REMARK SMILES IDX 17 1 16 2 14 3 15 4 2 5 1 6 3 10 4 11 5 12 6 13 13 14 7 15
REMARK SMILES IDX 11 16 12 17 8 18 10 19 9 21 18 22 19 23 20 24 21 25 22 26
REMARK SMILES IDX 23 27 75 28 24 29 74 30 25 31 26 32 27 33 68 34 28 35 73 36
REMARK SMILES IDX 67 37 69 38 29 39 72 40 66 41 65 42 30 44 56 45 39 46 55 47
REMARK SMILES IDX 40 48 43 49 54 50 70 51 41 52 42 53 53 55 71 56 44 57 31 58
REMARK SMILES IDX 32 59 37 60 33 61 34 62 36 63 38 64 35 65 57 66 58 67 63 68
REMARK SMILES IDX 59 69 60 70 62 71 64 72 61 73 45 74 46 75 51 76 47 77 48 78
REMARK SMILES IDX 50 79 52 80 49 81
REMARK H PARENT 1 7 1 8 1 9 12 20 69 43 43 54
REMARK Flexibility Score: inf
ROOT
ATOM      1  C   UNL A   1      42.005  19.497  26.487  1.00  0.00     0.274 C 
ENDROOT
BRANCH   1   2
ATOM      2  O   UNL A   1      42.519  19.309  25.155  1.00  0.00    -0.458 OA
BRANCH   2   3
ATOM      3  C   UNL A   1      43.874  19.270  25.010  1.00  0.00     0.364 C 
ATOM      4  O   UNL A   1      44.510  18.304  24.601  1.00  0.00    -0.245 OA
BRANCH   3   5
ATOM      5  C   UNL A   1      44.550  20.571  25.479  1.00  0.00     0.292 C 
BRANCH   5   6
ATOM      6  N   UNL A   1      46.019  20.471  25.535  1.00  0.00    -0.346 N 
ATOM      7  H   UNL A   1      46.412  21.379  25.785  1.00  0.00     0.345 HD
ATOM      8  H   UNL A   1      46.376  20.186  24.622  1.00  0.00     0.345 HD
ATOM      9  H   UNL A   1      46.286  19.780  26.236  1.00  0.00     0.345 HD
ENDBRANCH   5   6
BRANCH   5  10
ATOM     10  C   UNL A   1      44.049  21.798  24.699  1.00  0.00     0.082 C 
BRANCH  10  11
ATOM     11  C   UNL A   1      43.310  22.883  25.495  1.00  0.00     0.045 C 
BRANCH  11  12
ATOM     12  C   UNL A   1      43.790  24.281  25.283  1.00  0.00     0.008 C 
ATOM     13  C   UNL A   1      45.037  24.741  25.352  1.00  0.00     0.051 A 
ATOM     14  C   UNL A   1      42.838  25.396  24.960  1.00  0.00     0.381 C 
ATOM     15  C   UNL A   1      46.320  24.167  25.604  1.00  0.00     0.015 A 
ATOM     16  C   UNL A   1      44.879  26.168  25.029  1.00  0.00     0.206 A 
ATOM     17  N   UNL A   1      43.680  26.607  24.799  1.00  0.00    -0.237 N 
ATOM     18  C   UNL A   1      47.406  24.953  25.521  1.00  0.00     0.001 A 
ATOM     19  C   UNL A   1      46.120  26.971  24.964  1.00  0.00     0.079 A 
ATOM     20  H   UNL A   1      43.398  27.522  24.571  1.00  0.00     0.446 HD
ATOM     21  C   UNL A   1      47.297  26.364  25.190  1.00  0.00     0.007 A 
ENDBRANCH  11  12
ENDBRANCH  10  11
ENDBRANCH   5  10
ENDBRANCH   3   5
ENDBRANCH   2   3
ENDBRANCH   1   2
BRANCH   1  22
ATOM     22  C   UNL A   1      40.595  20.080  26.451  1.00  0.00     0.275 C 
BRANCH  22  23
ATOM     23  O   UNL A   1      40.569  21.339  27.133  1.00  0.00    -0.458 OA
BRANCH  23  24
ATOM     24  C   UNL A   1      39.709  22.256  26.627  1.00  0.00     0.338 C 
ATOM     25  O   UNL A   1      38.694  22.055  25.993  1.00  0.00    -0.246 OA
BRANCH  24  26
ATOM     26  C   UNL A   1      40.131  23.570  27.138  1.00  0.00     0.060 A 
ATOM     27  C   UNL A   1      40.998  23.660  28.230  1.00  0.00     0.016 A 
ATOM     28  C   UNL A   1      39.613  24.719  26.533  1.00  0.00     0.016 A 
ATOM     29  C   UNL A   1      41.334  24.912  28.731  1.00  0.00     0.010 A 
ATOM     30  C   UNL A   1      39.944  25.973  27.040  1.00  0.00     0.010 A 
ATOM     31  C   UNL A   1      40.806  26.072  28.141  1.00  0.00    -0.014 A 
BRANCH  31  32
ATOM     32  C   UNL A   1      41.244  27.392  28.633  1.00  0.00     0.031 A 
ATOM     33  C   UNL A   1      42.691  27.773  28.628  1.00  0.00     0.074 A 
ATOM     34  C   UNL A   1      40.300  28.246  29.064  1.00  0.00     0.049 A 
ATOM     35  N   UNL A   1      43.235  28.930  28.905  1.00  0.00    -0.248 NA
ATOM     36  C   UNL A   1      43.654  26.721  28.271  1.00  0.00     0.031 C 
ATOM     37  C   UNL A   1      38.869  27.947  29.138  1.00  0.00     0.029 A 
ATOM     38  N   UNL A   1      40.398  29.536  29.511  1.00  0.00    -0.354 N 
ATOM     39  C   UNL A   1      44.601  28.753  28.741  1.00  0.00     0.074 A 
ATOM     40  C   UNL A   1      44.809  27.367  28.378  1.00  0.00     0.031 C 
ATOM     41  C   UNL A   1      38.218  29.031  29.585  1.00  0.00     0.029 A 
ATOM     42  C   UNL A   1      39.187  30.092  29.839  1.00  0.00     0.049 A 
ATOM     43  H   UNL A   1      41.254  30.018  29.589  1.00  0.00     0.167 HD
ATOM     44  C   UNL A   1      45.584  29.676  28.871  1.00  0.00     0.037 A 
ATOM     45  C   UNL A   1      38.896  31.326  30.285  1.00  0.00     0.037 A 
ATOM     46  C   UNL A   1      45.356  31.049  29.245  1.00  0.00     0.049 A 
ATOM     47  C   UNL A   1      40.010  32.320  30.438  1.00  0.00     0.074 A 
ATOM     48  C   UNL A   1      46.273  32.080  29.349  1.00  0.00     0.029 A 
ATOM     49  N   UNL A   1      44.121  31.575  29.593  1.00  0.00    -0.354 N 
ATOM     50  N   UNL A   1      41.287  32.174  30.182  1.00  0.00    -0.248 NA
ATOM     51  C   UNL A   1      39.642  33.652  30.933  1.00  0.00     0.031 C 
ATOM     52  C   UNL A   1      45.598  33.219  29.803  1.00  0.00     0.029 A 
ATOM     53  C   UNL A   1      44.254  32.907  29.945  1.00  0.00     0.049 A 
ATOM     54  H   UNL A   1      43.273  31.073  29.591  1.00  0.00     0.167 HD
ATOM     55  C   UNL A   1      41.874  33.398  30.463  1.00  0.00     0.074 A 
ATOM     56  C   UNL A   1      40.808  34.282  30.894  1.00  0.00     0.031 C 
ATOM     57  C   UNL A   1      43.177  33.762  30.375  1.00  0.00     0.037 A 
BRANCH  44  58
ATOM     58  C   UNL A   1      46.993  29.231  28.610  1.00  0.00     0.057 A 
ATOM     59  C   UNL A   1      47.571  29.385  27.344  1.00  0.00     0.134 A 
ATOM     60  C   UNL A   1      47.763  28.607  29.599  1.00  0.00     0.134 A 
ATOM     61  F   UNL A   1      46.885  29.968  26.348  1.00  0.00    -0.206 F 
ATOM     62  C   UNL A   1      48.864  28.934  27.071  1.00  0.00     0.040 A 
ATOM     63  C   UNL A   1      49.065  28.169  29.345  1.00  0.00     0.040 A 
ATOM     64  F   UNL A   1      47.271  28.434  30.836  1.00  0.00    -0.206 F 
ATOM     65  C   UNL A   1      49.616  28.328  28.074  1.00  0.00     0.006 A 
ENDBRANCH  44  58
BRANCH  45  66
ATOM     66  C   UNL A   1      37.492  31.692  30.587  1.00  0.00     0.057 A 
ATOM     67  C   UNL A   1      36.633  32.162  29.587  1.00  0.00     0.134 A 
ATOM     68  C   UNL A   1      36.977  31.583  31.883  1.00  0.00     0.134 A 
ATOM     69  F   UNL A   1      37.070  32.298  28.326  1.00  0.00    -0.206 F 
ATOM     70  C   UNL A   1      35.312  32.514  29.866  1.00  0.00     0.040 A 
ATOM     71  C   UNL A   1      35.652  31.910  32.172  1.00  0.00     0.040 A 
ATOM     72  F   UNL A   1      37.750  31.127  32.880  1.00  0.00    -0.206 F 
ATOM     73  C   UNL A   1      34.816  32.382  31.161  1.00  0.00     0.006 A 
ENDBRANCH  45  66
BRANCH  57  74
ATOM     74  C   UNL A   1      43.506  35.177  30.740  1.00  0.00     0.057 A 
ATOM     75  C   UNL A   1      43.804  35.523  32.064  1.00  0.00     0.134 A 
ATOM     76  C   UNL A   1      43.511  36.200  29.784  1.00  0.00     0.134 A 
ATOM     77  F   UNL A   1      43.812  34.589  33.027  1.00  0.00    -0.206 F 
ATOM     78  C   UNL A   1      44.093  36.840  32.424  1.00  0.00     0.040 A 
ATOM     79  C   UNL A   1      43.822  37.516  30.128  1.00  0.00     0.040 A 
ATOM     80  F   UNL A   1      43.251  35.926  28.496  1.00  0.00    -0.206 F 
ATOM     81  C   UNL A   1      44.109  37.839  31.452  1.00  0.00     0.006 A 
ENDBRANCH  57  74
ENDBRANCH  31  32
ENDBRANCH  24  26
ENDBRANCH  23  24
ENDBRANCH  22  23
ENDBRANCH   1  22
TORSDOF 15
ENDMDL
