MODEL 1
REMARK VINA RESULT:     -11.0      0.000      0.000
REMARK SMILES CN1CCN(C(=O)N2CCC[C@H]2CC(=O)OCCOC(=O)c2ccc(-c3c4nc(c(-c5c(F)cccc5F)c5ccc([nH]5)c(-c5c(F)cccc5F)c5nc(c(-c6c(F)cccc6F)c6ccc3[nH]6)C=C5)C=C4)cc2)C(C)(C)C1=O
REMARK SMILES IDX 17 1 16 2 14 3 15 4 13 5 12 6 8 7 9 8 10 9 11 10 6 11 7 12
REMARK SMILES IDX 5 13 1 14 2 15 3 16 79 17 4 18 76 19 80 20 77 21 78 22 18 23
REMARK SMILES IDX 19 24 20 25 21 26 22 27 23 28 75 29 24 30 74 31 25 32 26 33
REMARK SMILES IDX 27 34 68 35 28 36 73 37 67 38 69 39 29 40 72 41 66 42 65 43
REMARK SMILES IDX 30 45 56 46 39 47 55 48 40 49 43 50 54 51 70 52 41 53 42 54
REMARK SMILES IDX 53 56 71 57 44 58 31 59 32 60 37 61 33 62 34 63 36 64 38 65
REMARK SMILES IDX 35 66 57 67 58 68 63 69 59 70 60 71 62 72 64 73 61 74 45 75
REMARK SMILES IDX 46 76 51 77 47 78 48 79 50 80 52 81 49 82
REMARK H PARENT 69 44 43 55
REMARK Flexibility Score: inf
ROOT
ATOM      1  C   UNL A   1      37.766  20.834  24.988  1.00  0.00     0.274 C 
ENDROOT
BRANCH   1   2
ATOM      2  O   UNL A   1      36.398  20.394  24.980  1.00  0.00    -0.462 OA
BRANCH   2   3
ATOM      3  C   UNL A   1      35.484  21.283  25.422  1.00  0.00     0.308 C 
ATOM      4  O   UNL A   1      35.362  21.640  26.590  1.00  0.00    -0.252 OA
BRANCH   3   5
ATOM      5  C   UNL A   1      34.521  21.718  24.356  1.00  0.00     0.147 C 
BRANCH   5   6
ATOM      6  C   UNL A   1      33.001  21.693  24.651  1.00  0.00     0.098 C 
ATOM      7  N   UNL A   1      32.169  22.226  23.574  1.00  0.00    -0.321 N 
ATOM      8  C   UNL A   1      32.170  21.308  22.465  1.00  0.00     0.122 C 
ATOM      9  C   UNL A   1      32.185  19.943  23.154  1.00  0.00     0.024 C 
ATOM     10  C   UNL A   1      32.588  20.209  24.618  1.00  0.00     0.027 C 
BRANCH   7  11
ATOM     11  C   UNL A   1      31.663  23.492  23.456  1.00  0.00     0.321 C 
ATOM     12  O   UNL A   1      30.452  23.686  23.342  1.00  0.00    -0.248 OA
BRANCH  11  13
ATOM     13  N   UNL A   1      32.576  24.545  23.550  1.00  0.00    -0.309 N 
ATOM     14  C   UNL A   1      30.791  28.334  22.581  1.00  0.00     0.146 C 
ATOM     15  N   UNL A   1      31.520  27.133  22.943  1.00  0.00    -0.342 N 
ATOM     16  C   UNL A   1      31.879  26.213  21.865  1.00  0.00     0.140 C 
ATOM     17  C   UNL A   1      31.490  26.703  24.273  1.00  0.00     0.247 C 
ATOM     18  C   UNL A   1      32.912  25.156  22.266  1.00  0.00     0.144 C 
ATOM     19  C   UNL A   1      32.489  25.556  24.659  1.00  0.00     0.118 C 
ATOM     20  O   UNL A   1      30.883  27.345  25.137  1.00  0.00    -0.272 OA
ATOM     21  C   UNL A   1      33.851  26.261  24.876  1.00  0.00     0.045 C 
ATOM     22  C   UNL A   1      32.075  25.003  26.028  1.00  0.00     0.045 C 
ENDBRANCH  11  13
ENDBRANCH   7  11
ENDBRANCH   5   6
ENDBRANCH   3   5
ENDBRANCH   2   3
ENDBRANCH   1   2
BRANCH   1  23
ATOM     23  C   UNL A   1      38.732  19.651  24.925  1.00  0.00     0.275 C 
BRANCH  23  24
ATOM     24  O   UNL A   1      39.482  19.501  26.145  1.00  0.00    -0.458 OA
BRANCH  24  25
ATOM     25  C   UNL A   1      40.822  19.654  26.035  1.00  0.00     0.338 C 
ATOM     26  O   UNL A   1      41.622  18.901  25.513  1.00  0.00    -0.246 OA
BRANCH  25  27
ATOM     27  C   UNL A   1      41.205  20.960  26.584  1.00  0.00     0.060 A 
ATOM     28  C   UNL A   1      41.695  21.944  25.719  1.00  0.00     0.016 A 
ATOM     29  C   UNL A   1      41.138  21.183  27.959  1.00  0.00     0.016 A 
ATOM     30  C   UNL A   1      42.104  23.172  26.229  1.00  0.00     0.010 A 
ATOM     31  C   UNL A   1      41.547  22.414  28.467  1.00  0.00     0.010 A 
ATOM     32  C   UNL A   1      42.032  23.414  27.607  1.00  0.00    -0.014 A 
BRANCH  32  33
ATOM     33  C   UNL A   1      42.471  24.713  28.161  1.00  0.00     0.031 A 
ATOM     34  C   UNL A   1      41.468  25.797  28.410  1.00  0.00     0.074 A 
ATOM     35  C   UNL A   1      43.778  24.918  28.407  1.00  0.00     0.049 A 
ATOM     36  N   UNL A   1      41.663  27.033  28.787  1.00  0.00    -0.248 NA
ATOM     37  C   UNL A   1      40.057  25.443  28.199  1.00  0.00     0.031 C 
ATOM     38  C   UNL A   1      44.836  23.925  28.225  1.00  0.00     0.029 A 
ATOM     39  N   UNL A   1      44.436  26.035  28.850  1.00  0.00    -0.354 N 
ATOM     40  C   UNL A   1      40.403  27.614  28.841  1.00  0.00     0.074 A 
ATOM     41  C   UNL A   1      39.453  26.598  28.438  1.00  0.00     0.031 C 
ATOM     42  C   UNL A   1      46.015  24.478  28.552  1.00  0.00     0.029 A 
ATOM     43  C   UNL A   1      45.797  25.873  28.923  1.00  0.00     0.049 A 
ATOM     44  H   UNL A   1      43.978  26.871  29.092  1.00  0.00     0.167 HD
ATOM     45  C   UNL A   1      40.074  28.878  29.197  1.00  0.00     0.037 A 
ATOM     46  C   UNL A   1      46.761  26.760  29.228  1.00  0.00     0.037 A 
ATOM     47  C   UNL A   1      41.028  29.880  29.597  1.00  0.00     0.049 A 
ATOM     48  C   UNL A   1      46.376  28.173  29.565  1.00  0.00     0.074 A 
ATOM     49  C   UNL A   1      40.798  31.184  29.997  1.00  0.00     0.029 A 
ATOM     50  N   UNL A   1      42.402  29.686  29.640  1.00  0.00    -0.354 N 
ATOM     51  N   UNL A   1      45.180  28.711  29.626  1.00  0.00    -0.248 NA
ATOM     52  C   UNL A   1      47.471  29.102  29.871  1.00  0.00     0.031 C 
ATOM     53  C   UNL A   1      42.034  31.792  30.241  1.00  0.00     0.029 A 
ATOM     54  C   UNL A   1      43.033  30.853  30.038  1.00  0.00     0.049 A 
ATOM     55  H   UNL A   1      42.861  28.842  29.420  1.00  0.00     0.167 HD
ATOM     56  C   UNL A   1      45.378  30.034  29.998  1.00  0.00     0.074 A 
ATOM     57  C   UNL A   1      46.806  30.213  30.159  1.00  0.00     0.031 C 
ATOM     58  C   UNL A   1      44.458  31.012  30.190  1.00  0.00     0.037 A 
BRANCH  45  59
ATOM     59  C   UNL A   1      38.622  29.252  29.135  1.00  0.00     0.057 A 
ATOM     60  C   UNL A   1      37.792  29.201  30.263  1.00  0.00     0.134 A 
ATOM     61  C   UNL A   1      38.046  29.675  27.930  1.00  0.00     0.134 A 
ATOM     62  F   UNL A   1      38.277  28.790  31.444  1.00  0.00    -0.206 F 
ATOM     63  C   UNL A   1      36.437  29.529  30.189  1.00  0.00     0.040 A 
ATOM     64  C   UNL A   1      36.699  30.031  27.849  1.00  0.00     0.040 A 
ATOM     65  F   UNL A   1      38.784  29.751  26.812  1.00  0.00    -0.206 F 
ATOM     66  C   UNL A   1      35.888  29.950  28.979  1.00  0.00     0.006 A 
ENDBRANCH  45  59
BRANCH  46  67
ATOM     67  C   UNL A   1      48.181  26.334  29.225  1.00  0.00     0.057 A 
ATOM     68  C   UNL A   1      48.763  25.761  30.361  1.00  0.00     0.134 A 
ATOM     69  C   UNL A   1      48.983  26.468  28.085  1.00  0.00     0.134 A 
ATOM     70  F   UNL A   1      48.050  25.626  31.489  1.00  0.00    -0.206 F 
ATOM     71  C   UNL A   1      50.095  25.344  30.367  1.00  0.00     0.040 A 
ATOM     72  C   UNL A   1      50.309  26.034  28.071  1.00  0.00     0.040 A 
ATOM     73  F   UNL A   1      48.482  27.006  26.964  1.00  0.00    -0.206 F 
ATOM     74  C   UNL A   1      50.870  25.472  29.216  1.00  0.00     0.006 A 
ENDBRANCH  46  67
BRANCH  58  75
ATOM     75  C   UNL A   1      44.971  32.353  30.625  1.00  0.00     0.057 A 
ATOM     76  C   UNL A   1      45.284  33.358  29.703  1.00  0.00     0.134 A 
ATOM     77  C   UNL A   1      45.123  32.649  31.986  1.00  0.00     0.134 A 
ATOM     78  F   UNL A   1      45.175  33.130  28.385  1.00  0.00    -0.206 F 
ATOM     79  C   UNL A   1      45.751  34.607  30.118  1.00  0.00     0.040 A 
ATOM     80  C   UNL A   1      45.565  33.901  32.413  1.00  0.00     0.040 A 
ATOM     81  F   UNL A   1      44.833  31.732  32.919  1.00  0.00    -0.206 F 
ATOM     82  C   UNL A   1      45.886  34.883  31.477  1.00  0.00     0.006 A 
ENDBRANCH  58  75
ENDBRANCH  32  33
ENDBRANCH  25  27
ENDBRANCH  24  25
ENDBRANCH  23  24
ENDBRANCH   1  23
TORSDOF 14
ENDMDL
MODEL 2
REMARK VINA RESULT:     -11.0      2.813      7.298
REMARK SMILES CN1CCN(C(=O)N2CCC[C@H]2CC(=O)OCCOC(=O)c2ccc(-c3c4nc(c(-c5c(F)cccc5F)c5ccc([nH]5)c(-c5c(F)cccc5F)c5nc(c(-c6c(F)cccc6F)c6ccc3[nH]6)C=C5)C=C4)cc2)C(C)(C)C1=O
REMARK SMILES IDX 17 1 16 2 14 3 15 4 13 5 12 6 8 7 9 8 10 9 11 10 6 11 7 12
REMARK SMILES IDX 5 13 1 14 2 15 3 16 79 17 4 18 76 19 80 20 77 21 78 22 18 23
REMARK SMILES IDX 19 24 20 25 21 26 22 27 23 28 75 29 24 30 74 31 25 32 26 33
REMARK SMILES IDX 27 34 68 35 28 36 73 37 67 38 69 39 29 40 72 41 66 42 65 43
REMARK SMILES IDX 30 45 56 46 39 47 55 48 40 49 43 50 54 51 70 52 41 53 42 54
REMARK SMILES IDX 53 56 71 57 44 58 31 59 32 60 37 61 33 62 34 63 36 64 38 65
REMARK SMILES IDX 35 66 57 67 58 68 63 69 59 70 60 71 62 72 64 73 61 74 45 75
REMARK SMILES IDX 46 76 51 77 47 78 48 79 50 80 52 81 49 82
REMARK H PARENT 69 44 43 55
REMARK Flexibility Score: inf
ROOT
ATOM      1  C   UNL A   1      36.669  22.143  23.877  1.00  0.00     0.274 C 
ENDROOT
BRANCH   1   2
ATOM      2  O   UNL A   1      35.982  23.396  23.731  1.00  0.00    -0.462 OA
BRANCH   2   3
ATOM      3  C   UNL A   1      34.663  23.323  23.460  1.00  0.00     0.308 C 
ATOM      4  O   UNL A   1      34.154  23.594  22.377  1.00  0.00    -0.252 OA
BRANCH   3   5
ATOM      5  C   UNL A   1      33.830  22.994  24.665  1.00  0.00     0.147 C 
BRANCH   5   6
ATOM      6  C   UNL A   1      33.864  23.939  25.891  1.00  0.00     0.098 C 
ATOM      7  N   UNL A   1      32.551  24.423  26.316  1.00  0.00    -0.321 N 
ATOM      8  C   UNL A   1      31.812  23.344  26.919  1.00  0.00     0.122 C 
ATOM      9  C   UNL A   1      32.895  22.565  27.665  1.00  0.00     0.024 C 
ATOM     10  C   UNL A   1      34.242  23.057  27.096  1.00  0.00     0.027 C 
BRANCH   7  11
ATOM     11  C   UNL A   1      31.950  25.609  25.990  1.00  0.00     0.321 C 
ATOM     12  O   UNL A   1      31.030  26.064  26.670  1.00  0.00    -0.248 OA
BRANCH  11  13
ATOM     13  N   UNL A   1      32.484  26.306  24.904  1.00  0.00    -0.309 N 
ATOM     14  C   UNL A   1      29.924  29.508  23.612  1.00  0.00     0.146 C 
ATOM     15  N   UNL A   1      30.889  28.477  23.945  1.00  0.00    -0.342 N 
ATOM     16  C   UNL A   1      30.556  27.101  23.581  1.00  0.00     0.140 C 
ATOM     17  C   UNL A   1      31.854  28.747  24.920  1.00  0.00     0.247 C 
ATOM     18  C   UNL A   1      31.738  26.131  23.661  1.00  0.00     0.144 C 
ATOM     19  C   UNL A   1      33.016  27.703  25.060  1.00  0.00     0.118 C 
ATOM     20  O   UNL A   1      31.911  29.852  25.471  1.00  0.00    -0.272 OA
ATOM     21  C   UNL A   1      34.011  28.049  23.923  1.00  0.00     0.045 C 
ATOM     22  C   UNL A   1      33.757  27.988  26.373  1.00  0.00     0.045 C 
ENDBRANCH  11  13
ENDBRANCH   7  11
ENDBRANCH   5   6
ENDBRANCH   3   5
ENDBRANCH   2   3
ENDBRANCH   1   2
BRANCH   1  23
ATOM     23  C   UNL A   1      37.349  22.035  25.242  1.00  0.00     0.275 C 
BRANCH  23  24
ATOM     24  O   UNL A   1      37.933  23.285  25.655  1.00  0.00    -0.458 OA
BRANCH  24  25
ATOM     25  C   UNL A   1      39.177  23.208  26.181  1.00  0.00     0.338 C 
ATOM     26  O   UNL A   1      39.987  22.307  26.062  1.00  0.00    -0.246 OA
BRANCH  25  27
ATOM     27  C   UNL A   1      39.481  24.457  26.889  1.00  0.00     0.060 A 
ATOM     28  C   UNL A   1      40.237  25.440  26.240  1.00  0.00     0.016 A 
ATOM     29  C   UNL A   1      39.073  24.623  28.211  1.00  0.00     0.016 A 
ATOM     30  C   UNL A   1      40.571  26.611  26.912  1.00  0.00     0.010 A 
ATOM     31  C   UNL A   1      39.407  25.798  28.882  1.00  0.00     0.010 A 
ATOM     32  C   UNL A   1      40.157  26.797  28.238  1.00  0.00    -0.014 A 
BRANCH  32  33
ATOM     33  C   UNL A   1      40.513  28.035  28.964  1.00  0.00     0.031 A 
ATOM     34  C   UNL A   1      41.864  28.168  29.599  1.00  0.00     0.074 A 
ATOM     35  C   UNL A   1      39.604  29.021  29.073  1.00  0.00     0.049 A 
ATOM     36  N   UNL A   1      42.327  29.120  30.365  1.00  0.00    -0.248 NA
ATOM     37  C   UNL A   1      42.816  27.078  29.342  1.00  0.00     0.031 C 
ATOM     38  C   UNL A   1      38.270  29.007  28.474  1.00  0.00     0.029 A 
ATOM     39  N   UNL A   1      39.664  30.217  29.739  1.00  0.00    -0.354 N 
ATOM     40  C   UNL A   1      43.619  28.739  30.699  1.00  0.00     0.074 A 
ATOM     41  C   UNL A   1      43.858  27.457  30.068  1.00  0.00     0.031 C 
ATOM     42  C   UNL A   1      37.633  30.143  28.801  1.00  0.00     0.029 A 
ATOM     43  C   UNL A   1      38.499  30.940  29.666  1.00  0.00     0.049 A 
ATOM     44  H   UNL A   1      40.463  30.527  30.221  1.00  0.00     0.167 HD
ATOM     45  C   UNL A   1      44.522  29.401  31.461  1.00  0.00     0.037 A 
ATOM     46  C   UNL A   1      38.160  32.101  30.255  1.00  0.00     0.037 A 
ATOM     47  C   UNL A   1      44.273  30.676  32.083  1.00  0.00     0.049 A 
ATOM     48  C   UNL A   1      39.158  32.790  31.142  1.00  0.00     0.074 A 
ATOM     49  C   UNL A   1      45.126  31.443  32.857  1.00  0.00     0.029 A 
ATOM     50  N   UNL A   1      43.073  31.370  32.004  1.00  0.00    -0.354 N 
ATOM     51  N   UNL A   1      40.383  32.429  31.444  1.00  0.00    -0.248 NA
ATOM     52  C   UNL A   1      38.727  34.044  31.774  1.00  0.00     0.031 C 
ATOM     53  C   UNL A   1      44.429  32.579  33.282  1.00  0.00     0.029 A 
ATOM     54  C   UNL A   1      43.156  32.544  32.735  1.00  0.00     0.049 A 
ATOM     55  H   UNL A   1      42.280  31.072  31.503  1.00  0.00     0.167 HD
ATOM     56  C   UNL A   1      40.876  33.420  32.281  1.00  0.00     0.074 A 
ATOM     57  C   UNL A   1      39.822  34.402  32.431  1.00  0.00     0.031 C 
ATOM     58  C   UNL A   1      42.094  33.509  32.873  1.00  0.00     0.037 A 
BRANCH  45  59
ATOM     59  C   UNL A   1      45.847  28.736  31.689  1.00  0.00     0.057 A 
ATOM     60  C   UNL A   1      46.941  28.949  30.839  1.00  0.00     0.134 A 
ATOM     61  C   UNL A   1      46.035  27.875  32.778  1.00  0.00     0.134 A 
ATOM     62  F   UNL A   1      46.824  29.750  29.769  1.00  0.00    -0.206 F 
ATOM     63  C   UNL A   1      48.164  28.307  31.047  1.00  0.00     0.040 A 
ATOM     64  C   UNL A   1      47.260  27.248  33.011  1.00  0.00     0.040 A 
ATOM     65  F   UNL A   1      45.032  27.630  33.633  1.00  0.00    -0.206 F 
ATOM     66  C   UNL A   1      48.326  27.456  32.138  1.00  0.00     0.006 A 
ENDBRANCH  45  59
BRANCH  46  67
ATOM     67  C   UNL A   1      36.815  32.679  30.023  1.00  0.00     0.057 A 
ATOM     68  C   UNL A   1      35.748  32.388  30.881  1.00  0.00     0.134 A 
ATOM     69  C   UNL A   1      36.567  33.550  28.955  1.00  0.00     0.134 A 
ATOM     70  F   UNL A   1      35.920  31.545  31.910  1.00  0.00    -0.206 F 
ATOM     71  C   UNL A   1      34.480  32.937  30.681  1.00  0.00     0.040 A 
ATOM     72  C   UNL A   1      35.310  34.123  28.757  1.00  0.00     0.040 A 
ATOM     73  F   UNL A   1      37.550  33.870  28.100  1.00  0.00    -0.206 F 
ATOM     74  C   UNL A   1      34.261  33.815  29.621  1.00  0.00     0.006 A 
ENDBRANCH  46  67
BRANCH  58  75
ATOM     75  C   UNL A   1      42.356  34.726  33.710  1.00  0.00     0.057 A 
ATOM     76  C   UNL A   1      42.886  35.900  33.161  1.00  0.00     0.134 A 
ATOM     77  C   UNL A   1      42.045  34.731  35.075  1.00  0.00     0.134 A 
ATOM     78  F   UNL A   1      43.220  35.953  31.862  1.00  0.00    -0.206 F 
ATOM     79  C   UNL A   1      43.116  37.031  33.946  1.00  0.00     0.040 A 
ATOM     80  C   UNL A   1      42.247  35.863  35.865  1.00  0.00     0.040 A 
ATOM     81  F   UNL A   1      41.528  33.640  35.660  1.00  0.00    -0.206 F 
ATOM     82  C   UNL A   1      42.790  37.016  35.301  1.00  0.00     0.006 A 
ENDBRANCH  58  75
ENDBRANCH  32  33
ENDBRANCH  25  27
ENDBRANCH  24  25
ENDBRANCH  23  24
ENDBRANCH   1  23
TORSDOF 14
ENDMDL
MODEL 3
REMARK VINA RESULT:     -10.9      4.321      9.299
REMARK SMILES CN1CCN(C(=O)N2CCC[C@H]2CC(=O)OCCOC(=O)c2ccc(-c3c4nc(c(-c5c(F)cccc5F)c5ccc([nH]5)c(-c5c(F)cccc5F)c5nc(c(-c6c(F)cccc6F)c6ccc3[nH]6)C=C5)C=C4)cc2)C(C)(C)C1=O
REMARK SMILES IDX 17 1 16 2 14 3 15 4 13 5 12 6 8 7 9 8 10 9 11 10 6 11 7 12
REMARK SMILES IDX 5 13 1 14 2 15 3 16 79 17 4 18 76 19 80 20 77 21 78 22 18 23
REMARK SMILES IDX 19 24 20 25 21 26 22 27 23 28 75 29 24 30 74 31 25 32 26 33
REMARK SMILES IDX 27 34 68 35 28 36 73 37 67 38 69 39 29 40 72 41 66 42 65 43
REMARK SMILES IDX 30 45 56 46 39 47 55 48 40 49 43 50 54 51 70 52 41 53 42 54
REMARK SMILES IDX 53 56 71 57 44 58 31 59 32 60 37 61 33 62 34 63 36 64 38 65
REMARK SMILES IDX 35 66 57 67 58 68 63 69 59 70 60 71 62 72 64 73 61 74 45 75
REMARK SMILES IDX 46 76 51 77 47 78 48 79 50 80 52 81 49 82
REMARK H PARENT 69 44 43 55
REMARK Flexibility Score: inf
ROOT
ATOM      1  C   UNL A   1      32.108  31.405  27.065  1.00  0.00     0.274 C 
ENDROOT
BRANCH   1   2
ATOM      2  O   UNL A   1      31.820  30.771  25.808  1.00  0.00    -0.462 OA
BRANCH   2   3
ATOM      3  C   UNL A   1      32.388  29.565  25.606  1.00  0.00     0.308 C 
ATOM      4  O   UNL A   1      33.597  29.351  25.606  1.00  0.00    -0.252 OA
BRANCH   3   5
ATOM      5  C   UNL A   1      31.396  28.497  25.248  1.00  0.00     0.147 C 
BRANCH   5   6
ATOM      6  C   UNL A   1      31.489  27.809  23.864  1.00  0.00     0.098 C 
ATOM      7  N   UNL A   1      30.565  26.690  23.683  1.00  0.00    -0.321 N 
ATOM      8  C   UNL A   1      29.220  27.191  23.564  1.00  0.00     0.122 C 
ATOM      9  C   UNL A   1      29.409  28.487  22.776  1.00  0.00     0.024 C 
ATOM     10  C   UNL A   1      30.914  28.815  22.851  1.00  0.00     0.027 C 
BRANCH   7  11
ATOM     11  C   UNL A   1      30.821  25.356  23.856  1.00  0.00     0.321 C 
ATOM     12  O   UNL A   1      30.308  24.509  23.125  1.00  0.00    -0.248 OA
BRANCH  11  13
ATOM     13  N   UNL A   1      31.747  25.017  24.846  1.00  0.00    -0.309 N 
ATOM     14  C   UNL A   1      32.229  20.764  25.232  1.00  0.00     0.146 C 
ATOM     15  N   UNL A   1      32.178  22.214  25.204  1.00  0.00    -0.342 N 
ATOM     16  C   UNL A   1      30.998  22.856  25.779  1.00  0.00     0.140 C 
ATOM     17  C   UNL A   1      33.003  22.899  24.307  1.00  0.00     0.247 C 
ATOM     18  C   UNL A   1      31.158  24.361  26.011  1.00  0.00     0.144 C 
ATOM     19  C   UNL A   1      33.095  24.454  24.492  1.00  0.00     0.118 C 
ATOM     20  O   UNL A   1      33.787  22.291  23.570  1.00  0.00    -0.272 OA
ATOM     21  C   UNL A   1      34.106  24.666  25.647  1.00  0.00     0.045 C 
ATOM     22  C   UNL A   1      33.752  25.045  23.239  1.00  0.00     0.045 C 
ENDBRANCH  11  13
ENDBRANCH   7  11
ENDBRANCH   5   6
ENDBRANCH   3   5
ENDBRANCH   2   3
ENDBRANCH   1   2
BRANCH   1  23
ATOM     23  C   UNL A   1      31.840  32.909  27.004  1.00  0.00     0.275 C 
BRANCH  23  24
ATOM     24  O   UNL A   1      33.050  33.679  27.135  1.00  0.00    -0.458 OA
BRANCH  24  25
ATOM     25  C   UNL A   1      33.226  34.302  28.323  1.00  0.00     0.338 C 
ATOM     26  O   UNL A   1      32.527  35.159  28.830  1.00  0.00    -0.246 OA
BRANCH  25  27
ATOM     27  C   UNL A   1      34.389  33.724  29.005  1.00  0.00     0.060 A 
ATOM     28  C   UNL A   1      35.665  34.214  28.707  1.00  0.00     0.016 A 
ATOM     29  C   UNL A   1      34.219  32.657  29.886  1.00  0.00     0.016 A 
ATOM     30  C   UNL A   1      36.782  33.647  29.312  1.00  0.00     0.010 A 
ATOM     31  C   UNL A   1      35.339  32.091  30.492  1.00  0.00     0.010 A 
ATOM     32  C   UNL A   1      36.625  32.582  30.209  1.00  0.00    -0.014 A 
BRANCH  32  33
ATOM     33  C   UNL A   1      37.807  31.968  30.852  1.00  0.00     0.031 A 
ATOM     34  C   UNL A   1      38.576  30.899  30.137  1.00  0.00     0.074 A 
ATOM     35  C   UNL A   1      38.161  32.355  32.090  1.00  0.00     0.049 A 
ATOM     36  N   UNL A   1      39.568  30.166  30.568  1.00  0.00    -0.248 NA
ATOM     37  C   UNL A   1      38.168  30.615  28.753  1.00  0.00     0.031 C 
ATOM     38  C   UNL A   1      37.499  33.402  32.868  1.00  0.00     0.029 A 
ATOM     39  N   UNL A   1      39.156  31.901  32.915  1.00  0.00    -0.354 N 
ATOM     40  C   UNL A   1      39.893  29.318  29.518  1.00  0.00     0.074 A 
ATOM     41  C   UNL A   1      38.979  29.615  28.436  1.00  0.00     0.031 C 
ATOM     42  C   UNL A   1      38.106  33.511  34.060  1.00  0.00     0.029 A 
ATOM     43  C   UNL A   1      39.167  32.512  34.144  1.00  0.00     0.049 A 
ATOM     44  H   UNL A   1      39.801  31.206  32.652  1.00  0.00     0.167 HD
ATOM     45  C   UNL A   1      40.869  28.380  29.466  1.00  0.00     0.037 A 
ATOM     46  C   UNL A   1      39.931  32.272  35.225  1.00  0.00     0.037 A 
ATOM     47  C   UNL A   1      41.774  28.093  30.548  1.00  0.00     0.049 A 
ATOM     48  C   UNL A   1      40.970  31.188  35.162  1.00  0.00     0.074 A 
ATOM     49  C   UNL A   1      42.811  27.178  30.591  1.00  0.00     0.029 A 
ATOM     50  N   UNL A   1      41.742  28.719  31.788  1.00  0.00    -0.354 N 
ATOM     51  N   UNL A   1      41.279  30.399  34.161  1.00  0.00    -0.248 NA
ATOM     52  C   UNL A   1      41.760  30.958  36.378  1.00  0.00     0.031 C 
ATOM     53  C   UNL A   1      43.379  27.219  31.869  1.00  0.00     0.029 A 
ATOM     54  C   UNL A   1      42.727  28.193  32.608  1.00  0.00     0.049 A 
ATOM     55  H   UNL A   1      41.113  29.431  32.045  1.00  0.00     0.167 HD
ATOM     56  C   UNL A   1      42.314  29.594  34.618  1.00  0.00     0.074 A 
ATOM     57  C   UNL A   1      42.586  29.998  35.982  1.00  0.00     0.031 C 
ATOM     58  C   UNL A   1      42.980  28.609  33.965  1.00  0.00     0.037 A 
BRANCH  45  59
ATOM     59  C   UNL A   1      40.979  27.575  28.204  1.00  0.00     0.057 A 
ATOM     60  C   UNL A   1      41.779  27.985  27.129  1.00  0.00     0.134 A 
ATOM     61  C   UNL A   1      40.280  26.369  28.064  1.00  0.00     0.134 A 
ATOM     62  F   UNL A   1      42.463  29.137  27.192  1.00  0.00    -0.206 F 
ATOM     63  C   UNL A   1      41.857  27.240  25.950  1.00  0.00     0.040 A 
ATOM     64  C   UNL A   1      40.369  25.603  26.901  1.00  0.00     0.040 A 
ATOM     65  F   UNL A   1      39.499  25.917  29.056  1.00  0.00    -0.206 F 
ATOM     66  C   UNL A   1      41.153  26.043  25.836  1.00  0.00     0.006 A 
ENDBRANCH  45  59
BRANCH  46  67
ATOM     67  C   UNL A   1      39.737  33.076  36.457  1.00  0.00     0.057 A 
ATOM     68  C   UNL A   1      40.498  34.225  36.694  1.00  0.00     0.134 A 
ATOM     69  C   UNL A   1      38.775  32.728  37.413  1.00  0.00     0.134 A 
ATOM     70  F   UNL A   1      41.448  34.597  35.823  1.00  0.00    -0.206 F 
ATOM     71  C   UNL A   1      40.315  34.998  37.842  1.00  0.00     0.040 A 
ATOM     72  C   UNL A   1      38.567  33.503  38.554  1.00  0.00     0.040 A 
ATOM     73  F   UNL A   1      38.012  31.638  37.241  1.00  0.00    -0.206 F 
ATOM     74  C   UNL A   1      39.341  34.641  38.772  1.00  0.00     0.006 A 
ENDBRANCH  46  67
BRANCH  58  75
ATOM     75  C   UNL A   1      44.087  27.925  34.713  1.00  0.00     0.057 A 
ATOM     76  C   UNL A   1      43.863  26.765  35.464  1.00  0.00     0.134 A 
ATOM     77  C   UNL A   1      45.396  28.418  34.654  1.00  0.00     0.134 A 
ATOM     78  F   UNL A   1      42.628  26.252  35.573  1.00  0.00    -0.206 F 
ATOM     79  C   UNL A   1      44.901  26.129  36.147  1.00  0.00     0.040 A 
ATOM     80  C   UNL A   1      46.446  27.777  35.312  1.00  0.00     0.040 A 
ATOM     81  F   UNL A   1      45.677  29.521  33.946  1.00  0.00    -0.206 F 
ATOM     82  C   UNL A   1      46.198  26.632  36.066  1.00  0.00     0.006 A 
ENDBRANCH  58  75
ENDBRANCH  32  33
ENDBRANCH  25  27
ENDBRANCH  24  25
ENDBRANCH  23  24
ENDBRANCH   1  23
TORSDOF 14
ENDMDL
