MODEL 1
REMARK VINA RESULT:     -13.4      0.000      0.000
REMARK SMILES CN(C)S(=O)(=O)c1ccc(-n2c(CCC(=O)OCCOC(=O)c3ccc(-c4c5nc(c(-c6c(F)cccc6F)c6ccc([nH]6)c(-c6c(F)cccc6F)c6nc(c(-c7c(F)cccc7F)c7ccc4[nH]7)C=C6)C=C5)cc3)ccc2-c2ccc(F)cc2)cc1
REMARK SMILES IDX 17 1 15 2 16 3 14 4 13 5 12 6 11 7 79 8 77 9 78 10 10 11
REMARK SMILES IDX 7 12 8 13 88 14 9 15 87 16 4 17 5 18 6 19 2 20 1 21 3 22
REMARK SMILES IDX 80 23 81 24 86 25 82 26 85 27 83 28 84 29 18 30 19 31 20 32
REMARK SMILES IDX 21 33 22 34 23 35 24 36 76 37 25 38 75 39 26 40 27 41 28 42
REMARK SMILES IDX 69 43 29 44 74 45 68 46 70 47 30 48 73 49 67 50 66 51 31 53
REMARK SMILES IDX 57 54 40 55 56 56 41 57 44 58 55 59 71 60 42 61 43 62 54 64
REMARK SMILES IDX 72 65 45 66 32 67 33 68 38 69 34 70 35 71 37 72 39 73 36 74
REMARK SMILES IDX 58 75 59 76 64 77 60 78 61 79 63 80 65 81 62 82 46 83 47 84
REMARK SMILES IDX 52 85 48 86 49 87 51 88 53 89 50 90
REMARK H PARENT 70 52 44 63
REMARK Flexibility Score: inf
ROOT
ATOM      1  O   UNL A   1      35.383  22.957  26.510  1.00  0.00    -0.462 OA
ENDROOT
BRANCH   1   2
ATOM      2  C   UNL A   1      34.340  23.093  25.642  1.00  0.00     0.306 C 
ATOM      3  O   UNL A   1      33.555  22.190  25.375  1.00  0.00    -0.252 OA
BRANCH   2   4
ATOM      4  C   UNL A   1      34.176  24.503  25.085  1.00  0.00     0.129 C 
BRANCH   4   5
ATOM      5  C   UNL A   1      33.511  25.580  25.959  1.00  0.00     0.066 C 
BRANCH   5   6
ATOM      6  C   UNL A   1      32.188  26.019  25.435  1.00  0.00     0.024 A 
ATOM      7  N   UNL A   1      31.737  27.333  25.306  1.00  0.00    -0.314 N 
ATOM      8  C   UNL A   1      30.641  27.287  24.423  1.00  0.00     0.053 A 
ATOM      9  C   UNL A   1      31.193  25.179  24.965  1.00  0.00     0.024 A 
ATOM     10  C   UNL A   1      30.225  25.973  24.333  1.00  0.00     0.029 A 
BRANCH   7  11
ATOM     11  C   UNL A   1      32.336  28.531  25.815  1.00  0.00     0.046 A 
ATOM     12  C   UNL A   1      33.920  31.379  27.402  1.00  0.00     0.082 A 
ATOM     13  C   UNL A   1      34.862  29.881  27.114  1.00  0.00     0.024 A 
ATOM     14  C   UNL A   1      32.200  31.491  26.914  1.00  0.00     0.024 A 
ATOM     15  C   UNL A   1      34.092  28.457  26.317  1.00  0.00     0.028 A 
ATOM     16  C   UNL A   1      31.413  30.099  26.062  1.00  0.00     0.028 A 
BRANCH  12  17
ATOM     17  S   UNL A   1      34.738  32.798  28.039  1.00  0.00     0.242 S 
ATOM     18  O   UNL A   1      34.220  33.953  27.339  1.00  0.00    -0.207 OA
ATOM     19  O   UNL A   1      36.154  32.498  28.049  1.00  0.00    -0.207 OA
BRANCH  17  20
ATOM     20  N   UNL A   1      34.193  32.883  29.660  1.00  0.00    -0.204 NA
ATOM     21  C   UNL A   1      35.110  32.194  30.601  1.00  0.00     0.124 C 
ATOM     22  C   UNL A   1      33.856  34.237  30.154  1.00  0.00     0.124 C 
ENDBRANCH  17  20
ENDBRANCH  12  17
ENDBRANCH   7  11
BRANCH   8  23
ATOM     23  C   UNL A   1      30.159  28.385  23.577  1.00  0.00    -0.001 A 
ATOM     24  C   UNL A   1      31.004  29.009  22.648  1.00  0.00     0.013 A 
ATOM     25  C   UNL A   1      28.831  28.824  23.702  1.00  0.00     0.013 A 
ATOM     26  C   UNL A   1      30.502  30.006  21.806  1.00  0.00     0.040 A 
ATOM     27  C   UNL A   1      28.331  29.817  22.860  1.00  0.00     0.040 A 
ATOM     28  C   UNL A   1      29.170  30.391  21.913  1.00  0.00     0.123 A 
ATOM     29  F   UNL A   1      28.685  31.333  21.093  1.00  0.00    -0.207 F 
ENDBRANCH   8  23
ENDBRANCH   5   6
ENDBRANCH   4   5
ENDBRANCH   2   4
ENDBRANCH   1   2
BRANCH   1  30
ATOM     30  C   UNL A   1      36.706  23.231  25.971  1.00  0.00     0.274 C 
BRANCH  30  31
ATOM     31  C   UNL A   1      37.528  21.959  25.271  1.00  0.00     0.275 C 
BRANCH  31  32
ATOM     32  O   UNL A   1      39.183  21.010  25.955  1.00  0.00    -0.458 OA
BRANCH  32  33
ATOM     33  C   UNL A   1      40.163  20.032  26.104  1.00  0.00     0.338 C 
ATOM     34  O   UNL A   1      40.167  18.854  25.739  1.00  0.00    -0.246 OA
BRANCH  33  35
ATOM     35  C   UNL A   1      41.413  20.572  26.607  1.00  0.00     0.060 A 
ATOM     36  C   UNL A   1      41.318  21.185  27.867  1.00  0.00     0.016 A 
ATOM     37  C   UNL A   1      42.311  20.965  25.620  1.00  0.00     0.016 A 
ATOM     38  C   UNL A   1      41.982  22.371  28.059  1.00  0.00     0.010 A 
ATOM     39  C   UNL A   1      42.959  22.159  25.808  1.00  0.00     0.010 A 
ATOM     40  C   UNL A   1      42.713  22.885  26.985  1.00  0.00    -0.014 A 
BRANCH  40  41
ATOM     41  C   UNL A   1      43.231  24.248  27.070  1.00  0.00     0.031 A 
ATOM     42  C   UNL A   1      42.126  25.249  27.351  1.00  0.00     0.074 A 
ATOM     43  C   UNL A   1      44.588  24.346  26.952  1.00  0.00     0.049 A 
ATOM     44  N   UNL A   1      42.163  26.542  27.372  1.00  0.00    -0.248 NA
ATOM     45  C   UNL A   1      40.756  24.734  27.637  1.00  0.00     0.031 C 
ATOM     46  C   UNL A   1      45.490  23.208  26.654  1.00  0.00     0.029 A 
ATOM     47  N   UNL A   1      45.488  25.382  27.065  1.00  0.00    -0.354 N 
ATOM     48  C   UNL A   1      40.927  26.972  27.880  1.00  0.00     0.074 A 
ATOM     49  C   UNL A   1      40.065  25.832  27.928  1.00  0.00     0.031 C 
ATOM     50  C   UNL A   1      46.767  23.622  26.549  1.00  0.00     0.029 A 
ATOM     51  C   UNL A   1      46.840  25.046  26.803  1.00  0.00     0.049 A 
ATOM     52  H   UNL A   1      45.210  26.294  27.311  1.00  0.00     0.167 HD
ATOM     53  C   UNL A   1      40.720  28.225  28.363  1.00  0.00     0.037 A 
ATOM     54  C   UNL A   1      47.935  25.865  26.769  1.00  0.00     0.037 A 
ATOM     55  C   UNL A   1      41.857  29.053  28.145  1.00  0.00     0.049 A 
ATOM     56  C   UNL A   1      47.456  27.168  27.264  1.00  0.00     0.074 A 
ATOM     57  C   UNL A   1      42.342  29.678  27.028  1.00  0.00     0.029 A 
ATOM     58  N   UNL A   1      42.834  29.047  29.108  1.00  0.00    -0.354 N 
ATOM     59  N   UNL A   1      47.154  27.425  28.503  1.00  0.00    -0.248 NA
ATOM     60  C   UNL A   1      47.184  28.234  26.296  1.00  0.00     0.031 C 
ATOM     61  C   UNL A   1      43.740  29.733  27.222  1.00  0.00     0.029 A 
ATOM     62  C   UNL A   1      44.050  29.205  28.479  1.00  0.00     0.049 A 
ATOM     63  H   UNL A   1      42.692  28.947  30.077  1.00  0.00     0.167 HD
ATOM     64  C   UNL A   1      46.358  28.543  28.398  1.00  0.00     0.074 A 
ATOM     65  C   UNL A   1      46.651  29.137  27.113  1.00  0.00     0.031 C 
ATOM     66  C   UNL A   1      45.214  28.638  29.121  1.00  0.00     0.037 A 
BRANCH  53  67
ATOM     67  C   UNL A   1      39.600  28.740  29.206  1.00  0.00     0.057 A 
ATOM     68  C   UNL A   1      39.545  28.358  30.561  1.00  0.00     0.134 A 
ATOM     69  C   UNL A   1      38.442  29.325  28.680  1.00  0.00     0.134 A 
ATOM     70  F   UNL A   1      40.614  27.820  31.169  1.00  0.00    -0.206 F 
ATOM     71  C   UNL A   1      38.378  28.460  31.318  1.00  0.00     0.040 A 
ATOM     72  C   UNL A   1      37.277  29.471  29.443  1.00  0.00     0.040 A 
ATOM     73  F   UNL A   1      38.368  29.695  27.394  1.00  0.00    -0.206 F 
ATOM     74  C   UNL A   1      37.232  29.003  30.753  1.00  0.00     0.006 A 
ENDBRANCH  53  67
BRANCH  54  75
ATOM     75  C   UNL A   1      49.375  25.787  26.310  1.00  0.00     0.057 A 
ATOM     76  C   UNL A   1      49.890  26.253  25.096  1.00  0.00     0.134 A 
ATOM     77  C   UNL A   1      50.373  25.290  27.192  1.00  0.00     0.134 A 
ATOM     78  F   UNL A   1      49.096  26.653  24.099  1.00  0.00    -0.206 F 
ATOM     79  C   UNL A   1      51.272  26.325  24.828  1.00  0.00     0.040 A 
ATOM     80  C   UNL A   1      51.751  25.385  26.956  1.00  0.00     0.040 A 
ATOM     81  F   UNL A   1      50.060  24.691  28.350  1.00  0.00    -0.206 F 
ATOM     82  C   UNL A   1      52.209  25.927  25.772  1.00  0.00     0.006 A 
ENDBRANCH  54  75
BRANCH  66  83
ATOM     83  C   UNL A   1      45.198  27.765  30.355  1.00  0.00     0.057 A 
ATOM     84  C   UNL A   1      45.966  28.112  31.471  1.00  0.00     0.134 A 
ATOM     85  C   UNL A   1      44.532  26.532  30.429  1.00  0.00     0.134 A 
ATOM     86  F   UNL A   1      46.640  29.273  31.491  1.00  0.00    -0.206 F 
ATOM     87  C   UNL A   1      46.065  27.279  32.594  1.00  0.00     0.040 A 
ATOM     88  C   UNL A   1      44.611  25.691  31.543  1.00  0.00     0.040 A 
ATOM     89  F   UNL A   1      43.780  26.103  29.415  1.00  0.00    -0.206 F 
ATOM     90  C   UNL A   1      45.387  26.062  32.632  1.00  0.00     0.006 A 
ENDBRANCH  66  83
ENDBRANCH  40  41
ENDBRANCH  33  35
ENDBRANCH  32  33
ENDBRANCH  31  32
ENDBRANCH  30  31
ENDBRANCH   1  30
TORSDOF 17
ENDMDL
MODEL 2
REMARK VINA RESULT:     -12.8      5.269     12.500
REMARK SMILES CN(C)S(=O)(=O)c1ccc(-n2c(CCC(=O)OCCOC(=O)c3ccc(-c4c5nc(c(-c6c(F)cccc6F)c6ccc([nH]6)c(-c6c(F)cccc6F)c6nc(c(-c7c(F)cccc7F)c7ccc4[nH]7)C=C6)C=C5)cc3)ccc2-c2ccc(F)cc2)cc1
REMARK SMILES IDX 17 1 15 2 16 3 14 4 13 5 12 6 11 7 79 8 77 9 78 10 10 11
REMARK SMILES IDX 7 12 8 13 88 14 9 15 87 16 4 17 5 18 6 19 2 20 1 21 3 22
REMARK SMILES IDX 80 23 81 24 86 25 82 26 85 27 83 28 84 29 18 30 19 31 20 32
REMARK SMILES IDX 21 33 22 34 23 35 24 36 76 37 25 38 75 39 26 40 27 41 28 42
REMARK SMILES IDX 69 43 29 44 74 45 68 46 70 47 30 48 73 49 67 50 66 51 31 53
REMARK SMILES IDX 57 54 40 55 56 56 41 57 44 58 55 59 71 60 42 61 43 62 54 64
REMARK SMILES IDX 72 65 45 66 32 67 33 68 38 69 34 70 35 71 37 72 39 73 36 74
REMARK SMILES IDX 58 75 59 76 64 77 60 78 61 79 63 80 65 81 62 82 46 83 47 84
REMARK SMILES IDX 52 85 48 86 49 87 51 88 53 89 50 90
REMARK H PARENT 70 52 44 63
REMARK Flexibility Score: inf
ROOT
ATOM      1  O   UNL A   1      49.171  30.348  26.573  1.00  0.00    -0.462 OA
ENDROOT
BRANCH   1   2
ATOM      2  C   UNL A   1      48.557  29.130  26.525  1.00  0.00     0.306 C 
ATOM      3  O   UNL A   1      48.728  28.318  25.623  1.00  0.00    -0.252 OA
BRANCH   2   4
ATOM      4  C   UNL A   1      47.691  28.824  27.742  1.00  0.00     0.129 C 
BRANCH   4   5
ATOM      5  C   UNL A   1      46.471  27.903  27.579  1.00  0.00     0.066 C 
BRANCH   5   6
ATOM      6  C   UNL A   1      45.230  28.641  27.212  1.00  0.00     0.024 A 
ATOM      7  N   UNL A   1      43.949  28.104  27.079  1.00  0.00    -0.314 N 
ATOM      8  C   UNL A   1      43.059  29.195  27.121  1.00  0.00     0.053 A 
ATOM      9  C   UNL A   1      45.150  30.001  26.965  1.00  0.00     0.024 A 
ATOM     10  C   UNL A   1      43.791  30.347  26.907  1.00  0.00     0.029 A 
BRANCH   7  11
ATOM     11  C   UNL A   1      43.562  26.725  27.066  1.00  0.00     0.046 A 
ATOM     12  C   UNL A   1      42.320  23.329  26.811  1.00  0.00     0.082 A 
ATOM     13  C   UNL A   1      42.917  24.172  25.345  1.00  0.00     0.024 A 
ATOM     14  C   UNL A   1      42.330  24.141  28.408  1.00  0.00     0.024 A 
ATOM     15  C   UNL A   1      43.547  25.860  25.456  1.00  0.00     0.028 A 
ATOM     16  C   UNL A   1      43.007  25.815  28.561  1.00  0.00     0.028 A 
BRANCH  12  17
ATOM     17  S   UNL A   1      41.858  21.637  26.699  1.00  0.00     0.242 S 
ATOM     18  O   UNL A   1      42.318  20.976  27.900  1.00  0.00    -0.207 OA
ATOM     19  O   UNL A   1      42.261  21.177  25.387  1.00  0.00    -0.207 OA
BRANCH  17  20
ATOM     20  N   UNL A   1      40.147  21.683  26.752  1.00  0.00    -0.204 NA
ATOM     21  C   UNL A   1      39.616  23.064  26.627  1.00  0.00     0.124 C 
ATOM     22  C   UNL A   1      39.450  20.768  25.820  1.00  0.00     0.124 C 
ENDBRANCH  17  20
ENDBRANCH  12  17
ENDBRANCH   7  11
BRANCH   8  23
ATOM     23  C   UNL A   1      41.653  29.154  27.536  1.00  0.00    -0.001 A 
ATOM     24  C   UNL A   1      41.287  29.315  28.880  1.00  0.00     0.013 A 
ATOM     25  C   UNL A   1      40.653  28.943  26.572  1.00  0.00     0.013 A 
ATOM     26  C   UNL A   1      39.936  29.339  29.239  1.00  0.00     0.040 A 
ATOM     27  C   UNL A   1      39.305  28.971  26.931  1.00  0.00     0.040 A 
ATOM     28  C   UNL A   1      38.960  29.178  28.260  1.00  0.00     0.123 A 
ATOM     29  F   UNL A   1      37.666  29.222  28.603  1.00  0.00    -0.207 F 
ENDBRANCH   8  23
ENDBRANCH   5   6
ENDBRANCH   4   5
ENDBRANCH   2   4
ENDBRANCH   1   2
BRANCH   1  30
ATOM     30  C   UNL A   1      48.618  31.309  27.515  1.00  0.00     0.274 C 
BRANCH  30  31
ATOM     31  C   UNL A   1      47.825  32.633  26.884  1.00  0.00     0.275 C 
BRANCH  31  32
ATOM     32  O   UNL A   1      46.841  34.096  27.883  1.00  0.00    -0.458 OA
BRANCH  32  33
ATOM     33  C   UNL A   1      46.387  34.883  28.938  1.00  0.00     0.338 C 
ATOM     34  O   UNL A   1      47.018  35.599  29.720  1.00  0.00    -0.246 OA
BRANCH  33  35
ATOM     35  C   UNL A   1      44.939  34.985  28.972  1.00  0.00     0.060 A 
ATOM     36  C   UNL A   1      44.416  35.441  30.193  1.00  0.00     0.016 A 
ATOM     37  C   UNL A   1      44.278  34.097  28.130  1.00  0.00     0.016 A 
ATOM     38  C   UNL A   1      43.301  34.814  30.692  1.00  0.00     0.010 A 
ATOM     39  C   UNL A   1      43.175  33.461  28.638  1.00  0.00     0.010 A 
ATOM     40  C   UNL A   1      42.760  33.765  29.945  1.00  0.00    -0.014 A 
BRANCH  40  41
ATOM     41  C   UNL A   1      41.729  32.924  30.550  1.00  0.00     0.031 A 
ATOM     42  C   UNL A   1      42.335  31.758  31.308  1.00  0.00     0.074 A 
ATOM     43  C   UNL A   1      40.454  33.380  30.378  1.00  0.00     0.049 A 
ATOM     44  N   UNL A   1      41.760  30.740  31.864  1.00  0.00    -0.248 NA
ATOM     45  C   UNL A   1      43.818  31.700  31.459  1.00  0.00     0.031 C 
ATOM     46  C   UNL A   1      40.087  34.563  29.563  1.00  0.00     0.029 A 
ATOM     47  N   UNL A   1      39.221  32.978  30.842  1.00  0.00    -0.354 N 
ATOM     48  C   UNL A   1      42.750  30.070  32.600  1.00  0.00     0.074 A 
ATOM     49  C   UNL A   1      44.011  30.638  32.235  1.00  0.00     0.031 C 
ATOM     50  C   UNL A   1      38.752  34.735  29.541  1.00  0.00     0.029 A 
ATOM     51  C   UNL A   1      38.116  33.723  30.359  1.00  0.00     0.049 A 
ATOM     52  H   UNL A   1      39.115  32.224  31.466  1.00  0.00     0.167 HD
ATOM     53  C   UNL A   1      42.464  29.169  33.576  1.00  0.00     0.037 A 
ATOM     54  C   UNL A   1      36.782  33.519  30.583  1.00  0.00     0.037 A 
ATOM     55  C   UNL A   1      41.068  28.901  33.634  1.00  0.00     0.049 A 
ATOM     56  C   UNL A   1      36.722  32.467  31.612  1.00  0.00     0.074 A 
ATOM     57  C   UNL A   1      40.238  28.150  32.845  1.00  0.00     0.029 A 
ATOM     58  N   UNL A   1      40.303  29.719  34.427  1.00  0.00    -0.354 N 
ATOM     59  N   UNL A   1      37.029  32.635  32.865  1.00  0.00    -0.248 NA
ATOM     60  C   UNL A   1      36.406  31.096  31.201  1.00  0.00     0.031 C 
ATOM     61  C   UNL A   1      38.980  28.787  32.935  1.00  0.00     0.029 A 
ATOM     62  C   UNL A   1      39.070  29.857  33.828  1.00  0.00     0.049 A 
ATOM     63  H   UNL A   1      40.585  30.134  35.274  1.00  0.00     0.167 HD
ATOM     64  C   UNL A   1      37.262  31.349  33.298  1.00  0.00     0.074 A 
ATOM     65  C   UNL A   1      36.600  30.473  32.360  1.00  0.00     0.031 C 
ATOM     66  C   UNL A   1      38.336  31.076  34.082  1.00  0.00     0.037 A 
BRANCH  53  67
ATOM     67  C   UNL A   1      43.353  28.617  34.641  1.00  0.00     0.057 A 
ATOM     68  C   UNL A   1      43.869  27.316  34.482  1.00  0.00     0.134 A 
ATOM     69  C   UNL A   1      43.466  29.176  35.920  1.00  0.00     0.134 A 
ATOM     70  F   UNL A   1      43.839  26.705  33.287  1.00  0.00    -0.206 F 
ATOM     71  C   UNL A   1      44.375  26.578  35.552  1.00  0.00     0.040 A 
ATOM     72  C   UNL A   1      44.011  28.459  36.993  1.00  0.00     0.040 A 
ATOM     73  F   UNL A   1      42.979  30.393  36.197  1.00  0.00    -0.206 F 
ATOM     74  C   UNL A   1      44.433  27.144  36.817  1.00  0.00     0.006 A 
ENDBRANCH  53  67
BRANCH  54  75
ATOM     75  C   UNL A   1      35.467  34.014  30.023  1.00  0.00     0.057 A 
ATOM     76  C   UNL A   1      34.404  34.563  30.750  1.00  0.00     0.134 A 
ATOM     77  C   UNL A   1      35.262  34.044  28.616  1.00  0.00     0.134 A 
ATOM     78  F   UNL A   1      34.366  34.522  32.084  1.00  0.00    -0.206 F 
ATOM     79  C   UNL A   1      33.298  35.184  30.136  1.00  0.00     0.040 A 
ATOM     80  C   UNL A   1      34.186  34.687  27.991  1.00  0.00     0.040 A 
ATOM     81  F   UNL A   1      36.114  33.456  27.765  1.00  0.00    -0.206 F 
ATOM     82  C   UNL A   1      33.203  35.283  28.754  1.00  0.00     0.006 A 
ENDBRANCH  54  75
BRANCH  66  83
ATOM     83  C   UNL A   1      38.861  32.276  34.837  1.00  0.00     0.057 A 
ATOM     84  C   UNL A   1      38.214  32.717  35.996  1.00  0.00     0.134 A 
ATOM     85  C   UNL A   1      39.923  33.076  34.388  1.00  0.00     0.134 A 
ATOM     86  F   UNL A   1      37.185  32.016  36.500  1.00  0.00    -0.206 F 
ATOM     87  C   UNL A   1      38.600  33.885  36.666  1.00  0.00     0.040 A 
ATOM     88  C   UNL A   1      40.330  34.240  35.047  1.00  0.00     0.040 A 
ATOM     89  F   UNL A   1      40.602  32.750  33.288  1.00  0.00    -0.206 F 
ATOM     90  C   UNL A   1      39.661  34.653  36.192  1.00  0.00     0.006 A 
ENDBRANCH  66  83
ENDBRANCH  40  41
ENDBRANCH  33  35
ENDBRANCH  32  33
ENDBRANCH  31  32
ENDBRANCH  30  31
ENDBRANCH   1  30
TORSDOF 17
ENDMDL
MODEL 3
REMARK VINA RESULT:     -12.6      5.088      8.267
REMARK SMILES CN(C)S(=O)(=O)c1ccc(-n2c(CCC(=O)OCCOC(=O)c3ccc(-c4c5nc(c(-c6c(F)cccc6F)c6ccc([nH]6)c(-c6c(F)cccc6F)c6nc(c(-c7c(F)cccc7F)c7ccc4[nH]7)C=C6)C=C5)cc3)ccc2-c2ccc(F)cc2)cc1
REMARK SMILES IDX 17 1 15 2 16 3 14 4 13 5 12 6 11 7 79 8 77 9 78 10 10 11
REMARK SMILES IDX 7 12 8 13 88 14 9 15 87 16 4 17 5 18 6 19 2 20 1 21 3 22
REMARK SMILES IDX 80 23 81 24 86 25 82 26 85 27 83 28 84 29 18 30 19 31 20 32
REMARK SMILES IDX 21 33 22 34 23 35 24 36 76 37 25 38 75 39 26 40 27 41 28 42
REMARK SMILES IDX 69 43 29 44 74 45 68 46 70 47 30 48 73 49 67 50 66 51 31 53
REMARK SMILES IDX 57 54 40 55 56 56 41 57 44 58 55 59 71 60 42 61 43 62 54 64
REMARK SMILES IDX 72 65 45 66 32 67 33 68 38 69 34 70 35 71 37 72 39 73 36 74
REMARK SMILES IDX 58 75 59 76 64 77 60 78 61 79 63 80 65 81 62 82 46 83 47 84
REMARK SMILES IDX 52 85 48 86 49 87 51 88 53 89 50 90
REMARK H PARENT 70 52 44 63
REMARK Flexibility Score: inf
ROOT
ATOM      1  O   UNL A   1      41.343  28.295  33.994  1.00  0.00    -0.462 OA
ENDROOT
BRANCH   1   2
ATOM      2  C   UNL A   1      40.343  28.470  33.082  1.00  0.00     0.306 C 
ATOM      3  O   UNL A   1      39.341  27.765  33.028  1.00  0.00    -0.252 OA
BRANCH   2   4
ATOM      4  C   UNL A   1      40.535  29.681  32.176  1.00  0.00     0.129 C 
BRANCH   4   5
ATOM      5  C   UNL A   1      40.269  29.536  30.668  1.00  0.00     0.066 C 
BRANCH   5   6
ATOM      6  C   UNL A   1      38.846  29.783  30.303  1.00  0.00     0.024 A 
ATOM      7  N   UNL A   1      38.013  30.777  30.816  1.00  0.00    -0.314 N 
ATOM      8  C   UNL A   1      36.931  30.885  29.922  1.00  0.00     0.053 A 
ATOM      9  C   UNL A   1      38.124  29.066  29.363  1.00  0.00     0.024 A 
ATOM     10  C   UNL A   1      36.926  29.756  29.126  1.00  0.00     0.029 A 
BRANCH   7  11
ATOM     11  C   UNL A   1      38.253  31.648  31.929  1.00  0.00     0.046 A 
ATOM     12  C   UNL A   1      39.210  33.795  34.689  1.00  0.00     0.082 A 
ATOM     13  C   UNL A   1      39.731  34.200  33.022  1.00  0.00     0.024 A 
ATOM     14  C   UNL A   1      38.217  32.339  35.013  1.00  0.00     0.024 A 
ATOM     15  C   UNL A   1      39.256  33.147  31.635  1.00  0.00     0.028 A 
ATOM     16  C   UNL A   1      37.678  31.292  33.636  1.00  0.00     0.028 A 
BRANCH  12  17
ATOM     17  S   UNL A   1      39.556  34.920  35.994  1.00  0.00     0.242 S 
ATOM     18  O   UNL A   1      38.738  34.544  37.126  1.00  0.00    -0.207 OA
ATOM     19  O   UNL A   1      39.492  36.251  35.429  1.00  0.00    -0.207 OA
BRANCH  17  20
ATOM     20  N   UNL A   1      41.187  34.581  36.393  1.00  0.00    -0.204 NA
ATOM     21  C   UNL A   1      41.481  34.837  37.826  1.00  0.00     0.124 C 
ATOM     22  C   UNL A   1      41.685  33.248  35.986  1.00  0.00     0.124 C 
ENDBRANCH  17  20
ENDBRANCH  12  17
ENDBRANCH   7  11
BRANCH   8  23
ATOM     23  C   UNL A   1      36.093  32.070  29.711  1.00  0.00    -0.001 A 
ATOM     24  C   UNL A   1      36.145  32.793  28.510  1.00  0.00     0.013 A 
ATOM     25  C   UNL A   1      35.225  32.495  30.731  1.00  0.00     0.013 A 
ATOM     26  C   UNL A   1      35.287  33.877  28.309  1.00  0.00     0.040 A 
ATOM     27  C   UNL A   1      34.367  33.575  30.527  1.00  0.00     0.040 A 
ATOM     28  C   UNL A   1      34.400  34.250  29.314  1.00  0.00     0.123 A 
ATOM     29  F   UNL A   1      33.564  35.278  29.112  1.00  0.00    -0.207 F 
ENDBRANCH   8  23
ENDBRANCH   5   6
ENDBRANCH   4   5
ENDBRANCH   2   4
ENDBRANCH   1   2
BRANCH   1  30
ATOM     30  C   UNL A   1      41.352  29.215  35.121  1.00  0.00     0.274 C 
BRANCH  30  31
ATOM     31  C   UNL A   1      42.589  29.061  36.229  1.00  0.00     0.275 C 
BRANCH  31  32
ATOM     32  O   UNL A   1      44.295  27.981  36.056  1.00  0.00    -0.458 OA
BRANCH  32  33
ATOM     33  C   UNL A   1      45.172  26.901  36.113  1.00  0.00     0.338 C 
ATOM     34  O   UNL A   1      45.893  26.515  37.036  1.00  0.00    -0.246 OA
BRANCH  33  35
ATOM     35  C   UNL A   1      45.050  26.026  34.960  1.00  0.00     0.060 A 
ATOM     36  C   UNL A   1      46.114  26.116  34.047  1.00  0.00     0.016 A 
ATOM     37  C   UNL A   1      43.741  25.727  34.598  1.00  0.00     0.016 A 
ATOM     38  C   UNL A   1      45.814  26.132  32.708  1.00  0.00     0.010 A 
ATOM     39  C   UNL A   1      43.443  25.760  33.260  1.00  0.00     0.010 A 
ATOM     40  C   UNL A   1      44.468  26.052  32.344  1.00  0.00    -0.014 A 
BRANCH  40  41
ATOM     41  C   UNL A   1      44.094  26.304  30.955  1.00  0.00     0.031 A 
ATOM     42  C   UNL A   1      43.935  27.788  30.681  1.00  0.00     0.074 A 
ATOM     43  C   UNL A   1      44.029  25.186  30.174  1.00  0.00     0.049 A 
ATOM     44  N   UNL A   1      43.497  28.395  29.625  1.00  0.00    -0.248 NA
ATOM     45  C   UNL A   1      44.303  28.754  31.756  1.00  0.00     0.031 C 
ATOM     46  C   UNL A   1      44.209  23.801  30.673  1.00  0.00     0.029 A 
ATOM     47  N   UNL A   1      43.820  24.965  28.831  1.00  0.00    -0.354 N 
ATOM     48  C   UNL A   1      43.745  29.763  29.815  1.00  0.00     0.074 A 
ATOM     49  C   UNL A   1      44.144  29.940  31.176  1.00  0.00     0.031 C 
ATOM     50  C   UNL A   1      44.040  22.907  29.680  1.00  0.00     0.029 A 
ATOM     51  C   UNL A   1      43.775  23.604  28.438  1.00  0.00     0.049 A 
ATOM     52  H   UNL A   1      43.709  25.703  28.189  1.00  0.00     0.167 HD
ATOM     53  C   UNL A   1      43.739  30.665  28.798  1.00  0.00     0.037 A 
ATOM     54  C   UNL A   1      43.517  23.077  27.201  1.00  0.00     0.037 A 
ATOM     55  C   UNL A   1      43.308  30.064  27.582  1.00  0.00     0.049 A 
ATOM     56  C   UNL A   1      43.488  24.235  26.290  1.00  0.00     0.074 A 
ATOM     57  C   UNL A   1      42.073  29.695  27.122  1.00  0.00     0.029 A 
ATOM     58  N   UNL A   1      44.266  29.472  26.799  1.00  0.00    -0.354 N 
ATOM     59  N   UNL A   1      44.535  24.911  25.915  1.00  0.00    -0.248 NA
ATOM     60  C   UNL A   1      42.190  24.753  25.849  1.00  0.00     0.031 C 
ATOM     61  C   UNL A   1      42.318  28.596  26.269  1.00  0.00     0.029 A 
ATOM     62  C   UNL A   1      43.696  28.379  26.184  1.00  0.00     0.049 A 
ATOM     63  H   UNL A   1      45.198  29.775  26.695  1.00  0.00     0.167 HD
ATOM     64  C   UNL A   1      43.992  26.100  25.484  1.00  0.00     0.074 A 
ATOM     65  C   UNL A   1      42.600  25.837  25.198  1.00  0.00     0.031 C 
ATOM     66  C   UNL A   1      44.565  27.279  25.833  1.00  0.00     0.037 A 
BRANCH  53  67
ATOM     67  C   UNL A   1      44.276  32.058  28.767  1.00  0.00     0.057 A 
ATOM     68  C   UNL A   1      43.393  33.127  29.015  1.00  0.00     0.134 A 
ATOM     69  C   UNL A   1      45.518  32.396  28.216  1.00  0.00     0.134 A 
ATOM     70  F   UNL A   1      42.190  32.912  29.574  1.00  0.00    -0.206 F 
ATOM     71  C   UNL A   1      43.686  34.440  28.646  1.00  0.00     0.040 A 
ATOM     72  C   UNL A   1      45.840  33.717  27.879  1.00  0.00     0.040 A 
ATOM     73  F   UNL A   1      46.423  31.459  27.905  1.00  0.00    -0.206 F 
ATOM     74  C   UNL A   1      44.909  34.735  28.059  1.00  0.00     0.006 A 
ENDBRANCH  53  67
BRANCH  54  75
ATOM     75  C   UNL A   1      43.203  21.722  26.608  1.00  0.00     0.057 A 
ATOM     76  C   UNL A   1      43.955  21.038  25.646  1.00  0.00     0.134 A 
ATOM     77  C   UNL A   1      42.103  20.969  27.103  1.00  0.00     0.134 A 
ATOM     78  F   UNL A   1      44.958  21.623  24.987  1.00  0.00    -0.206 F 
ATOM     79  C   UNL A   1      43.706  19.696  25.293  1.00  0.00     0.040 A 
ATOM     80  C   UNL A   1      41.863  19.626  26.789  1.00  0.00     0.040 A 
ATOM     81  F   UNL A   1      41.200  21.501  27.939  1.00  0.00    -0.206 F 
ATOM     82  C   UNL A   1      42.683  18.972  25.891  1.00  0.00     0.006 A 
ENDBRANCH  54  75
BRANCH  66  83
ATOM     83  C   UNL A   1      46.025  27.161  26.205  1.00  0.00     0.057 A 
ATOM     84  C   UNL A   1      46.997  27.029  25.208  1.00  0.00     0.134 A 
ATOM     85  C   UNL A   1      46.488  27.062  27.527  1.00  0.00     0.134 A 
ATOM     86  F   UNL A   1      46.649  27.109  23.914  1.00  0.00    -0.206 F 
ATOM     87  C   UNL A   1      48.348  26.809  25.509  1.00  0.00     0.040 A 
ATOM     88  C   UNL A   1      47.832  26.852  27.848  1.00  0.00     0.040 A 
ATOM     89  F   UNL A   1      45.642  27.166  28.552  1.00  0.00    -0.206 F 
ATOM     90  C   UNL A   1      48.770  26.719  26.833  1.00  0.00     0.006 A 
ENDBRANCH  66  83
ENDBRANCH  40  41
ENDBRANCH  33  35
ENDBRANCH  32  33
ENDBRANCH  31  32
ENDBRANCH  30  31
ENDBRANCH   1  30
TORSDOF 17
ENDMDL
