MODEL 1
REMARK VINA RESULT:     -10.0      0.000      0.000
REMARK SMILES C[C@@](O)(c1ccc(Cl)cc1Cl)[C@@H](F)C(=O)OCCOC(=O)c1ccc(-c2c3nc(c(-c4c(F)cccc4F)c4ccc([nH]4)c(-c4c(F)cccc4F)c4nc(c(-c5c(F)cccc5F)c5ccc2[nH]5)C=C4)C=C3)cc1
REMARK SMILES IDX 17 1 16 2 14 3 15 4 12 5 13 6 2 7 1 8 3 9 4 11 5 12 10 13
REMARK SMILES IDX 6 14 9 15 11 16 7 17 8 18 18 19 19 20 20 21 21 22 22 23
REMARK SMILES IDX 23 24 75 25 24 26 74 27 25 28 26 29 27 30 68 31 28 32 73 33
REMARK SMILES IDX 67 34 69 35 29 36 72 37 66 38 65 39 30 41 56 42 39 43 55 44
REMARK SMILES IDX 40 45 43 46 54 47 70 48 41 49 42 50 53 52 71 53 44 54 31 55
REMARK SMILES IDX 32 56 37 57 33 58 34 59 36 60 38 61 35 62 57 63 58 64 63 65
REMARK SMILES IDX 59 66 60 67 62 68 64 69 61 70 45 71 46 72 51 73 47 74 48 75
REMARK SMILES IDX 50 76 52 77 49 78
REMARK H PARENT 3 10 69 40 43 51
REMARK Flexibility Score: inf
ROOT
ATOM      1  C   UNL A   1      33.158  36.741  30.980  1.00  0.00     0.274 C 
ENDROOT
BRANCH   1   2
ATOM      2  O   UNL A   1      33.496  35.735  31.961  1.00  0.00    -0.460 OA
BRANCH   2   3
ATOM      3  C   UNL A   1      34.413  36.091  32.899  1.00  0.00     0.344 C 
ATOM      4  O   UNL A   1      34.407  37.175  33.477  1.00  0.00    -0.249 OA
BRANCH   3   5
ATOM      5  C   UNL A   1      35.522  35.068  33.105  1.00  0.00     0.311 C 
ATOM      6  F   UNL A   1      36.042  34.684  31.894  1.00  0.00    -0.231 F 
BRANCH   5   7
ATOM      7  C   UNL A   1      35.203  33.797  33.937  1.00  0.00     0.130 C 
ATOM      8  C   UNL A   1      33.907  33.112  33.452  1.00  0.00     0.051 C 
BRANCH   7   9
ATOM      9  O   UNL A   1      35.007  34.070  35.325  1.00  0.00    -0.382 OA
ATOM     10  H   UNL A   1      35.496  33.421  35.854  1.00  0.00     0.212 HD
ENDBRANCH   7   9
BRANCH   7  11
ATOM     11  C   UNL A   1      36.433  32.849  33.850  1.00  0.00     0.006 A 
ATOM     12  C   UNL A   1      36.337  31.636  33.134  1.00  0.00     0.010 A 
ATOM     13  C   UNL A   1      37.698  33.147  34.419  1.00  0.00     0.048 A 
ATOM     14  C   UNL A   1      37.416  30.749  33.031  1.00  0.00     0.021 A 
ATOM     15  C   UNL A   1      38.773  32.253  34.321  1.00  0.00     0.041 A 
ATOM     16  Cl  UNL A   1      38.076  34.628  35.226  1.00  0.00    -0.084 Cl
ATOM     17  C   UNL A   1      38.627  31.058  33.636  1.00  0.00     0.042 A 
ATOM     18  Cl  UNL A   1      39.952  29.970  33.515  1.00  0.00    -0.084 Cl
ENDBRANCH   7  11
ENDBRANCH   5   7
ENDBRANCH   3   5
ENDBRANCH   2   3
ENDBRANCH   1   2
BRANCH   1  19
ATOM     19  C   UNL A   1      33.000  36.163  29.570  1.00  0.00     0.275 C 
BRANCH  19  20
ATOM     20  O   UNL A   1      32.631  34.772  29.595  1.00  0.00    -0.458 OA
BRANCH  20  21
ATOM     21  C   UNL A   1      33.022  34.070  28.506  1.00  0.00     0.338 C 
ATOM     22  O   UNL A   1      32.433  34.000  27.439  1.00  0.00    -0.246 OA
BRANCH  21  23
ATOM     23  C   UNL A   1      34.369  33.524  28.725  1.00  0.00     0.060 A 
ATOM     24  C   UNL A   1      34.530  32.567  29.727  1.00  0.00     0.016 A 
ATOM     25  C   UNL A   1      35.475  33.999  28.021  1.00  0.00     0.016 A 
ATOM     26  C   UNL A   1      35.798  32.091  30.048  1.00  0.00     0.010 A 
ATOM     27  C   UNL A   1      36.750  33.504  28.330  1.00  0.00     0.010 A 
ATOM     28  C   UNL A   1      36.920  32.555  29.354  1.00  0.00    -0.014 A 
BRANCH  28  29
ATOM     29  C   UNL A   1      38.266  32.050  29.721  1.00  0.00     0.031 A 
ATOM     30  C   UNL A   1      38.737  30.713  29.224  1.00  0.00     0.074 A 
ATOM     31  C   UNL A   1      39.081  32.811  30.474  1.00  0.00     0.049 A 
ATOM     32  N   UNL A   1      39.837  30.065  29.513  1.00  0.00    -0.248 NA
ATOM     33  C   UNL A   1      37.854  30.012  28.280  1.00  0.00     0.031 C 
ATOM     34  C   UNL A   1      38.763  34.150  30.973  1.00  0.00     0.029 A 
ATOM     35  N   UNL A   1      40.345  32.568  30.949  1.00  0.00    -0.354 N 
ATOM     36  C   UNL A   1      39.770  28.872  28.807  1.00  0.00     0.074 A 
ATOM     37  C   UNL A   1      38.516  28.879  28.083  1.00  0.00     0.031 C 
ATOM     38  C   UNL A   1      39.807  34.612  31.680  1.00  0.00     0.029 A 
ATOM     39  C   UNL A   1      40.845  33.586  31.723  1.00  0.00     0.049 A 
ATOM     40  H   UNL A   1      40.845  31.743  30.753  1.00  0.00     0.167 HD
ATOM     41  C   UNL A   1      40.674  27.863  28.768  1.00  0.00     0.037 A 
ATOM     42  C   UNL A   1      41.996  33.671  32.415  1.00  0.00     0.037 A 
ATOM     43  C   UNL A   1      41.934  27.866  29.467  1.00  0.00     0.049 A 
ATOM     44  C   UNL A   1      42.960  32.519  32.391  1.00  0.00     0.074 A 
ATOM     45  C   UNL A   1      42.915  26.890  29.482  1.00  0.00     0.029 A 
ATOM     46  N   UNL A   1      42.388  28.903  30.267  1.00  0.00    -0.354 N 
ATOM     47  N   UNL A   1      42.870  31.381  31.748  1.00  0.00    -0.248 NA
ATOM     48  C   UNL A   1      44.179  32.659  33.200  1.00  0.00     0.031 C 
ATOM     49  C   UNL A   1      43.952  27.324  30.316  1.00  0.00     0.029 A 
ATOM     50  C   UNL A   1      43.631  28.583  30.792  1.00  0.00     0.049 A 
ATOM     51  H   UNL A   1      41.901  29.741  30.437  1.00  0.00     0.167 HD
ATOM     52  C   UNL A   1      44.021  30.675  32.064  1.00  0.00     0.074 A 
ATOM     53  C   UNL A   1      44.805  31.520  32.942  1.00  0.00     0.031 C 
ATOM     54  C   UNL A   1      44.395  29.434  31.666  1.00  0.00     0.037 A 
BRANCH  41  55
ATOM     55  C   UNL A   1      40.321  26.652  27.958  1.00  0.00     0.057 A 
ATOM     56  C   UNL A   1      40.850  26.436  26.682  1.00  0.00     0.134 A 
ATOM     57  C   UNL A   1      39.475  25.668  28.486  1.00  0.00     0.134 A 
ATOM     58  F   UNL A   1      41.657  27.347  26.117  1.00  0.00    -0.206 F 
ATOM     59  C   UNL A   1      40.539  25.288  25.950  1.00  0.00     0.040 A 
ATOM     60  C   UNL A   1      39.172  24.508  27.771  1.00  0.00     0.040 A 
ATOM     61  F   UNL A   1      38.939  25.813  29.707  1.00  0.00    -0.206 F 
ATOM     62  C   UNL A   1      39.702  24.317  26.498  1.00  0.00     0.006 A 
ENDBRANCH  41  55
BRANCH  42  63
ATOM     63  C   UNL A   1      42.288  34.885  33.216  1.00  0.00     0.057 A 
ATOM     64  C   UNL A   1      41.885  34.985  34.551  1.00  0.00     0.134 A 
ATOM     65  C   UNL A   1      42.968  35.975  32.660  1.00  0.00     0.134 A 
ATOM     66  F   UNL A   1      41.206  33.983  35.129  1.00  0.00    -0.206 F 
ATOM     67  C   UNL A   1      42.140  36.132  35.305  1.00  0.00     0.040 A 
ATOM     68  C   UNL A   1      43.250  37.118  33.408  1.00  0.00     0.040 A 
ATOM     69  F   UNL A   1      43.379  35.938  31.384  1.00  0.00    -0.206 F 
ATOM     70  C   UNL A   1      42.831  37.200  34.735  1.00  0.00     0.006 A 
ENDBRANCH  42  63
BRANCH  54  71
ATOM     71  C   UNL A   1      45.715  28.931  32.164  1.00  0.00     0.057 A 
ATOM     72  C   UNL A   1      46.904  29.172  31.465  1.00  0.00     0.134 A 
ATOM     73  C   UNL A   1      45.801  28.217  33.366  1.00  0.00     0.134 A 
ATOM     74  F   UNL A   1      46.884  29.837  30.301  1.00  0.00    -0.206 F 
ATOM     75  C   UNL A   1      48.132  28.703  31.935  1.00  0.00     0.040 A 
ATOM     76  C   UNL A   1      47.026  27.760  33.855  1.00  0.00     0.040 A 
ATOM     77  F   UNL A   1      44.698  27.958  34.085  1.00  0.00    -0.206 F 
ATOM     78  C   UNL A   1      48.195  27.999  33.136  1.00  0.00     0.006 A 
ENDBRANCH  54  71
ENDBRANCH  28  29
ENDBRANCH  21  23
ENDBRANCH  20  21
ENDBRANCH  19  20
ENDBRANCH   1  19
TORSDOF 14
ENDMDL
MODEL 2
REMARK VINA RESULT:      -8.7      4.998     10.050
REMARK SMILES C[C@@](O)(c1ccc(Cl)cc1Cl)[C@@H](F)C(=O)OCCOC(=O)c1ccc(-c2c3nc(c(-c4c(F)cccc4F)c4ccc([nH]4)c(-c4c(F)cccc4F)c4nc(c(-c5c(F)cccc5F)c5ccc2[nH]5)C=C4)C=C3)cc1
REMARK SMILES IDX 17 1 16 2 14 3 15 4 12 5 13 6 2 7 1 8 3 9 4 11 5 12 10 13
REMARK SMILES IDX 6 14 9 15 11 16 7 17 8 18 18 19 19 20 20 21 21 22 22 23
REMARK SMILES IDX 23 24 75 25 24 26 74 27 25 28 26 29 27 30 68 31 28 32 73 33
REMARK SMILES IDX 67 34 69 35 29 36 72 37 66 38 65 39 30 41 56 42 39 43 55 44
REMARK SMILES IDX 40 45 43 46 54 47 70 48 41 49 42 50 53 52 71 53 44 54 31 55
REMARK SMILES IDX 32 56 37 57 33 58 34 59 36 60 38 61 35 62 57 63 58 64 63 65
REMARK SMILES IDX 59 66 60 67 62 68 64 69 61 70 45 71 46 72 51 73 47 74 48 75
REMARK SMILES IDX 50 76 52 77 49 78
REMARK H PARENT 3 10 69 40 43 51
REMARK Flexibility Score: inf
ROOT
ATOM      1  C   UNL A   1      42.322  21.250  26.318  1.00  0.00     0.274 C 
ENDROOT
BRANCH   1   2
ATOM      2  O   UNL A   1      42.396  21.839  25.000  1.00  0.00    -0.460 OA
BRANCH   2   3
ATOM      3  C   UNL A   1      43.499  22.588  24.735  1.00  0.00     0.344 C 
ATOM      4  O   UNL A   1      44.268  22.359  23.806  1.00  0.00    -0.249 OA
BRANCH   3   5
ATOM      5  C   UNL A   1      43.766  23.685  25.758  1.00  0.00     0.311 C 
ATOM      6  F   UNL A   1      43.351  24.898  25.270  1.00  0.00    -0.231 F 
BRANCH   5   7
ATOM      7  C   UNL A   1      45.208  23.836  26.312  1.00  0.00     0.130 C 
ATOM      8  C   UNL A   1      46.012  24.889  25.521  1.00  0.00     0.051 C 
BRANCH   7   9
ATOM      9  O   UNL A   1      45.966  22.628  26.239  1.00  0.00    -0.382 OA
ATOM     10  H   UNL A   1      46.912  22.841  26.232  1.00  0.00     0.212 HD
ENDBRANCH   7   9
BRANCH   7  11
ATOM     11  C   UNL A   1      45.103  24.192  27.822  1.00  0.00     0.006 A 
ATOM     12  C   UNL A   1      43.926  23.880  28.538  1.00  0.00     0.010 A 
ATOM     13  C   UNL A   1      46.155  24.785  28.566  1.00  0.00     0.048 A 
ATOM     14  C   UNL A   1      43.784  24.185  29.898  1.00  0.00     0.021 A 
ATOM     15  C   UNL A   1      46.005  25.097  29.925  1.00  0.00     0.041 A 
ATOM     16  Cl  UNL A   1      47.722  25.134  27.925  1.00  0.00    -0.084 Cl
ATOM     17  C   UNL A   1      44.821  24.803  30.582  1.00  0.00     0.042 A 
ATOM     18  Cl  UNL A   1      44.648  25.181  32.249  1.00  0.00    -0.084 Cl
ENDBRANCH   7  11
ENDBRANCH   5   7
ENDBRANCH   3   5
ENDBRANCH   2   3
ENDBRANCH   1   2
BRANCH   1  19
ATOM     19  C   UNL A   1      40.940  20.666  26.629  1.00  0.00     0.275 C 
BRANCH  19  20
ATOM     20  O   UNL A   1      40.096  21.611  27.312  1.00  0.00    -0.458 OA
BRANCH  20  21
ATOM     21  C   UNL A   1      39.514  22.527  26.505  1.00  0.00     0.338 C 
ATOM     22  O   UNL A   1      38.750  22.298  25.581  1.00  0.00    -0.246 OA
BRANCH  21  23
ATOM     23  C   UNL A   1      39.796  23.880  27.006  1.00  0.00     0.060 A 
ATOM     24  C   UNL A   1      40.058  24.880  26.069  1.00  0.00     0.016 A 
ATOM     25  C   UNL A   1      39.885  24.152  28.371  1.00  0.00     0.016 A 
ATOM     26  C   UNL A   1      40.431  26.155  26.487  1.00  0.00     0.010 A 
ATOM     27  C   UNL A   1      40.241  25.441  28.792  1.00  0.00     0.010 A 
ATOM     28  C   UNL A   1      40.527  26.448  27.851  1.00  0.00    -0.014 A 
BRANCH  28  29
ATOM     29  C   UNL A   1      40.944  27.806  28.279  1.00  0.00     0.031 A 
ATOM     30  C   UNL A   1      42.392  28.201  28.247  1.00  0.00     0.074 A 
ATOM     31  C   UNL A   1      40.012  28.698  28.663  1.00  0.00     0.049 A 
ATOM     32  N   UNL A   1      42.956  29.305  28.669  1.00  0.00    -0.248 NA
ATOM     33  C   UNL A   1      43.329  27.228  27.668  1.00  0.00     0.031 C 
ATOM     34  C   UNL A   1      38.569  28.456  28.686  1.00  0.00     0.029 A 
ATOM     35  N   UNL A   1      40.142  29.990  29.107  1.00  0.00    -0.354 N 
ATOM     36  C   UNL A   1      44.315  29.151  28.428  1.00  0.00     0.074 A 
ATOM     37  C   UNL A   1      44.493  27.843  27.833  1.00  0.00     0.031 C 
ATOM     38  C   UNL A   1      37.946  29.565  29.116  1.00  0.00     0.029 A 
ATOM     39  C   UNL A   1      38.947  30.577  29.443  1.00  0.00     0.049 A 
ATOM     40  H   UNL A   1      41.009  30.452  29.177  1.00  0.00     0.167 HD
ATOM     41  C   UNL A   1      45.321  30.023  28.682  1.00  0.00     0.037 A 
ATOM     42  C   UNL A   1      38.688  31.782  29.983  1.00  0.00     0.037 A 
ATOM     43  C   UNL A   1      45.142  31.335  29.248  1.00  0.00     0.049 A 
ATOM     44  C   UNL A   1      39.826  32.712  30.296  1.00  0.00     0.074 A 
ATOM     45  C   UNL A   1      46.102  32.289  29.536  1.00  0.00     0.029 A 
ATOM     46  N   UNL A   1      43.918  31.879  29.606  1.00  0.00    -0.354 N 
ATOM     47  N   UNL A   1      41.109  32.541  30.096  1.00  0.00    -0.248 NA
ATOM     48  C   UNL A   1      39.479  33.996  30.921  1.00  0.00     0.031 C 
ATOM     49  C   UNL A   1      45.462  33.402  30.095  1.00  0.00     0.029 A 
ATOM     50  C   UNL A   1      44.101  33.151  30.124  1.00  0.00     0.049 A 
ATOM     51  H   UNL A   1      43.048  31.428  29.506  1.00  0.00     0.167 HD
ATOM     52  C   UNL A   1      41.722  33.697  30.560  1.00  0.00     0.074 A 
ATOM     53  C   UNL A   1      40.668  34.570  31.034  1.00  0.00     0.031 C 
ATOM     54  C   UNL A   1      43.041  34.006  30.593  1.00  0.00     0.037 A 
BRANCH  41  55
ATOM     55  C   UNL A   1      46.717  29.575  28.369  1.00  0.00     0.057 A 
ATOM     56  C   UNL A   1      47.347  29.903  27.164  1.00  0.00     0.134 A 
ATOM     57  C   UNL A   1      47.454  28.843  29.309  1.00  0.00     0.134 A 
ATOM     58  F   UNL A   1      46.690  30.592  26.219  1.00  0.00    -0.206 F 
ATOM     59  C   UNL A   1      48.659  29.507  26.897  1.00  0.00     0.040 A 
ATOM     60  C   UNL A   1      48.772  28.458  29.062  1.00  0.00     0.040 A 
ATOM     61  F   UNL A   1      46.909  28.501  30.486  1.00  0.00    -0.206 F 
ATOM     62  C   UNL A   1      49.378  28.788  27.851  1.00  0.00     0.006 A 
ENDBRANCH  41  55
BRANCH  42  63
ATOM     63  C   UNL A   1      37.289  32.169  30.290  1.00  0.00     0.057 A 
ATOM     64  C   UNL A   1      36.515  32.878  29.366  1.00  0.00     0.134 A 
ATOM     65  C   UNL A   1      36.700  31.844  31.517  1.00  0.00     0.134 A 
ATOM     66  F   UNL A   1      37.035  33.239  28.184  1.00  0.00    -0.206 F 
ATOM     67  C   UNL A   1      35.204  33.259  29.655  1.00  0.00     0.040 A 
ATOM     68  C   UNL A   1      35.383  32.199  31.811  1.00  0.00     0.040 A 
ATOM     69  F   UNL A   1      37.393  31.166  32.443  1.00  0.00    -0.206 F 
ATOM     70  C   UNL A   1      34.633  32.914  30.879  1.00  0.00     0.006 A 
ENDBRANCH  42  63
BRANCH  54  71
ATOM     71  C   UNL A   1      43.410  35.349  31.146  1.00  0.00     0.057 A 
ATOM     72  C   UNL A   1      43.577  36.463  30.314  1.00  0.00     0.134 A 
ATOM     73  C   UNL A   1      43.578  35.534  32.524  1.00  0.00     0.134 A 
ATOM     74  F   UNL A   1      43.444  36.345  28.985  1.00  0.00    -0.206 F 
ATOM     75  C   UNL A   1      43.918  37.713  30.834  1.00  0.00     0.040 A 
ATOM     76  C   UNL A   1      43.899  36.784  33.056  1.00  0.00     0.040 A 
ATOM     77  F   UNL A   1      43.426  34.506  33.373  1.00  0.00    -0.206 F 
ATOM     78  C   UNL A   1      44.075  37.876  32.209  1.00  0.00     0.006 A 
ENDBRANCH  54  71
ENDBRANCH  28  29
ENDBRANCH  21  23
ENDBRANCH  20  21
ENDBRANCH  19  20
ENDBRANCH   1  19
TORSDOF 14
ENDMDL
MODEL 3
REMARK VINA RESULT:      -8.6      6.334     11.485
REMARK SMILES C[C@@](O)(c1ccc(Cl)cc1Cl)[C@@H](F)C(=O)OCCOC(=O)c1ccc(-c2c3nc(c(-c4c(F)cccc4F)c4ccc([nH]4)c(-c4c(F)cccc4F)c4nc(c(-c5c(F)cccc5F)c5ccc2[nH]5)C=C4)C=C3)cc1
REMARK SMILES IDX 17 1 16 2 14 3 15 4 12 5 13 6 2 7 1 8 3 9 4 11 5 12 10 13
REMARK SMILES IDX 6 14 9 15 11 16 7 17 8 18 18 19 19 20 20 21 21 22 22 23
REMARK SMILES IDX 23 24 75 25 24 26 74 27 25 28 26 29 27 30 68 31 28 32 73 33
REMARK SMILES IDX 67 34 69 35 29 36 72 37 66 38 65 39 30 41 56 42 39 43 55 44
REMARK SMILES IDX 40 45 43 46 54 47 70 48 41 49 42 50 53 52 71 53 44 54 31 55
REMARK SMILES IDX 32 56 37 57 33 58 34 59 36 60 38 61 35 62 57 63 58 64 63 65
REMARK SMILES IDX 59 66 60 67 62 68 64 69 61 70 45 71 46 72 51 73 47 74 48 75
REMARK SMILES IDX 50 76 52 77 49 78
REMARK H PARENT 3 10 69 40 43 51
REMARK Flexibility Score: inf
ROOT
ATOM      1  C   UNL A   1      38.835  20.573  25.427  1.00  0.00     0.274 C 
ENDROOT
BRANCH   1   2
ATOM      2  O   UNL A   1      38.998  21.828  26.125  1.00  0.00    -0.460 OA
BRANCH   2   3
ATOM      3  C   UNL A   1      38.153  22.831  25.768  1.00  0.00     0.344 C 
ATOM      4  O   UNL A   1      38.293  23.997  26.127  1.00  0.00    -0.249 OA
BRANCH   3   5
ATOM      5  C   UNL A   1      36.945  22.369  24.964  1.00  0.00     0.311 C 
ATOM      6  F   UNL A   1      37.031  22.829  23.674  1.00  0.00    -0.231 F 
BRANCH   5   7
ATOM      7  C   UNL A   1      35.529  22.691  25.515  1.00  0.00     0.130 C 
ATOM      8  C   UNL A   1      34.932  23.946  24.846  1.00  0.00     0.051 C 
BRANCH   7   9
ATOM      9  O   UNL A   1      35.521  22.953  26.919  1.00  0.00    -0.382 OA
ATOM     10  H   UNL A   1      36.166  22.377  27.358  1.00  0.00     0.212 HD
ENDBRANCH   7   9
BRANCH   7  11
ATOM     11  C   UNL A   1      34.638  21.434  25.303  1.00  0.00     0.006 A 
ATOM     12  C   UNL A   1      35.217  20.233  24.837  1.00  0.00     0.010 A 
ATOM     13  C   UNL A   1      33.252  21.393  25.597  1.00  0.00     0.048 A 
ATOM     14  C   UNL A   1      34.455  19.077  24.627  1.00  0.00     0.021 A 
ATOM     15  C   UNL A   1      32.490  20.236  25.377  1.00  0.00     0.041 A 
ATOM     16  Cl  UNL A   1      32.367  22.704  26.294  1.00  0.00    -0.084 Cl
ATOM     17  C   UNL A   1      33.092  19.088  24.888  1.00  0.00     0.042 A 
ATOM     18  Cl  UNL A   1      32.153  17.672  24.628  1.00  0.00    -0.084 Cl
ENDBRANCH   7  11
ENDBRANCH   5   7
ENDBRANCH   3   5
ENDBRANCH   2   3
ENDBRANCH   1   2
BRANCH   1  19
ATOM     19  C   UNL A   1      39.595  19.421  26.093  1.00  0.00     0.275 C 
BRANCH  19  20
ATOM     20  O   UNL A   1      40.796  19.081  25.375  1.00  0.00    -0.458 OA
BRANCH  20  21
ATOM     21  C   UNL A   1      41.920  19.097  26.127  1.00  0.00     0.338 C 
ATOM     22  O   UNL A   1      42.653  18.148  26.356  1.00  0.00    -0.246 OA
BRANCH  21  23
ATOM     23  C   UNL A   1      42.246  20.481  26.502  1.00  0.00     0.060 A 
ATOM     24  C   UNL A   1      42.606  21.365  25.484  1.00  0.00     0.016 A 
ATOM     25  C   UNL A   1      42.282  20.890  27.834  1.00  0.00     0.016 A 
ATOM     26  C   UNL A   1      43.024  22.657  25.789  1.00  0.00     0.010 A 
ATOM     27  C   UNL A   1      42.683  22.198  28.140  1.00  0.00     0.010 A 
ATOM     28  C   UNL A   1      43.067  23.086  27.120  1.00  0.00    -0.014 A 
BRANCH  28  29
ATOM     29  C   UNL A   1      43.531  24.461  27.429  1.00  0.00     0.031 A 
ATOM     30  C   UNL A   1      42.555  25.508  27.879  1.00  0.00     0.074 A 
ATOM     31  C   UNL A   1      44.841  24.758  27.338  1.00  0.00     0.049 A 
ATOM     32  N   UNL A   1      42.756  26.783  28.104  1.00  0.00    -0.248 NA
ATOM     33  C   UNL A   1      41.171  25.067  28.106  1.00  0.00     0.031 C 
ATOM     34  C   UNL A   1      45.896  23.816  26.965  1.00  0.00     0.029 A 
ATOM     35  N   UNL A   1      45.506  25.938  27.555  1.00  0.00    -0.354 N 
ATOM     36  C   UNL A   1      41.522  27.301  28.475  1.00  0.00     0.074 A 
ATOM     37  C   UNL A   1      40.575  26.205  28.436  1.00  0.00     0.031 C 
ATOM     38  C   UNL A   1      47.078  24.453  26.984  1.00  0.00     0.029 A 
ATOM     39  C   UNL A   1      46.857  25.856  27.324  1.00  0.00     0.049 A 
ATOM     40  H   UNL A   1      45.058  26.764  27.849  1.00  0.00     0.167 HD
ATOM     41  C   UNL A   1      41.210  28.575  28.817  1.00  0.00     0.037 A 
ATOM     42  C   UNL A   1      47.807  26.809  27.352  1.00  0.00     0.037 A 
ATOM     43  C   UNL A   1      42.156  29.658  28.882  1.00  0.00     0.049 A 
ATOM     44  C   UNL A   1      47.426  28.222  27.689  1.00  0.00     0.074 A 
ATOM     45  C   UNL A   1      41.931  30.981  29.224  1.00  0.00     0.029 A 
ATOM     46  N   UNL A   1      43.510  29.541  28.609  1.00  0.00    -0.354 N 
ATOM     47  N   UNL A   1      46.250  28.707  28.004  1.00  0.00    -0.248 NA
ATOM     48  C   UNL A   1      48.502  29.223  27.663  1.00  0.00     0.031 C 
ATOM     49  C   UNL A   1      43.146  31.671  29.128  1.00  0.00     0.029 A 
ATOM     50  C   UNL A   1      44.130  30.770  28.760  1.00  0.00     0.049 A 
ATOM     51  H   UNL A   1      43.963  28.707  28.345  1.00  0.00     0.167 HD
ATOM     52  C   UNL A   1      46.445  30.063  28.223  1.00  0.00     0.074 A 
ATOM     53  C   UNL A   1      47.856  30.322  28.024  1.00  0.00     0.031 C 
ATOM     54  C   UNL A   1      45.535  31.011  28.556  1.00  0.00     0.037 A 
BRANCH  41  55
ATOM     55  C   UNL A   1      39.773  28.874  29.124  1.00  0.00     0.057 A 
ATOM     56  C   UNL A   1      38.865  29.242  28.126  1.00  0.00     0.134 A 
ATOM     57  C   UNL A   1      39.286  28.746  30.431  1.00  0.00     0.134 A 
ATOM     58  F   UNL A   1      39.273  29.393  26.857  1.00  0.00    -0.206 F 
ATOM     59  C   UNL A   1      37.522  29.488  28.419  1.00  0.00     0.040 A 
ATOM     60  C   UNL A   1      37.942  28.970  30.733  1.00  0.00     0.040 A 
ATOM     61  F   UNL A   1      40.105  28.392  31.432  1.00  0.00    -0.206 F 
ATOM     62  C   UNL A   1      37.056  29.345  29.725  1.00  0.00     0.006 A 
ENDBRANCH  41  55
BRANCH  42  63
ATOM     63  C   UNL A   1      49.211  26.463  27.021  1.00  0.00     0.057 A 
ATOM     64  C   UNL A   1      49.659  26.445  25.696  1.00  0.00     0.134 A 
ATOM     65  C   UNL A   1      50.132  26.134  28.022  1.00  0.00     0.134 A 
ATOM     66  F   UNL A   1      48.814  26.725  24.693  1.00  0.00    -0.206 F 
ATOM     67  C   UNL A   1      50.974  26.102  25.377  1.00  0.00     0.040 A 
ATOM     68  C   UNL A   1      51.455  25.812  27.719  1.00  0.00     0.040 A 
ATOM     69  F   UNL A   1      49.761  26.133  29.311  1.00  0.00    -0.206 F 
ATOM     70  C   UNL A   1      51.877  25.791  26.391  1.00  0.00     0.006 A 
ENDBRANCH  42  63
BRANCH  54  71
ATOM     71  C   UNL A   1      46.046  32.407  28.741  1.00  0.00     0.057 A 
ATOM     72  C   UNL A   1      46.505  32.862  29.983  1.00  0.00     0.134 A 
ATOM     73  C   UNL A   1      46.100  33.298  27.662  1.00  0.00     0.134 A 
ATOM     74  F   UNL A   1      46.464  32.060  31.057  1.00  0.00    -0.206 F 
ATOM     75  C   UNL A   1      46.983  34.163  30.151  1.00  0.00     0.040 A 
ATOM     76  C   UNL A   1      46.594  34.595  27.813  1.00  0.00     0.040 A 
ATOM     77  F   UNL A   1      45.680  32.921  26.445  1.00  0.00    -0.206 F 
ATOM     78  C   UNL A   1      47.033  35.031  29.062  1.00  0.00     0.006 A 
ENDBRANCH  54  71
ENDBRANCH  28  29
ENDBRANCH  21  23
ENDBRANCH  20  21
ENDBRANCH  19  20
ENDBRANCH   1  19
TORSDOF 14
ENDMDL
