MODEL 1
REMARK VINA RESULT:     -11.6      0.000      0.000
REMARK SMILES Cn1ncc2c(NCCC3=CCCCC3)c(C(=O)OCCOC(=O)c3ccc(-c4c5nc(c(-c6c(F)cccc6F)c6ccc([nH]6)c(-c6c(F)cccc6F)c6nc(c(-c7c(F)cccc7F)c7ccc4[nH]7)C=C6)C=C5)cc3)cnc21
REMARK SMILES IDX 20 1 19 2 17 3 18 4 16 5 1 6 2 7 3 8 81 9 4 10 5 11 80 12
REMARK SMILES IDX 6 13 79 14 7 15 8 17 9 18 10 19 11 20 15 21 12 22 14 23
REMARK SMILES IDX 13 24 21 25 22 26 23 27 24 28 25 29 26 30 78 31 27 32 77 33
REMARK SMILES IDX 28 34 29 35 30 36 71 37 31 38 76 39 70 40 72 41 32 42 75 43
REMARK SMILES IDX 69 44 68 45 33 47 59 48 42 49 58 50 43 51 46 52 57 53 73 54
REMARK SMILES IDX 44 55 45 56 56 58 74 59 47 60 34 61 35 62 40 63 36 64 37 65
REMARK SMILES IDX 39 66 41 67 38 68 60 69 61 70 66 71 62 72 63 73 65 74 67 75
REMARK SMILES IDX 64 76 48 77 49 78 54 79 50 80 51 81 53 82 55 83 52 84
REMARK H PARENT 7 16 72 46 46 57
REMARK Flexibility Score: inf
ROOT
ATOM      1  C   UNL A   1      32.088  30.083  26.991  1.00  0.00     0.275 C 
ENDROOT
BRANCH   1   2
ATOM      2  O   UNL A   1      32.686  28.918  26.380  1.00  0.00    -0.458 OA
BRANCH   2   3
ATOM      3  C   UNL A   1      32.119  27.720  26.711  1.00  0.00     0.341 C 
ATOM      4  O   UNL A   1      31.343  27.560  27.627  1.00  0.00    -0.246 OA
BRANCH   3   5
ATOM      5  C   UNL A   1      32.526  26.626  25.778  1.00  0.00     0.102 A 
ATOM      6  C   UNL A   1      35.069  22.895  23.310  1.00  0.00     0.176 C 
ATOM      7  N   UNL A   1      33.774  23.454  23.610  1.00  0.00    -0.250 N 
ATOM      8  N   UNL A   1      32.671  22.850  23.131  1.00  0.00    -0.179 NA
ATOM      9  C   UNL A   1      33.512  24.572  24.355  1.00  0.00     0.159 A 
ATOM     10  C   UNL A   1      31.683  23.632  23.581  1.00  0.00     0.147 A 
ATOM     11  C   UNL A   1      32.127  24.722  24.377  1.00  0.00     0.063 A 
ATOM     12  N   UNL A   1      34.437  25.355  24.943  1.00  0.00    -0.236 NA
ATOM     13  C   UNL A   1      31.562  25.806  25.103  1.00  0.00     0.063 A 
ATOM     14  C   UNL A   1      33.888  26.371  25.643  1.00  0.00     0.131 A 
BRANCH  13  15
ATOM     15  N   UNL A   1      30.206  26.093  25.200  1.00  0.00    -0.383 N 
ATOM     16  H   UNL A   1      29.827  25.989  26.102  1.00  0.00     0.160 HD
BRANCH  15  17
ATOM     17  C   UNL A   1      29.253  26.519  24.186  1.00  0.00     0.117 C 
BRANCH  17  18
ATOM     18  C   UNL A   1      29.904  27.509  23.199  1.00  0.00     0.052 C 
BRANCH  18  19
ATOM     19  C   UNL A   1      29.313  28.906  23.215  1.00  0.00    -0.072 C 
ATOM     20  C   UNL A   1      29.920  29.921  23.852  1.00  0.00    -0.028 C 
ATOM     21  C   UNL A   1      27.973  29.094  22.546  1.00  0.00     0.031 C 
ATOM     22  C   UNL A   1      29.405  31.323  23.912  1.00  0.00     0.027 C 
ATOM     23  C   UNL A   1      27.566  30.562  22.372  1.00  0.00     0.005 C 
ATOM     24  C   UNL A   1      27.917  31.403  23.597  1.00  0.00     0.004 C 
ENDBRANCH  18  19
ENDBRANCH  17  18
ENDBRANCH  15  17
ENDBRANCH  13  15
ENDBRANCH   3   5
ENDBRANCH   2   3
ENDBRANCH   1   2
BRANCH   1  25
ATOM     25  C   UNL A   1      33.083  31.220  27.238  1.00  0.00     0.275 C 
BRANCH  25  26
ATOM     26  O   UNL A   1      34.442  30.778  27.293  1.00  0.00    -0.458 OA
BRANCH  26  27
ATOM     27  C   UNL A   1      35.252  31.691  27.864  1.00  0.00     0.338 C 
ATOM     28  O   UNL A   1      35.381  32.868  27.558  1.00  0.00    -0.246 OA
BRANCH  27  29
ATOM     29  C   UNL A   1      36.195  31.071  28.782  1.00  0.00     0.060 A 
ATOM     30  C   UNL A   1      37.322  31.836  29.080  1.00  0.00     0.016 A 
ATOM     31  C   UNL A   1      36.178  29.675  28.894  1.00  0.00     0.016 A 
ATOM     32  C   UNL A   1      38.508  31.182  29.291  1.00  0.00     0.010 A 
ATOM     33  C   UNL A   1      37.370  29.021  29.121  1.00  0.00     0.010 A 
ATOM     34  C   UNL A   1      38.533  29.783  29.225  1.00  0.00    -0.014 A 
BRANCH  34  35
ATOM     35  C   UNL A   1      39.840  29.169  29.340  1.00  0.00     0.031 A 
ATOM     36  C   UNL A   1      40.264  28.994  30.751  1.00  0.00     0.074 A 
ATOM     37  C   UNL A   1      40.563  28.781  28.274  1.00  0.00     0.049 A 
ATOM     38  N   UNL A   1      41.265  29.544  31.354  1.00  0.00    -0.248 NA
ATOM     39  C   UNL A   1      39.342  28.271  31.642  1.00  0.00     0.031 C 
ATOM     40  C   UNL A   1      40.154  28.695  26.871  1.00  0.00     0.029 A 
ATOM     41  N   UNL A   1      41.821  28.270  28.256  1.00  0.00    -0.354 N 
ATOM     42  C   UNL A   1      41.202  29.093  32.668  1.00  0.00     0.074 A 
ATOM     43  C   UNL A   1      39.921  28.456  32.827  1.00  0.00     0.031 C 
ATOM     44  C   UNL A   1      41.045  27.929  26.199  1.00  0.00     0.029 A 
ATOM     45  C   UNL A   1      42.137  27.585  27.093  1.00  0.00     0.049 A 
ATOM     46  H   UNL A   1      42.453  28.377  29.003  1.00  0.00     0.167 HD
ATOM     47  C   UNL A   1      42.303  29.077  33.464  1.00  0.00     0.037 A 
ATOM     48  C   UNL A   1      43.162  26.709  26.957  1.00  0.00     0.037 A 
ATOM     49  C   UNL A   1      43.324  29.960  32.970  1.00  0.00     0.049 A 
ATOM     50  C   UNL A   1      44.125  26.971  28.063  1.00  0.00     0.074 A 
ATOM     51  C   UNL A   1      43.417  31.324  32.770  1.00  0.00     0.029 A 
ATOM     52  N   UNL A   1      44.363  29.406  32.262  1.00  0.00    -0.354 N 
ATOM     53  N   UNL A   1      44.864  28.042  28.140  1.00  0.00    -0.248 NA
ATOM     54  C   UNL A   1      43.919  26.267  29.323  1.00  0.00     0.031 C 
ATOM     55  C   UNL A   1      44.197  31.473  31.585  1.00  0.00     0.029 A 
ATOM     56  C   UNL A   1      44.570  30.197  31.162  1.00  0.00     0.049 A 
ATOM     57  H   UNL A   1      44.864  28.593  32.500  1.00  0.00     0.167 HD
ATOM     58  C   UNL A   1      44.854  28.386  29.485  1.00  0.00     0.074 A 
ATOM     59  C   UNL A   1      44.322  27.214  30.176  1.00  0.00     0.031 C 
ATOM     60  C   UNL A   1      45.000  29.683  29.884  1.00  0.00     0.037 A 
BRANCH  47  61
ATOM     61  C   UNL A   1      42.602  27.965  34.438  1.00  0.00     0.057 A 
ATOM     62  C   UNL A   1      42.214  27.979  35.794  1.00  0.00     0.134 A 
ATOM     63  C   UNL A   1      42.989  26.711  33.936  1.00  0.00     0.134 A 
ATOM     64  F   UNL A   1      41.764  29.079  36.407  1.00  0.00    -0.206 F 
ATOM     65  C   UNL A   1      42.164  26.825  36.577  1.00  0.00     0.040 A 
ATOM     66  C   UNL A   1      42.895  25.541  34.699  1.00  0.00     0.040 A 
ATOM     67  F   UNL A   1      43.384  26.569  32.662  1.00  0.00    -0.206 F 
ATOM     68  C   UNL A   1      42.465  25.595  36.019  1.00  0.00     0.006 A 
ENDBRANCH  47  61
BRANCH  48  69
ATOM     69  C   UNL A   1      43.174  25.449  26.178  1.00  0.00     0.057 A 
ATOM     70  C   UNL A   1      42.352  24.359  26.518  1.00  0.00     0.134 A 
ATOM     71  C   UNL A   1      44.185  25.187  25.244  1.00  0.00     0.134 A 
ATOM     72  F   UNL A   1      41.405  24.468  27.460  1.00  0.00    -0.206 F 
ATOM     73  C   UNL A   1      42.528  23.085  25.970  1.00  0.00     0.040 A 
ATOM     74  C   UNL A   1      44.378  23.912  24.694  1.00  0.00     0.040 A 
ATOM     75  F   UNL A   1      45.049  26.149  24.888  1.00  0.00    -0.206 F 
ATOM     76  C   UNL A   1      43.554  22.854  25.064  1.00  0.00     0.006 A 
ENDBRANCH  48  69
BRANCH  60  77
ATOM     77  C   UNL A   1      45.404  30.690  28.845  1.00  0.00     0.057 A 
ATOM     78  C   UNL A   1      46.735  31.115  28.795  1.00  0.00     0.134 A 
ATOM     79  C   UNL A   1      44.498  31.335  27.989  1.00  0.00     0.134 A 
ATOM     80  F   UNL A   1      47.644  30.589  29.631  1.00  0.00    -0.206 F 
ATOM     81  C   UNL A   1      47.155  32.117  27.919  1.00  0.00     0.040 A 
ATOM     82  C   UNL A   1      44.912  32.313  27.081  1.00  0.00     0.040 A 
ATOM     83  F   UNL A   1      43.186  31.073  28.044  1.00  0.00    -0.206 F 
ATOM     84  C   UNL A   1      46.245  32.709  27.047  1.00  0.00     0.006 A 
ENDBRANCH  60  77
ENDBRANCH  34  35
ENDBRANCH  27  29
ENDBRANCH  26  27
ENDBRANCH  25  26
ENDBRANCH   1  25
TORSDOF 15
ENDMDL
MODEL 2
REMARK VINA RESULT:     -11.5      3.356      7.762
REMARK SMILES Cn1ncc2c(NCCC3=CCCCC3)c(C(=O)OCCOC(=O)c3ccc(-c4c5nc(c(-c6c(F)cccc6F)c6ccc([nH]6)c(-c6c(F)cccc6F)c6nc(c(-c7c(F)cccc7F)c7ccc4[nH]7)C=C6)C=C5)cc3)cnc21
REMARK SMILES IDX 20 1 19 2 17 3 18 4 16 5 1 6 2 7 3 8 81 9 4 10 5 11 80 12
REMARK SMILES IDX 6 13 79 14 7 15 8 17 9 18 10 19 11 20 15 21 12 22 14 23
REMARK SMILES IDX 13 24 21 25 22 26 23 27 24 28 25 29 26 30 78 31 27 32 77 33
REMARK SMILES IDX 28 34 29 35 30 36 71 37 31 38 76 39 70 40 72 41 32 42 75 43
REMARK SMILES IDX 69 44 68 45 33 47 59 48 42 49 58 50 43 51 46 52 57 53 73 54
REMARK SMILES IDX 44 55 45 56 56 58 74 59 47 60 34 61 35 62 40 63 36 64 37 65
REMARK SMILES IDX 39 66 41 67 38 68 60 69 61 70 66 71 62 72 63 73 65 74 67 75
REMARK SMILES IDX 64 76 48 77 49 78 54 79 50 80 51 81 53 82 55 83 52 84
REMARK H PARENT 7 16 72 46 46 57
REMARK Flexibility Score: inf
ROOT
ATOM      1  C   UNL A   1      40.026  21.604  26.755  1.00  0.00     0.275 C 
ENDROOT
BRANCH   1   2
ATOM      2  O   UNL A   1      38.995  21.340  25.777  1.00  0.00    -0.458 OA
BRANCH   2   3
ATOM      3  C   UNL A   1      37.958  22.229  25.757  1.00  0.00     0.341 C 
ATOM      4  O   UNL A   1      38.073  23.419  25.949  1.00  0.00    -0.246 OA
BRANCH   3   5
ATOM      5  C   UNL A   1      36.659  21.573  25.417  1.00  0.00     0.102 A 
ATOM      6  C   UNL A   1      32.915  18.177  24.454  1.00  0.00     0.176 C 
ATOM      7  N   UNL A   1      33.221  19.531  24.843  1.00  0.00    -0.250 N 
ATOM      8  N   UNL A   1      32.213  20.379  25.122  1.00  0.00    -0.179 NA
ATOM      9  C   UNL A   1      34.463  20.091  24.972  1.00  0.00     0.159 A 
ATOM     10  C   UNL A   1      32.852  21.515  25.420  1.00  0.00     0.147 A 
ATOM     11  C   UNL A   1      34.268  21.411  25.371  1.00  0.00     0.063 A 
ATOM     12  N   UNL A   1      35.632  19.459  24.750  1.00  0.00    -0.236 NA
ATOM     13  C   UNL A   1      35.402  22.238  25.601  1.00  0.00     0.063 A 
ATOM     14  C   UNL A   1      36.702  20.249  24.987  1.00  0.00     0.131 A 
BRANCH  13  15
ATOM     15  N   UNL A   1      35.363  23.573  25.982  1.00  0.00    -0.383 N 
ATOM     16  H   UNL A   1      35.844  23.776  26.817  1.00  0.00     0.160 HD
BRANCH  15  17
ATOM     17  C   UNL A   1      34.727  24.720  25.352  1.00  0.00     0.117 C 
BRANCH  17  18
ATOM     18  C   UNL A   1      33.391  25.058  26.043  1.00  0.00     0.052 C 
BRANCH  18  19
ATOM     19  C   UNL A   1      33.064  26.538  26.110  1.00  0.00    -0.072 C 
ATOM     20  C   UNL A   1      34.027  27.468  26.221  1.00  0.00    -0.028 C 
ATOM     21  C   UNL A   1      31.604  26.921  26.120  1.00  0.00     0.031 C 
ATOM     22  C   UNL A   1      33.787  28.942  26.290  1.00  0.00     0.027 C 
ATOM     23  C   UNL A   1      31.353  28.420  25.924  1.00  0.00     0.005 C 
ATOM     24  C   UNL A   1      32.357  29.274  26.694  1.00  0.00     0.004 C 
ENDBRANCH  18  19
ENDBRANCH  17  18
ENDBRANCH  15  17
ENDBRANCH  13  15
ENDBRANCH   3   5
ENDBRANCH   2   3
ENDBRANCH   1   2
BRANCH   1  25
ATOM     25  C   UNL A   1      41.221  20.654  26.652  1.00  0.00     0.275 C 
BRANCH  25  26
ATOM     26  O   UNL A   1      41.909  20.745  25.401  1.00  0.00    -0.458 OA
BRANCH  26  27
ATOM     27  C   UNL A   1      43.245  20.818  25.558  1.00  0.00     0.338 C 
ATOM     28  O   UNL A   1      44.022  19.898  25.767  1.00  0.00    -0.246 OA
BRANCH  27  29
ATOM     29  C   UNL A   1      43.694  22.195  25.701  1.00  0.00     0.060 A 
ATOM     30  C   UNL A   1      44.307  22.495  26.916  1.00  0.00     0.016 A 
ATOM     31  C   UNL A   1      43.081  23.169  24.902  1.00  0.00     0.016 A 
ATOM     32  C   UNL A   1      44.123  23.749  27.440  1.00  0.00     0.010 A 
ATOM     33  C   UNL A   1      42.910  24.433  25.425  1.00  0.00     0.010 A 
ATOM     34  C   UNL A   1      43.354  24.676  26.724  1.00  0.00    -0.014 A 
BRANCH  34  35
ATOM     35  C   UNL A   1      43.104  25.937  27.393  1.00  0.00     0.031 A 
ATOM     36  C   UNL A   1      44.143  26.954  27.098  1.00  0.00     0.074 A 
ATOM     37  C   UNL A   1      42.027  26.153  28.169  1.00  0.00     0.049 A 
ATOM     38  N   UNL A   1      44.971  27.506  27.921  1.00  0.00    -0.248 NA
ATOM     39  C   UNL A   1      44.419  27.237  25.679  1.00  0.00     0.031 C 
ATOM     40  C   UNL A   1      40.839  25.315  28.343  1.00  0.00     0.029 A 
ATOM     41  N   UNL A   1      41.729  27.257  28.901  1.00  0.00    -0.354 N 
ATOM     42  C   UNL A   1      45.762  28.348  27.146  1.00  0.00     0.074 A 
ATOM     43  C   UNL A   1      45.493  28.020  25.772  1.00  0.00     0.031 C 
ATOM     44  C   UNL A   1      39.857  26.055  28.911  1.00  0.00     0.029 A 
ATOM     45  C   UNL A   1      40.392  27.363  29.249  1.00  0.00     0.049 A 
ATOM     46  H   UNL A   1      42.404  27.924  29.161  1.00  0.00     0.167 HD
ATOM     47  C   UNL A   1      46.411  29.409  27.693  1.00  0.00     0.037 A 
ATOM     48  C   UNL A   1      39.780  28.499  29.663  1.00  0.00     0.037 A 
ATOM     49  C   UNL A   1      46.552  29.266  29.117  1.00  0.00     0.049 A 
ATOM     50  C   UNL A   1      40.841  29.438  30.122  1.00  0.00     0.074 A 
ATOM     51  C   UNL A   1      47.199  28.370  29.944  1.00  0.00     0.029 A 
ATOM     52  N   UNL A   1      45.670  29.947  29.919  1.00  0.00    -0.354 N 
ATOM     53  N   UNL A   1      41.549  29.257  31.202  1.00  0.00    -0.248 NA
ATOM     54  C   UNL A   1      41.436  30.325  29.130  1.00  0.00     0.031 C 
ATOM     55  C   UNL A   1      46.346  28.228  31.078  1.00  0.00     0.029 A 
ATOM     56  C   UNL A   1      45.255  29.078  30.894  1.00  0.00     0.049 A 
ATOM     57  H   UNL A   1      45.388  30.885  29.814  1.00  0.00     0.167 HD
ATOM     58  C   UNL A   1      42.836  29.643  30.852  1.00  0.00     0.074 A 
ATOM     59  C   UNL A   1      42.690  30.366  29.591  1.00  0.00     0.031 C 
ATOM     60  C   UNL A   1      43.928  29.093  31.460  1.00  0.00     0.037 A 
BRANCH  47  61
ATOM     61  C   UNL A   1      46.542  30.742  27.000  1.00  0.00     0.057 A 
ATOM     62  C   UNL A   1      45.448  31.557  26.643  1.00  0.00     0.134 A 
ATOM     63  C   UNL A   1      47.795  31.379  26.990  1.00  0.00     0.134 A 
ATOM     64  F   UNL A   1      44.184  31.119  26.659  1.00  0.00    -0.206 F 
ATOM     65  C   UNL A   1      45.581  32.915  26.350  1.00  0.00     0.040 A 
ATOM     66  C   UNL A   1      47.932  32.751  26.747  1.00  0.00     0.040 A 
ATOM     67  F   UNL A   1      48.913  30.709  27.307  1.00  0.00    -0.206 F 
ATOM     68  C   UNL A   1      46.819  33.526  26.442  1.00  0.00     0.006 A 
ENDBRANCH  47  61
BRANCH  48  69
ATOM     69  C   UNL A   1      38.406  28.951  29.342  1.00  0.00     0.057 A 
ATOM     70  C   UNL A   1      38.074  29.474  28.078  1.00  0.00     0.134 A 
ATOM     71  C   UNL A   1      37.450  29.130  30.350  1.00  0.00     0.134 A 
ATOM     72  F   UNL A   1      38.942  29.436  27.058  1.00  0.00    -0.206 F 
ATOM     73  C   UNL A   1      36.870  30.141  27.834  1.00  0.00     0.040 A 
ATOM     74  C   UNL A   1      36.243  29.806  30.121  1.00  0.00     0.040 A 
ATOM     75  F   UNL A   1      37.691  28.708  31.600  1.00  0.00    -0.206 F 
ATOM     76  C   UNL A   1      35.954  30.322  28.861  1.00  0.00     0.006 A 
ENDBRANCH  48  69
BRANCH  60  77
ATOM     77  C   UNL A   1      43.693  28.238  32.672  1.00  0.00     0.057 A 
ATOM     78  C   UNL A   1      43.684  28.840  33.934  1.00  0.00     0.134 A 
ATOM     79  C   UNL A   1      43.605  26.838  32.635  1.00  0.00     0.134 A 
ATOM     80  F   UNL A   1      43.830  30.169  34.050  1.00  0.00    -0.206 F 
ATOM     81  C   UNL A   1      43.567  28.090  35.106  1.00  0.00     0.040 A 
ATOM     82  C   UNL A   1      43.450  26.079  33.798  1.00  0.00     0.040 A 
ATOM     83  F   UNL A   1      43.717  26.167  31.481  1.00  0.00    -0.206 F 
ATOM     84  C   UNL A   1      43.434  26.706  35.039  1.00  0.00     0.006 A 
ENDBRANCH  60  77
ENDBRANCH  34  35
ENDBRANCH  27  29
ENDBRANCH  26  27
ENDBRANCH  25  26
ENDBRANCH   1  25
TORSDOF 15
ENDMDL
MODEL 3
REMARK VINA RESULT:     -11.4      1.057      2.007
REMARK SMILES Cn1ncc2c(NCCC3=CCCCC3)c(C(=O)OCCOC(=O)c3ccc(-c4c5nc(c(-c6c(F)cccc6F)c6ccc([nH]6)c(-c6c(F)cccc6F)c6nc(c(-c7c(F)cccc7F)c7ccc4[nH]7)C=C6)C=C5)cc3)cnc21
REMARK SMILES IDX 20 1 19 2 17 3 18 4 16 5 1 6 2 7 3 8 81 9 4 10 5 11 80 12
REMARK SMILES IDX 6 13 79 14 7 15 8 17 9 18 10 19 11 20 15 21 12 22 14 23
REMARK SMILES IDX 13 24 21 25 22 26 23 27 24 28 25 29 26 30 78 31 27 32 77 33
REMARK SMILES IDX 28 34 29 35 30 36 71 37 31 38 76 39 70 40 72 41 32 42 75 43
REMARK SMILES IDX 69 44 68 45 33 47 59 48 42 49 58 50 43 51 46 52 57 53 73 54
REMARK SMILES IDX 44 55 45 56 56 58 74 59 47 60 34 61 35 62 40 63 36 64 37 65
REMARK SMILES IDX 39 66 41 67 38 68 60 69 61 70 66 71 62 72 63 73 65 74 67 75
REMARK SMILES IDX 64 76 48 77 49 78 54 79 50 80 51 81 53 82 55 83 52 84
REMARK H PARENT 7 16 72 46 46 57
REMARK Flexibility Score: inf
ROOT
ATOM      1  C   UNL A   1      32.318  30.129  26.855  1.00  0.00     0.275 C 
ENDROOT
BRANCH   1   2
ATOM      2  O   UNL A   1      32.929  28.822  26.771  1.00  0.00    -0.458 OA
BRANCH   2   3
ATOM      3  C   UNL A   1      32.065  27.764  26.761  1.00  0.00     0.341 C 
ATOM      4  O   UNL A   1      31.069  27.688  27.446  1.00  0.00    -0.246 OA
BRANCH   3   5
ATOM      5  C   UNL A   1      32.459  26.723  25.765  1.00  0.00     0.102 A 
ATOM      6  C   UNL A   1      33.115  22.326  23.175  1.00  0.00     0.176 C 
ATOM      7  N   UNL A   1      33.110  23.765  23.093  1.00  0.00    -0.250 N 
ATOM      8  N   UNL A   1      33.338  24.355  21.905  1.00  0.00    -0.179 NA
ATOM      9  C   UNL A   1      32.892  24.648  24.115  1.00  0.00     0.159 A 
ATOM     10  C   UNL A   1      33.277  25.658  22.202  1.00  0.00     0.147 A 
ATOM     11  C   UNL A   1      32.978  25.925  23.565  1.00  0.00     0.063 A 
ATOM     12  N   UNL A   1      32.643  24.316  25.396  1.00  0.00    -0.236 NA
ATOM     13  C   UNL A   1      32.774  27.054  24.406  1.00  0.00     0.063 A 
ATOM     14  C   UNL A   1      32.434  25.395  26.181  1.00  0.00     0.131 A 
BRANCH  13  15
ATOM     15  N   UNL A   1      32.846  28.382  24.005  1.00  0.00    -0.383 N 
ATOM     16  H   UNL A   1      33.632  28.871  24.340  1.00  0.00     0.160 HD
BRANCH  15  17
ATOM     17  C   UNL A   1      31.950  29.170  23.172  1.00  0.00     0.117 C 
BRANCH  17  18
ATOM     18  C   UNL A   1      30.500  29.089  23.693  1.00  0.00     0.052 C 
BRANCH  18  19
ATOM     19  C   UNL A   1      29.529  30.044  23.025  1.00  0.00    -0.072 C 
ATOM     20  C   UNL A   1      29.237  29.952  21.716  1.00  0.00    -0.028 C 
ATOM     21  C   UNL A   1      28.957  31.151  23.876  1.00  0.00     0.031 C 
ATOM     22  C   UNL A   1      28.291  30.850  20.986  1.00  0.00     0.027 C 
ATOM     23  C   UNL A   1      27.797  31.907  23.216  1.00  0.00     0.005 C 
ATOM     24  C   UNL A   1      28.048  32.156  21.731  1.00  0.00     0.004 C 
ENDBRANCH  18  19
ENDBRANCH  17  18
ENDBRANCH  15  17
ENDBRANCH  13  15
ENDBRANCH   3   5
ENDBRANCH   2   3
ENDBRANCH   1   2
BRANCH   1  25
ATOM     25  C   UNL A   1      33.246  31.200  27.433  1.00  0.00     0.275 C 
BRANCH  25  26
ATOM     26  O   UNL A   1      34.632  30.861  27.332  1.00  0.00    -0.458 OA
BRANCH  26  27
ATOM     27  C   UNL A   1      35.426  31.780  27.915  1.00  0.00     0.338 C 
ATOM     28  O   UNL A   1      35.568  32.952  27.597  1.00  0.00    -0.246 OA
BRANCH  27  29
ATOM     29  C   UNL A   1      36.337  31.171  28.873  1.00  0.00     0.060 A 
ATOM     30  C   UNL A   1      37.471  31.924  29.172  1.00  0.00     0.016 A 
ATOM     31  C   UNL A   1      36.290  29.779  29.027  1.00  0.00     0.016 A 
ATOM     32  C   UNL A   1      38.640  31.255  29.430  1.00  0.00     0.010 A 
ATOM     33  C   UNL A   1      37.464  29.111  29.300  1.00  0.00     0.010 A 
ATOM     34  C   UNL A   1      38.639  29.854  29.406  1.00  0.00    -0.014 A 
BRANCH  34  35
ATOM     35  C   UNL A   1      39.932  29.220  29.569  1.00  0.00     0.031 A 
ATOM     36  C   UNL A   1      40.399  29.233  30.977  1.00  0.00     0.074 A 
ATOM     37  C   UNL A   1      40.606  28.661  28.549  1.00  0.00     0.049 A 
ATOM     38  N   UNL A   1      41.435  29.830  31.465  1.00  0.00    -0.248 NA
ATOM     39  C   UNL A   1      39.487  28.676  31.991  1.00  0.00     0.031 C 
ATOM     40  C   UNL A   1      40.147  28.389  27.185  1.00  0.00     0.029 A 
ATOM     41  N   UNL A   1      41.848  28.111  28.566  1.00  0.00    -0.354 N 
ATOM     42  C   UNL A   1      41.404  29.574  32.832  1.00  0.00     0.074 A 
ATOM     43  C   UNL A   1      40.112  29.009  33.119  1.00  0.00     0.031 C 
ATOM     44  C   UNL A   1      40.992  27.505  26.604  1.00  0.00     0.029 A 
ATOM     45  C   UNL A   1      42.104  27.257  27.505  1.00  0.00     0.049 A 
ATOM     46  H   UNL A   1      42.507  28.301  29.271  1.00  0.00     0.167 HD
ATOM     47  C   UNL A   1      42.531  29.635  33.588  1.00  0.00     0.037 A 
ATOM     48  C   UNL A   1      43.098  26.337  27.466  1.00  0.00     0.037 A 
ATOM     49  C   UNL A   1      43.560  30.405  32.942  1.00  0.00     0.049 A 
ATOM     50  C   UNL A   1      44.105  26.721  28.493  1.00  0.00     0.074 A 
ATOM     51  C   UNL A   1      43.685  31.722  32.545  1.00  0.00     0.029 A 
ATOM     52  N   UNL A   1      44.557  29.721  32.290  1.00  0.00    -0.354 N 
ATOM     53  N   UNL A   1      44.877  27.768  28.393  1.00  0.00    -0.248 NA
ATOM     54  C   UNL A   1      43.923  26.212  29.846  1.00  0.00     0.031 C 
ATOM     55  C   UNL A   1      44.427  31.675  31.329  1.00  0.00     0.029 A 
ATOM     56  C   UNL A   1      44.749  30.340  31.082  1.00  0.00     0.049 A 
ATOM     57  H   UNL A   1      45.043  28.935  32.627  1.00  0.00     0.167 HD
ATOM     58  C   UNL A   1      44.923  28.300  29.675  1.00  0.00     0.074 A 
ATOM     59  C   UNL A   1      44.383  27.256  30.542  1.00  0.00     0.031 C 
ATOM     60  C   UNL A   1      45.120  29.635  29.879  1.00  0.00     0.037 A 
BRANCH  47  61
ATOM     61  C   UNL A   1      42.832  28.664  34.702  1.00  0.00     0.057 A 
ATOM     62  C   UNL A   1      43.072  27.288  34.506  1.00  0.00     0.134 A 
ATOM     63  C   UNL A   1      43.219  29.170  35.955  1.00  0.00     0.134 A 
ATOM     64  F   UNL A   1      42.814  26.666  33.350  1.00  0.00    -0.206 F 
ATOM     65  C   UNL A   1      43.698  26.487  35.462  1.00  0.00     0.040 A 
ATOM     66  C   UNL A   1      43.893  28.386  36.899  1.00  0.00     0.040 A 
ATOM     67  F   UNL A   1      43.038  30.463  36.263  1.00  0.00    -0.206 F 
ATOM     68  C   UNL A   1      44.149  27.044  36.646  1.00  0.00     0.006 A 
ENDBRANCH  47  61
BRANCH  48  69
ATOM     69  C   UNL A   1      43.047  24.979  26.875  1.00  0.00     0.057 A 
ATOM     70  C   UNL A   1      43.583  24.702  25.604  1.00  0.00     0.134 A 
ATOM     71  C   UNL A   1      42.235  23.981  27.430  1.00  0.00     0.134 A 
ATOM     72  F   UNL A   1      44.307  25.613  24.939  1.00  0.00    -0.206 F 
ATOM     73  C   UNL A   1      43.321  23.511  24.922  1.00  0.00     0.040 A 
ATOM     74  C   UNL A   1      41.957  22.786  26.751  1.00  0.00     0.040 A 
ATOM     75  F   UNL A   1      41.641  24.168  28.617  1.00  0.00    -0.206 F 
ATOM     76  C   UNL A   1      42.493  22.552  25.488  1.00  0.00     0.006 A 
ENDBRANCH  48  69
BRANCH  60  77
ATOM     77  C   UNL A   1      45.516  30.469  28.694  1.00  0.00     0.057 A 
ATOM     78  C   UNL A   1      44.516  31.014  27.884  1.00  0.00     0.134 A 
ATOM     79  C   UNL A   1      46.843  30.638  28.267  1.00  0.00     0.134 A 
ATOM     80  F   UNL A   1      43.222  30.836  28.196  1.00  0.00    -0.206 F 
ATOM     81  C   UNL A   1      44.816  31.717  26.716  1.00  0.00     0.040 A 
ATOM     82  C   UNL A   1      47.158  31.370  27.119  1.00  0.00     0.040 A 
ATOM     83  F   UNL A   1      47.859  30.057  28.917  1.00  0.00    -0.206 F 
ATOM     84  C   UNL A   1      46.142  31.910  26.339  1.00  0.00     0.006 A 
ENDBRANCH  60  77
ENDBRANCH  34  35
ENDBRANCH  27  29
ENDBRANCH  26  27
ENDBRANCH  25  26
ENDBRANCH   1  25
TORSDOF 15
ENDMDL
