MODEL 1
REMARK VINA RESULT:     -15.8      0.000      0.000
REMARK SMILES O=C(OCCOC(=O)[C@@H]1[C@H](C(=O)Nc2ccccc2OC(F)F)[C@@H]2C=C[C@H]1C2)c1ccc(-c2c3nc(c(-c4c(F)cccc4F)c4ccc([nH]4)c(-c4c(F)cccc4F)c4nc(c(-c5c(F)cccc5F)c5ccc2[nH]5)C=C4)C=C3)cc1
REMARK SMILES IDX 5 1 4 2 3 3 2 4 1 5 29 6 30 7 82 8 31 9 81 10 32 11 33 12
REMARK SMILES IDX 34 13 75 14 35 15 80 16 74 17 76 18 36 19 79 20 73 21 72 22
REMARK SMILES IDX 37 24 63 25 46 26 62 27 47 28 50 29 61 30 77 31 48 32 49 33
REMARK SMILES IDX 60 35 78 36 51 37 38 38 39 39 44 40 40 41 41 42 43 43 45 44
REMARK SMILES IDX 42 45 64 46 65 47 70 48 66 49 67 50 69 51 71 52 68 53 52 54
REMARK SMILES IDX 53 55 58 56 54 57 55 58 57 59 59 60 56 61 6 62 7 63 8 64
REMARK SMILES IDX 9 65 10 66 27 67 24 68 26 69 28 70 25 71 11 72 12 73 13 74
REMARK SMILES IDX 14 76 15 77 19 78 16 79 18 80 17 81 20 82 21 83 22 84 23 85
REMARK H PARENT 76 23 50 34 13 75
REMARK Flexibility Score: inf
ROOT
ATOM      1  C   UNL A   1      40.473  21.082  26.608  1.00  0.00     0.274 C 
ENDROOT
BRANCH   1   2
ATOM      2  C   UNL A   1      41.919  20.653  26.074  1.00  0.00     0.275 C 
BRANCH   2   3
ATOM      3  O   UNL A   1      42.989  21.449  26.529  1.00  0.00    -0.458 OA
BRANCH   3   4
ATOM      4  C   UNL A   1      43.252  22.614  25.839  1.00  0.00     0.338 C 
ATOM      5  O   UNL A   1      43.462  22.514  24.635  1.00  0.00    -0.246 OA
BRANCH   4   6
ATOM      6  C   UNL A   1      43.578  24.053  26.878  1.00  0.00     0.060 A 
ATOM      7  C   UNL A   1      42.145  24.042  27.805  1.00  0.00     0.016 A 
ATOM      8  C   UNL A   1      44.554  25.749  26.552  1.00  0.00     0.016 A 
ATOM      9  C   UNL A   1      41.687  25.310  28.612  1.00  0.00     0.010 A 
ATOM     10  C   UNL A   1      43.696  27.192  27.343  1.00  0.00     0.010 A 
ATOM     11  C   UNL A   1      42.402  26.816  28.467  1.00  0.00    -0.014 A 
BRANCH  11  12
ATOM     12  C   UNL A   1      41.814  27.735  29.451  1.00  0.00     0.031 A 
ATOM     13  C   UNL A   1      42.583  27.751  30.705  1.00  0.00     0.074 A 
ATOM     14  C   UNL A   1      40.830  28.630  29.172  1.00  0.00     0.049 A 
ATOM     15  N   UNL A   1      42.479  28.522  31.737  1.00  0.00    -0.248 NA
ATOM     16  C   UNL A   1      43.672  26.773  30.778  1.00  0.00     0.031 C 
ATOM     17  C   UNL A   1      40.137  28.856  27.892  1.00  0.00     0.029 A 
ATOM     18  N   UNL A   1      40.208  29.536  30.002  1.00  0.00    -0.354 N 
ATOM     19  C   UNL A   1      43.515  28.117  32.560  1.00  0.00     0.074 A 
ATOM     20  C   UNL A   1      44.235  27.059  31.923  1.00  0.00     0.031 C 
ATOM     21  C   UNL A   1      39.137  29.744  28.053  1.00  0.00     0.029 A 
ATOM     22  C   UNL A   1      39.112  30.163  29.442  1.00  0.00     0.049 A 
ATOM     23  H   UNL A   1      40.518  29.721  30.917  1.00  0.00     0.167 HD
ATOM     24  C   UNL A   1      43.793  28.543  33.800  1.00  0.00     0.037 A 
ATOM     25  C   UNL A   1      38.182  30.956  30.015  1.00  0.00     0.037 A 
ATOM     26  C   UNL A   1      42.900  29.407  34.488  1.00  0.00     0.049 A 
ATOM     27  C   UNL A   1      38.376  31.263  31.475  1.00  0.00     0.074 A 
ATOM     28  C   UNL A   1      42.943  29.808  35.799  1.00  0.00     0.029 A 
ATOM     29  N   UNL A   1      41.742  29.924  33.918  1.00  0.00    -0.354 N 
ATOM     30  N   UNL A   1      39.341  30.857  32.269  1.00  0.00    -0.248 NA
ATOM     31  C   UNL A   1      37.385  32.128  32.124  1.00  0.00     0.031 C 
ATOM     32  C   UNL A   1      41.754  30.491  36.053  1.00  0.00     0.029 A 
ATOM     33  C   UNL A   1      41.040  30.627  34.867  1.00  0.00     0.049 A 
ATOM     34  H   UNL A   1      41.466  29.806  32.981  1.00  0.00     0.167 HD
ATOM     35  C   UNL A   1      39.106  31.453  33.497  1.00  0.00     0.074 A 
ATOM     36  C   UNL A   1      37.893  32.236  33.345  1.00  0.00     0.031 C 
ATOM     37  C   UNL A   1      39.835  31.383  34.638  1.00  0.00     0.037 A 
BRANCH  24  38
ATOM     38  C   UNL A   1      44.950  27.864  34.456  1.00  0.00     0.057 A 
ATOM     39  C   UNL A   1      44.779  26.704  35.232  1.00  0.00     0.134 A 
ATOM     40  C   UNL A   1      46.188  28.510  34.511  1.00  0.00     0.134 A 
ATOM     41  F   UNL A   1      43.580  26.102  35.301  1.00  0.00    -0.206 F 
ATOM     42  C   UNL A   1      45.787  26.247  36.078  1.00  0.00     0.040 A 
ATOM     43  C   UNL A   1      47.220  28.026  35.309  1.00  0.00     0.040 A 
ATOM     44  F   UNL A   1      46.388  29.662  33.854  1.00  0.00    -0.206 F 
ATOM     45  C   UNL A   1      47.016  26.904  36.110  1.00  0.00     0.006 A 
ENDBRANCH  24  38
BRANCH  25  46
ATOM     46  C   UNL A   1      37.007  31.468  29.248  1.00  0.00     0.057 A 
ATOM     47  C   UNL A   1      35.877  30.676  29.003  1.00  0.00     0.134 A 
ATOM     48  C   UNL A   1      36.985  32.770  28.727  1.00  0.00     0.134 A 
ATOM     49  F   UNL A   1      35.829  29.412  29.449  1.00  0.00    -0.206 F 
ATOM     50  C   UNL A   1      34.782  31.151  28.271  1.00  0.00     0.040 A 
ATOM     51  C   UNL A   1      35.888  33.268  28.015  1.00  0.00     0.040 A 
ATOM     52  F   UNL A   1      38.033  33.588  28.907  1.00  0.00    -0.206 F 
ATOM     53  C   UNL A   1      34.781  32.456  27.781  1.00  0.00     0.006 A 
ENDBRANCH  25  46
BRANCH  37  54
ATOM     54  C   UNL A   1      39.399  32.232  35.785  1.00  0.00     0.057 A 
ATOM     55  C   UNL A   1      39.821  33.554  35.937  1.00  0.00     0.134 A 
ATOM     56  C   UNL A   1      38.404  31.747  36.646  1.00  0.00     0.134 A 
ATOM     57  F   UNL A   1      40.762  34.068  35.132  1.00  0.00    -0.206 F 
ATOM     58  C   UNL A   1      39.272  34.369  36.923  1.00  0.00     0.040 A 
ATOM     59  C   UNL A   1      37.812  32.567  37.597  1.00  0.00     0.040 A 
ATOM     60  F   UNL A   1      37.942  30.493  36.518  1.00  0.00    -0.206 F 
ATOM     61  C   UNL A   1      38.252  33.881  37.742  1.00  0.00     0.006 A 
ENDBRANCH  37  54
ENDBRANCH  11  12
ENDBRANCH   4   6
ENDBRANCH   3   4
ENDBRANCH   2   3
ENDBRANCH   1   2
BRANCH   1  62
ATOM     62  O   UNL A   1      39.841  22.641  26.579  1.00  0.00    -0.462 OA
BRANCH  62  63
ATOM     63  C   UNL A   1      38.654  23.553  26.465  1.00  0.00     0.310 C 
ATOM     64  O   UNL A   1      38.827  24.676  26.956  1.00  0.00    -0.252 OA
BRANCH  63  65
ATOM     65  C   UNL A   1      36.956  23.176  25.686  1.00  0.00     0.119 C 
ATOM     66  C   UNL A   1      34.999  23.076  26.054  1.00  0.00     0.100 C 
ATOM     67  C   UNL A   1      37.341  22.155  24.538  1.00  0.00     0.027 C 
ATOM     68  C   UNL A   1      35.165  21.783  24.601  1.00  0.00     0.025 C 
ATOM     69  C   UNL A   1      37.205  20.714  24.910  1.00  0.00    -0.027 C 
ATOM     70  C   UNL A   1      36.173  22.282  23.595  1.00  0.00     0.017 C 
ATOM     71  C   UNL A   1      35.901  20.454  24.908  1.00  0.00    -0.027 C 
BRANCH  66  72
ATOM     72  C   UNL A   1      33.408  22.638  27.603  1.00  0.00     0.229 C 
ATOM     73  O   UNL A   1      33.229  22.594  28.830  1.00  0.00    -0.274 OA
ATOM     74  N   UNL A   1      31.879  22.027  26.818  1.00  0.00    -0.323 N 
ATOM     75  H   UNL A   1      31.058  21.931  27.353  1.00  0.00     0.170 HD
BRANCH  74  76
ATOM     76  C   UNL A   1      31.863  21.605  25.097  1.00  0.00     0.084 A 
ATOM     77  C   UNL A   1      31.716  22.671  24.226  1.00  0.00     0.030 A 
ATOM     78  C   UNL A   1      32.191  20.106  24.477  1.00  0.00     0.149 A 
ATOM     79  C   UNL A   1      31.901  22.413  22.857  1.00  0.00     0.002 A 
ATOM     80  C   UNL A   1      32.336  19.976  23.104  1.00  0.00     0.049 A 
ATOM     81  C   UNL A   1      32.214  21.131  22.325  1.00  0.00     0.004 A 
BRANCH  78  82
ATOM     82  O   UNL A   1      32.130  18.650  25.157  1.00  0.00    -0.433 OA
BRANCH  82  83
ATOM     83  C   UNL A   1      32.605  16.906  25.455  1.00  0.00     0.542 C 
ATOM     84  F   UNL A   1      32.736  16.150  24.302  1.00  0.00    -0.167 F 
ATOM     85  F   UNL A   1      33.814  16.595  25.965  1.00  0.00    -0.167 F 
ENDBRANCH  82  83
ENDBRANCH  78  82
ENDBRANCH  74  76
ENDBRANCH  66  72
ENDBRANCH  63  65
ENDBRANCH  62  63
ENDBRANCH   1  62
TORSDOF 15
ENDMDL
MODEL 2
REMARK VINA RESULT:     -15.5      5.168     10.075
REMARK SMILES O=C(OCCOC(=O)[C@@H]1[C@H](C(=O)Nc2ccccc2OC(F)F)[C@@H]2C=C[C@H]1C2)c1ccc(-c2c3nc(c(-c4c(F)cccc4F)c4ccc([nH]4)c(-c4c(F)cccc4F)c4nc(c(-c5c(F)cccc5F)c5ccc2[nH]5)C=C4)C=C3)cc1
REMARK SMILES IDX 5 1 4 2 3 3 2 4 1 5 29 6 30 7 82 8 31 9 81 10 32 11 33 12
REMARK SMILES IDX 34 13 75 14 35 15 80 16 74 17 76 18 36 19 79 20 73 21 72 22
REMARK SMILES IDX 37 24 63 25 46 26 62 27 47 28 50 29 61 30 77 31 48 32 49 33
REMARK SMILES IDX 60 35 78 36 51 37 38 38 39 39 44 40 40 41 41 42 43 43 45 44
REMARK SMILES IDX 42 45 64 46 65 47 70 48 66 49 67 50 69 51 71 52 68 53 52 54
REMARK SMILES IDX 53 55 58 56 54 57 55 58 57 59 59 60 56 61 6 62 7 63 8 64
REMARK SMILES IDX 9 65 10 66 27 67 24 68 26 69 28 70 25 71 11 72 12 73 13 74
REMARK SMILES IDX 14 76 15 77 19 78 16 79 18 80 17 81 20 82 21 83 22 84 23 85
REMARK H PARENT 76 23 50 34 13 75
REMARK Flexibility Score: inf
ROOT
ATOM      1  C   UNL A   1      34.598  32.556  28.406  1.00  0.00     0.274 C 
ENDROOT
BRANCH   1   2
ATOM      2  C   UNL A   1      34.167  33.318  29.745  1.00  0.00     0.275 C 
BRANCH   2   3
ATOM      3  O   UNL A   1      34.719  32.802  30.935  1.00  0.00    -0.458 OA
BRANCH   3   4
ATOM      4  C   UNL A   1      35.694  33.552  31.559  1.00  0.00     0.338 C 
ATOM      5  O   UNL A   1      35.453  34.741  31.740  1.00  0.00    -0.246 OA
BRANCH   4   6
ATOM      6  C   UNL A   1      37.298  32.739  31.704  1.00  0.00     0.060 A 
ATOM      7  C   UNL A   1      37.657  32.559  30.045  1.00  0.00     0.016 A 
ATOM      8  C   UNL A   1      38.045  31.474  33.039  1.00  0.00     0.016 A 
ATOM      9  C   UNL A   1      38.757  31.550  29.554  1.00  0.00     0.010 A 
ATOM     10  C   UNL A   1      39.089  30.170  32.233  1.00  0.00     0.010 A 
ATOM     11  C   UNL A   1      39.498  30.423  30.545  1.00  0.00    -0.014 A 
BRANCH  11  12
ATOM     12  C   UNL A   1      40.559  29.735  29.797  1.00  0.00     0.031 A 
ATOM     13  C   UNL A   1      41.757  30.577  29.656  1.00  0.00     0.074 A 
ATOM     14  C   UNL A   1      40.538  28.415  29.475  1.00  0.00     0.049 A 
ATOM     15  N   UNL A   1      42.933  30.286  29.205  1.00  0.00    -0.248 NA
ATOM     16  C   UNL A   1      41.614  31.949  30.153  1.00  0.00     0.031 C 
ATOM     17  C   UNL A   1      39.487  27.422  29.760  1.00  0.00     0.029 A 
ATOM     18  N   UNL A   1      41.465  27.666  28.787  1.00  0.00    -0.354 N 
ATOM     19  C   UNL A   1      43.659  31.449  29.393  1.00  0.00     0.074 A 
ATOM     20  C   UNL A   1      42.818  32.434  29.998  1.00  0.00     0.031 C 
ATOM     21  C   UNL A   1      39.781  26.249  29.168  1.00  0.00     0.029 A 
ATOM     22  C   UNL A   1      41.043  26.391  28.465  1.00  0.00     0.049 A 
ATOM     23  H   UNL A   1      42.355  28.009  28.545  1.00  0.00     0.167 HD
ATOM     24  C   UNL A   1      44.917  31.703  29.009  1.00  0.00     0.037 A 
ATOM     25  C   UNL A   1      41.610  25.468  27.660  1.00  0.00     0.037 A 
ATOM     26  C   UNL A   1      45.623  30.787  28.185  1.00  0.00     0.049 A 
ATOM     27  C   UNL A   1      42.934  25.840  27.048  1.00  0.00     0.074 A 
ATOM     28  C   UNL A   1      46.840  30.953  27.573  1.00  0.00     0.029 A 
ATOM     29  N   UNL A   1      45.108  29.557  27.789  1.00  0.00    -0.354 N 
ATOM     30  N   UNL A   1      43.614  26.955  27.200  1.00  0.00    -0.248 NA
ATOM     31  C   UNL A   1      43.578  24.855  26.173  1.00  0.00     0.031 C 
ATOM     32  C   UNL A   1      47.020  29.862  26.725  1.00  0.00     0.029 A 
ATOM     33  C   UNL A   1      45.979  28.958  26.912  1.00  0.00     0.049 A 
ATOM     34  H   UNL A   1      44.252  29.175  28.090  1.00  0.00     0.167 HD
ATOM     35  C   UNL A   1      44.787  26.791  26.483  1.00  0.00     0.074 A 
ATOM     36  C   UNL A   1      44.717  25.471  25.881  1.00  0.00     0.031 C 
ATOM     37  C   UNL A   1      45.838  27.637  26.352  1.00  0.00     0.037 A 
BRANCH  24  38
ATOM     38  C   UNL A   1      45.401  33.084  29.306  1.00  0.00     0.057 A 
ATOM     39  C   UNL A   1      45.321  34.113  28.351  1.00  0.00     0.134 A 
ATOM     40  C   UNL A   1      46.167  33.315  30.453  1.00  0.00     0.134 A 
ATOM     41  F   UNL A   1      44.690  33.911  27.184  1.00  0.00    -0.206 F 
ATOM     42  C   UNL A   1      46.032  35.301  28.510  1.00  0.00     0.040 A 
ATOM     43  C   UNL A   1      46.832  34.522  30.646  1.00  0.00     0.040 A 
ATOM     44  F   UNL A   1      46.344  32.345  31.363  1.00  0.00    -0.206 F 
ATOM     45  C   UNL A   1      46.781  35.511  29.666  1.00  0.00     0.006 A 
ENDBRANCH  24  38
BRANCH  25  46
ATOM     46  C   UNL A   1      40.940  24.166  27.364  1.00  0.00     0.057 A 
ATOM     47  C   UNL A   1      41.382  22.958  27.921  1.00  0.00     0.134 A 
ATOM     48  C   UNL A   1      39.835  24.093  26.503  1.00  0.00     0.134 A 
ATOM     49  F   UNL A   1      42.445  22.942  28.737  1.00  0.00    -0.206 F 
ATOM     50  C   UNL A   1      40.762  21.737  27.631  1.00  0.00     0.040 A 
ATOM     51  C   UNL A   1      39.189  22.883  26.224  1.00  0.00     0.040 A 
ATOM     52  F   UNL A   1      39.357  25.202  25.920  1.00  0.00    -0.206 F 
ATOM     53  C   UNL A   1      39.655  21.697  26.785  1.00  0.00     0.006 A 
ENDBRANCH  25  46
BRANCH  37  54
ATOM     54  C   UNL A   1      47.030  27.143  25.605  1.00  0.00     0.057 A 
ATOM     55  C   UNL A   1      47.288  27.510  24.283  1.00  0.00     0.134 A 
ATOM     56  C   UNL A   1      48.015  26.424  26.300  1.00  0.00     0.134 A 
ATOM     57  F   UNL A   1      46.384  28.208  23.580  1.00  0.00    -0.206 F 
ATOM     58  C   UNL A   1      48.488  27.166  23.667  1.00  0.00     0.040 A 
ATOM     59  C   UNL A   1      49.236  26.122  25.712  1.00  0.00     0.040 A 
ATOM     60  F   UNL A   1      47.828  26.077  27.583  1.00  0.00    -0.206 F 
ATOM     61  C   UNL A   1      49.472  26.488  24.389  1.00  0.00     0.006 A 
ENDBRANCH  37  54
ENDBRANCH  11  12
ENDBRANCH   4   6
ENDBRANCH   3   4
ENDBRANCH   2   3
ENDBRANCH   1   2
BRANCH   1  62
ATOM     62  O   UNL A   1      35.225  30.997  28.325  1.00  0.00    -0.462 OA
BRANCH  62  63
ATOM     63  C   UNL A   1      35.315  29.674  27.621  1.00  0.00     0.310 C 
ATOM     64  O   UNL A   1      36.415  29.115  27.727  1.00  0.00    -0.252 OA
BRANCH  63  65
ATOM     65  C   UNL A   1      33.966  28.795  26.600  1.00  0.00     0.119 C 
ATOM     66  C   UNL A   1      33.562  27.977  24.828  1.00  0.00     0.100 C 
ATOM     67  C   UNL A   1      32.640  29.376  27.241  1.00  0.00     0.027 C 
ATOM     68  C   UNL A   1      31.779  28.542  25.385  1.00  0.00     0.025 C 
ATOM     69  C   UNL A   1      32.059  30.550  26.523  1.00  0.00    -0.027 C 
ATOM     70  C   UNL A   1      31.624  28.327  26.870  1.00  0.00     0.017 C 
ATOM     71  C   UNL A   1      31.492  30.065  25.422  1.00  0.00    -0.027 C 
BRANCH  66  72
ATOM     72  C   UNL A   1      33.978  28.033  22.604  1.00  0.00     0.229 C 
ATOM     73  O   UNL A   1      34.800  28.458  21.777  1.00  0.00    -0.274 OA
ATOM     74  N   UNL A   1      32.592  27.316  21.659  1.00  0.00    -0.323 N 
ATOM     75  H   UNL A   1      32.693  27.145  20.695  1.00  0.00     0.170 HD
BRANCH  74  76
ATOM     76  C   UNL A   1      31.064  26.926  22.468  1.00  0.00     0.084 A 
ATOM     77  C   UNL A   1      31.025  25.694  23.099  1.00  0.00     0.030 A 
ATOM     78  C   UNL A   1      29.798  27.971  22.676  1.00  0.00     0.149 A 
ATOM     79  C   UNL A   1      29.916  25.428  23.921  1.00  0.00     0.002 A 
ATOM     80  C   UNL A   1      28.752  27.586  23.501  1.00  0.00     0.049 A 
ATOM     81  C   UNL A   1      28.842  26.338  24.125  1.00  0.00     0.004 A 
BRANCH  78  82
ATOM     82  O   UNL A   1      29.398  29.310  21.880  1.00  0.00    -0.433 OA
BRANCH  82  83
ATOM     83  C   UNL A   1      28.497  30.870  21.550  1.00  0.00     0.542 C 
ATOM     84  F   UNL A   1      27.653  30.816  20.453  1.00  0.00    -0.167 F 
ATOM     85  F   UNL A   1      27.572  31.333  22.416  1.00  0.00    -0.167 F 
ENDBRANCH  82  83
ENDBRANCH  78  82
ENDBRANCH  74  76
ENDBRANCH  66  72
ENDBRANCH  63  65
ENDBRANCH  62  63
ENDBRANCH   1  62
TORSDOF 15
ENDMDL
MODEL 3
REMARK VINA RESULT:     -15.4      1.686      2.427
REMARK SMILES O=C(OCCOC(=O)[C@@H]1[C@H](C(=O)Nc2ccccc2OC(F)F)[C@@H]2C=C[C@H]1C2)c1ccc(-c2c3nc(c(-c4c(F)cccc4F)c4ccc([nH]4)c(-c4c(F)cccc4F)c4nc(c(-c5c(F)cccc5F)c5ccc2[nH]5)C=C4)C=C3)cc1
REMARK SMILES IDX 5 1 4 2 3 3 2 4 1 5 29 6 30 7 82 8 31 9 81 10 32 11 33 12
REMARK SMILES IDX 34 13 75 14 35 15 80 16 74 17 76 18 36 19 79 20 73 21 72 22
REMARK SMILES IDX 37 24 63 25 46 26 62 27 47 28 50 29 61 30 77 31 48 32 49 33
REMARK SMILES IDX 60 35 78 36 51 37 38 38 39 39 44 40 40 41 41 42 43 43 45 44
REMARK SMILES IDX 42 45 64 46 65 47 70 48 66 49 67 50 69 51 71 52 68 53 52 54
REMARK SMILES IDX 53 55 58 56 54 57 55 58 57 59 59 60 56 61 6 62 7 63 8 64
REMARK SMILES IDX 9 65 10 66 27 67 24 68 26 69 28 70 25 71 11 72 12 73 13 74
REMARK SMILES IDX 14 76 15 77 19 78 16 79 18 80 17 81 20 82 21 83 22 84 23 85
REMARK H PARENT 76 23 50 34 13 75
REMARK Flexibility Score: inf
ROOT
ATOM      1  C   UNL A   1      40.408  21.446  26.881  1.00  0.00     0.274 C 
ENDROOT
BRANCH   1   2
ATOM      2  C   UNL A   1      41.708  21.209  25.980  1.00  0.00     0.275 C 
BRANCH   2   3
ATOM      3  O   UNL A   1      42.318  22.379  25.483  1.00  0.00    -0.458 OA
BRANCH   3   4
ATOM      4  C   UNL A   1      43.564  22.703  25.975  1.00  0.00     0.338 C 
ATOM      5  O   UNL A   1      44.389  21.798  26.047  1.00  0.00    -0.246 OA
BRANCH   4   6
ATOM      6  C   UNL A   1      43.674  24.330  26.749  1.00  0.00     0.060 A 
ATOM      7  C   UNL A   1      42.514  24.117  27.983  1.00  0.00     0.016 A 
ATOM      8  C   UNL A   1      44.053  26.137  26.023  1.00  0.00     0.016 A 
ATOM      9  C   UNL A   1      41.889  25.347  28.734  1.00  0.00     0.010 A 
ATOM     10  C   UNL A   1      43.000  27.432  26.835  1.00  0.00     0.010 A 
ATOM     11  C   UNL A   1      42.111  26.938  28.265  1.00  0.00    -0.014 A 
BRANCH  11  12
ATOM     12  C   UNL A   1      41.497  27.832  29.256  1.00  0.00     0.031 A 
ATOM     13  C   UNL A   1      42.264  27.860  30.510  1.00  0.00     0.074 A 
ATOM     14  C   UNL A   1      40.488  28.701  28.983  1.00  0.00     0.049 A 
ATOM     15  N   UNL A   1      42.138  28.620  31.549  1.00  0.00    -0.248 NA
ATOM     16  C   UNL A   1      43.380  26.912  30.578  1.00  0.00     0.031 C 
ATOM     17  C   UNL A   1      39.790  28.918  27.704  1.00  0.00     0.029 A 
ATOM     18  N   UNL A   1      39.840  29.582  29.819  1.00  0.00    -0.354 N 
ATOM     19  C   UNL A   1      43.183  28.237  32.370  1.00  0.00     0.074 A 
ATOM     20  C   UNL A   1      43.933  27.205  31.725  1.00  0.00     0.031 C 
ATOM     21  C   UNL A   1      38.766  29.775  27.871  1.00  0.00     0.029 A 
ATOM     22  C   UNL A   1      38.728  30.183  29.263  1.00  0.00     0.049 A 
ATOM     23  H   UNL A   1      40.144  29.769  30.737  1.00  0.00     0.167 HD
ATOM     24  C   UNL A   1      43.449  28.661  33.613  1.00  0.00     0.037 A 
ATOM     25  C   UNL A   1      37.775  30.945  29.841  1.00  0.00     0.037 A 
ATOM     26  C   UNL A   1      42.531  29.493  34.307  1.00  0.00     0.049 A 
ATOM     27  C   UNL A   1      37.959  31.245  31.304  1.00  0.00     0.074 A 
ATOM     28  C   UNL A   1      42.561  29.885  35.622  1.00  0.00     0.029 A 
ATOM     29  N   UNL A   1      41.359  29.983  33.740  1.00  0.00    -0.354 N 
ATOM     30  N   UNL A   1      38.934  30.861  32.096  1.00  0.00    -0.248 NA
ATOM     31  C   UNL A   1      36.943  32.077  31.959  1.00  0.00     0.031 C 
ATOM     32  C   UNL A   1      41.353  30.532  35.880  1.00  0.00     0.029 A 
ATOM     33  C   UNL A   1      40.637  30.657  34.694  1.00  0.00     0.049 A 
ATOM     34  H   UNL A   1      41.088  29.864  32.801  1.00  0.00     0.167 HD
ATOM     35  C   UNL A   1      38.682  31.439  33.328  1.00  0.00     0.074 A 
ATOM     36  C   UNL A   1      37.447  32.190  33.182  1.00  0.00     0.031 C 
ATOM     37  C   UNL A   1      39.411  31.381  34.470  1.00  0.00     0.037 A 
BRANCH  24  38
ATOM     38  C   UNL A   1      44.623  28.009  34.265  1.00  0.00     0.057 A 
ATOM     39  C   UNL A   1      44.487  26.829  35.016  1.00  0.00     0.134 A 
ATOM     40  C   UNL A   1      45.838  28.697  34.344  1.00  0.00     0.134 A 
ATOM     41  F   UNL A   1      43.310  26.184  35.063  1.00  0.00    -0.206 F 
ATOM     42  C   UNL A   1      45.504  26.390  35.861  1.00  0.00     0.040 A 
ATOM     43  C   UNL A   1      46.879  28.233  35.141  1.00  0.00     0.040 A 
ATOM     44  F   UNL A   1      46.001  29.869  33.712  1.00  0.00    -0.206 F 
ATOM     45  C   UNL A   1      46.709  27.088  35.917  1.00  0.00     0.006 A 
ENDBRANCH  24  38
BRANCH  25  46
ATOM     46  C   UNL A   1      36.587  31.429  29.077  1.00  0.00     0.057 A 
ATOM     47  C   UNL A   1      36.456  32.764  28.671  1.00  0.00     0.134 A 
ATOM     48  C   UNL A   1      35.536  30.564  28.735  1.00  0.00     0.134 A 
ATOM     49  F   UNL A   1      37.408  33.658  28.978  1.00  0.00    -0.206 F 
ATOM     50  C   UNL A   1      35.335  33.219  27.968  1.00  0.00     0.040 A 
ATOM     51  C   UNL A   1      34.421  30.999  28.010  1.00  0.00     0.040 A 
ATOM     52  F   UNL A   1      35.579  29.273  29.096  1.00  0.00    -0.206 F 
ATOM     53  C   UNL A   1      34.315  32.333  27.627  1.00  0.00     0.006 A 
ENDBRANCH  25  46
BRANCH  37  54
ATOM     54  C   UNL A   1      38.951  32.208  35.623  1.00  0.00     0.057 A 
ATOM     55  C   UNL A   1      38.224  31.668  36.686  1.00  0.00     0.134 A 
ATOM     56  C   UNL A   1      39.405  33.530  35.731  1.00  0.00     0.134 A 
ATOM     57  F   UNL A   1      37.778  30.404  36.635  1.00  0.00    -0.206 F 
ATOM     58  C   UNL A   1      37.950  32.425  37.821  1.00  0.00     0.040 A 
ATOM     59  C   UNL A   1      39.183  34.277  36.881  1.00  0.00     0.040 A 
ATOM     60  F   UNL A   1      40.135  34.084  34.751  1.00  0.00    -0.206 F 
ATOM     61  C   UNL A   1      38.447  33.725  37.928  1.00  0.00     0.006 A 
ENDBRANCH  37  54
ENDBRANCH  11  12
ENDBRANCH   4   6
ENDBRANCH   3   4
ENDBRANCH   2   3
ENDBRANCH   1   2
BRANCH   1  62
ATOM     62  O   UNL A   1      39.608  22.913  27.079  1.00  0.00    -0.462 OA
BRANCH  62  63
ATOM     63  C   UNL A   1      38.507  23.851  26.677  1.00  0.00     0.310 C 
ATOM     64  O   UNL A   1      38.694  25.028  27.012  1.00  0.00    -0.252 OA
BRANCH  63  65
ATOM     65  C   UNL A   1      36.894  23.435  25.750  1.00  0.00     0.119 C 
ATOM     66  C   UNL A   1      34.919  23.251  25.953  1.00  0.00     0.100 C 
ATOM     67  C   UNL A   1      37.411  22.465  24.611  1.00  0.00     0.027 C 
ATOM     68  C   UNL A   1      35.253  22.011  24.483  1.00  0.00     0.025 C 
ATOM     69  C   UNL A   1      37.302  21.010  24.930  1.00  0.00    -0.027 C 
ATOM     70  C   UNL A   1      36.319  22.578  23.578  1.00  0.00     0.017 C 
ATOM     71  C   UNL A   1      36.014  20.702  24.813  1.00  0.00    -0.027 C 
BRANCH  66  72
ATOM     72  C   UNL A   1      33.226  22.708  27.352  1.00  0.00     0.229 C 
ATOM     73  O   UNL A   1      32.907  22.732  28.552  1.00  0.00    -0.274 OA
ATOM     74  N   UNL A   1      31.899  21.825  26.465  1.00  0.00    -0.323 N 
ATOM     75  H   UNL A   1      31.040  21.652  26.914  1.00  0.00     0.170 HD
BRANCH  74  76
ATOM     76  C   UNL A   1      32.149  21.275  24.799  1.00  0.00     0.084 A 
ATOM     77  C   UNL A   1      32.253  19.905  24.635  1.00  0.00     0.030 A 
ATOM     78  C   UNL A   1      32.078  22.238  23.454  1.00  0.00     0.149 A 
ATOM     79  C   UNL A   1      32.246  19.412  23.319  1.00  0.00     0.002 A 
ATOM     80  C   UNL A   1      32.095  21.632  22.206  1.00  0.00     0.049 A 
ATOM     81  C   UNL A   1      32.153  20.236  22.162  1.00  0.00     0.004 A 
BRANCH  78  82
ATOM     82  O   UNL A   1      32.249  23.828  23.288  1.00  0.00    -0.433 OA
BRANCH  82  83
ATOM     83  C   UNL A   1      33.131  25.410  23.018  1.00  0.00     0.542 C 
ATOM     84  F   UNL A   1      34.400  25.453  23.572  1.00  0.00    -0.167 F 
ATOM     85  F   UNL A   1      33.506  25.792  21.780  1.00  0.00    -0.167 F 
ENDBRANCH  82  83
ENDBRANCH  78  82
ENDBRANCH  74  76
ENDBRANCH  66  72
ENDBRANCH  63  65
ENDBRANCH  62  63
ENDBRANCH   1  62
TORSDOF 15
ENDMDL
