MODEL 1
REMARK VINA RESULT:     -11.1      0.000      0.000
REMARK SMILES CC[C@@H](C)[C@H](C(=O)OCCOC(=O)c1ccc(-c2c3nc(c(-c4c(F)cccc4F)c4ccc([nH]4)c(-c4c(F)cccc4F)c4nc(c(-c5c(F)cccc5F)c5ccc2[nH]5)C=C4)C=C3)cc1)N1C(=O)/C(=C/c2ccc3c(c2)OCO3)SC1=S
REMARK SMILES IDX 9 1 8 2 6 3 7 4 5 5 3 6 4 7 2 8 1 9 68 10 69 11 83 12 70 13
REMARK SMILES IDX 71 14 82 15 84 16 72 17 73 18 74 19 78 20 75 21 77 22 76 23
REMARK SMILES IDX 79 24 81 25 80 26 10 27 11 28 12 29 13 30 14 31 15 32 67 33
REMARK SMILES IDX 16 34 66 35 17 36 18 37 19 38 60 39 20 40 65 41 59 42 61 43
REMARK SMILES IDX 21 44 64 45 58 46 57 47 22 49 48 50 31 51 47 52 32 53 35 54
REMARK SMILES IDX 46 55 62 56 33 57 34 58 45 60 63 61 36 62 23 63 24 64 29 65
REMARK SMILES IDX 25 66 26 67 28 68 30 69 27 70 49 71 50 72 55 73 51 74 52 75
REMARK SMILES IDX 54 76 56 77 53 78 37 79 38 80 43 81 39 82 40 83 42 84 44 85
REMARK SMILES IDX 41 86
REMARK H PARENT 61 48 35 59
REMARK Flexibility Score: inf
ROOT
ATOM      1  C   UNL A   1      36.225  21.805  25.077  1.00  0.00     0.274 C 
ENDROOT
BRANCH   1   2
ATOM      2  O   UNL A   1      35.467  21.087  26.072  1.00  0.00    -0.461 OA
BRANCH   2   3
ATOM      3  C   UNL A   1      34.241  21.586  26.382  1.00  0.00     0.329 C 
ATOM      4  O   UNL A   1      33.659  21.394  27.444  1.00  0.00    -0.250 OA
BRANCH   3   5
ATOM      5  C   UNL A   1      33.570  22.301  25.188  1.00  0.00     0.204 C 
BRANCH   5   6
ATOM      6  C   UNL A   1      32.493  21.414  24.447  1.00  0.00     0.020 C 
ATOM      7  C   UNL A   1      32.739  19.905  24.487  1.00  0.00     0.010 C 
BRANCH   6   8
ATOM      8  C   UNL A   1      32.270  21.943  23.013  1.00  0.00     0.002 C 
ATOM      9  C   UNL A   1      31.898  20.897  21.973  1.00  0.00     0.004 C 
ENDBRANCH   6   8
ENDBRANCH   5   6
BRANCH   5  10
ATOM     10  N   UNL A   1      33.127  23.689  25.515  1.00  0.00    -0.278 N 
ATOM     11  C   UNL A   1      33.752  24.789  24.938  1.00  0.00     0.267 C 
ATOM     12  C   UNL A   1      31.938  24.000  26.153  1.00  0.00     0.149 C 
ATOM     13  O   UNL A   1      34.587  24.806  24.048  1.00  0.00    -0.268 OA
ATOM     14  C   UNL A   1      33.240  26.045  25.522  1.00  0.00     0.081 C 
ATOM     15  S   UNL A   1      31.890  25.716  26.522  1.00  0.00    -0.054 SA
ATOM     16  S   UNL A   1      30.634  23.022  26.518  1.00  0.00    -0.052 S 
ATOM     17  C   UNL A   1      33.858  27.216  25.313  1.00  0.00     0.029 C 
BRANCH  17  18
ATOM     18  C   UNL A   1      33.524  28.391  26.114  1.00  0.00    -0.020 A 
ATOM     19  C   UNL A   1      34.441  28.939  27.030  1.00  0.00     0.012 A 
ATOM     20  C   UNL A   1      32.339  29.066  25.788  1.00  0.00     0.058 A 
ATOM     21  C   UNL A   1      34.211  30.207  27.573  1.00  0.00     0.051 A 
ATOM     22  C   UNL A   1      32.170  30.326  26.300  1.00  0.00     0.166 A 
ATOM     23  C   UNL A   1      33.086  30.889  27.156  1.00  0.00     0.165 A 
ATOM     24  O   UNL A   1      31.166  31.179  25.969  1.00  0.00    -0.454 OA
ATOM     25  O   UNL A   1      32.765  32.174  27.468  1.00  0.00    -0.454 OA
ATOM     26  C   UNL A   1      31.664  32.395  26.559  1.00  0.00     0.468 C 
ENDBRANCH  17  18
ENDBRANCH   5  10
ENDBRANCH   3   5
ENDBRANCH   2   3
ENDBRANCH   1   2
BRANCH   1  27
ATOM     27  C   UNL A   1      37.116  22.880  25.699  1.00  0.00     0.275 C 
BRANCH  27  28
ATOM     28  O   UNL A   1      38.502  22.659  25.376  1.00  0.00    -0.458 OA
BRANCH  28  29
ATOM     29  C   UNL A   1      39.343  22.648  26.435  1.00  0.00     0.338 C 
ATOM     30  O   UNL A   1      39.935  21.687  26.897  1.00  0.00    -0.246 OA
BRANCH  29  31
ATOM     31  C   UNL A   1      39.556  24.019  26.921  1.00  0.00     0.060 A 
ATOM     32  C   UNL A   1      40.094  24.964  26.043  1.00  0.00     0.016 A 
ATOM     33  C   UNL A   1      39.337  24.343  28.259  1.00  0.00     0.016 A 
ATOM     34  C   UNL A   1      40.451  26.224  26.493  1.00  0.00     0.010 A 
ATOM     35  C   UNL A   1      39.678  25.621  28.713  1.00  0.00     0.010 A 
ATOM     36  C   UNL A   1      40.253  26.558  27.835  1.00  0.00    -0.014 A 
BRANCH  36  37
ATOM     37  C   UNL A   1      40.705  27.882  28.303  1.00  0.00     0.031 A 
ATOM     38  C   UNL A   1      42.164  28.223  28.274  1.00  0.00     0.074 A 
ATOM     39  C   UNL A   1      39.791  28.791  28.685  1.00  0.00     0.049 A 
ATOM     40  N   UNL A   1      42.764  29.318  28.663  1.00  0.00    -0.248 NA
ATOM     41  C   UNL A   1      43.069  27.195  27.736  1.00  0.00     0.031 C 
ATOM     42  C   UNL A   1      38.343  28.578  28.694  1.00  0.00     0.029 A 
ATOM     43  N   UNL A   1      39.945  30.076  29.129  1.00  0.00    -0.354 N 
ATOM     44  C   UNL A   1      44.116  29.105  28.438  1.00  0.00     0.074 A 
ATOM     45  C   UNL A   1      44.252  27.773  27.890  1.00  0.00     0.031 C 
ATOM     46  C   UNL A   1      37.740  29.698  29.123  1.00  0.00     0.029 A 
ATOM     47  C   UNL A   1      38.760  30.688  29.452  1.00  0.00     0.049 A 
ATOM     48  H   UNL A   1      40.821  30.519  29.210  1.00  0.00     0.167 HD
ATOM     49  C   UNL A   1      45.148  29.950  28.669  1.00  0.00     0.037 A 
ATOM     50  C   UNL A   1      38.530  31.907  29.975  1.00  0.00     0.037 A 
ATOM     51  C   UNL A   1      44.998  31.280  29.202  1.00  0.00     0.049 A 
ATOM     52  C   UNL A   1      39.695  32.811  30.251  1.00  0.00     0.074 A 
ATOM     53  C   UNL A   1      45.978  32.218  29.476  1.00  0.00     0.029 A 
ATOM     54  N   UNL A   1      43.784  31.860  29.539  1.00  0.00    -0.354 N 
ATOM     55  N   UNL A   1      40.974  32.597  30.051  1.00  0.00    -0.248 NA
ATOM     56  C   UNL A   1      39.387  34.128  30.821  1.00  0.00     0.031 C 
ATOM     57  C   UNL A   1      45.359  33.353  30.011  1.00  0.00     0.029 A 
ATOM     58  C   UNL A   1      43.990  33.139  30.031  1.00  0.00     0.049 A 
ATOM     59  H   UNL A   1      42.905  31.427  29.444  1.00  0.00     0.167 HD
ATOM     60  C   UNL A   1      41.622  33.756  30.454  1.00  0.00     0.074 A 
ATOM     61  C   UNL A   1      40.591  34.677  30.891  1.00  0.00     0.031 C 
ATOM     62  C   UNL A   1      42.948  34.035  30.463  1.00  0.00     0.037 A 
BRANCH  49  63
ATOM     63  C   UNL A   1      46.530  29.445  28.378  1.00  0.00     0.057 A 
ATOM     64  C   UNL A   1      47.140  29.629  27.131  1.00  0.00     0.134 A 
ATOM     65  C   UNL A   1      47.264  28.780  29.367  1.00  0.00     0.134 A 
ATOM     66  F   UNL A   1      46.483  30.242  26.135  1.00  0.00    -0.206 F 
ATOM     67  C   UNL A   1      48.427  29.152  26.872  1.00  0.00     0.040 A 
ATOM     68  C   UNL A   1      48.560  28.319  29.128  1.00  0.00     0.040 A 
ATOM     69  F   UNL A   1      46.737  28.570  30.582  1.00  0.00    -0.206 F 
ATOM     70  C   UNL A   1      49.143  28.501  27.875  1.00  0.00     0.006 A 
ENDBRANCH  49  63
BRANCH  50  71
ATOM     71  C   UNL A   1      37.141  32.329  30.276  1.00  0.00     0.057 A 
ATOM     72  C   UNL A   1      36.540  32.025  31.501  1.00  0.00     0.134 A 
ATOM     73  C   UNL A   1      36.385  33.053  29.345  1.00  0.00     0.134 A 
ATOM     74  F   UNL A   1      37.208  31.317  32.424  1.00  0.00    -0.206 F 
ATOM     75  C   UNL A   1      35.231  32.416  31.788  1.00  0.00     0.040 A 
ATOM     76  C   UNL A   1      35.084  33.470  29.628  1.00  0.00     0.040 A 
ATOM     77  F   UNL A   1      36.908  33.378  28.154  1.00  0.00    -0.206 F 
ATOM     78  C   UNL A   1      34.502  33.146  30.852  1.00  0.00     0.006 A 
ENDBRANCH  50  71
BRANCH  62  79
ATOM     79  C   UNL A   1      43.345  35.400  30.937  1.00  0.00     0.057 A 
ATOM     80  C   UNL A   1      43.534  36.464  30.045  1.00  0.00     0.134 A 
ATOM     81  C   UNL A   1      43.537  35.654  32.301  1.00  0.00     0.134 A 
ATOM     82  F   UNL A   1      43.380  36.281  28.725  1.00  0.00    -0.206 F 
ATOM     83  C   UNL A   1      43.930  37.725  30.492  1.00  0.00     0.040 A 
ATOM     84  C   UNL A   1      43.910  36.916  32.761  1.00  0.00     0.040 A 
ATOM     85  F   UNL A   1      43.365  34.678  33.206  1.00  0.00    -0.206 F 
ATOM     86  C   UNL A   1      44.116  37.954  31.854  1.00  0.00     0.006 A 
ENDBRANCH  62  79
ENDBRANCH  36  37
ENDBRANCH  29  31
ENDBRANCH  28  29
ENDBRANCH  27  28
ENDBRANCH   1  27
TORSDOF 15
ENDMDL
MODEL 2
REMARK VINA RESULT:     -11.0      3.517      8.658
REMARK SMILES CC[C@@H](C)[C@H](C(=O)OCCOC(=O)c1ccc(-c2c3nc(c(-c4c(F)cccc4F)c4ccc([nH]4)c(-c4c(F)cccc4F)c4nc(c(-c5c(F)cccc5F)c5ccc2[nH]5)C=C4)C=C3)cc1)N1C(=O)/C(=C/c2ccc3c(c2)OCO3)SC1=S
REMARK SMILES IDX 9 1 8 2 6 3 7 4 5 5 3 6 4 7 2 8 1 9 68 10 69 11 83 12 70 13
REMARK SMILES IDX 71 14 82 15 84 16 72 17 73 18 74 19 78 20 75 21 77 22 76 23
REMARK SMILES IDX 79 24 81 25 80 26 10 27 11 28 12 29 13 30 14 31 15 32 67 33
REMARK SMILES IDX 16 34 66 35 17 36 18 37 19 38 60 39 20 40 65 41 59 42 61 43
REMARK SMILES IDX 21 44 64 45 58 46 57 47 22 49 48 50 31 51 47 52 32 53 35 54
REMARK SMILES IDX 46 55 62 56 33 57 34 58 45 60 63 61 36 62 23 63 24 64 29 65
REMARK SMILES IDX 25 66 26 67 28 68 30 69 27 70 49 71 50 72 55 73 51 74 52 75
REMARK SMILES IDX 54 76 56 77 53 78 37 79 38 80 43 81 39 82 40 83 42 84 44 85
REMARK SMILES IDX 41 86
REMARK H PARENT 61 48 35 59
REMARK Flexibility Score: inf
ROOT
ATOM      1  C   UNL A   1      31.841  28.843  26.527  1.00  0.00     0.274 C 
ENDROOT
BRANCH   1   2
ATOM      2  O   UNL A   1      31.961  29.502  25.251  1.00  0.00    -0.461 OA
BRANCH   2   3
ATOM      3  C   UNL A   1      32.243  28.712  24.180  1.00  0.00     0.329 C 
ATOM      4  O   UNL A   1      32.829  29.090  23.170  1.00  0.00    -0.250 OA
BRANCH   3   5
ATOM      5  C   UNL A   1      31.608  27.308  24.291  1.00  0.00     0.204 C 
BRANCH   5   6
ATOM      6  C   UNL A   1      30.315  27.130  23.401  1.00  0.00     0.020 C 
ATOM      7  C   UNL A   1      29.683  28.424  22.886  1.00  0.00     0.010 C 
BRANCH   6   8
ATOM      8  C   UNL A   1      29.299  26.217  24.122  1.00  0.00     0.002 C 
ATOM      9  C   UNL A   1      27.835  26.590  23.946  1.00  0.00     0.004 C 
ENDBRANCH   6   8
ENDBRANCH   5   6
BRANCH   5  10
ATOM     10  N   UNL A   1      32.608  26.206  24.180  1.00  0.00    -0.278 N 
ATOM     11  C   UNL A   1      32.939  25.431  25.286  1.00  0.00     0.267 C 
ATOM     12  C   UNL A   1      33.061  25.681  22.981  1.00  0.00     0.149 C 
ATOM     13  O   UNL A   1      32.418  25.425  26.390  1.00  0.00    -0.268 OA
ATOM     14  C   UNL A   1      34.047  24.510  24.964  1.00  0.00     0.081 C 
ATOM     15  S   UNL A   1      34.367  24.547  23.282  1.00  0.00    -0.054 SA
ATOM     16  S   UNL A   1      32.507  25.936  21.426  1.00  0.00    -0.052 S 
ATOM     17  C   UNL A   1      34.706  23.846  25.925  1.00  0.00     0.029 C 
BRANCH  17  18
ATOM     18  C   UNL A   1      35.967  23.170  25.635  1.00  0.00    -0.020 A 
ATOM     19  C   UNL A   1      37.201  23.715  26.039  1.00  0.00     0.012 A 
ATOM     20  C   UNL A   1      35.888  21.867  25.124  1.00  0.00     0.058 A 
ATOM     21  C   UNL A   1      38.358  22.930  26.000  1.00  0.00     0.051 A 
ATOM     22  C   UNL A   1      37.030  21.110  25.146  1.00  0.00     0.166 A 
ATOM     23  C   UNL A   1      38.228  21.619  25.585  1.00  0.00     0.165 A 
ATOM     24  O   UNL A   1      37.101  19.788  24.837  1.00  0.00    -0.454 OA
ATOM     25  O   UNL A   1      39.205  20.671  25.606  1.00  0.00    -0.454 OA
ATOM     26  C   UNL A   1      38.426  19.490  25.318  1.00  0.00     0.468 C 
ENDBRANCH  17  18
ENDBRANCH   5  10
ENDBRANCH   3   5
ENDBRANCH   2   3
ENDBRANCH   1   2
BRANCH   1  27
ATOM     27  C   UNL A   1      33.196  28.664  27.211  1.00  0.00     0.275 C 
BRANCH  27  28
ATOM     28  O   UNL A   1      34.156  29.621  26.725  1.00  0.00    -0.458 OA
BRANCH  28  29
ATOM     29  C   UNL A   1      34.493  30.591  27.604  1.00  0.00     0.338 C 
ATOM     30  O   UNL A   1      33.831  31.565  27.920  1.00  0.00    -0.246 OA
BRANCH  29  31
ATOM     31  C   UNL A   1      35.772  30.260  28.251  1.00  0.00     0.060 A 
ATOM     32  C   UNL A   1      36.953  30.428  27.521  1.00  0.00     0.016 A 
ATOM     33  C   UNL A   1      35.802  29.680  29.517  1.00  0.00     0.016 A 
ATOM     34  C   UNL A   1      38.164  29.991  28.030  1.00  0.00     0.010 A 
ATOM     35  C   UNL A   1      37.027  29.257  30.043  1.00  0.00     0.010 A 
ATOM     36  C   UNL A   1      38.208  29.394  29.291  1.00  0.00    -0.014 A 
BRANCH  36  37
ATOM     37  C   UNL A   1      39.501  28.876  29.779  1.00  0.00     0.031 A 
ATOM     38  C   UNL A   1      40.141  29.493  30.985  1.00  0.00     0.074 A 
ATOM     39  C   UNL A   1      40.053  27.811  29.173  1.00  0.00     0.049 A 
ATOM     40  N   UNL A   1      41.281  29.201  31.555  1.00  0.00    -0.248 NA
ATOM     41  C   UNL A   1      39.399  30.583  31.639  1.00  0.00     0.031 C 
ATOM     42  C   UNL A   1      39.482  27.103  28.027  1.00  0.00     0.029 A 
ATOM     43  N   UNL A   1      41.213  27.136  29.441  1.00  0.00    -0.354 N 
ATOM     44  C   UNL A   1      41.407  30.083  32.619  1.00  0.00     0.074 A 
ATOM     45  C   UNL A   1      40.233  30.929  32.610  1.00  0.00     0.031 C 
ATOM     46  C   UNL A   1      40.294  26.088  27.691  1.00  0.00     0.029 A 
ATOM     47  C   UNL A   1      41.456  26.102  28.573  1.00  0.00     0.049 A 
ATOM     48  H   UNL A   1      41.815  27.370  30.185  1.00  0.00     0.167 HD
ATOM     49  C   UNL A   1      42.412  30.173  33.520  1.00  0.00     0.037 A 
ATOM     50  C   UNL A   1      42.513  25.273  28.489  1.00  0.00     0.037 A 
ATOM     51  C   UNL A   1      43.570  29.316  33.525  1.00  0.00     0.049 A 
ATOM     52  C   UNL A   1      43.629  25.416  29.482  1.00  0.00     0.074 A 
ATOM     53  C   UNL A   1      44.648  29.323  34.393  1.00  0.00     0.029 A 
ATOM     54  N   UNL A   1      43.795  28.292  32.617  1.00  0.00    -0.354 N 
ATOM     55  N   UNL A   1      43.749  26.264  30.476  1.00  0.00    -0.248 NA
ATOM     56  C   UNL A   1      44.758  24.486  29.344  1.00  0.00     0.031 C 
ATOM     57  C   UNL A   1      45.542  28.325  33.988  1.00  0.00     0.029 A 
ATOM     58  C   UNL A   1      45.001  27.669  32.894  1.00  0.00     0.049 A 
ATOM     59  H   UNL A   1      43.188  28.045  31.882  1.00  0.00     0.167 HD
ATOM     60  C   UNL A   1      44.954  25.959  31.093  1.00  0.00     0.074 A 
ATOM     61  C   UNL A   1      45.518  24.835  30.371  1.00  0.00     0.031 C 
ATOM     62  C   UNL A   1      45.542  26.554  32.159  1.00  0.00     0.037 A 
BRANCH  49  63
ATOM     63  C   UNL A   1      42.319  31.259  34.550  1.00  0.00     0.057 A 
ATOM     64  C   UNL A   1      41.757  31.038  35.814  1.00  0.00     0.134 A 
ATOM     65  C   UNL A   1      42.813  32.540  34.276  1.00  0.00     0.134 A 
ATOM     66  F   UNL A   1      41.248  29.838  36.131  1.00  0.00    -0.206 F 
ATOM     67  C   UNL A   1      41.675  32.058  36.763  1.00  0.00     0.040 A 
ATOM     68  C   UNL A   1      42.757  33.563  35.225  1.00  0.00     0.040 A 
ATOM     69  F   UNL A   1      43.362  32.819  33.084  1.00  0.00    -0.206 F 
ATOM     70  C   UNL A   1      42.182  33.324  36.472  1.00  0.00     0.006 A 
ENDBRANCH  49  63
BRANCH  50  71
ATOM     71  C   UNL A   1      42.561  24.246  27.422  1.00  0.00     0.057 A 
ATOM     72  C   UNL A   1      43.060  24.544  26.150  1.00  0.00     0.134 A 
ATOM     73  C   UNL A   1      42.114  22.939  27.652  1.00  0.00     0.134 A 
ATOM     74  F   UNL A   1      43.485  25.783  25.864  1.00  0.00    -0.206 F 
ATOM     75  C   UNL A   1      43.103  23.582  25.139  1.00  0.00     0.040 A 
ATOM     76  C   UNL A   1      42.172  21.961  26.658  1.00  0.00     0.040 A 
ATOM     77  F   UNL A   1      41.628  22.590  28.852  1.00  0.00    -0.206 F 
ATOM     78  C   UNL A   1      42.664  22.284  25.395  1.00  0.00     0.006 A 
ENDBRANCH  50  71
BRANCH  62  79
ATOM     79  C   UNL A   1      46.848  25.977  32.616  1.00  0.00     0.057 A 
ATOM     80  C   UNL A   1      46.910  24.989  33.607  1.00  0.00     0.134 A 
ATOM     81  C   UNL A   1      48.055  26.412  32.056  1.00  0.00     0.134 A 
ATOM     82  F   UNL A   1      45.789  24.542  34.193  1.00  0.00    -0.206 F 
ATOM     83  C   UNL A   1      48.131  24.476  34.046  1.00  0.00     0.040 A 
ATOM     84  C   UNL A   1      49.280  25.890  32.470  1.00  0.00     0.040 A 
ATOM     85  F   UNL A   1      48.062  27.351  31.097  1.00  0.00    -0.206 F 
ATOM     86  C   UNL A   1      49.321  24.925  33.474  1.00  0.00     0.006 A 
ENDBRANCH  62  79
ENDBRANCH  36  37
ENDBRANCH  29  31
ENDBRANCH  28  29
ENDBRANCH  27  28
ENDBRANCH   1  27
TORSDOF 15
ENDMDL
MODEL 3
REMARK VINA RESULT:     -10.9      2.323      3.329
REMARK SMILES CC[C@@H](C)[C@H](C(=O)OCCOC(=O)c1ccc(-c2c3nc(c(-c4c(F)cccc4F)c4ccc([nH]4)c(-c4c(F)cccc4F)c4nc(c(-c5c(F)cccc5F)c5ccc2[nH]5)C=C4)C=C3)cc1)N1C(=O)/C(=C/c2ccc3c(c2)OCO3)SC1=S
REMARK SMILES IDX 9 1 8 2 6 3 7 4 5 5 3 6 4 7 2 8 1 9 68 10 69 11 83 12 70 13
REMARK SMILES IDX 71 14 82 15 84 16 72 17 73 18 74 19 78 20 75 21 77 22 76 23
REMARK SMILES IDX 79 24 81 25 80 26 10 27 11 28 12 29 13 30 14 31 15 32 67 33
REMARK SMILES IDX 16 34 66 35 17 36 18 37 19 38 60 39 20 40 65 41 59 42 61 43
REMARK SMILES IDX 21 44 64 45 58 46 57 47 22 49 48 50 31 51 47 52 32 53 35 54
REMARK SMILES IDX 46 55 62 56 33 57 34 58 45 60 63 61 36 62 23 63 24 64 29 65
REMARK SMILES IDX 25 66 26 67 28 68 30 69 27 70 49 71 50 72 55 73 51 74 52 75
REMARK SMILES IDX 54 76 56 77 53 78 37 79 38 80 43 81 39 82 40 83 42 84 44 85
REMARK SMILES IDX 41 86
REMARK H PARENT 61 48 35 59
REMARK Flexibility Score: inf
ROOT
ATOM      1  C   UNL A   1      38.167  21.156  25.266  1.00  0.00     0.274 C 
ENDROOT
BRANCH   1   2
ATOM      2  O   UNL A   1      36.900  21.114  24.579  1.00  0.00    -0.461 OA
BRANCH   2   3
ATOM      3  C   UNL A   1      35.814  21.546  25.275  1.00  0.00     0.329 C 
ATOM      4  O   UNL A   1      35.806  21.777  26.480  1.00  0.00    -0.250 OA
BRANCH   3   5
ATOM      5  C   UNL A   1      34.528  21.568  24.420  1.00  0.00     0.204 C 
BRANCH   5   6
ATOM      6  C   UNL A   1      33.641  20.271  24.583  1.00  0.00     0.020 C 
ATOM      7  C   UNL A   1      34.410  18.957  24.727  1.00  0.00     0.010 C 
BRANCH   6   8
ATOM      8  C   UNL A   1      32.574  20.217  23.467  1.00  0.00     0.002 C 
ATOM      9  C   UNL A   1      32.253  18.833  22.927  1.00  0.00     0.004 C 
ENDBRANCH   6   8
ENDBRANCH   5   6
BRANCH   5  10
ATOM     10  N   UNL A   1      33.785  22.859  24.520  1.00  0.00    -0.278 N 
ATOM     11  C   UNL A   1      33.691  23.713  23.427  1.00  0.00     0.267 C 
ATOM     12  C   UNL A   1      32.918  23.182  25.550  1.00  0.00     0.149 C 
ATOM     13  O   UNL A   1      34.042  23.510  22.275  1.00  0.00    -0.268 OA
ATOM     14  C   UNL A   1      33.037  24.980  23.810  1.00  0.00     0.081 C 
ATOM     15  S   UNL A   1      32.406  24.855  25.397  1.00  0.00    -0.054 SA
ATOM     16  S   UNL A   1      32.309  22.224  26.775  1.00  0.00    -0.052 S 
ATOM     17  C   UNL A   1      33.058  26.049  23.001  1.00  0.00     0.029 C 
BRANCH  17  18
ATOM     18  C   UNL A   1      32.669  27.367  23.496  1.00  0.00    -0.020 A 
ATOM     19  C   UNL A   1      31.384  27.891  23.256  1.00  0.00     0.012 A 
ATOM     20  C   UNL A   1      33.551  27.998  24.384  1.00  0.00     0.058 A 
ATOM     21  C   UNL A   1      30.946  29.014  23.964  1.00  0.00     0.051 A 
ATOM     22  C   UNL A   1      33.071  29.066  25.097  1.00  0.00     0.166 A 
ATOM     23  C   UNL A   1      31.800  29.553  24.905  1.00  0.00     0.165 A 
ATOM     24  O   UNL A   1      33.729  29.697  26.105  1.00  0.00    -0.454 OA
ATOM     25  O   UNL A   1      31.504  30.555  25.777  1.00  0.00    -0.454 OA
ATOM     26  C   UNL A   1      32.657  30.494  26.644  1.00  0.00     0.468 C 
ENDBRANCH  17  18
ENDBRANCH   5  10
ENDBRANCH   3   5
ENDBRANCH   2   3
ENDBRANCH   1   2
BRANCH   1  27
ATOM     27  C   UNL A   1      38.933  19.839  25.142  1.00  0.00     0.275 C 
BRANCH  27  28
ATOM     28  O   UNL A   1      39.787  19.623  26.281  1.00  0.00    -0.458 OA
BRANCH  28  29
ATOM     29  C   UNL A   1      41.112  19.716  26.030  1.00  0.00     0.338 C 
ATOM     30  O   UNL A   1      41.796  18.943  25.381  1.00  0.00    -0.246 OA
BRANCH  29  31
ATOM     31  C   UNL A   1      41.637  20.979  26.568  1.00  0.00     0.060 A 
ATOM     32  C   UNL A   1      41.421  21.272  27.917  1.00  0.00     0.016 A 
ATOM     33  C   UNL A   1      42.234  21.918  25.729  1.00  0.00     0.016 A 
ATOM     34  C   UNL A   1      41.764  22.510  28.435  1.00  0.00     0.010 A 
ATOM     35  C   UNL A   1      42.600  23.162  26.252  1.00  0.00     0.010 A 
ATOM     36  C   UNL A   1      42.348  23.467  27.602  1.00  0.00    -0.014 A 
BRANCH  36  37
ATOM     37  C   UNL A   1      42.640  24.801  28.162  1.00  0.00     0.031 A 
ATOM     38  C   UNL A   1      44.049  25.163  28.524  1.00  0.00     0.074 A 
ATOM     39  C   UNL A   1      41.645  25.698  28.277  1.00  0.00     0.049 A 
ATOM     40  N   UNL A   1      44.507  26.269  29.049  1.00  0.00    -0.248 NA
ATOM     41  C   UNL A   1      45.078  24.147  28.256  1.00  0.00     0.031 C 
ATOM     42  C   UNL A   1      40.250  25.463  27.900  1.00  0.00     0.029 A 
ATOM     43  N   UNL A   1      41.658  26.988  28.735  1.00  0.00    -0.354 N 
ATOM     44  C   UNL A   1      45.874  26.076  29.197  1.00  0.00     0.074 A 
ATOM     45  C   UNL A   1      46.169  24.743  28.718  1.00  0.00     0.031 C 
ATOM     46  C   UNL A   1      39.540  26.576  28.141  1.00  0.00     0.029 A 
ATOM     47  C   UNL A   1      40.421  27.583  28.723  1.00  0.00     0.049 A 
ATOM     48  H   UNL A   1      42.473  27.443  29.045  1.00  0.00     0.167 HD
ATOM     49  C   UNL A   1      46.794  26.938  29.689  1.00  0.00     0.037 A 
ATOM     50  C   UNL A   1      40.043  28.800  29.154  1.00  0.00     0.037 A 
ATOM     51  C   UNL A   1      46.489  28.267  30.151  1.00  0.00     0.049 A 
ATOM     52  C   UNL A   1      41.079  29.724  29.724  1.00  0.00     0.074 A 
ATOM     53  C   UNL A   1      47.347  29.222  30.669  1.00  0.00     0.029 A 
ATOM     54  N   UNL A   1      45.221  28.831  30.145  1.00  0.00    -0.354 N 
ATOM     55  N   UNL A   1      42.368  29.528  29.877  1.00  0.00    -0.248 NA
ATOM     56  C   UNL A   1      40.612  31.039  30.180  1.00  0.00     0.031 C 
ATOM     57  C   UNL A   1      46.592  30.350  31.008  1.00  0.00     0.029 A 
ATOM     58  C   UNL A   1      45.271  30.115  30.663  1.00  0.00     0.049 A 
ATOM     59  H   UNL A   1      44.406  28.384  29.821  1.00  0.00     0.167 HD
ATOM     60  C   UNL A   1      42.868  30.698  30.429  1.00  0.00     0.074 A 
ATOM     61  C   UNL A   1      41.746  31.606  30.566  1.00  0.00     0.031 C 
ATOM     62  C   UNL A   1      44.139  30.998  30.791  1.00  0.00     0.037 A 
BRANCH  49  63
ATOM     63  C   UNL A   1      48.210  26.452  29.784  1.00  0.00     0.057 A 
ATOM     64  C   UNL A   1      49.133  26.649  28.749  1.00  0.00     0.134 A 
ATOM     65  C   UNL A   1      48.658  25.793  30.935  1.00  0.00     0.134 A 
ATOM     66  F   UNL A   1      48.762  27.256  27.612  1.00  0.00    -0.206 F 
ATOM     67  C   UNL A   1      50.448  26.190  28.849  1.00  0.00     0.040 A 
ATOM     68  C   UNL A   1      49.976  25.351  31.057  1.00  0.00     0.040 A 
ATOM     69  F   UNL A   1      47.823  25.572  31.962  1.00  0.00    -0.206 F 
ATOM     70  C   UNL A   1      50.874  25.545  30.009  1.00  0.00     0.006 A 
ENDBRANCH  49  63
BRANCH  50  71
ATOM     71  C   UNL A   1      38.619  29.203  29.068  1.00  0.00     0.057 A 
ATOM     72  C   UNL A   1      37.775  29.128  30.180  1.00  0.00     0.134 A 
ATOM     73  C   UNL A   1      38.071  29.679  27.870  1.00  0.00     0.134 A 
ATOM     74  F   UNL A   1      38.238  28.661  31.349  1.00  0.00    -0.206 F 
ATOM     75  C   UNL A   1      36.432  29.501  30.103  1.00  0.00     0.040 A 
ATOM     76  C   UNL A   1      36.737  30.077  27.785  1.00  0.00     0.040 A 
ATOM     77  F   UNL A   1      38.831  29.779  26.770  1.00  0.00    -0.206 F 
ATOM     78  C   UNL A   1      35.912  29.983  28.904  1.00  0.00     0.006 A 
ENDBRANCH  50  71
BRANCH  62  79
ATOM     79  C   UNL A   1      44.377  32.371  31.342  1.00  0.00     0.057 A 
ATOM     80  C   UNL A   1      44.739  33.443  30.517  1.00  0.00     0.134 A 
ATOM     81  C   UNL A   1      44.238  32.623  32.713  1.00  0.00     0.134 A 
ATOM     82  F   UNL A   1      44.902  33.262  29.198  1.00  0.00    -0.206 F 
ATOM     83  C   UNL A   1      44.984  34.714  31.042  1.00  0.00     0.040 A 
ATOM     84  C   UNL A   1      44.457  33.893  33.245  1.00  0.00     0.040 A 
ATOM     85  F   UNL A   1      43.886  31.639  33.554  1.00  0.00    -0.206 F 
ATOM     86  C   UNL A   1      44.840  34.941  32.410  1.00  0.00     0.006 A 
ENDBRANCH  62  79
ENDBRANCH  36  37
ENDBRANCH  29  31
ENDBRANCH  28  29
ENDBRANCH  27  28
ENDBRANCH   1  27
TORSDOF 15
ENDMDL
