MODEL 1
REMARK VINA RESULT:     -10.3      0.000      0.000
REMARK SMILES [NH3+]C[C@@]1([C@@H](O)C(=O)OCCOC(=O)c2ccc(-c3c4nc(c(-c5c(F)cccc5F)c5ccc([nH]5)c(-c5c(F)cccc5F)c5nc(c(-c6c(F)cccc6F)c6ccc3[nH]6)C=C5)C=C4)cc2)CCOc2ccccc21
REMARK SMILES IDX 9 1 8 2 6 3 7 4 4 5 3 6 68 7 76 8 69 9 71 10 75 11 70 12
REMARK SMILES IDX 72 13 74 14 73 15 2 16 1 17 5 21 10 23 11 24 12 25 13 26
REMARK SMILES IDX 14 27 15 28 67 29 16 30 66 31 17 32 18 33 19 34 60 35 20 36
REMARK SMILES IDX 65 37 59 38 61 39 21 40 64 41 58 42 57 43 22 45 48 46 31 47
REMARK SMILES IDX 47 48 32 49 35 50 46 51 62 52 33 53 34 54 45 56 63 57 36 58
REMARK SMILES IDX 23 59 24 60 29 61 25 62 26 63 28 64 30 65 27 66 49 67 50 68
REMARK SMILES IDX 55 69 51 70 52 71 54 72 56 73 53 74 37 75 38 76 43 77 39 78
REMARK SMILES IDX 40 79 42 80 44 81 41 82
REMARK H PARENT 1 18 1 19 1 20 5 22 61 44 35 55
REMARK Flexibility Score: inf
ROOT
ATOM      1  C   UNL A   1      31.836  30.918  26.817  1.00  0.00     0.274 C 
ENDROOT
BRANCH   1   2
ATOM      2  O   UNL A   1      33.114  30.523  26.273  1.00  0.00    -0.460 OA
BRANCH   2   3
ATOM      3  C   UNL A   1      33.407  29.203  26.347  1.00  0.00     0.336 C 
ATOM      4  O   UNL A   1      33.739  28.628  27.383  1.00  0.00    -0.249 OA
BRANCH   3   5
ATOM      5  C   UNL A   1      33.485  28.487  24.996  1.00  0.00     0.240 C 
BRANCH   5   6
ATOM      6  C   UNL A   1      32.504  27.312  24.642  1.00  0.00     0.088 C 
ATOM      7  C   UNL A   1      31.147  27.577  25.343  1.00  0.00     0.063 C 
ATOM      8  C   UNL A   1      33.063  25.985  25.233  1.00  0.00     0.009 A 
ATOM      9  C   UNL A   1      30.327  26.308  25.457  1.00  0.00     0.231 C 
ATOM     10  C   UNL A   1      32.275  25.157  26.049  1.00  0.00     0.123 A 
ATOM     11  C   UNL A   1      34.371  25.551  24.946  1.00  0.00     0.008 A 
ATOM     12  O   UNL A   1      30.962  25.398  26.352  1.00  0.00    -0.493 OA
ATOM     13  C   UNL A   1      32.806  24.001  26.630  1.00  0.00     0.047 A 
ATOM     14  C   UNL A   1      34.898  24.389  25.514  1.00  0.00     0.001 A 
ATOM     15  C   UNL A   1      34.120  23.620  26.369  1.00  0.00     0.004 A 
BRANCH   6  16
ATOM     16  C   UNL A   1      32.332  27.062  23.106  1.00  0.00     0.274 C 
BRANCH  16  17
ATOM     17  N   UNL A   1      31.535  28.021  22.341  1.00  0.00    -0.357 N 
ATOM     18  H   UNL A   1      31.177  27.570  21.499  1.00  0.00     0.344 HD
ATOM     19  H   UNL A   1      32.118  28.816  22.080  1.00  0.00     0.344 HD
ATOM     20  H   UNL A   1      30.753  28.345  22.911  1.00  0.00     0.344 HD
ENDBRANCH  16  17
ENDBRANCH   6  16
ENDBRANCH   5   6
BRANCH   5  21
ATOM     21  O   UNL A   1      33.458  29.560  24.038  1.00  0.00    -0.380 OA
ATOM     22  H   UNL A   1      34.215  30.146  24.188  1.00  0.00     0.211 HD
ENDBRANCH   5  21
ENDBRANCH   3   5
ENDBRANCH   2   3
ENDBRANCH   1   2
BRANCH   1  23
ATOM     23  C   UNL A   1      31.694  32.435  26.891  1.00  0.00     0.275 C 
BRANCH  23  24
ATOM     24  O   UNL A   1      32.988  33.056  26.961  1.00  0.00    -0.458 OA
BRANCH  24  25
ATOM     25  C   UNL A   1      33.197  33.849  28.034  1.00  0.00     0.338 C 
ATOM     26  O   UNL A   1      32.523  34.789  28.414  1.00  0.00    -0.246 OA
BRANCH  25  27
ATOM     27  C   UNL A   1      34.378  33.366  28.758  1.00  0.00     0.060 A 
ATOM     28  C   UNL A   1      35.589  34.048  28.622  1.00  0.00     0.016 A 
ATOM     29  C   UNL A   1      34.301  32.189  29.498  1.00  0.00     0.016 A 
ATOM     30  C   UNL A   1      36.743  33.542  29.210  1.00  0.00     0.010 A 
ATOM     31  C   UNL A   1      35.451  31.702  30.120  1.00  0.00     0.010 A 
ATOM     32  C   UNL A   1      36.680  32.369  29.970  1.00  0.00    -0.014 A 
BRANCH  32  33
ATOM     33  C   UNL A   1      37.903  31.826  30.599  1.00  0.00     0.031 A 
ATOM     34  C   UNL A   1      38.701  30.772  29.892  1.00  0.00     0.074 A 
ATOM     35  C   UNL A   1      38.279  32.269  31.812  1.00  0.00     0.049 A 
ATOM     36  N   UNL A   1      39.699  30.055  30.338  1.00  0.00    -0.248 NA
ATOM     37  C   UNL A   1      38.318  30.480  28.502  1.00  0.00     0.031 C 
ATOM     38  C   UNL A   1      37.605  33.321  32.574  1.00  0.00     0.029 A 
ATOM     39  N   UNL A   1      39.311  31.876  32.622  1.00  0.00    -0.354 N 
ATOM     40  C   UNL A   1      40.046  29.205  29.297  1.00  0.00     0.074 A 
ATOM     41  C   UNL A   1      39.148  29.491  28.198  1.00  0.00     0.031 C 
ATOM     42  C   UNL A   1      38.238  33.484  33.748  1.00  0.00     0.029 A 
ATOM     43  C   UNL A   1      39.324  32.513  33.838  1.00  0.00     0.049 A 
ATOM     44  H   UNL A   1      39.980  31.203  32.359  1.00  0.00     0.167 HD
ATOM     45  C   UNL A   1      41.023  28.269  29.267  1.00  0.00     0.037 A 
ATOM     46  C   UNL A   1      40.096  32.307  34.921  1.00  0.00     0.037 A 
ATOM     47  C   UNL A   1      41.926  28.007  30.357  1.00  0.00     0.049 A 
ATOM     48  C   UNL A   1      41.145  31.234  34.877  1.00  0.00     0.074 A 
ATOM     49  C   UNL A   1      42.961  27.091  30.420  1.00  0.00     0.029 A 
ATOM     50  N   UNL A   1      41.901  28.667  31.576  1.00  0.00    -0.354 N 
ATOM     51  N   UNL A   1      41.453  30.419  33.897  1.00  0.00    -0.248 NA
ATOM     52  C   UNL A   1      41.946  31.040  36.094  1.00  0.00     0.031 C 
ATOM     53  C   UNL A   1      43.543  27.176  31.689  1.00  0.00     0.029 A 
ATOM     54  C   UNL A   1      42.893  28.169  32.404  1.00  0.00     0.049 A 
ATOM     55  H   UNL A   1      41.272  29.385  31.817  1.00  0.00     0.167 HD
ATOM     56  C   UNL A   1      42.490  29.629  34.371  1.00  0.00     0.074 A 
ATOM     57  C   UNL A   1      42.770  30.070  35.722  1.00  0.00     0.031 C 
ATOM     58  C   UNL A   1      43.153  28.625  33.745  1.00  0.00     0.037 A 
BRANCH  45  59
ATOM     59  C   UNL A   1      41.146  27.438  28.026  1.00  0.00     0.057 A 
ATOM     60  C   UNL A   1      40.456  26.230  27.871  1.00  0.00     0.134 A 
ATOM     61  C   UNL A   1      41.943  27.871  26.959  1.00  0.00     0.134 A 
ATOM     62  F   UNL A   1      39.689  25.754  28.864  1.00  0.00    -0.206 F 
ATOM     63  C   UNL A   1      40.566  25.474  26.704  1.00  0.00     0.040 A 
ATOM     64  C   UNL A   1      42.046  27.134  25.779  1.00  0.00     0.040 A 
ATOM     65  F   UNL A   1      42.629  29.020  27.045  1.00  0.00    -0.206 F 
ATOM     66  C   UNL A   1      41.358  25.928  25.650  1.00  0.00     0.006 A 
ENDBRANCH  45  59
BRANCH  46  67
ATOM     67  C   UNL A   1      39.881  33.114  36.146  1.00  0.00     0.057 A 
ATOM     68  C   UNL A   1      38.951  32.723  37.113  1.00  0.00     0.134 A 
ATOM     69  C   UNL A   1      40.603  34.291  36.378  1.00  0.00     0.134 A 
ATOM     70  F   UNL A   1      38.214  31.617  36.934  1.00  0.00    -0.206 F 
ATOM     71  C   UNL A   1      38.738  33.479  38.267  1.00  0.00     0.040 A 
ATOM     72  C   UNL A   1      40.417  35.044  37.537  1.00  0.00     0.040 A 
ATOM     73  F   UNL A   1      41.511  34.715  35.487  1.00  0.00    -0.206 F 
ATOM     74  C   UNL A   1      39.477  34.641  38.483  1.00  0.00     0.006 A 
ENDBRANCH  46  67
BRANCH  58  75
ATOM     75  C   UNL A   1      44.255  27.959  34.510  1.00  0.00     0.057 A 
ATOM     76  C   UNL A   1      44.025  26.813  35.280  1.00  0.00     0.134 A 
ATOM     77  C   UNL A   1      45.564  28.452  34.449  1.00  0.00     0.134 A 
ATOM     78  F   UNL A   1      42.790  26.303  35.388  1.00  0.00    -0.206 F 
ATOM     79  C   UNL A   1      45.060  26.189  35.979  1.00  0.00     0.040 A 
ATOM     80  C   UNL A   1      46.609  27.826  35.128  1.00  0.00     0.040 A 
ATOM     81  F   UNL A   1      45.847  29.544  33.723  1.00  0.00    -0.206 F 
ATOM     82  C   UNL A   1      46.357  26.692  35.900  1.00  0.00     0.006 A 
ENDBRANCH  58  75
ENDBRANCH  32  33
ENDBRANCH  25  27
ENDBRANCH  24  25
ENDBRANCH  23  24
ENDBRANCH   1  23
TORSDOF 15
ENDMDL
MODEL 2
REMARK VINA RESULT:     -10.2      0.532      1.813
REMARK SMILES [NH3+]C[C@@]1([C@@H](O)C(=O)OCCOC(=O)c2ccc(-c3c4nc(c(-c5c(F)cccc5F)c5ccc([nH]5)c(-c5c(F)cccc5F)c5nc(c(-c6c(F)cccc6F)c6ccc3[nH]6)C=C5)C=C4)cc2)CCOc2ccccc21
REMARK SMILES IDX 9 1 8 2 6 3 7 4 4 5 3 6 68 7 76 8 69 9 71 10 75 11 70 12
REMARK SMILES IDX 72 13 74 14 73 15 2 16 1 17 5 21 10 23 11 24 12 25 13 26
REMARK SMILES IDX 14 27 15 28 67 29 16 30 66 31 17 32 18 33 19 34 60 35 20 36
REMARK SMILES IDX 65 37 59 38 61 39 21 40 64 41 58 42 57 43 22 45 48 46 31 47
REMARK SMILES IDX 47 48 32 49 35 50 46 51 62 52 33 53 34 54 45 56 63 57 36 58
REMARK SMILES IDX 23 59 24 60 29 61 25 62 26 63 28 64 30 65 27 66 49 67 50 68
REMARK SMILES IDX 55 69 51 70 52 71 54 72 56 73 53 74 37 75 38 76 43 77 39 78
REMARK SMILES IDX 40 79 42 80 44 81 41 82
REMARK H PARENT 1 18 1 19 1 20 5 22 61 44 35 55
REMARK Flexibility Score: inf
ROOT
ATOM      1  C   UNL A   1      31.558  30.773  26.296  1.00  0.00     0.274 C 
ENDROOT
BRANCH   1   2
ATOM      2  O   UNL A   1      32.909  30.430  25.920  1.00  0.00    -0.460 OA
BRANCH   2   3
ATOM      3  C   UNL A   1      33.272  29.141  26.124  1.00  0.00     0.336 C 
ATOM      4  O   UNL A   1      33.526  28.664  27.229  1.00  0.00    -0.249 OA
BRANCH   3   5
ATOM      5  C   UNL A   1      33.536  28.340  24.845  1.00  0.00     0.240 C 
BRANCH   5   6
ATOM      6  C   UNL A   1      32.570  27.184  24.398  1.00  0.00     0.088 C 
ATOM      7  C   UNL A   1      31.143  27.514  24.904  1.00  0.00     0.063 C 
ATOM      8  C   UNL A   1      32.999  25.861  25.097  1.00  0.00     0.009 A 
ATOM      9  C   UNL A   1      30.271  26.275  24.944  1.00  0.00     0.231 C 
ATOM     10  C   UNL A   1      32.082  25.086  25.824  1.00  0.00     0.123 A 
ATOM     11  C   UNL A   1      34.319  25.379  25.000  1.00  0.00     0.008 A 
ATOM     12  O   UNL A   1      30.750  25.377  25.942  1.00  0.00    -0.493 OA
ATOM     13  C   UNL A   1      32.492  23.934  26.504  1.00  0.00     0.047 A 
ATOM     14  C   UNL A   1      34.725  24.221  25.667  1.00  0.00     0.001 A 
ATOM     15  C   UNL A   1      33.814  23.505  26.432  1.00  0.00     0.004 A 
BRANCH   6  16
ATOM     16  C   UNL A   1      32.594  26.889  22.861  1.00  0.00     0.274 C 
BRANCH  16  17
ATOM     17  N   UNL A   1      31.610  27.567  22.017  1.00  0.00    -0.357 N 
ATOM     18  H   UNL A   1      32.066  27.908  21.171  1.00  0.00     0.344 HD
ATOM     19  H   UNL A   1      31.207  28.352  22.528  1.00  0.00     0.344 HD
ATOM     20  H   UNL A   1      30.870  26.911  21.763  1.00  0.00     0.344 HD
ENDBRANCH  16  17
ENDBRANCH   6  16
ENDBRANCH   5   6
BRANCH   5  21
ATOM     21  O   UNL A   1      33.718  29.352  23.839  1.00  0.00    -0.380 OA
ATOM     22  H   UNL A   1      33.996  28.935  23.009  1.00  0.00     0.211 HD
ENDBRANCH   5  21
ENDBRANCH   3   5
ENDBRANCH   2   3
ENDBRANCH   1   2
BRANCH   1  23
ATOM     23  C   UNL A   1      31.469  32.181  26.877  1.00  0.00     0.275 C 
BRANCH  23  24
ATOM     24  O   UNL A   1      32.730  32.857  26.744  1.00  0.00    -0.458 OA
BRANCH  24  25
ATOM     25  C   UNL A   1      33.102  33.610  27.802  1.00  0.00     0.338 C 
ATOM     26  O   UNL A   1      32.527  34.572  28.277  1.00  0.00    -0.246 OA
BRANCH  25  27
ATOM     27  C   UNL A   1      34.330  33.047  28.376  1.00  0.00     0.060 A 
ATOM     28  C   UNL A   1      34.324  31.733  28.849  1.00  0.00     0.016 A 
ATOM     29  C   UNL A   1      35.456  33.853  28.525  1.00  0.00     0.016 A 
ATOM     30  C   UNL A   1      35.442  31.221  29.497  1.00  0.00     0.010 A 
ATOM     31  C   UNL A   1      36.591  33.327  29.140  1.00  0.00     0.010 A 
ATOM     32  C   UNL A   1      36.587  32.012  29.640  1.00  0.00    -0.014 A 
BRANCH  32  33
ATOM     33  C   UNL A   1      37.781  31.473  30.327  1.00  0.00     0.031 A 
ATOM     34  C   UNL A   1      38.671  30.497  29.619  1.00  0.00     0.074 A 
ATOM     35  C   UNL A   1      38.046  31.848  31.590  1.00  0.00     0.049 A 
ATOM     36  N   UNL A   1      39.662  29.789  30.095  1.00  0.00    -0.248 NA
ATOM     37  C   UNL A   1      38.406  30.283  28.188  1.00  0.00     0.031 C 
ATOM     38  C   UNL A   1      37.275  32.824  32.363  1.00  0.00     0.029 A 
ATOM     39  N   UNL A   1      39.030  31.440  32.452  1.00  0.00    -0.354 N 
ATOM     40  C   UNL A   1      40.119  29.022  29.032  1.00  0.00     0.074 A 
ATOM     41  C   UNL A   1      39.296  29.347  27.887  1.00  0.00     0.031 C 
ATOM     42  C   UNL A   1      37.811  32.932  33.589  1.00  0.00     0.029 A 
ATOM     43  C   UNL A   1      38.925  31.996  33.703  1.00  0.00     0.049 A 
ATOM     44  H   UNL A   1      39.743  30.811  32.199  1.00  0.00     0.167 HD
ATOM     45  C   UNL A   1      41.134  28.125  29.020  1.00  0.00     0.037 A 
ATOM     46  C   UNL A   1      39.622  31.748  34.827  1.00  0.00     0.037 A 
ATOM     47  C   UNL A   1      41.962  27.825  30.158  1.00  0.00     0.049 A 
ATOM     48  C   UNL A   1      40.714  30.718  34.797  1.00  0.00     0.074 A 
ATOM     49  C   UNL A   1      43.026  26.944  30.243  1.00  0.00     0.029 A 
ATOM     50  N   UNL A   1      41.819  28.402  31.410  1.00  0.00    -0.354 N 
ATOM     51  N   UNL A   1      41.128  29.981  33.795  1.00  0.00    -0.248 NA
ATOM     52  C   UNL A   1      41.429  30.474  36.057  1.00  0.00     0.031 C 
ATOM     53  C   UNL A   1      43.507  26.966  31.556  1.00  0.00     0.029 A 
ATOM     54  C   UNL A   1      42.765  27.887  32.280  1.00  0.00     0.049 A 
ATOM     55  H   UNL A   1      41.145  29.080  31.646  1.00  0.00     0.167 HD
ATOM     56  C   UNL A   1      42.158  29.199  34.297  1.00  0.00     0.074 A 
ATOM     57  C   UNL A   1      42.317  29.560  35.690  1.00  0.00     0.031 C 
ATOM     58  C   UNL A   1      42.906  28.263  33.663  1.00  0.00     0.037 A 
BRANCH  45  59
ATOM     59  C   UNL A   1      41.383  27.382  27.742  1.00  0.00     0.057 A 
ATOM     60  C   UNL A   1      42.247  27.872  26.757  1.00  0.00     0.134 A 
ATOM     61  C   UNL A   1      40.771  26.144  27.512  1.00  0.00     0.134 A 
ATOM     62  F   UNL A   1      42.851  29.060  26.912  1.00  0.00    -0.206 F 
ATOM     63  C   UNL A   1      42.484  27.162  25.579  1.00  0.00     0.040 A 
ATOM     64  C   UNL A   1      41.015  25.415  26.347  1.00  0.00     0.040 A 
ATOM     65  F   UNL A   1      39.933  25.619  28.418  1.00  0.00    -0.206 F 
ATOM     66  C   UNL A   1      41.872  25.927  25.373  1.00  0.00     0.006 A 
ENDBRANCH  45  59
BRANCH  46  67
ATOM     67  C   UNL A   1      39.283  32.464  36.079  1.00  0.00     0.057 A 
ATOM     68  C   UNL A   1      39.865  33.697  36.386  1.00  0.00     0.134 A 
ATOM     69  C   UNL A   1      38.365  31.933  36.994  1.00  0.00     0.134 A 
ATOM     70  F   UNL A   1      40.766  34.244  35.558  1.00  0.00    -0.206 F 
ATOM     71  C   UNL A   1      39.554  34.377  37.565  1.00  0.00     0.040 A 
ATOM     72  C   UNL A   1      38.028  32.612  38.166  1.00  0.00     0.040 A 
ATOM     73  F   UNL A   1      37.772  30.756  36.753  1.00  0.00    -0.206 F 
ATOM     74  C   UNL A   1      38.628  33.835  38.456  1.00  0.00     0.006 A 
ENDBRANCH  46  67
BRANCH  58  75
ATOM     75  C   UNL A   1      43.974  27.588  34.467  1.00  0.00     0.057 A 
ATOM     76  C   UNL A   1      45.254  28.139  34.597  1.00  0.00     0.134 A 
ATOM     77  C   UNL A   1      43.708  26.390  35.140  1.00  0.00     0.134 A 
ATOM     78  F   UNL A   1      45.572  29.277  33.964  1.00  0.00    -0.206 F 
ATOM     79  C   UNL A   1      46.240  27.511  35.359  1.00  0.00     0.040 A 
ATOM     80  C   UNL A   1      44.681  25.763  35.920  1.00  0.00     0.040 A 
ATOM     81  F   UNL A   1      42.499  25.816  35.057  1.00  0.00    -0.206 F 
ATOM     82  C   UNL A   1      45.953  26.323  36.027  1.00  0.00     0.006 A 
ENDBRANCH  58  75
ENDBRANCH  32  33
ENDBRANCH  25  27
ENDBRANCH  24  25
ENDBRANCH  23  24
ENDBRANCH   1  23
TORSDOF 15
ENDMDL
MODEL 3
REMARK VINA RESULT:     -10.2      4.658      9.180
REMARK SMILES [NH3+]C[C@@]1([C@@H](O)C(=O)OCCOC(=O)c2ccc(-c3c4nc(c(-c5c(F)cccc5F)c5ccc([nH]5)c(-c5c(F)cccc5F)c5nc(c(-c6c(F)cccc6F)c6ccc3[nH]6)C=C5)C=C4)cc2)CCOc2ccccc21
REMARK SMILES IDX 9 1 8 2 6 3 7 4 4 5 3 6 68 7 76 8 69 9 71 10 75 11 70 12
REMARK SMILES IDX 72 13 74 14 73 15 2 16 1 17 5 21 10 23 11 24 12 25 13 26
REMARK SMILES IDX 14 27 15 28 67 29 16 30 66 31 17 32 18 33 19 34 60 35 20 36
REMARK SMILES IDX 65 37 59 38 61 39 21 40 64 41 58 42 57 43 22 45 48 46 31 47
REMARK SMILES IDX 47 48 32 49 35 50 46 51 62 52 33 53 34 54 45 56 63 57 36 58
REMARK SMILES IDX 23 59 24 60 29 61 25 62 26 63 28 64 30 65 27 66 49 67 50 68
REMARK SMILES IDX 55 69 51 70 52 71 54 72 56 73 53 74 37 75 38 76 43 77 39 78
REMARK SMILES IDX 40 79 42 80 44 81 41 82
REMARK H PARENT 1 18 1 19 1 20 5 22 61 44 35 55
REMARK Flexibility Score: inf
ROOT
ATOM      1  C   UNL A   1      38.522  21.450  25.721  1.00  0.00     0.274 C 
ENDROOT
BRANCH   1   2
ATOM      2  O   UNL A   1      37.452  21.833  24.832  1.00  0.00    -0.460 OA
BRANCH   2   3
ATOM      3  C   UNL A   1      36.196  21.576  25.271  1.00  0.00     0.336 C 
ATOM      4  O   UNL A   1      35.687  20.457  25.284  1.00  0.00    -0.249 OA
BRANCH   3   5
ATOM      5  C   UNL A   1      35.360  22.821  25.583  1.00  0.00     0.240 C 
BRANCH   5   6
ATOM      6  C   UNL A   1      34.072  23.163  24.750  1.00  0.00     0.088 C 
ATOM      7  C   UNL A   1      34.283  22.669  23.296  1.00  0.00     0.063 C 
ATOM      8  C   UNL A   1      33.906  24.709  24.680  1.00  0.00     0.009 A 
ATOM      9  C   UNL A   1      33.335  23.360  22.336  1.00  0.00     0.231 C 
ATOM     10  C   UNL A   1      33.744  25.374  23.454  1.00  0.00     0.123 A 
ATOM     11  C   UNL A   1      33.881  25.494  25.848  1.00  0.00     0.008 A 
ATOM     12  O   UNL A   1      33.664  24.743  22.241  1.00  0.00    -0.493 OA
ATOM     13  C   UNL A   1      33.662  26.768  23.396  1.00  0.00     0.047 A 
ATOM     14  C   UNL A   1      33.785  26.887  25.792  1.00  0.00     0.001 A 
ATOM     15  C   UNL A   1      33.689  27.527  24.563  1.00  0.00     0.004 A 
BRANCH   6  16
ATOM     16  C   UNL A   1      32.745  22.613  25.370  1.00  0.00     0.274 C 
BRANCH  16  17
ATOM     17  N   UNL A   1      32.760  21.264  25.938  1.00  0.00    -0.357 N 
ATOM     18  H   UNL A   1      33.181  21.291  26.867  1.00  0.00     0.344 HD
ATOM     19  H   UNL A   1      33.305  20.648  25.335  1.00  0.00     0.344 HD
ATOM     20  H   UNL A   1      31.804  20.913  26.008  1.00  0.00     0.344 HD
ENDBRANCH  16  17
ENDBRANCH   6  16
ENDBRANCH   5   6
BRANCH   5  21
ATOM     21  O   UNL A   1      35.115  22.723  26.997  1.00  0.00    -0.380 OA
ATOM     22  H   UNL A   1      35.950  22.833  27.478  1.00  0.00     0.211 HD
ENDBRANCH   5  21
ENDBRANCH   3   5
ENDBRANCH   2   3
ENDBRANCH   1   2
BRANCH   1  23
ATOM     23  C   UNL A   1      39.181  20.143  25.288  1.00  0.00     0.275 C 
BRANCH  23  24
ATOM     24  O   UNL A   1      40.133  19.712  26.275  1.00  0.00    -0.458 OA
BRANCH  24  25
ATOM     25  C   UNL A   1      41.431  19.898  25.953  1.00  0.00     0.338 C 
ATOM     26  O   UNL A   1      42.138  19.197  25.251  1.00  0.00    -0.246 OA
BRANCH  25  27
ATOM     27  C   UNL A   1      41.891  21.160  26.544  1.00  0.00     0.060 A 
ATOM     28  C   UNL A   1      41.858  21.316  27.931  1.00  0.00     0.016 A 
ATOM     29  C   UNL A   1      42.267  22.214  25.716  1.00  0.00     0.016 A 
ATOM     30  C   UNL A   1      42.183  22.541  28.502  1.00  0.00     0.010 A 
ATOM     31  C   UNL A   1      42.630  23.432  26.291  1.00  0.00     0.010 A 
ATOM     32  C   UNL A   1      42.579  23.606  27.685  1.00  0.00    -0.014 A 
BRANCH  32  33
ATOM     33  C   UNL A   1      42.927  24.912  28.286  1.00  0.00     0.031 A 
ATOM     34  C   UNL A   1      41.855  25.934  28.522  1.00  0.00     0.074 A 
ATOM     35  C   UNL A   1      44.207  25.181  28.595  1.00  0.00     0.049 A 
ATOM     36  N   UNL A   1      41.973  27.185  28.880  1.00  0.00    -0.248 NA
ATOM     37  C   UNL A   1      40.467  25.489  28.321  1.00  0.00     0.031 C 
ATOM     38  C   UNL A   1      45.326  24.248  28.449  1.00  0.00     0.029 A 
ATOM     39  N   UNL A   1      44.784  26.324  29.082  1.00  0.00    -0.354 N 
ATOM     40  C   UNL A   1      40.681  27.689  28.917  1.00  0.00     0.074 A 
ATOM     41  C   UNL A   1      39.793  26.610  28.541  1.00  0.00     0.031 C 
ATOM     42  C   UNL A   1      46.458  24.862  28.831  1.00  0.00     0.029 A 
ATOM     43  C   UNL A   1      46.150  26.241  29.194  1.00  0.00     0.049 A 
ATOM     44  H   UNL A   1      44.270  27.127  29.329  1.00  0.00     0.167 HD
ATOM     45  C   UNL A   1      40.277  28.942  29.234  1.00  0.00     0.037 A 
ATOM     46  C   UNL A   1      47.056  27.184  29.514  1.00  0.00     0.037 A 
ATOM     47  C   UNL A   1      41.165  30.003  29.629  1.00  0.00     0.049 A 
ATOM     48  C   UNL A   1      46.585  28.576  29.819  1.00  0.00     0.074 A 
ATOM     49  C   UNL A   1      40.852  31.303  29.986  1.00  0.00     0.029 A 
ATOM     50  N   UNL A   1      42.543  29.883  29.723  1.00  0.00    -0.354 N 
ATOM     51  N   UNL A   1      45.363  29.051  29.832  1.00  0.00    -0.248 NA
ATOM     52  C   UNL A   1      47.619  29.569  30.142  1.00  0.00     0.031 C 
ATOM     53  C   UNL A   1      42.045  31.978  30.266  1.00  0.00     0.029 A 
ATOM     54  C   UNL A   1      43.098  31.088  30.117  1.00  0.00     0.049 A 
ATOM     55  H   UNL A   1      43.052  29.060  29.537  1.00  0.00     0.167 HD
ATOM     56  C   UNL A   1      45.479  30.390  30.178  1.00  0.00     0.074 A 
ATOM     57  C   UNL A   1      46.889  30.650  30.380  1.00  0.00     0.031 C 
ATOM     58  C   UNL A   1      44.505  31.323  30.314  1.00  0.00     0.037 A 
BRANCH  45  59
ATOM     59  C   UNL A   1      38.811  29.240  29.135  1.00  0.00     0.057 A 
ATOM     60  C   UNL A   1      38.203  29.575  27.920  1.00  0.00     0.134 A 
ATOM     61  C   UNL A   1      37.994  29.160  30.270  1.00  0.00     0.134 A 
ATOM     62  F   UNL A   1      38.935  29.683  26.801  1.00  0.00    -0.206 F 
ATOM     63  C   UNL A   1      36.834  29.834  27.838  1.00  0.00     0.040 A 
ATOM     64  C   UNL A   1      36.621  29.398  30.198  1.00  0.00     0.040 A 
ATOM     65  F   UNL A   1      38.516  28.844  31.464  1.00  0.00    -0.206 F 
ATOM     66  C   UNL A   1      36.037  29.740  28.979  1.00  0.00     0.006 A 
ENDBRANCH  45  59
BRANCH  46  67
ATOM     67  C   UNL A   1      48.499  26.846  29.526  1.00  0.00     0.057 A 
ATOM     68  C   UNL A   1      49.105  26.308  30.664  1.00  0.00     0.134 A 
ATOM     69  C   UNL A   1      49.303  27.050  28.397  1.00  0.00     0.134 A 
ATOM     70  F   UNL A   1      48.390  26.111  31.781  1.00  0.00    -0.206 F 
ATOM     71  C   UNL A   1      50.464  25.991  30.686  1.00  0.00     0.040 A 
ATOM     72  C   UNL A   1      50.657  26.718  28.397  1.00  0.00     0.040 A 
ATOM     73  F   UNL A   1      48.778  27.561  27.275  1.00  0.00    -0.206 F 
ATOM     74  C   UNL A   1      51.243  26.191  29.547  1.00  0.00     0.006 A 
ENDBRANCH  46  67
BRANCH  58  75
ATOM     75  C   UNL A   1      44.934  32.698  30.723  1.00  0.00     0.057 A 
ATOM     76  C   UNL A   1      45.217  33.690  29.777  1.00  0.00     0.134 A 
ATOM     77  C   UNL A   1      45.036  33.040  32.076  1.00  0.00     0.134 A 
ATOM     78  F   UNL A   1      45.151  33.418  28.465  1.00  0.00    -0.206 F 
ATOM     79  C   UNL A   1      45.605  34.974  30.164  1.00  0.00     0.040 A 
ATOM     80  C   UNL A   1      45.403  34.325  32.476  1.00  0.00     0.040 A 
ATOM     81  F   UNL A   1      44.773  32.134  33.029  1.00  0.00    -0.206 F 
ATOM     82  C   UNL A   1      45.693  35.296  31.517  1.00  0.00     0.006 A 
ENDBRANCH  58  75
ENDBRANCH  32  33
ENDBRANCH  25  27
ENDBRANCH  24  25
ENDBRANCH  23  24
ENDBRANCH   1  23
TORSDOF 15
ENDMDL
