MODEL 1
REMARK VINA RESULT:     -12.1      0.000      0.000
REMARK SMILES C[C@@H](Oc1ccccc1Cl)C(=O)Nc1ccc(C(=O)OCCOC(=O)c2ccc(-c3c4nc(c(-c5c(F)cccc5F)c5ccc([nH]5)c(-c5c(F)cccc5F)c5nc(c(-c6c(F)cccc6F)c6ccc3[nH]6)C=C5)C=C4)cc2)cc1
REMARK SMILES IDX 21 1 20 2 18 3 19 4 17 5 14 6 15 7 81 8 16 9 80 10 13 11
REMARK SMILES IDX 11 12 12 13 2 15 1 16 3 17 4 18 5 19 9 20 6 21 8 22 10 23
REMARK SMILES IDX 7 24 22 25 23 26 24 27 25 28 26 29 27 30 79 31 28 32 78 33
REMARK SMILES IDX 29 34 30 35 31 36 72 37 32 38 77 39 71 40 73 41 33 42 76 43
REMARK SMILES IDX 70 44 69 45 34 47 60 48 43 49 59 50 44 51 47 52 58 53 74 54
REMARK SMILES IDX 45 55 46 56 57 58 75 59 48 60 35 61 36 62 41 63 37 64 38 65
REMARK SMILES IDX 40 66 42 67 39 68 61 69 62 70 67 71 63 72 64 73 66 74 68 75
REMARK SMILES IDX 65 76 49 77 50 78 55 79 51 80 52 81 54 82 56 83 53 84
REMARK H PARENT 13 14 73 46 47 57
REMARK Flexibility Score: inf
ROOT
ATOM      1  C   UNL A   1      42.456  20.647  26.397  1.00  0.00     0.275 C 
ENDROOT
BRANCH   1   2
ATOM      2  O   UNL A   1      41.112  20.814  25.909  1.00  0.00    -0.458 OA
BRANCH   2   3
ATOM      3  C   UNL A   1      40.235  21.344  26.795  1.00  0.00     0.338 C 
ATOM      4  O   UNL A   1      40.403  21.450  28.002  1.00  0.00    -0.246 OA
BRANCH   3   5
ATOM      5  C   UNL A   1      39.028  21.878  26.114  1.00  0.00     0.060 A 
ATOM      6  C   UNL A   1      36.926  22.808  24.552  1.00  0.00     0.041 A 
ATOM      7  C   UNL A   1      37.179  21.440  24.600  1.00  0.00     0.027 A 
ATOM      8  C   UNL A   1      37.619  23.694  25.378  1.00  0.00     0.027 A 
ATOM      9  C   UNL A   1      38.262  20.986  25.345  1.00  0.00     0.018 A 
ATOM     10  C   UNL A   1      38.666  23.227  26.175  1.00  0.00     0.018 A 
BRANCH   6  11
ATOM     11  N   UNL A   1      36.077  23.276  23.548  1.00  0.00    -0.323 N 
ATOM     12  C   UNL A   1      34.880  23.917  23.773  1.00  0.00     0.265 C 
ATOM     13  O   UNL A   1      34.348  24.485  22.810  1.00  0.00    -0.270 OA
ATOM     14  H   UNL A   1      36.354  23.137  22.614  1.00  0.00     0.170 HD
BRANCH  12  15
ATOM     15  C   UNL A   1      34.186  23.932  25.163  1.00  0.00     0.259 C 
ATOM     16  C   UNL A   1      34.045  25.378  25.629  1.00  0.00     0.064 C 
BRANCH  15  17
ATOM     17  O   UNL A   1      32.924  23.262  25.193  1.00  0.00    -0.479 OA
BRANCH  17  18
ATOM     18  C   UNL A   1      32.958  21.936  24.867  1.00  0.00     0.139 A 
ATOM     19  C   UNL A   1      32.376  21.508  23.672  1.00  0.00     0.048 A 
ATOM     20  C   UNL A   1      33.436  20.991  25.783  1.00  0.00     0.083 A 
ATOM     21  C   UNL A   1      32.326  20.146  23.369  1.00  0.00     0.004 A 
ATOM     22  C   UNL A   1      33.393  19.630  25.473  1.00  0.00     0.024 A 
ATOM     23  Cl  UNL A   1      34.086  21.450  27.315  1.00  0.00    -0.080 Cl
ATOM     24  C   UNL A   1      32.842  19.208  24.263  1.00  0.00     0.002 A 
ENDBRANCH  17  18
ENDBRANCH  15  17
ENDBRANCH  12  15
ENDBRANCH   6  11
ENDBRANCH   3   5
ENDBRANCH   2   3
ENDBRANCH   1   2
BRANCH   1  25
ATOM     25  C   UNL A   1      43.432  21.498  25.587  1.00  0.00     0.275 C 
BRANCH  25  26
ATOM     26  O   UNL A   1      42.756  22.640  25.028  1.00  0.00    -0.458 OA
BRANCH  26  27
ATOM     27  C   UNL A   1      43.460  23.796  25.029  1.00  0.00     0.338 C 
ATOM     28  O   UNL A   1      44.428  24.082  24.347  1.00  0.00    -0.246 OA
BRANCH  27  29
ATOM     29  C   UNL A   1      42.853  24.744  25.975  1.00  0.00     0.060 A 
ATOM     30  C   UNL A   1      43.280  26.068  25.960  1.00  0.00     0.016 A 
ATOM     31  C   UNL A   1      41.985  24.302  26.970  1.00  0.00     0.016 A 
ATOM     32  C   UNL A   1      42.908  26.944  26.976  1.00  0.00     0.010 A 
ATOM     33  C   UNL A   1      41.542  25.204  27.945  1.00  0.00     0.010 A 
ATOM     34  C   UNL A   1      42.025  26.526  27.980  1.00  0.00    -0.014 A 
BRANCH  34  35
ATOM     35  C   UNL A   1      41.657  27.453  29.087  1.00  0.00     0.031 A 
ATOM     36  C   UNL A   1      42.456  27.456  30.365  1.00  0.00     0.074 A 
ATOM     37  C   UNL A   1      40.625  28.310  28.953  1.00  0.00     0.049 A 
ATOM     38  N   UNL A   1      42.196  28.046  31.505  1.00  0.00    -0.248 NA
ATOM     39  C   UNL A   1      43.707  26.681  30.363  1.00  0.00     0.031 C 
ATOM     40  C   UNL A   1      39.796  28.462  27.756  1.00  0.00     0.029 A 
ATOM     41  N   UNL A   1      40.101  29.224  29.835  1.00  0.00    -0.354 N 
ATOM     42  C   UNL A   1      43.215  27.664  32.370  1.00  0.00     0.074 A 
ATOM     43  C   UNL A   1      44.098  26.793  31.624  1.00  0.00     0.031 C 
ATOM     44  C   UNL A   1      38.892  29.431  27.966  1.00  0.00     0.029 A 
ATOM     45  C   UNL A   1      39.017  29.907  29.339  1.00  0.00     0.049 A 
ATOM     46  H   UNL A   1      40.466  29.374  30.737  1.00  0.00     0.167 HD
ATOM     47  C   UNL A   1      43.395  28.009  33.668  1.00  0.00     0.037 A 
ATOM     48  C   UNL A   1      38.185  30.786  29.931  1.00  0.00     0.037 A 
ATOM     49  C   UNL A   1      42.550  28.924  34.391  1.00  0.00     0.049 A 
ATOM     50  C   UNL A   1      38.386  31.129  31.379  1.00  0.00     0.074 A 
ATOM     51  C   UNL A   1      42.662  29.349  35.704  1.00  0.00     0.029 A 
ATOM     52  N   UNL A   1      41.446  29.570  33.856  1.00  0.00    -0.354 N 
ATOM     53  N   UNL A   1      39.316  30.714  32.205  1.00  0.00    -0.248 NA
ATOM     54  C   UNL A   1      37.409  32.045  31.983  1.00  0.00     0.031 C 
ATOM     55  C   UNL A   1      41.607  30.225  35.973  1.00  0.00     0.029 A 
ATOM     56  C   UNL A   1      40.862  30.380  34.816  1.00  0.00     0.049 A 
ATOM     57  H   UNL A   1      41.125  29.467  32.931  1.00  0.00     0.167 HD
ATOM     58  C   UNL A   1      39.043  31.325  33.421  1.00  0.00     0.074 A 
ATOM     59  C   UNL A   1      37.873  32.155  33.220  1.00  0.00     0.031 C 
ATOM     60  C   UNL A   1      39.699  31.203  34.601  1.00  0.00     0.037 A 
BRANCH  47  61
ATOM     61  C   UNL A   1      44.532  27.361  34.405  1.00  0.00     0.057 A 
ATOM     62  C   UNL A   1      45.795  27.958  34.507  1.00  0.00     0.134 A 
ATOM     63  C   UNL A   1      44.345  26.133  35.052  1.00  0.00     0.134 A 
ATOM     64  F   UNL A   1      46.044  29.128  33.899  1.00  0.00    -0.206 F 
ATOM     65  C   UNL A   1      46.837  27.343  35.203  1.00  0.00     0.040 A 
ATOM     66  C   UNL A   1      45.371  25.521  35.773  1.00  0.00     0.040 A 
ATOM     67  F   UNL A   1      43.157  25.510  35.001  1.00  0.00    -0.206 F 
ATOM     68  C   UNL A   1      46.624  26.124  35.845  1.00  0.00     0.006 A 
ENDBRANCH  47  61
BRANCH  48  69
ATOM     69  C   UNL A   1      37.055  31.366  29.163  1.00  0.00     0.057 A 
ATOM     70  C   UNL A   1      35.908  30.614  28.882  1.00  0.00     0.134 A 
ATOM     71  C   UNL A   1      37.090  32.685  28.696  1.00  0.00     0.134 A 
ATOM     72  F   UNL A   1      35.825  29.335  29.279  1.00  0.00    -0.206 F 
ATOM     73  C   UNL A   1      34.840  31.151  28.162  1.00  0.00     0.040 A 
ATOM     74  C   UNL A   1      36.019  33.245  28.000  1.00  0.00     0.040 A 
ATOM     75  F   UNL A   1      38.161  33.458  28.931  1.00  0.00    -0.206 F 
ATOM     76  C   UNL A   1      34.891  32.475  27.726  1.00  0.00     0.006 A 
ENDBRANCH  48  69
BRANCH  60  77
ATOM     77  C   UNL A   1      39.183  32.008  35.755  1.00  0.00     0.057 A 
ATOM     78  C   UNL A   1      39.599  33.325  35.979  1.00  0.00     0.134 A 
ATOM     79  C   UNL A   1      38.238  31.468  36.636  1.00  0.00     0.134 A 
ATOM     80  F   UNL A   1      40.514  33.896  35.180  1.00  0.00    -0.206 F 
ATOM     81  C   UNL A   1      39.110  34.072  37.052  1.00  0.00     0.040 A 
ATOM     82  C   UNL A   1      37.723  32.211  37.699  1.00  0.00     0.040 A 
ATOM     83  F   UNL A   1      37.793  30.213  36.472  1.00  0.00    -0.206 F 
ATOM     84  C   UNL A   1      38.164  33.516  37.913  1.00  0.00     0.006 A 
ENDBRANCH  60  77
ENDBRANCH  34  35
ENDBRANCH  27  29
ENDBRANCH  26  27
ENDBRANCH  25  26
ENDBRANCH   1  25
TORSDOF 15
ENDMDL
MODEL 2
REMARK VINA RESULT:     -11.6      3.917      7.892
REMARK SMILES C[C@@H](Oc1ccccc1Cl)C(=O)Nc1ccc(C(=O)OCCOC(=O)c2ccc(-c3c4nc(c(-c5c(F)cccc5F)c5ccc([nH]5)c(-c5c(F)cccc5F)c5nc(c(-c6c(F)cccc6F)c6ccc3[nH]6)C=C5)C=C4)cc2)cc1
REMARK SMILES IDX 21 1 20 2 18 3 19 4 17 5 14 6 15 7 81 8 16 9 80 10 13 11
REMARK SMILES IDX 11 12 12 13 2 15 1 16 3 17 4 18 5 19 9 20 6 21 8 22 10 23
REMARK SMILES IDX 7 24 22 25 23 26 24 27 25 28 26 29 27 30 79 31 28 32 78 33
REMARK SMILES IDX 29 34 30 35 31 36 72 37 32 38 77 39 71 40 73 41 33 42 76 43
REMARK SMILES IDX 70 44 69 45 34 47 60 48 43 49 59 50 44 51 47 52 58 53 74 54
REMARK SMILES IDX 45 55 46 56 57 58 75 59 48 60 35 61 36 62 41 63 37 64 38 65
REMARK SMILES IDX 40 66 42 67 39 68 61 69 62 70 67 71 63 72 64 73 66 74 68 75
REMARK SMILES IDX 65 76 49 77 50 78 55 79 51 80 52 81 54 82 56 83 53 84
REMARK H PARENT 13 14 73 46 47 57
REMARK Flexibility Score: inf
ROOT
ATOM      1  C   UNL A   1      34.747  20.658  25.180  1.00  0.00     0.275 C 
ENDROOT
BRANCH   1   2
ATOM      2  O   UNL A   1      34.255  21.477  24.103  1.00  0.00    -0.458 OA
BRANCH   2   3
ATOM      3  C   UNL A   1      32.918  21.414  23.890  1.00  0.00     0.338 C 
ATOM      4  O   UNL A   1      32.182  20.487  24.195  1.00  0.00    -0.246 OA
BRANCH   3   5
ATOM      5  C   UNL A   1      32.402  22.672  23.294  1.00  0.00     0.060 A 
ATOM      6  C   UNL A   1      31.640  25.188  22.389  1.00  0.00     0.041 A 
ATOM      7  C   UNL A   1      32.913  24.716  22.084  1.00  0.00     0.027 A 
ATOM      8  C   UNL A   1      30.703  24.365  23.018  1.00  0.00     0.027 A 
ATOM      9  C   UNL A   1      33.306  23.477  22.581  1.00  0.00     0.018 A 
ATOM     10  C   UNL A   1      31.080  23.095  23.460  1.00  0.00     0.018 A 
BRANCH   6  11
ATOM     11  N   UNL A   1      31.385  26.545  22.191  1.00  0.00    -0.323 N 
ATOM     12  C   UNL A   1      32.100  27.567  22.772  1.00  0.00     0.265 C 
ATOM     13  O   UNL A   1      31.923  28.710  22.330  1.00  0.00    -0.270 OA
ATOM     14  H   UNL A   1      30.642  26.788  21.593  1.00  0.00     0.170 HD
BRANCH  12  15
ATOM     15  C   UNL A   1      33.084  27.336  23.952  1.00  0.00     0.259 C 
ATOM     16  C   UNL A   1      34.080  28.490  23.998  1.00  0.00     0.064 C 
BRANCH  15  17
ATOM     17  O   UNL A   1      32.446  27.164  25.219  1.00  0.00    -0.479 OA
BRANCH  17  18
ATOM     18  C   UNL A   1      32.651  25.953  25.818  1.00  0.00     0.139 A 
ATOM     19  C   UNL A   1      33.927  25.386  25.798  1.00  0.00     0.048 A 
ATOM     20  C   UNL A   1      31.570  25.214  26.316  1.00  0.00     0.083 A 
ATOM     21  C   UNL A   1      34.131  24.109  26.328  1.00  0.00     0.004 A 
ATOM     22  C   UNL A   1      31.779  23.942  26.853  1.00  0.00     0.024 A 
ATOM     23  Cl  UNL A   1      29.956  25.824  26.287  1.00  0.00    -0.080 Cl
ATOM     24  C   UNL A   1      33.061  23.392  26.863  1.00  0.00     0.002 A 
ENDBRANCH  17  18
ENDBRANCH  15  17
ENDBRANCH  12  15
ENDBRANCH   6  11
ENDBRANCH   3   5
ENDBRANCH   2   3
ENDBRANCH   1   2
BRANCH   1  25
ATOM     25  C   UNL A   1      36.235  20.366  24.997  1.00  0.00     0.275 C 
BRANCH  25  26
ATOM     26  O   UNL A   1      37.027  21.446  25.527  1.00  0.00    -0.458 OA
BRANCH  26  27
ATOM     27  C   UNL A   1      38.332  21.163  25.745  1.00  0.00     0.338 C 
ATOM     28  O   UNL A   1      38.937  20.149  25.445  1.00  0.00    -0.246 OA
BRANCH  27  29
ATOM     29  C   UNL A   1      38.988  22.313  26.384  1.00  0.00     0.060 A 
ATOM     30  C   UNL A   1      38.496  23.590  26.129  1.00  0.00     0.016 A 
ATOM     31  C   UNL A   1      40.170  22.151  27.102  1.00  0.00     0.016 A 
ATOM     32  C   UNL A   1      39.214  24.716  26.521  1.00  0.00     0.010 A 
ATOM     33  C   UNL A   1      40.849  23.283  27.571  1.00  0.00     0.010 A 
ATOM     34  C   UNL A   1      40.398  24.578  27.256  1.00  0.00    -0.014 A 
BRANCH  34  35
ATOM     35  C   UNL A   1      41.185  25.784  27.642  1.00  0.00     0.031 A 
ATOM     36  C   UNL A   1      40.561  26.845  28.512  1.00  0.00     0.074 A 
ATOM     37  C   UNL A   1      42.463  25.929  27.240  1.00  0.00     0.049 A 
ATOM     38  N   UNL A   1      41.005  28.041  28.808  1.00  0.00    -0.248 NA
ATOM     39  C   UNL A   1      39.260  26.522  29.116  1.00  0.00     0.031 C 
ATOM     40  C   UNL A   1      43.218  24.961  26.443  1.00  0.00     0.029 A 
ATOM     41  N   UNL A   1      43.358  26.950  27.452  1.00  0.00    -0.354 N 
ATOM     42  C   UNL A   1      40.012  28.633  29.580  1.00  0.00     0.074 A 
ATOM     43  C   UNL A   1      38.943  27.665  29.708  1.00  0.00     0.031 C 
ATOM     44  C   UNL A   1      44.467  25.417  26.263  1.00  0.00     0.029 A 
ATOM     45  C   UNL A   1      44.577  26.746  26.852  1.00  0.00     0.049 A 
ATOM     46  H   UNL A   1      43.145  27.751  27.983  1.00  0.00     0.167 HD
ATOM     47  C   UNL A   1      39.994  29.871  30.130  1.00  0.00     0.037 A 
ATOM     48  C   UNL A   1      45.650  27.554  26.744  1.00  0.00     0.037 A 
ATOM     49  C   UNL A   1      41.083  30.810  30.053  1.00  0.00     0.049 A 
ATOM     50  C   UNL A   1      45.595  28.933  27.336  1.00  0.00     0.074 A 
ATOM     51  C   UNL A   1      41.166  32.083  30.594  1.00  0.00     0.029 A 
ATOM     52  N   UNL A   1      42.288  30.572  29.410  1.00  0.00    -0.354 N 
ATOM     53  N   UNL A   1      44.628  29.505  28.010  1.00  0.00    -0.248 NA
ATOM     54  C   UNL A   1      46.774  29.787  27.132  1.00  0.00     0.031 C 
ATOM     55  C   UNL A   1      42.407  32.626  30.249  1.00  0.00     0.029 A 
ATOM     56  C   UNL A   1      43.114  31.677  29.530  1.00  0.00     0.049 A 
ATOM     57  H   UNL A   1      42.520  29.740  28.938  1.00  0.00     0.167 HD
ATOM     58  C   UNL A   1      45.083  30.779  28.319  1.00  0.00     0.074 A 
ATOM     59  C   UNL A   1      46.421  30.890  27.777  1.00  0.00     0.031 C 
ATOM     60  C   UNL A   1      44.445  31.772  28.987  1.00  0.00     0.037 A 
BRANCH  47  61
ATOM     61  C   UNL A   1      38.738  30.299  30.833  1.00  0.00     0.057 A 
ATOM     62  C   UNL A   1      38.533  30.078  32.201  1.00  0.00     0.134 A 
ATOM     63  C   UNL A   1      37.730  30.973  30.131  1.00  0.00     0.134 A 
ATOM     64  F   UNL A   1      39.452  29.426  32.929  1.00  0.00    -0.206 F 
ATOM     65  C   UNL A   1      37.361  30.490  32.838  1.00  0.00     0.040 A 
ATOM     66  C   UNL A   1      36.566  31.413  30.762  1.00  0.00     0.040 A 
ATOM     67  F   UNL A   1      37.865  31.223  28.819  1.00  0.00    -0.206 F 
ATOM     68  C   UNL A   1      36.377  31.166  32.119  1.00  0.00     0.006 A 
ENDBRANCH  47  61
BRANCH  48  69
ATOM     69  C   UNL A   1      46.851  27.091  26.004  1.00  0.00     0.057 A 
ATOM     70  C   UNL A   1      47.852  26.347  26.641  1.00  0.00     0.134 A 
ATOM     71  C   UNL A   1      47.025  27.374  24.644  1.00  0.00     0.134 A 
ATOM     72  F   UNL A   1      47.756  26.067  27.949  1.00  0.00    -0.206 F 
ATOM     73  C   UNL A   1      48.984  25.907  25.953  1.00  0.00     0.040 A 
ATOM     74  C   UNL A   1      48.137  26.916  23.937  1.00  0.00     0.040 A 
ATOM     75  F   UNL A   1      46.102  28.083  23.977  1.00  0.00    -0.206 F 
ATOM     76  C   UNL A   1      49.123  26.184  24.594  1.00  0.00     0.006 A 
ENDBRANCH  48  69
BRANCH  60  77
ATOM     77  C   UNL A   1      45.200  33.050  29.192  1.00  0.00     0.057 A 
ATOM     78  C   UNL A   1      45.104  34.116  28.291  1.00  0.00     0.134 A 
ATOM     79  C   UNL A   1      46.013  33.225  30.320  1.00  0.00     0.134 A 
ATOM     80  F   UNL A   1      44.354  34.006  27.183  1.00  0.00    -0.206 F 
ATOM     81  C   UNL A   1      45.805  35.306  28.492  1.00  0.00     0.040 A 
ATOM     82  C   UNL A   1      46.701  34.418  30.544  1.00  0.00     0.040 A 
ATOM     83  F   UNL A   1      46.142  32.244  31.225  1.00  0.00    -0.206 F 
ATOM     84  C   UNL A   1      46.603  35.461  29.625  1.00  0.00     0.006 A 
ENDBRANCH  60  77
ENDBRANCH  34  35
ENDBRANCH  27  29
ENDBRANCH  26  27
ENDBRANCH  25  26
ENDBRANCH   1  25
TORSDOF 15
ENDMDL
MODEL 3
REMARK VINA RESULT:     -11.6      5.146     10.105
REMARK SMILES C[C@@H](Oc1ccccc1Cl)C(=O)Nc1ccc(C(=O)OCCOC(=O)c2ccc(-c3c4nc(c(-c5c(F)cccc5F)c5ccc([nH]5)c(-c5c(F)cccc5F)c5nc(c(-c6c(F)cccc6F)c6ccc3[nH]6)C=C5)C=C4)cc2)cc1
REMARK SMILES IDX 21 1 20 2 18 3 19 4 17 5 14 6 15 7 81 8 16 9 80 10 13 11
REMARK SMILES IDX 11 12 12 13 2 15 1 16 3 17 4 18 5 19 9 20 6 21 8 22 10 23
REMARK SMILES IDX 7 24 22 25 23 26 24 27 25 28 26 29 27 30 79 31 28 32 78 33
REMARK SMILES IDX 29 34 30 35 31 36 72 37 32 38 77 39 71 40 73 41 33 42 76 43
REMARK SMILES IDX 70 44 69 45 34 47 60 48 43 49 59 50 44 51 47 52 58 53 74 54
REMARK SMILES IDX 45 55 46 56 57 58 75 59 48 60 35 61 36 62 41 63 37 64 38 65
REMARK SMILES IDX 40 66 42 67 39 68 61 69 62 70 67 71 63 72 64 73 66 74 68 75
REMARK SMILES IDX 65 76 49 77 50 78 55 79 51 80 52 81 54 82 56 83 53 84
REMARK H PARENT 13 14 73 46 47 57
REMARK Flexibility Score: inf
ROOT
ATOM      1  C   UNL A   1      34.179  34.057  29.380  1.00  0.00     0.275 C 
ENDROOT
BRANCH   1   2
ATOM      2  O   UNL A   1      33.549  32.912  28.776  1.00  0.00    -0.458 OA
BRANCH   2   3
ATOM      3  C   UNL A   1      34.273  32.292  27.814  1.00  0.00     0.338 C 
ATOM      4  O   UNL A   1      35.269  32.736  27.260  1.00  0.00    -0.246 OA
BRANCH   3   5
ATOM      5  C   UNL A   1      33.759  30.925  27.542  1.00  0.00     0.060 A 
ATOM      6  C   UNL A   1      32.987  28.373  26.755  1.00  0.00     0.041 A 
ATOM      7  C   UNL A   1      34.285  28.575  27.217  1.00  0.00     0.027 A 
ATOM      8  C   UNL A   1      32.039  29.397  26.814  1.00  0.00     0.027 A 
ATOM      9  C   UNL A   1      34.679  29.864  27.563  1.00  0.00     0.018 A 
ATOM     10  C   UNL A   1      32.421  30.676  27.222  1.00  0.00     0.018 A 
BRANCH   6  11
ATOM     11  N   UNL A   1      32.712  27.176  26.094  1.00  0.00    -0.323 N 
ATOM     12  C   UNL A   1      32.491  27.063  24.741  1.00  0.00     0.265 C 
ATOM     13  O   UNL A   1      32.495  25.924  24.255  1.00  0.00    -0.270 OA
ATOM     14  H   UNL A   1      32.673  26.354  26.635  1.00  0.00     0.170 HD
BRANCH  12  15
ATOM     15  C   UNL A   1      32.225  28.294  23.830  1.00  0.00     0.259 C 
ATOM     16  C   UNL A   1      33.560  28.942  23.473  1.00  0.00     0.064 C 
BRANCH  15  17
ATOM     17  O   UNL A   1      31.473  27.998  22.653  1.00  0.00    -0.479 OA
BRANCH  17  18
ATOM     18  C   UNL A   1      30.264  28.628  22.558  1.00  0.00     0.139 A 
ATOM     19  C   UNL A   1      30.207  29.931  22.058  1.00  0.00     0.048 A 
ATOM     20  C   UNL A   1      29.111  28.038  23.090  1.00  0.00     0.083 A 
ATOM     21  C   UNL A   1      28.992  30.618  22.037  1.00  0.00     0.004 A 
ATOM     22  C   UNL A   1      27.895  28.724  23.060  1.00  0.00     0.024 A 
ATOM     23  Cl  UNL A   1      29.134  26.466  23.802  1.00  0.00    -0.080 Cl
ATOM     24  C   UNL A   1      27.835  30.012  22.529  1.00  0.00     0.002 A 
ENDBRANCH  17  18
ENDBRANCH  15  17
ENDBRANCH  12  15
ENDBRANCH   6  11
ENDBRANCH   3   5
ENDBRANCH   2   3
ENDBRANCH   1   2
BRANCH   1  25
ATOM     25  C   UNL A   1      34.376  33.834  30.879  1.00  0.00     0.275 C 
BRANCH  25  26
ATOM     26  O   UNL A   1      34.552  32.432  31.158  1.00  0.00    -0.458 OA
BRANCH  26  27
ATOM     27  C   UNL A   1      35.501  32.132  32.074  1.00  0.00     0.338 C 
ATOM     28  O   UNL A   1      35.485  32.362  33.270  1.00  0.00    -0.246 OA
BRANCH  27  29
ATOM     29  C   UNL A   1      36.603  31.405  31.426  1.00  0.00     0.060 A 
ATOM     30  C   UNL A   1      37.503  30.706  32.223  1.00  0.00     0.016 A 
ATOM     31  C   UNL A   1      36.837  31.537  30.059  1.00  0.00     0.016 A 
ATOM     32  C   UNL A   1      38.681  30.199  31.683  1.00  0.00     0.010 A 
ATOM     33  C   UNL A   1      37.980  30.953  29.499  1.00  0.00     0.010 A 
ATOM     34  C   UNL A   1      38.932  30.307  30.310  1.00  0.00    -0.014 A 
BRANCH  34  35
ATOM     35  C   UNL A   1      40.211  29.796  29.739  1.00  0.00     0.031 A 
ATOM     36  C   UNL A   1      41.404  30.708  29.626  1.00  0.00     0.074 A 
ATOM     37  C   UNL A   1      40.322  28.513  29.340  1.00  0.00     0.049 A 
ATOM     38  N   UNL A   1      42.539  30.517  29.001  1.00  0.00    -0.248 NA
ATOM     39  C   UNL A   1      41.301  32.015  30.295  1.00  0.00     0.031 C 
ATOM     40  C   UNL A   1      39.272  27.498  29.439  1.00  0.00     0.029 A 
ATOM     41  N   UNL A   1      41.378  27.841  28.773  1.00  0.00    -0.354 N 
ATOM     42  C   UNL A   1      43.257  31.699  29.148  1.00  0.00     0.074 A 
ATOM     43  C   UNL A   1      42.431  32.600  29.923  1.00  0.00     0.031 C 
ATOM     44  C   UNL A   1      39.745  26.328  28.983  1.00  0.00     0.029 A 
ATOM     45  C   UNL A   1      41.098  26.528  28.476  1.00  0.00     0.049 A 
ATOM     46  H   UNL A   1      42.251  28.259  28.596  1.00  0.00     0.167 HD
ATOM     47  C   UNL A   1      44.491  32.002  28.679  1.00  0.00     0.037 A 
ATOM     48  C   UNL A   1      41.826  25.599  27.828  1.00  0.00     0.037 A 
ATOM     49  C   UNL A   1      45.336  31.083  27.961  1.00  0.00     0.049 A 
ATOM     50  C   UNL A   1      43.179  25.968  27.290  1.00  0.00     0.074 A 
ATOM     51  C   UNL A   1      46.610  31.293  27.460  1.00  0.00     0.029 A 
ATOM     52  N   UNL A   1      44.999  29.773  27.657  1.00  0.00    -0.354 N 
ATOM     53  N   UNL A   1      43.822  27.106  27.381  1.00  0.00    -0.248 NA
ATOM     54  C   UNL A   1      43.898  24.929  26.539  1.00  0.00     0.031 C 
ATOM     55  C   UNL A   1      47.030  30.121  26.824  1.00  0.00     0.029 A 
ATOM     56  C   UNL A   1      46.036  29.167  26.966  1.00  0.00     0.049 A 
ATOM     57  H   UNL A   1      44.149  29.338  27.898  1.00  0.00     0.167 HD
ATOM     58  C   UNL A   1      45.023  26.919  26.710  1.00  0.00     0.074 A 
ATOM     59  C   UNL A   1      45.028  25.551  26.235  1.00  0.00     0.031 C 
ATOM     60  C   UNL A   1      46.028  27.804  26.501  1.00  0.00     0.037 A 
BRANCH  47  61
ATOM     61  C   UNL A   1      44.989  33.402  28.894  1.00  0.00     0.057 A 
ATOM     62  C   UNL A   1      44.693  34.446  28.009  1.00  0.00     0.134 A 
ATOM     63  C   UNL A   1      45.751  33.714  30.027  1.00  0.00     0.134 A 
ATOM     64  F   UNL A   1      43.979  34.213  26.897  1.00  0.00    -0.206 F 
ATOM     65  C   UNL A   1      45.159  35.744  28.230  1.00  0.00     0.040 A 
ATOM     66  C   UNL A   1      46.200  35.012  30.273  1.00  0.00     0.040 A 
ATOM     67  F   UNL A   1      46.065  32.762  30.920  1.00  0.00    -0.206 F 
ATOM     68  C   UNL A   1      45.909  36.031  29.369  1.00  0.00     0.006 A 
ENDBRANCH  47  61
BRANCH  48  69
ATOM     69  C   UNL A   1      41.267  24.241  27.612  1.00  0.00     0.057 A 
ATOM     70  C   UNL A   1      40.267  24.012  26.659  1.00  0.00     0.134 A 
ATOM     71  C   UNL A   1      41.721  23.139  28.346  1.00  0.00     0.134 A 
ATOM     72  F   UNL A   1      39.772  25.032  25.942  1.00  0.00    -0.206 F 
ATOM     73  C   UNL A   1      39.737  22.739  26.448  1.00  0.00     0.040 A 
ATOM     74  C   UNL A   1      41.221  21.856  28.127  1.00  0.00     0.040 A 
ATOM     75  F   UNL A   1      42.677  23.292  29.275  1.00  0.00    -0.206 F 
ATOM     76  C   UNL A   1      40.221  21.654  27.178  1.00  0.00     0.006 A 
ENDBRANCH  48  69
BRANCH  60  77
ATOM     77  C   UNL A   1      47.227  27.308  25.751  1.00  0.00     0.057 A 
ATOM     78  C   UNL A   1      48.252  26.597  26.385  1.00  0.00     0.134 A 
ATOM     79  C   UNL A   1      47.345  27.524  24.372  1.00  0.00     0.134 A 
ATOM     80  F   UNL A   1      48.206  26.371  27.707  1.00  0.00    -0.206 F 
ATOM     81  C   UNL A   1      49.363  26.133  25.679  1.00  0.00     0.040 A 
ATOM     82  C   UNL A   1      48.439  27.046  23.650  1.00  0.00     0.040 A 
ATOM     83  F   UNL A   1      46.394  28.194  23.703  1.00  0.00    -0.206 F 
ATOM     84  C   UNL A   1      49.455  26.353  24.305  1.00  0.00     0.006 A 
ENDBRANCH  60  77
ENDBRANCH  34  35
ENDBRANCH  27  29
ENDBRANCH  26  27
ENDBRANCH  25  26
ENDBRANCH   1  25
TORSDOF 15
ENDMDL
