MODEL 1
REMARK VINA RESULT:     -12.2      0.000      0.000
REMARK SMILES COc1ccc(C(=O)Nc2ccccc2C(=O)N[C@@H](C(=O)OCCOC(=O)c2ccc(-c3c4nc(c(-c5c(F)cccc5F)c5ccc([nH]5)c(-c5c(F)cccc5F)c5nc(c(-c6c(F)cccc6F)c6ccc3[nH]6)C=C5)C=C4)cc2)C(C)C)cc1
REMARK SMILES IDX 22 1 20 2 21 3 19 4 18 5 16 6 17 7 15 9 10 10 11 11 12 12
REMARK SMILES IDX 14 13 13 14 9 15 7 16 8 17 6 19 3 20 4 21 86 22 5 23 85 24
REMARK SMILES IDX 2 25 1 26 82 27 83 28 84 29 23 30 24 31 25 32 26 33 27 34
REMARK SMILES IDX 28 35 29 36 81 37 30 38 80 39 31 40 32 41 33 42 74 43 34 44
REMARK SMILES IDX 79 45 73 46 75 47 35 48 78 49 72 50 71 51 36 53 62 54 45 55
REMARK SMILES IDX 61 56 46 57 49 58 60 59 76 60 47 61 48 62 59 64 77 65 50 66
REMARK SMILES IDX 37 67 38 68 43 69 39 70 40 71 42 72 44 73 41 74 63 75 64 76
REMARK SMILES IDX 69 77 65 78 66 79 68 80 70 81 67 82 51 83 52 84 57 85 53 86
REMARK SMILES IDX 54 87 56 88 58 89 55 90
REMARK H PARENT 18 8 9 18 75 52 49 63
REMARK Flexibility Score: inf
ROOT
ATOM      1  O   UNL A   1      32.158  28.521  23.385  1.00  0.00    -0.461 OA
ENDROOT
BRANCH   1   2
ATOM      2  C   UNL A   1      32.878  27.486  22.864  1.00  0.00     0.329 C 
ATOM      3  O   UNL A   1      33.671  27.604  21.935  1.00  0.00    -0.250 OA
BRANCH   2   4
ATOM      4  C   UNL A   1      32.665  26.143  23.628  1.00  0.00     0.195 C 
BRANCH   4   5
ATOM      5  N   UNL A   1      32.872  25.013  22.711  1.00  0.00    -0.338 N 
ATOM      6  C   UNL A   1      33.786  23.983  22.668  1.00  0.00     0.254 C 
ATOM      7  O   UNL A   1      33.913  23.433  21.569  1.00  0.00    -0.269 OA
ATOM      8  H   UNL A   1      32.219  24.985  21.974  1.00  0.00     0.164 HD
BRANCH   6   9
ATOM      9  C   UNL A   1      34.641  23.501  23.801  1.00  0.00     0.063 A 
ATOM     10  C   UNL A   1      34.281  23.361  25.147  1.00  0.00     0.054 A 
ATOM     11  C   UNL A   1      35.264  23.143  26.129  1.00  0.00     0.027 A 
ATOM     12  C   UNL A   1      36.565  22.814  25.766  1.00  0.00     0.002 A 
ATOM     13  C   UNL A   1      35.958  23.128  23.454  1.00  0.00     0.016 A 
ATOM     14  C   UNL A   1      36.897  22.749  24.420  1.00  0.00     0.001 A 
BRANCH  10  15
ATOM     15  N   UNL A   1      32.973  23.227  25.632  1.00  0.00    -0.321 N 
ATOM     16  C   UNL A   1      32.192  22.094  25.569  1.00  0.00     0.255 C 
ATOM     17  O   UNL A   1      31.180  22.026  26.264  1.00  0.00    -0.269 OA
ATOM     18  H   UNL A   1      32.574  24.019  26.061  1.00  0.00     0.170 HD
BRANCH  16  19
ATOM     19  C   UNL A   1      32.590  20.908  24.786  1.00  0.00     0.040 A 
ATOM     20  C   UNL A   1      32.931  18.496  23.450  1.00  0.00     0.118 A 
ATOM     21  C   UNL A   1      32.316  19.549  22.794  1.00  0.00     0.047 A 
ATOM     22  C   UNL A   1      33.459  18.664  24.734  1.00  0.00     0.047 A 
ATOM     23  C   UNL A   1      32.128  20.740  23.478  1.00  0.00     0.017 A 
ATOM     24  C   UNL A   1      33.282  19.873  25.411  1.00  0.00     0.017 A 
BRANCH  20  25
ATOM     25  O   UNL A   1      32.968  17.295  22.799  1.00  0.00    -0.497 OA
ATOM     26  C   UNL A   1      33.928  16.435  23.415  1.00  0.00     0.278 C 
ENDBRANCH  20  25
ENDBRANCH  16  19
ENDBRANCH  10  15
ENDBRANCH   6   9
ENDBRANCH   4   5
BRANCH   4  27
ATOM     27  C   UNL A   1      31.227  26.180  24.242  1.00  0.00     0.017 C 
ATOM     28  C   UNL A   1      30.181  25.140  23.850  1.00  0.00     0.010 C 
ATOM     29  C   UNL A   1      31.256  26.252  25.774  1.00  0.00     0.010 C 
ENDBRANCH   4  27
ENDBRANCH   2   4
ENDBRANCH   1   2
BRANCH   1  30
ATOM     30  C   UNL A   1      32.807  29.302  24.414  1.00  0.00     0.274 C 
BRANCH  30  31
ATOM     31  C   UNL A   1      31.767  29.899  25.360  1.00  0.00     0.275 C 
BRANCH  31  32
ATOM     32  O   UNL A   1      32.316  29.942  26.690  1.00  0.00    -0.458 OA
BRANCH  32  33
ATOM     33  C   UNL A   1      32.864  31.122  27.069  1.00  0.00     0.338 C 
ATOM     34  O   UNL A   1      32.296  32.193  27.183  1.00  0.00    -0.246 OA
BRANCH  33  35
ATOM     35  C   UNL A   1      34.284  30.928  27.446  1.00  0.00     0.060 A 
ATOM     36  C   UNL A   1      34.773  29.643  27.630  1.00  0.00     0.016 A 
ATOM     37  C   UNL A   1      35.080  32.012  27.806  1.00  0.00     0.016 A 
ATOM     38  C   UNL A   1      35.934  29.440  28.380  1.00  0.00     0.010 A 
ATOM     39  C   UNL A   1      36.343  31.794  28.382  1.00  0.00     0.010 A 
ATOM     40  C   UNL A   1      36.764  30.503  28.753  1.00  0.00    -0.014 A 
BRANCH  40  41
ATOM     41  C   UNL A   1      38.014  30.287  29.563  1.00  0.00     0.031 A 
ATOM     42  C   UNL A   1      39.177  29.516  28.973  1.00  0.00     0.074 A 
ATOM     43  C   UNL A   1      38.175  30.786  30.809  1.00  0.00     0.049 A 
ATOM     44  N   UNL A   1      40.173  28.918  29.578  1.00  0.00    -0.248 NA
ATOM     45  C   UNL A   1      39.210  29.386  27.507  1.00  0.00     0.031 C 
ATOM     46  C   UNL A   1      37.235  31.650  31.524  1.00  0.00     0.029 A 
ATOM     47  N   UNL A   1      39.217  30.644  31.700  1.00  0.00    -0.354 N 
ATOM     48  C   UNL A   1      40.882  28.252  28.583  1.00  0.00     0.074 A 
ATOM     49  C   UNL A   1      40.217  28.543  27.331  1.00  0.00     0.031 C 
ATOM     50  C   UNL A   1      37.775  32.032  32.689  1.00  0.00     0.029 A 
ATOM     51  C   UNL A   1      39.021  31.308  32.890  1.00  0.00     0.049 A 
ATOM     52  H   UNL A   1      40.025  30.117  31.504  1.00  0.00     0.167 HD
ATOM     53  C   UNL A   1      41.975  27.458  28.705  1.00  0.00     0.037 A 
ATOM     54  C   UNL A   1      39.707  31.281  34.048  1.00  0.00     0.037 A 
ATOM     55  C   UNL A   1      42.698  27.253  29.934  1.00  0.00     0.049 A 
ATOM     56  C   UNL A   1      40.870  30.346  34.195  1.00  0.00     0.074 A 
ATOM     57  C   UNL A   1      43.809  26.459  30.166  1.00  0.00     0.029 A 
ATOM     58  N   UNL A   1      42.403  27.881  31.134  1.00  0.00    -0.354 N 
ATOM     59  N   UNL A   1      41.428  29.574  33.296  1.00  0.00    -0.248 NA
ATOM     60  C   UNL A   1      41.463  30.237  35.536  1.00  0.00     0.031 C 
ATOM     61  C   UNL A   1      44.167  26.586  31.513  1.00  0.00     0.029 A 
ATOM     62  C   UNL A   1      43.303  27.487  32.110  1.00  0.00     0.049 A 
ATOM     63  H   UNL A   1      41.661  28.515  31.272  1.00  0.00     0.167 HD
ATOM     64  C   UNL A   1      42.438  28.890  33.958  1.00  0.00     0.074 A 
ATOM     65  C   UNL A   1      42.429  29.353  35.331  1.00  0.00     0.031 C 
ATOM     66  C   UNL A   1      43.289  27.955  33.473  1.00  0.00     0.037 A 
BRANCH  53  67
ATOM     67  C   UNL A   1      42.412  26.695  27.486  1.00  0.00     0.057 A 
ATOM     68  C   UNL A   1      43.264  27.237  26.516  1.00  0.00     0.134 A 
ATOM     69  C   UNL A   1      41.962  25.382  27.287  1.00  0.00     0.134 A 
ATOM     70  F   UNL A   1      43.720  28.492  26.637  1.00  0.00    -0.206 F 
ATOM     71  C   UNL A   1      43.620  26.514  25.374  1.00  0.00     0.040 A 
ATOM     72  C   UNL A   1      42.333  24.640  26.165  1.00  0.00     0.040 A 
ATOM     73  F   UNL A   1      41.152  24.797  28.183  1.00  0.00    -0.206 F 
ATOM     74  C   UNL A   1      43.157  25.211  25.198  1.00  0.00     0.006 A 
ENDBRANCH  53  67
BRANCH  54  75
ATOM     75  C   UNL A   1      39.248  32.104  35.199  1.00  0.00     0.057 A 
ATOM     76  C   UNL A   1      39.683  33.425  35.356  1.00  0.00     0.134 A 
ATOM     77  C   UNL A   1      38.359  31.600  36.157  1.00  0.00     0.134 A 
ATOM     78  F   UNL A   1      40.560  33.954  34.491  1.00  0.00    -0.206 F 
ATOM     79  C   UNL A   1      39.243  34.217  36.418  1.00  0.00     0.040 A 
ATOM     80  C   UNL A   1      37.887  32.390  37.206  1.00  0.00     0.040 A 
ATOM     81  F   UNL A   1      37.910  30.339  36.068  1.00  0.00    -0.206 F 
ATOM     82  C   UNL A   1      38.332  33.703  37.339  1.00  0.00     0.006 A 
ENDBRANCH  54  75
BRANCH  66  83
ATOM     83  C   UNL A   1      44.303  27.397  34.424  1.00  0.00     0.057 A 
ATOM     84  C   UNL A   1      45.541  28.019  34.629  1.00  0.00     0.134 A 
ATOM     85  C   UNL A   1      44.032  26.235  35.156  1.00  0.00     0.134 A 
ATOM     86  F   UNL A   1      45.868  29.125  33.943  1.00  0.00    -0.206 F 
ATOM     87  C   UNL A   1      46.481  27.494  35.517  1.00  0.00     0.040 A 
ATOM     88  C   UNL A   1      44.955  25.712  36.062  1.00  0.00     0.040 A 
ATOM     89  F   UNL A   1      42.863  25.593  35.006  1.00  0.00    -0.206 F 
ATOM     90  C   UNL A   1      46.186  26.340  36.241  1.00  0.00     0.006 A 
ENDBRANCH  66  83
ENDBRANCH  40  41
ENDBRANCH  33  35
ENDBRANCH  32  33
ENDBRANCH  31  32
ENDBRANCH  30  31
ENDBRANCH   1  30
TORSDOF 17
ENDMDL
MODEL 2
REMARK VINA RESULT:     -12.2      1.461      2.616
REMARK SMILES COc1ccc(C(=O)Nc2ccccc2C(=O)N[C@@H](C(=O)OCCOC(=O)c2ccc(-c3c4nc(c(-c5c(F)cccc5F)c5ccc([nH]5)c(-c5c(F)cccc5F)c5nc(c(-c6c(F)cccc6F)c6ccc3[nH]6)C=C5)C=C4)cc2)C(C)C)cc1
REMARK SMILES IDX 22 1 20 2 21 3 19 4 18 5 16 6 17 7 15 9 10 10 11 11 12 12
REMARK SMILES IDX 14 13 13 14 9 15 7 16 8 17 6 19 3 20 4 21 86 22 5 23 85 24
REMARK SMILES IDX 2 25 1 26 82 27 83 28 84 29 23 30 24 31 25 32 26 33 27 34
REMARK SMILES IDX 28 35 29 36 81 37 30 38 80 39 31 40 32 41 33 42 74 43 34 44
REMARK SMILES IDX 79 45 73 46 75 47 35 48 78 49 72 50 71 51 36 53 62 54 45 55
REMARK SMILES IDX 61 56 46 57 49 58 60 59 76 60 47 61 48 62 59 64 77 65 50 66
REMARK SMILES IDX 37 67 38 68 43 69 39 70 40 71 42 72 44 73 41 74 63 75 64 76
REMARK SMILES IDX 69 77 65 78 66 79 68 80 70 81 67 82 51 83 52 84 57 85 53 86
REMARK SMILES IDX 54 87 56 88 58 89 55 90
REMARK H PARENT 18 8 9 18 75 52 49 63
REMARK Flexibility Score: inf
ROOT
ATOM      1  O   UNL A   1      31.379  29.384  23.293  1.00  0.00    -0.461 OA
ENDROOT
BRANCH   1   2
ATOM      2  C   UNL A   1      30.257  29.049  22.593  1.00  0.00     0.329 C 
ATOM      3  O   UNL A   1      30.099  29.286  21.400  1.00  0.00    -0.250 OA
BRANCH   2   4
ATOM      4  C   UNL A   1      29.221  28.246  23.440  1.00  0.00     0.195 C 
BRANCH   4   5
ATOM      5  N   UNL A   1      29.367  26.809  23.169  1.00  0.00    -0.338 N 
ATOM      6  C   UNL A   1      30.363  25.893  23.425  1.00  0.00     0.254 C 
ATOM      7  O   UNL A   1      30.330  24.868  22.736  1.00  0.00    -0.269 OA
ATOM      8  H   UNL A   1      28.588  26.419  22.709  1.00  0.00     0.164 HD
BRANCH   6   9
ATOM      9  C   UNL A   1      31.474  26.039  24.421  1.00  0.00     0.063 A 
ATOM     10  C   UNL A   1      31.420  25.821  25.803  1.00  0.00     0.054 A 
ATOM     11  C   UNL A   1      32.473  26.247  26.634  1.00  0.00     0.027 A 
ATOM     12  C   UNL A   1      33.683  26.658  26.086  1.00  0.00     0.002 A 
ATOM     13  C   UNL A   1      32.724  26.423  23.887  1.00  0.00     0.016 A 
ATOM     14  C   UNL A   1      33.827  26.688  24.706  1.00  0.00     0.001 A 
BRANCH  10  15
ATOM     15  N   UNL A   1      30.474  25.029  26.468  1.00  0.00    -0.321 N 
ATOM     16  C   UNL A   1      30.597  23.690  26.764  1.00  0.00     0.255 C 
ATOM     17  O   UNL A   1      29.827  23.186  27.580  1.00  0.00    -0.269 OA
ATOM     18  H   UNL A   1      29.643  25.473  26.752  1.00  0.00     0.170 HD
BRANCH  16  19
ATOM     19  C   UNL A   1      31.696  22.863  26.229  1.00  0.00     0.040 A 
ATOM     20  C   UNL A   1      33.521  20.946  25.384  1.00  0.00     0.118 A 
ATOM     21  C   UNL A   1      32.498  21.327  24.530  1.00  0.00     0.047 A 
ATOM     22  C   UNL A   1      33.694  21.579  26.619  1.00  0.00     0.047 A 
ATOM     23  C   UNL A   1      31.579  22.266  24.971  1.00  0.00     0.017 A 
ATOM     24  C   UNL A   1      32.773  22.538  27.050  1.00  0.00     0.017 A 
BRANCH  20  25
ATOM     25  O   UNL A   1      34.319  19.916  24.976  1.00  0.00    -0.497 OA
ATOM     26  C   UNL A   1      33.520  18.859  24.443  1.00  0.00     0.278 C 
ENDBRANCH  20  25
ENDBRANCH  16  19
ENDBRANCH  10  15
ENDBRANCH   6   9
ENDBRANCH   4   5
BRANCH   4  27
ATOM     27  C   UNL A   1      27.801  28.798  23.084  1.00  0.00     0.017 C 
ATOM     28  C   UNL A   1      26.542  28.111  23.604  1.00  0.00     0.010 C 
ATOM     29  C   UNL A   1      27.671  30.296  23.389  1.00  0.00     0.010 C 
ENDBRANCH   4  27
ENDBRANCH   2   4
ENDBRANCH   1   2
BRANCH   1  30
ATOM     30  C   UNL A   1      31.195  29.693  24.693  1.00  0.00     0.274 C 
BRANCH  30  31
ATOM     31  C   UNL A   1      32.547  29.904  25.371  1.00  0.00     0.275 C 
BRANCH  31  32
ATOM     32  O   UNL A   1      32.330  30.226  26.757  1.00  0.00    -0.458 OA
BRANCH  32  33
ATOM     33  C   UNL A   1      32.929  31.356  27.206  1.00  0.00     0.338 C 
ATOM     34  O   UNL A   1      32.408  32.441  27.387  1.00  0.00    -0.246 OA
BRANCH  33  35
ATOM     35  C   UNL A   1      34.340  31.079  27.564  1.00  0.00     0.060 A 
ATOM     36  C   UNL A   1      34.730  29.779  27.850  1.00  0.00     0.016 A 
ATOM     37  C   UNL A   1      35.231  32.121  27.808  1.00  0.00     0.016 A 
ATOM     38  C   UNL A   1      35.893  29.547  28.588  1.00  0.00     0.010 A 
ATOM     39  C   UNL A   1      36.489  31.850  28.371  1.00  0.00     0.010 A 
ATOM     40  C   UNL A   1      36.817  30.566  28.846  1.00  0.00    -0.014 A 
BRANCH  40  41
ATOM     41  C   UNL A   1      38.070  30.318  29.642  1.00  0.00     0.031 A 
ATOM     42  C   UNL A   1      39.210  29.526  29.036  1.00  0.00     0.074 A 
ATOM     43  C   UNL A   1      38.254  30.806  30.889  1.00  0.00     0.049 A 
ATOM     44  N   UNL A   1      40.199  28.903  29.628  1.00  0.00    -0.248 NA
ATOM     45  C   UNL A   1      39.226  29.404  27.569  1.00  0.00     0.031 C 
ATOM     46  C   UNL A   1      37.339  31.686  31.619  1.00  0.00     0.029 A 
ATOM     47  N   UNL A   1      39.301  30.637  31.769  1.00  0.00    -0.354 N 
ATOM     48  C   UNL A   1      40.884  28.228  28.622  1.00  0.00     0.074 A 
ATOM     49  C   UNL A   1      40.213  28.541  27.378  1.00  0.00     0.031 C 
ATOM     50  C   UNL A   1      37.899  32.050  32.780  1.00  0.00     0.029 A 
ATOM     51  C   UNL A   1      39.131  31.298  32.964  1.00  0.00     0.049 A 
ATOM     52  H   UNL A   1      40.095  30.094  31.562  1.00  0.00     0.167 HD
ATOM     53  C   UNL A   1      41.961  27.411  28.728  1.00  0.00     0.037 A 
ATOM     54  C   UNL A   1      39.827  31.250  34.115  1.00  0.00     0.037 A 
ATOM     55  C   UNL A   1      42.691  27.183  29.949  1.00  0.00     0.049 A 
ATOM     56  C   UNL A   1      40.972  30.290  34.246  1.00  0.00     0.074 A 
ATOM     57  C   UNL A   1      43.787  26.365  30.165  1.00  0.00     0.029 A 
ATOM     58  N   UNL A   1      42.421  27.810  31.156  1.00  0.00    -0.354 N 
ATOM     59  N   UNL A   1      41.504  29.511  33.336  1.00  0.00    -0.248 NA
ATOM     60  C   UNL A   1      41.575  30.160  35.580  1.00  0.00     0.031 C 
ATOM     61  C   UNL A   1      44.161  26.476  31.510  1.00  0.00     0.029 A 
ATOM     62  C   UNL A   1      43.323  27.392  32.121  1.00  0.00     0.049 A 
ATOM     63  H   UNL A   1      41.695  28.459  31.305  1.00  0.00     0.167 HD
ATOM     64  C   UNL A   1      42.506  28.802  33.985  1.00  0.00     0.074 A 
ATOM     65  C   UNL A   1      42.521  29.257  35.360  1.00  0.00     0.031 C 
ATOM     66  C   UNL A   1      43.332  27.852  33.486  1.00  0.00     0.037 A 
BRANCH  53  67
ATOM     67  C   UNL A   1      42.369  26.646  27.502  1.00  0.00     0.057 A 
ATOM     68  C   UNL A   1      41.871  25.373  27.200  1.00  0.00     0.134 A 
ATOM     69  C   UNL A   1      43.288  27.207  26.603  1.00  0.00     0.134 A 
ATOM     70  F   UNL A   1      40.999  24.771  28.022  1.00  0.00    -0.206 F 
ATOM     71  C   UNL A   1      42.301  24.671  26.070  1.00  0.00     0.040 A 
ATOM     72  C   UNL A   1      43.704  26.528  25.457  1.00  0.00     0.040 A 
ATOM     73  F   UNL A   1      43.798  28.428  26.825  1.00  0.00    -0.206 F 
ATOM     74  C   UNL A   1      43.217  25.250  25.194  1.00  0.00     0.006 A 
ENDBRANCH  53  67
BRANCH  54  75
ATOM     75  C   UNL A   1      39.398  32.076  35.275  1.00  0.00     0.057 A 
ATOM     76  C   UNL A   1      38.507  31.570  36.227  1.00  0.00     0.134 A 
ATOM     77  C   UNL A   1      39.876  33.378  35.469  1.00  0.00     0.134 A 
ATOM     78  F   UNL A   1      37.987  30.342  36.080  1.00  0.00    -0.206 F 
ATOM     79  C   UNL A   1      38.113  32.325  37.333  1.00  0.00     0.040 A 
ATOM     80  C   UNL A   1      39.516  34.133  36.586  1.00  0.00     0.040 A 
ATOM     81  F   UNL A   1      40.728  33.926  34.589  1.00  0.00    -0.206 F 
ATOM     82  C   UNL A   1      38.629  33.606  37.521  1.00  0.00     0.006 A 
ENDBRANCH  54  75
BRANCH  66  83
ATOM     83  C   UNL A   1      44.343  27.267  34.424  1.00  0.00     0.057 A 
ATOM     84  C   UNL A   1      44.089  26.093  35.144  1.00  0.00     0.134 A 
ATOM     85  C   UNL A   1      45.592  27.875  34.596  1.00  0.00     0.134 A 
ATOM     86  F   UNL A   1      42.903  25.474  35.038  1.00  0.00    -0.206 F 
ATOM     87  C   UNL A   1      45.036  25.554  36.016  1.00  0.00     0.040 A 
ATOM     88  C   UNL A   1      46.556  27.334  35.448  1.00  0.00     0.040 A 
ATOM     89  F   UNL A   1      45.899  29.001  33.932  1.00  0.00    -0.206 F 
ATOM     90  C   UNL A   1      46.276  26.173  36.165  1.00  0.00     0.006 A 
ENDBRANCH  66  83
ENDBRANCH  40  41
ENDBRANCH  33  35
ENDBRANCH  32  33
ENDBRANCH  31  32
ENDBRANCH  30  31
ENDBRANCH   1  30
TORSDOF 17
ENDMDL
MODEL 3
REMARK VINA RESULT:     -11.9      5.219     10.469
REMARK SMILES COc1ccc(C(=O)Nc2ccccc2C(=O)N[C@@H](C(=O)OCCOC(=O)c2ccc(-c3c4nc(c(-c5c(F)cccc5F)c5ccc([nH]5)c(-c5c(F)cccc5F)c5nc(c(-c6c(F)cccc6F)c6ccc3[nH]6)C=C5)C=C4)cc2)C(C)C)cc1
REMARK SMILES IDX 22 1 20 2 21 3 19 4 18 5 16 6 17 7 15 9 10 10 11 11 12 12
REMARK SMILES IDX 14 13 13 14 9 15 7 16 8 17 6 19 3 20 4 21 86 22 5 23 85 24
REMARK SMILES IDX 2 25 1 26 82 27 83 28 84 29 23 30 24 31 25 32 26 33 27 34
REMARK SMILES IDX 28 35 29 36 81 37 30 38 80 39 31 40 32 41 33 42 74 43 34 44
REMARK SMILES IDX 79 45 73 46 75 47 35 48 78 49 72 50 71 51 36 53 62 54 45 55
REMARK SMILES IDX 61 56 46 57 49 58 60 59 76 60 47 61 48 62 59 64 77 65 50 66
REMARK SMILES IDX 37 67 38 68 43 69 39 70 40 71 42 72 44 73 41 74 63 75 64 76
REMARK SMILES IDX 69 77 65 78 66 79 68 80 70 81 67 82 51 83 52 84 57 85 53 86
REMARK SMILES IDX 54 87 56 88 58 89 55 90
REMARK H PARENT 18 8 9 18 75 52 49 63
REMARK Flexibility Score: inf
ROOT
ATOM      1  O   UNL A   1      32.822  34.103  28.978  1.00  0.00    -0.461 OA
ENDROOT
BRANCH   1   2
ATOM      2  C   UNL A   1      32.976  35.397  29.382  1.00  0.00     0.329 C 
ATOM      3  O   UNL A   1      32.519  36.361  28.776  1.00  0.00    -0.250 OA
BRANCH   2   4
ATOM      4  C   UNL A   1      33.715  35.531  30.749  1.00  0.00     0.195 C 
BRANCH   4   5
ATOM      5  N   UNL A   1      33.825  34.210  31.384  1.00  0.00    -0.338 N 
ATOM      6  C   UNL A   1      34.839  33.282  31.473  1.00  0.00     0.254 C 
ATOM      7  O   UNL A   1      34.482  32.132  31.748  1.00  0.00    -0.269 OA
ATOM      8  H   UNL A   1      33.000  33.930  31.844  1.00  0.00     0.164 HD
BRANCH   6   9
ATOM      9  C   UNL A   1      36.299  33.533  31.244  1.00  0.00     0.063 A 
ATOM     10  C   UNL A   1      37.197  34.200  32.087  1.00  0.00     0.054 A 
ATOM     11  C   UNL A   1      38.468  34.578  31.618  1.00  0.00     0.027 A 
ATOM     12  C   UNL A   1      38.952  34.084  30.411  1.00  0.00     0.002 A 
ATOM     13  C   UNL A   1      36.825  33.013  30.041  1.00  0.00     0.016 A 
ATOM     14  C   UNL A   1      38.147  33.250  29.649  1.00  0.00     0.001 A 
BRANCH  10  15
ATOM     15  N   UNL A   1      37.036  34.386  33.467  1.00  0.00    -0.321 N 
ATOM     16  C   UNL A   1      37.495  33.550  34.460  1.00  0.00     0.255 C 
ATOM     17  O   UNL A   1      37.527  33.961  35.619  1.00  0.00    -0.269 OA
ATOM     18  H   UNL A   1      36.550  35.193  33.753  1.00  0.00     0.170 HD
BRANCH  16  19
ATOM     19  C   UNL A   1      38.063  32.219  34.169  1.00  0.00     0.040 A 
ATOM     20  C   UNL A   1      39.242  29.895  33.207  1.00  0.00     0.118 A 
ATOM     21  C   UNL A   1      40.023  30.817  33.885  1.00  0.00     0.047 A 
ATOM     22  C   UNL A   1      37.861  30.080  33.085  1.00  0.00     0.047 A 
ATOM     23  C   UNL A   1      39.429  31.985  34.339  1.00  0.00     0.017 A 
ATOM     24  C   UNL A   1      37.267  31.251  33.560  1.00  0.00     0.017 A 
BRANCH  20  25
ATOM     25  O   UNL A   1      39.886  28.828  32.647  1.00  0.00    -0.497 OA
ATOM     26  C   UNL A   1      41.300  29.015  32.724  1.00  0.00     0.278 C 
ENDBRANCH  20  25
ENDBRANCH  16  19
ENDBRANCH  10  15
ENDBRANCH   6   9
ENDBRANCH   4   5
BRANCH   4  27
ATOM     27  C   UNL A   1      32.916  36.563  31.611  1.00  0.00     0.017 C 
ATOM     28  C   UNL A   1      31.731  36.119  32.463  1.00  0.00     0.010 C 
ATOM     29  C   UNL A   1      33.838  37.404  32.504  1.00  0.00     0.010 C 
ENDBRANCH   4  27
ENDBRANCH   2   4
ENDBRANCH   1   2
BRANCH   1  30
ATOM     30  C   UNL A   1      33.734  33.635  27.959  1.00  0.00     0.274 C 
BRANCH  30  31
ATOM     31  C   UNL A   1      33.480  32.159  27.659  1.00  0.00     0.275 C 
BRANCH  31  32
ATOM     32  O   UNL A   1      34.243  31.357  28.579  1.00  0.00    -0.458 OA
BRANCH  32  33
ATOM     33  C   UNL A   1      34.695  30.171  28.100  1.00  0.00     0.338 C 
ATOM     34  O   UNL A   1      34.062  29.346  27.466  1.00  0.00    -0.246 OA
BRANCH  33  35
ATOM     35  C   UNL A   1      36.146  30.034  28.364  1.00  0.00     0.060 A 
ATOM     36  C   UNL A   1      37.056  30.369  27.373  1.00  0.00     0.016 A 
ATOM     37  C   UNL A   1      36.604  29.395  29.514  1.00  0.00     0.016 A 
ATOM     38  C   UNL A   1      38.357  29.861  27.420  1.00  0.00     0.010 A 
ATOM     39  C   UNL A   1      37.963  29.064  29.637  1.00  0.00     0.010 A 
ATOM     40  C   UNL A   1      38.855  29.221  28.559  1.00  0.00    -0.014 A 
BRANCH  40  41
ATOM     41  C   UNL A   1      40.256  28.671  28.612  1.00  0.00     0.031 A 
ATOM     42  C   UNL A   1      41.407  29.567  29.020  1.00  0.00     0.074 A 
ATOM     43  C   UNL A   1      40.546  27.379  28.341  1.00  0.00     0.049 A 
ATOM     44  N   UNL A   1      42.692  29.424  28.802  1.00  0.00    -0.248 NA
ATOM     45  C   UNL A   1      41.063  30.794  29.755  1.00  0.00     0.031 C 
ATOM     46  C   UNL A   1      39.583  26.319  28.040  1.00  0.00     0.029 A 
ATOM     47  N   UNL A   1      41.760  26.728  28.291  1.00  0.00    -0.354 N 
ATOM     48  C   UNL A   1      43.291  30.589  29.270  1.00  0.00     0.074 A 
ATOM     49  C   UNL A   1      42.232  31.416  29.809  1.00  0.00     0.031 C 
ATOM     50  C   UNL A   1      40.224  25.149  27.931  1.00  0.00     0.029 A 
ATOM     51  C   UNL A   1      41.658  25.392  27.979  1.00  0.00     0.049 A 
ATOM     52  H   UNL A   1      42.619  27.177  28.464  1.00  0.00     0.167 HD
ATOM     53  C   UNL A   1      44.600  30.943  29.237  1.00  0.00     0.037 A 
ATOM     54  C   UNL A   1      42.595  24.474  27.677  1.00  0.00     0.037 A 
ATOM     55  C   UNL A   1      45.665  30.079  28.798  1.00  0.00     0.049 A 
ATOM     56  C   UNL A   1      44.032  24.893  27.573  1.00  0.00     0.074 A 
ATOM     57  C   UNL A   1      47.021  30.346  28.714  1.00  0.00     0.029 A 
ATOM     58  N   UNL A   1      45.496  28.761  28.404  1.00  0.00    -0.354 N 
ATOM     59  N   UNL A   1      44.574  26.055  27.840  1.00  0.00    -0.248 NA
ATOM     60  C   UNL A   1      44.977  23.886  27.069  1.00  0.00     0.031 C 
ATOM     61  C   UNL A   1      47.668  29.198  28.242  1.00  0.00     0.029 A 
ATOM     62  C   UNL A   1      46.720  28.204  28.069  1.00  0.00     0.049 A 
ATOM     63  H   UNL A   1      44.632  28.288  28.369  1.00  0.00     0.167 HD
ATOM     64  C   UNL A   1      45.924  25.920  27.541  1.00  0.00     0.074 A 
ATOM     65  C   UNL A   1      46.121  24.558  27.091  1.00  0.00     0.031 C 
ATOM     66  C   UNL A   1      46.907  26.847  27.624  1.00  0.00     0.037 A 
BRANCH  53  67
ATOM     67  C   UNL A   1      44.942  32.354  29.624  1.00  0.00     0.057 A 
ATOM     68  C   UNL A   1      45.304  32.718  30.926  1.00  0.00     0.134 A 
ATOM     69  C   UNL A   1      44.905  33.371  28.658  1.00  0.00     0.134 A 
ATOM     70  F   UNL A   1      45.346  31.799  31.902  1.00  0.00    -0.206 F 
ATOM     71  C   UNL A   1      45.579  34.047  31.262  1.00  0.00     0.040 A 
ATOM     72  C   UNL A   1      45.204  34.697  28.975  1.00  0.00     0.040 A 
ATOM     73  F   UNL A   1      44.576  33.091  27.388  1.00  0.00    -0.206 F 
ATOM     74  C   UNL A   1      45.532  35.039  30.284  1.00  0.00     0.006 A 
ENDBRANCH  53  67
BRANCH  54  75
ATOM     75  C   UNL A   1      42.190  23.079  27.356  1.00  0.00     0.057 A 
ATOM     76  C   UNL A   1      41.930  22.155  28.373  1.00  0.00     0.134 A 
ATOM     77  C   UNL A   1      42.039  22.642  26.034  1.00  0.00     0.134 A 
ATOM     78  F   UNL A   1      42.089  22.503  29.659  1.00  0.00    -0.206 F 
ATOM     79  C   UNL A   1      41.526  20.849  28.087  1.00  0.00     0.040 A 
ATOM     80  C   UNL A   1      41.606  21.350  25.734  1.00  0.00     0.040 A 
ATOM     81  F   UNL A   1      42.280  23.477  25.012  1.00  0.00    -0.206 F 
ATOM     82  C   UNL A   1      41.350  20.449  26.764  1.00  0.00     0.006 A 
ENDBRANCH  54  75
BRANCH  66  83
ATOM     83  C   UNL A   1      48.291  26.408  27.252  1.00  0.00     0.057 A 
ATOM     84  C   UNL A   1      48.804  26.599  25.964  1.00  0.00     0.134 A 
ATOM     85  C   UNL A   1      49.125  25.801  28.199  1.00  0.00     0.134 A 
ATOM     86  F   UNL A   1      48.046  27.157  25.007  1.00  0.00    -0.206 F 
ATOM     87  C   UNL A   1      50.093  26.188  25.625  1.00  0.00     0.040 A 
ATOM     88  C   UNL A   1      50.424  25.405  27.878  1.00  0.00     0.040 A 
ATOM     89  F   UNL A   1      48.693  25.590  29.452  1.00  0.00    -0.206 F 
ATOM     90  C   UNL A   1      50.909  25.593  26.586  1.00  0.00     0.006 A 
ENDBRANCH  66  83
ENDBRANCH  40  41
ENDBRANCH  33  35
ENDBRANCH  32  33
ENDBRANCH  31  32
ENDBRANCH  30  31
ENDBRANCH   1  30
TORSDOF 17
ENDMDL
