MODEL 1
REMARK VINA RESULT:     -11.2      0.000      0.000
REMARK SMILES COc1ccccc1-c1nnc(S[C@@H](C)C(=O)OCCOC(=O)c2ccc(-c3c4nc(c(-c5c(F)cccc5F)c5ccc([nH]5)c(-c5c(F)cccc5F)c5nc(c(-c6c(F)cccc6F)c6ccc3[nH]6)C=C5)C=C4)cc2)n1-c1ccccc1
REMARK SMILES IDX 19 1 18 2 16 3 17 4 14 5 15 6 13 7 12 8 9 9 10 10 78 11
REMARK SMILES IDX 11 12 8 13 3 14 4 15 5 16 7 17 6 18 2 19 1 20 79 21 80 22
REMARK SMILES IDX 84 23 81 24 83 25 82 26 20 27 21 28 22 29 23 30 24 31 25 32
REMARK SMILES IDX 77 33 26 34 76 35 27 36 28 37 29 38 70 39 30 40 75 41 69 42
REMARK SMILES IDX 71 43 31 44 74 45 68 46 67 47 32 49 58 50 41 51 57 52 42 53
REMARK SMILES IDX 45 54 56 55 72 56 43 57 44 58 55 60 73 61 46 62 33 63 34 64
REMARK SMILES IDX 39 65 35 66 36 67 38 68 40 69 37 70 59 71 60 72 65 73 61 74
REMARK SMILES IDX 62 75 64 76 66 77 63 78 47 79 48 80 53 81 49 82 50 83 52 84
REMARK SMILES IDX 54 85 51 86
REMARK H PARENT 71 48 45 59
REMARK Flexibility Score: inf
ROOT
ATOM      1  C   UNL A   1      38.940  21.255  25.750  1.00  0.00     0.274 C 
ENDROOT
BRANCH   1   2
ATOM      2  O   UNL A   1      37.722  22.042  25.798  1.00  0.00    -0.461 OA
BRANCH   2   3
ATOM      3  C   UNL A   1      36.553  21.551  25.292  1.00  0.00     0.319 C 
ATOM      4  O   UNL A   1      36.271  20.356  25.282  1.00  0.00    -0.251 OA
BRANCH   3   5
ATOM      5  C   UNL A   1      35.551  22.636  24.885  1.00  0.00     0.161 C 
ATOM      6  C   UNL A   1      36.094  24.060  24.723  1.00  0.00     0.032 C 
BRANCH   5   7
ATOM      7  S   UNL A   1      33.974  22.777  25.721  1.00  0.00    -0.071 SA
BRANCH   7   8
ATOM      8  C   UNL A   1      32.781  23.609  24.802  1.00  0.00     0.196 A 
ATOM      9  C   UNL A   1      31.320  24.911  23.834  1.00  0.00     0.173 A 
ATOM     10  N   UNL A   1      31.230  23.724  23.277  1.00  0.00    -0.129 NA
ATOM     11  N   UNL A   1      32.264  24.901  24.860  1.00  0.00    -0.270 N 
ATOM     12  N   UNL A   1      32.163  22.928  23.856  1.00  0.00    -0.122 NA
BRANCH   9  13
ATOM     13  C   UNL A   1      30.613  26.090  23.371  1.00  0.00     0.062 A 
ATOM     14  C   UNL A   1      31.255  27.116  22.659  1.00  0.00     0.129 A 
ATOM     15  C   UNL A   1      30.594  28.331  22.486  1.00  0.00     0.047 A 
ATOM     16  C   UNL A   1      29.289  28.502  22.951  1.00  0.00     0.004 A 
ATOM     17  C   UNL A   1      29.281  26.247  23.789  1.00  0.00     0.016 A 
ATOM     18  C   UNL A   1      28.624  27.455  23.586  1.00  0.00     0.001 A 
BRANCH  14  19
ATOM     19  O   UNL A   1      32.569  27.100  22.257  1.00  0.00    -0.496 OA
ATOM     20  C   UNL A   1      33.318  28.282  22.538  1.00  0.00     0.278 C 
ENDBRANCH  14  19
ENDBRANCH   9  13
BRANCH  11  21
ATOM     21  C   UNL A   1      32.515  25.997  25.748  1.00  0.00     0.050 A 
ATOM     22  C   UNL A   1      31.535  26.487  26.600  1.00  0.00     0.027 A 
ATOM     23  C   UNL A   1      33.761  26.651  25.703  1.00  0.00     0.027 A 
ATOM     24  C   UNL A   1      31.722  27.719  27.240  1.00  0.00     0.002 A 
ATOM     25  C   UNL A   1      33.935  27.893  26.315  1.00  0.00     0.002 A 
ATOM     26  C   UNL A   1      32.898  28.445  27.054  1.00  0.00     0.000 A 
ENDBRANCH  11  21
ENDBRANCH   7   8
ENDBRANCH   5   7
ENDBRANCH   3   5
ENDBRANCH   2   3
ENDBRANCH   1   2
BRANCH   1  27
ATOM     27  C   UNL A   1      40.071  21.982  26.458  1.00  0.00     0.275 C 
BRANCH  27  28
ATOM     28  O   UNL A   1      41.211  21.855  25.631  1.00  0.00    -0.458 OA
BRANCH  28  29
ATOM     29  C   UNL A   1      42.349  21.651  26.326  1.00  0.00     0.338 C 
ATOM     30  O   UNL A   1      42.503  20.870  27.266  1.00  0.00    -0.246 OA
BRANCH  29  31
ATOM     31  C   UNL A   1      43.432  22.505  25.770  1.00  0.00     0.060 A 
ATOM     32  C   UNL A   1      44.390  22.745  26.755  1.00  0.00     0.016 A 
ATOM     33  C   UNL A   1      42.931  23.536  24.978  1.00  0.00     0.016 A 
ATOM     34  C   UNL A   1      44.301  23.957  27.384  1.00  0.00     0.010 A 
ATOM     35  C   UNL A   1      42.764  24.722  25.634  1.00  0.00     0.010 A 
ATOM     36  C   UNL A   1      43.374  24.868  26.882  1.00  0.00    -0.014 A 
BRANCH  36  37
ATOM     37  C   UNL A   1      43.110  26.053  27.647  1.00  0.00     0.031 A 
ATOM     38  C   UNL A   1      44.122  27.089  27.386  1.00  0.00     0.074 A 
ATOM     39  C   UNL A   1      41.994  26.203  28.374  1.00  0.00     0.049 A 
ATOM     40  N   UNL A   1      45.104  27.438  28.147  1.00  0.00    -0.248 NA
ATOM     41  C   UNL A   1      44.216  27.587  26.003  1.00  0.00     0.031 C 
ATOM     42  C   UNL A   1      40.806  25.352  28.445  1.00  0.00     0.029 A 
ATOM     43  N   UNL A   1      41.652  27.284  29.116  1.00  0.00    -0.354 N 
ATOM     44  C   UNL A   1      45.822  28.351  27.386  1.00  0.00     0.074 A 
ATOM     45  C   UNL A   1      45.421  28.150  26.024  1.00  0.00     0.031 C 
ATOM     46  C   UNL A   1      39.791  26.064  28.989  1.00  0.00     0.029 A 
ATOM     47  C   UNL A   1      40.295  27.367  29.389  1.00  0.00     0.049 A 
ATOM     48  H   UNL A   1      42.306  27.949  29.433  1.00  0.00     0.167 HD
ATOM     49  C   UNL A   1      46.454  29.413  27.948  1.00  0.00     0.037 A 
ATOM     50  C   UNL A   1      39.681  28.520  29.752  1.00  0.00     0.037 A 
ATOM     51  C   UNL A   1      46.562  29.260  29.376  1.00  0.00     0.049 A 
ATOM     52  C   UNL A   1      40.752  29.445  30.245  1.00  0.00     0.074 A 
ATOM     53  C   UNL A   1      47.168  28.330  30.199  1.00  0.00     0.029 A 
ATOM     54  N   UNL A   1      45.635  29.911  30.158  1.00  0.00    -0.354 N 
ATOM     55  N   UNL A   1      41.449  29.227  31.332  1.00  0.00    -0.248 NA
ATOM     56  C   UNL A   1      41.398  30.310  29.263  1.00  0.00     0.031 C 
ATOM     57  C   UNL A   1      46.255  28.142  31.278  1.00  0.00     0.029 A 
ATOM     58  C   UNL A   1      45.178  29.009  31.087  1.00  0.00     0.049 A 
ATOM     59  H   UNL A   1      45.352  30.849  30.067  1.00  0.00     0.167 HD
ATOM     60  C   UNL A   1      42.756  29.582  31.005  1.00  0.00     0.074 A 
ATOM     61  C   UNL A   1      42.651  30.296  29.734  1.00  0.00     0.031 C 
ATOM     62  C   UNL A   1      43.834  29.014  31.625  1.00  0.00     0.037 A 
BRANCH  49  63
ATOM     63  C   UNL A   1      46.644  30.731  27.248  1.00  0.00     0.057 A 
ATOM     64  C   UNL A   1      47.936  31.268  27.159  1.00  0.00     0.134 A 
ATOM     65  C   UNL A   1      45.604  31.606  26.863  1.00  0.00     0.134 A 
ATOM     66  F   UNL A   1      49.008  30.543  27.514  1.00  0.00    -0.206 F 
ATOM     67  C   UNL A   1      48.169  32.590  26.766  1.00  0.00     0.040 A 
ATOM     68  C   UNL A   1      45.830  32.904  26.407  1.00  0.00     0.040 A 
ATOM     69  F   UNL A   1      44.307  31.303  27.000  1.00  0.00    -0.206 F 
ATOM     70  C   UNL A   1      47.116  33.413  26.388  1.00  0.00     0.006 A 
ENDBRANCH  49  63
BRANCH  50  71
ATOM     71  C   UNL A   1      38.338  28.972  29.319  1.00  0.00     0.057 A 
ATOM     72  C   UNL A   1      37.295  29.155  30.234  1.00  0.00     0.134 A 
ATOM     73  C   UNL A   1      38.099  29.449  28.015  1.00  0.00     0.134 A 
ATOM     74  F   UNL A   1      37.443  28.790  31.516  1.00  0.00    -0.206 F 
ATOM     75  C   UNL A   1      36.085  29.766  29.871  1.00  0.00     0.040 A 
ATOM     76  C   UNL A   1      36.895  30.047  27.636  1.00  0.00     0.040 A 
ATOM     77  F   UNL A   1      39.058  29.428  27.077  1.00  0.00    -0.206 F 
ATOM     78  C   UNL A   1      35.882  30.216  28.569  1.00  0.00     0.006 A 
ENDBRANCH  50  71
BRANCH  62  79
ATOM     79  C   UNL A   1      43.589  28.108  32.804  1.00  0.00     0.057 A 
ATOM     80  C   UNL A   1      43.583  26.706  32.717  1.00  0.00     0.134 A 
ATOM     81  C   UNL A   1      43.571  28.655  34.092  1.00  0.00     0.134 A 
ATOM     82  F   UNL A   1      43.712  26.089  31.538  1.00  0.00    -0.206 F 
ATOM     83  C   UNL A   1      43.525  25.891  33.851  1.00  0.00     0.040 A 
ATOM     84  C   UNL A   1      43.550  27.853  35.235  1.00  0.00     0.040 A 
ATOM     85  F   UNL A   1      43.642  29.985  34.261  1.00  0.00    -0.206 F 
ATOM     86  C   UNL A   1      43.519  26.465  35.117  1.00  0.00     0.006 A 
ENDBRANCH  62  79
ENDBRANCH  36  37
ENDBRANCH  29  31
ENDBRANCH  28  29
ENDBRANCH  27  28
ENDBRANCH   1  27
TORSDOF 16
ENDMDL
MODEL 2
REMARK VINA RESULT:     -11.1      2.503      7.463
REMARK SMILES COc1ccccc1-c1nnc(S[C@@H](C)C(=O)OCCOC(=O)c2ccc(-c3c4nc(c(-c5c(F)cccc5F)c5ccc([nH]5)c(-c5c(F)cccc5F)c5nc(c(-c6c(F)cccc6F)c6ccc3[nH]6)C=C5)C=C4)cc2)n1-c1ccccc1
REMARK SMILES IDX 19 1 18 2 16 3 17 4 14 5 15 6 13 7 12 8 9 9 10 10 78 11
REMARK SMILES IDX 11 12 8 13 3 14 4 15 5 16 7 17 6 18 2 19 1 20 79 21 80 22
REMARK SMILES IDX 84 23 81 24 83 25 82 26 20 27 21 28 22 29 23 30 24 31 25 32
REMARK SMILES IDX 77 33 26 34 76 35 27 36 28 37 29 38 70 39 30 40 75 41 69 42
REMARK SMILES IDX 71 43 31 44 74 45 68 46 67 47 32 49 58 50 41 51 57 52 42 53
REMARK SMILES IDX 45 54 56 55 72 56 43 57 44 58 55 60 73 61 46 62 33 63 34 64
REMARK SMILES IDX 39 65 35 66 36 67 38 68 40 69 37 70 59 71 60 72 65 73 61 74
REMARK SMILES IDX 62 75 64 76 66 77 63 78 47 79 48 80 53 81 49 82 50 83 52 84
REMARK SMILES IDX 54 85 51 86
REMARK H PARENT 71 48 45 59
REMARK Flexibility Score: inf
ROOT
ATOM      1  C   UNL A   1      32.490  30.222  27.123  1.00  0.00     0.274 C 
ENDROOT
BRANCH   1   2
ATOM      2  O   UNL A   1      32.576  28.783  27.292  1.00  0.00    -0.461 OA
BRANCH   2   3
ATOM      3  C   UNL A   1      31.857  27.941  26.495  1.00  0.00     0.319 C 
ATOM      4  O   UNL A   1      31.056  27.119  26.931  1.00  0.00    -0.251 OA
BRANCH   3   5
ATOM      5  C   UNL A   1      32.016  28.221  24.997  1.00  0.00     0.161 C 
ATOM      6  C   UNL A   1      30.744  28.557  24.212  1.00  0.00     0.032 C 
BRANCH   5   7
ATOM      7  S   UNL A   1      32.985  27.123  23.966  1.00  0.00    -0.071 SA
BRANCH   7   8
ATOM      8  C   UNL A   1      32.460  25.485  24.024  1.00  0.00     0.196 A 
ATOM      9  C   UNL A   1      32.107  23.332  24.111  1.00  0.00     0.173 A 
ATOM     10  N   UNL A   1      30.948  23.922  23.922  1.00  0.00    -0.129 NA
ATOM     11  N   UNL A   1      33.136  24.273  24.138  1.00  0.00    -0.270 N 
ATOM     12  N   UNL A   1      31.166  25.260  23.904  1.00  0.00    -0.122 NA
BRANCH   9  13
ATOM     13  C   UNL A   1      32.275  21.914  24.365  1.00  0.00     0.062 A 
ATOM     14  C   UNL A   1      32.631  21.417  25.629  1.00  0.00     0.129 A 
ATOM     15  C   UNL A   1      33.042  20.089  25.739  1.00  0.00     0.047 A 
ATOM     16  C   UNL A   1      33.030  19.247  24.625  1.00  0.00     0.004 A 
ATOM     17  C   UNL A   1      32.214  21.051  23.258  1.00  0.00     0.016 A 
ATOM     18  C   UNL A   1      32.599  19.721  23.387  1.00  0.00     0.001 A 
BRANCH  14  19
ATOM     19  O   UNL A   1      32.785  22.175  26.764  1.00  0.00    -0.496 OA
ATOM     20  C   UNL A   1      33.866  21.800  27.618  1.00  0.00     0.278 C 
ENDBRANCH  14  19
ENDBRANCH   9  13
BRANCH  11  21
ATOM     21  C   UNL A   1      34.531  23.953  24.201  1.00  0.00     0.050 A 
ATOM     22  C   UNL A   1      35.164  23.236  23.194  1.00  0.00     0.027 A 
ATOM     23  C   UNL A   1      35.267  24.301  25.349  1.00  0.00     0.027 A 
ATOM     24  C   UNL A   1      36.441  22.705  23.416  1.00  0.00     0.002 A 
ATOM     25  C   UNL A   1      36.526  23.745  25.583  1.00  0.00     0.002 A 
ATOM     26  C   UNL A   1      37.097  22.913  24.629  1.00  0.00     0.000 A 
ENDBRANCH  11  21
ENDBRANCH   7   8
ENDBRANCH   5   7
ENDBRANCH   3   5
ENDBRANCH   2   3
ENDBRANCH   1   2
BRANCH   1  27
ATOM     27  C   UNL A   1      33.840  30.869  27.380  1.00  0.00     0.275 C 
BRANCH  27  28
ATOM     28  O   UNL A   1      34.589  29.947  28.146  1.00  0.00    -0.458 OA
BRANCH  28  29
ATOM     29  C   UNL A   1      35.915  30.196  28.126  1.00  0.00     0.338 C 
ATOM     30  O   UNL A   1      36.649  30.179  27.137  1.00  0.00    -0.246 OA
BRANCH  29  31
ATOM     31  C   UNL A   1      36.380  30.529  29.499  1.00  0.00     0.060 A 
ATOM     32  C   UNL A   1      37.407  31.470  29.429  1.00  0.00     0.016 A 
ATOM     33  C   UNL A   1      36.487  29.396  30.304  1.00  0.00     0.016 A 
ATOM     34  C   UNL A   1      38.676  30.972  29.549  1.00  0.00     0.010 A 
ATOM     35  C   UNL A   1      37.739  28.853  30.352  1.00  0.00     0.010 A 
ATOM     36  C   UNL A   1      38.802  29.622  29.872  1.00  0.00    -0.014 A 
BRANCH  36  37
ATOM     37  C   UNL A   1      40.106  29.028  29.793  1.00  0.00     0.031 A 
ATOM     38  C   UNL A   1      40.728  28.937  31.124  1.00  0.00     0.074 A 
ATOM     39  C   UNL A   1      40.587  28.504  28.657  1.00  0.00     0.049 A 
ATOM     40  N   UNL A   1      41.663  29.684  31.607  1.00  0.00    -0.248 NA
ATOM     41  C   UNL A   1      40.033  28.108  32.123  1.00  0.00     0.031 C 
ATOM     42  C   UNL A   1      39.918  28.285  27.375  1.00  0.00     0.029 A 
ATOM     43  N   UNL A   1      41.796  27.915  28.487  1.00  0.00    -0.354 N 
ATOM     44  C   UNL A   1      41.791  29.267  32.925  1.00  0.00     0.074 A 
ATOM     45  C   UNL A   1      40.586  28.557  33.245  1.00  0.00     0.031 C 
ATOM     46  C   UNL A   1      40.643  27.400  26.650  1.00  0.00     0.029 A 
ATOM     47  C   UNL A   1      41.860  27.085  27.378  1.00  0.00     0.049 A 
ATOM     48  H   UNL A   1      42.558  28.062  29.094  1.00  0.00     0.167 HD
ATOM     49  C   UNL A   1      42.991  29.254  33.560  1.00  0.00     0.037 A 
ATOM     50  C   UNL A   1      42.793  26.112  27.234  1.00  0.00     0.037 A 
ATOM     51  C   UNL A   1      43.972  30.020  32.836  1.00  0.00     0.049 A 
ATOM     52  C   UNL A   1      43.915  26.445  28.171  1.00  0.00     0.074 A 
ATOM     53  C   UNL A   1      44.068  31.346  32.457  1.00  0.00     0.029 A 
ATOM     54  N   UNL A   1      44.847  29.331  32.027  1.00  0.00    -0.354 N 
ATOM     55  N   UNL A   1      44.684  27.496  28.031  1.00  0.00    -0.248 NA
ATOM     56  C   UNL A   1      43.837  25.918  29.530  1.00  0.00     0.031 C 
ATOM     57  C   UNL A   1      44.622  31.315  31.143  1.00  0.00     0.029 A 
ATOM     58  C   UNL A   1      44.889  29.983  30.820  1.00  0.00     0.049 A 
ATOM     59  H   UNL A   1      45.349  28.520  32.270  1.00  0.00     0.167 HD
ATOM     60  C   UNL A   1      44.856  27.997  29.319  1.00  0.00     0.074 A 
ATOM     61  C   UNL A   1      44.357  26.948  30.206  1.00  0.00     0.031 C 
ATOM     62  C   UNL A   1      45.103  29.321  29.551  1.00  0.00     0.037 A 
BRANCH  49  63
ATOM     63  C   UNL A   1      43.352  28.262  34.632  1.00  0.00     0.057 A 
ATOM     64  C   UNL A   1      43.721  28.739  35.897  1.00  0.00     0.134 A 
ATOM     65  C   UNL A   1      43.579  26.883  34.421  1.00  0.00     0.134 A 
ATOM     66  F   UNL A   1      43.574  30.034  36.214  1.00  0.00    -0.206 F 
ATOM     67  C   UNL A   1      44.318  27.917  36.859  1.00  0.00     0.040 A 
ATOM     68  C   UNL A   1      44.111  26.042  35.397  1.00  0.00     0.040 A 
ATOM     69  F   UNL A   1      43.398  26.287  33.236  1.00  0.00    -0.206 F 
ATOM     70  C   UNL A   1      44.514  26.565  36.612  1.00  0.00     0.006 A 
ENDBRANCH  49  63
BRANCH  50  71
ATOM     71  C   UNL A   1      42.573  24.764  26.660  1.00  0.00     0.057 A 
ATOM     72  C   UNL A   1      43.214  24.352  25.486  1.00  0.00     0.134 A 
ATOM     73  C   UNL A   1      41.891  23.756  27.371  1.00  0.00     0.134 A 
ATOM     74  F   UNL A   1      43.940  25.221  24.769  1.00  0.00    -0.206 F 
ATOM     75  C   UNL A   1      43.170  23.022  25.041  1.00  0.00     0.040 A 
ATOM     76  C   UNL A   1      41.828  22.431  26.933  1.00  0.00     0.040 A 
ATOM     77  F   UNL A   1      41.328  24.001  28.564  1.00  0.00    -0.206 F 
ATOM     78  C   UNL A   1      42.476  22.056  25.765  1.00  0.00     0.006 A 
ENDBRANCH  50  71
BRANCH  62  79
ATOM     79  C   UNL A   1      45.359  30.221  28.369  1.00  0.00     0.057 A 
ATOM     80  C   UNL A   1      44.343  30.897  27.674  1.00  0.00     0.134 A 
ATOM     81  C   UNL A   1      46.675  30.582  28.060  1.00  0.00     0.134 A 
ATOM     82  F   UNL A   1      43.055  30.705  27.978  1.00  0.00    -0.206 F 
ATOM     83  C   UNL A   1      44.622  31.856  26.696  1.00  0.00     0.040 A 
ATOM     84  C   UNL A   1      46.969  31.564  27.110  1.00  0.00     0.040 A 
ATOM     85  F   UNL A   1      47.701  30.029  28.727  1.00  0.00    -0.206 F 
ATOM     86  C   UNL A   1      45.940  32.200  26.419  1.00  0.00     0.006 A 
ENDBRANCH  62  79
ENDBRANCH  36  37
ENDBRANCH  29  31
ENDBRANCH  28  29
ENDBRANCH  27  28
ENDBRANCH   1  27
TORSDOF 16
ENDMDL
MODEL 3
REMARK VINA RESULT:     -10.8      1.917      3.035
REMARK SMILES COc1ccccc1-c1nnc(S[C@@H](C)C(=O)OCCOC(=O)c2ccc(-c3c4nc(c(-c5c(F)cccc5F)c5ccc([nH]5)c(-c5c(F)cccc5F)c5nc(c(-c6c(F)cccc6F)c6ccc3[nH]6)C=C5)C=C4)cc2)n1-c1ccccc1
REMARK SMILES IDX 19 1 18 2 16 3 17 4 14 5 15 6 13 7 12 8 9 9 10 10 78 11
REMARK SMILES IDX 11 12 8 13 3 14 4 15 5 16 7 17 6 18 2 19 1 20 79 21 80 22
REMARK SMILES IDX 84 23 81 24 83 25 82 26 20 27 21 28 22 29 23 30 24 31 25 32
REMARK SMILES IDX 77 33 26 34 76 35 27 36 28 37 29 38 70 39 30 40 75 41 69 42
REMARK SMILES IDX 71 43 31 44 74 45 68 46 67 47 32 49 58 50 41 51 57 52 42 53
REMARK SMILES IDX 45 54 56 55 72 56 43 57 44 58 55 60 73 61 46 62 33 63 34 64
REMARK SMILES IDX 39 65 35 66 36 67 38 68 40 69 37 70 59 71 60 72 65 73 61 74
REMARK SMILES IDX 62 75 64 76 66 77 63 78 47 79 48 80 53 81 49 82 50 83 52 84
REMARK SMILES IDX 54 85 51 86
REMARK H PARENT 71 48 45 59
REMARK Flexibility Score: inf
ROOT
ATOM      1  C   UNL A   1      40.508  20.222  26.151  1.00  0.00     0.274 C 
ENDROOT
BRANCH   1   2
ATOM      2  O   UNL A   1      39.688  21.378  25.841  1.00  0.00    -0.461 OA
BRANCH   2   3
ATOM      3  C   UNL A   1      38.420  21.227  25.360  1.00  0.00     0.319 C 
ATOM      4  O   UNL A   1      37.983  20.162  24.931  1.00  0.00    -0.251 OA
BRANCH   3   5
ATOM      5  C   UNL A   1      37.535  22.463  25.549  1.00  0.00     0.161 C 
ATOM      6  C   UNL A   1      38.189  23.700  26.173  1.00  0.00     0.032 C 
BRANCH   5   7
ATOM      7  S   UNL A   1      35.910  22.312  26.286  1.00  0.00    -0.071 SA
BRANCH   7   8
ATOM      8  C   UNL A   1      34.807  23.530  25.775  1.00  0.00     0.196 A 
ATOM      9  C   UNL A   1      33.252  24.839  24.978  1.00  0.00     0.173 A 
ATOM     10  N   UNL A   1      34.148  25.596  25.570  1.00  0.00    -0.129 NA
ATOM     11  N   UNL A   1      33.634  23.498  25.026  1.00  0.00    -0.270 N 
ATOM     12  N   UNL A   1      35.094  24.778  26.094  1.00  0.00    -0.122 NA
BRANCH   9  13
ATOM     13  C   UNL A   1      31.992  25.322  24.446  1.00  0.00     0.062 A 
ATOM     14  C   UNL A   1      31.895  25.923  23.180  1.00  0.00     0.129 A 
ATOM     15  C   UNL A   1      30.727  26.607  22.847  1.00  0.00     0.047 A 
ATOM     16  C   UNL A   1      29.644  26.634  23.727  1.00  0.00     0.004 A 
ATOM     17  C   UNL A   1      30.881  25.306  25.307  1.00  0.00     0.016 A 
ATOM     18  C   UNL A   1      29.712  25.968  24.950  1.00  0.00     0.001 A 
BRANCH  14  19
ATOM     19  O   UNL A   1      32.929  26.054  22.285  1.00  0.00    -0.496 OA
ATOM     20  C   UNL A   1      32.626  25.704  20.934  1.00  0.00     0.278 C 
ENDBRANCH  14  19
ENDBRANCH   9  13
BRANCH  11  21
ATOM     21  C   UNL A   1      32.943  22.431  24.367  1.00  0.00     0.050 A 
ATOM     22  C   UNL A   1      32.619  21.252  25.024  1.00  0.00     0.027 A 
ATOM     23  C   UNL A   1      32.654  22.540  22.993  1.00  0.00     0.027 A 
ATOM     24  C   UNL A   1      32.203  20.135  24.287  1.00  0.00     0.002 A 
ATOM     25  C   UNL A   1      32.270  21.419  22.255  1.00  0.00     0.002 A 
ATOM     26  C   UNL A   1      32.082  20.205  22.900  1.00  0.00     0.000 A 
ENDBRANCH  11  21
ENDBRANCH   7   8
ENDBRANCH   5   7
ENDBRANCH   3   5
ENDBRANCH   2   3
ENDBRANCH   1   2
BRANCH   1  27
ATOM     27  C   UNL A   1      41.895  20.657  26.591  1.00  0.00     0.275 C 
BRANCH  27  28
ATOM     28  O   UNL A   1      42.551  21.141  25.435  1.00  0.00    -0.458 OA
BRANCH  28  29
ATOM     29  C   UNL A   1      43.744  20.549  25.216  1.00  0.00     0.338 C 
ATOM     30  O   UNL A   1      44.032  19.375  25.449  1.00  0.00    -0.246 OA
BRANCH  29  31
ATOM     31  C   UNL A   1      44.684  21.532  24.614  1.00  0.00     0.060 A 
ATOM     32  C   UNL A   1      45.779  21.708  25.460  1.00  0.00     0.016 A 
ATOM     33  C   UNL A   1      44.016  22.620  24.055  1.00  0.00     0.016 A 
ATOM     34  C   UNL A   1      45.743  22.826  26.249  1.00  0.00     0.010 A 
ATOM     35  C   UNL A   1      43.909  23.702  24.880  1.00  0.00     0.010 A 
ATOM     36  C   UNL A   1      44.709  23.731  26.024  1.00  0.00    -0.014 A 
BRANCH  36  37
ATOM     37  C   UNL A   1      44.524  24.794  26.971  1.00  0.00     0.031 A 
ATOM     38  C   UNL A   1      45.641  25.750  26.919  1.00  0.00     0.074 A 
ATOM     39  C   UNL A   1      43.395  24.934  27.680  1.00  0.00     0.049 A 
ATOM     40  N   UNL A   1      46.616  25.866  27.757  1.00  0.00    -0.248 NA
ATOM     41  C   UNL A   1      45.846  26.458  25.645  1.00  0.00     0.031 C 
ATOM     42  C   UNL A   1      42.129  24.208  27.571  1.00  0.00     0.029 A 
ATOM     43  N   UNL A   1      43.124  25.906  28.585  1.00  0.00    -0.354 N 
ATOM     44  C   UNL A   1      47.452  26.815  27.184  1.00  0.00     0.074 A 
ATOM     45  C   UNL A   1      47.096  26.884  25.796  1.00  0.00     0.031 C 
ATOM     46  C   UNL A   1      41.163  24.919  28.198  1.00  0.00     0.029 A 
ATOM     47  C   UNL A   1      41.770  26.079  28.828  1.00  0.00     0.049 A 
ATOM     48  H   UNL A   1      43.823  26.439  29.029  1.00  0.00     0.167 HD
ATOM     49  C   UNL A   1      48.156  27.699  27.936  1.00  0.00     0.037 A 
ATOM     50  C   UNL A   1      41.252  27.213  29.363  1.00  0.00     0.037 A 
ATOM     51  C   UNL A   1      48.183  27.302  29.320  1.00  0.00     0.049 A 
ATOM     52  C   UNL A   1      42.383  27.929  30.037  1.00  0.00     0.074 A 
ATOM     53  C   UNL A   1      48.659  26.191  29.991  1.00  0.00     0.029 A 
ATOM     54  N   UNL A   1      47.287  27.904  30.173  1.00  0.00    -0.354 N 
ATOM     55  N   UNL A   1      43.005  27.465  31.091  1.00  0.00    -0.248 NA
ATOM     56  C   UNL A   1      43.153  28.875  29.235  1.00  0.00     0.031 C 
ATOM     57  C   UNL A   1      47.683  25.920  30.995  1.00  0.00     0.029 A 
ATOM     58  C   UNL A   1      46.703  26.912  30.922  1.00  0.00     0.049 A 
ATOM     59  H   UNL A   1      47.100  28.868  30.235  1.00  0.00     0.167 HD
ATOM     60  C   UNL A   1      44.354  27.734  30.867  1.00  0.00     0.074 A 
ATOM     61  C   UNL A   1      44.376  28.656  29.734  1.00  0.00     0.031 C 
ATOM     62  C   UNL A   1      45.343  26.965  31.414  1.00  0.00     0.037 A 
BRANCH  49  63
ATOM     63  C   UNL A   1      48.503  29.089  27.475  1.00  0.00     0.057 A 
ATOM     64  C   UNL A   1      49.851  29.470  27.437  1.00  0.00     0.134 A 
ATOM     65  C   UNL A   1      47.577  30.140  27.290  1.00  0.00     0.134 A 
ATOM     66  F   UNL A   1      50.827  28.567  27.618  1.00  0.00    -0.206 F 
ATOM     67  C   UNL A   1      50.245  30.803  27.278  1.00  0.00     0.040 A 
ATOM     68  C   UNL A   1      47.961  31.461  27.065  1.00  0.00     0.040 A 
ATOM     69  F   UNL A   1      46.255  29.978  27.417  1.00  0.00    -0.206 F 
ATOM     70  C   UNL A   1      49.300  31.803  27.090  1.00  0.00     0.006 A 
ENDBRANCH  49  63
BRANCH  50  71
ATOM     71  C   UNL A   1      39.980  27.865  28.974  1.00  0.00     0.057 A 
ATOM     72  C   UNL A   1      38.921  28.006  29.878  1.00  0.00     0.134 A 
ATOM     73  C   UNL A   1      39.846  28.567  27.759  1.00  0.00     0.134 A 
ATOM     74  F   UNL A   1      38.978  27.427  31.086  1.00  0.00    -0.206 F 
ATOM     75  C   UNL A   1      37.793  28.789  29.587  1.00  0.00     0.040 A 
ATOM     76  C   UNL A   1      38.724  29.339  27.451  1.00  0.00     0.040 A 
ATOM     77  F   UNL A   1      40.838  28.597  26.857  1.00  0.00    -0.206 F 
ATOM     78  C   UNL A   1      37.692  29.460  28.371  1.00  0.00     0.006 A 
ENDBRANCH  50  71
BRANCH  62  79
ATOM     79  C   UNL A   1      44.959  25.905  32.414  1.00  0.00     0.057 A 
ATOM     80  C   UNL A   1      44.703  26.173  33.769  1.00  0.00     0.134 A 
ATOM     81  C   UNL A   1      44.632  24.624  31.957  1.00  0.00     0.134 A 
ATOM     82  F   UNL A   1      44.876  27.400  34.273  1.00  0.00    -0.206 F 
ATOM     83  C   UNL A   1      44.184  25.205  34.633  1.00  0.00     0.040 A 
ATOM     84  C   UNL A   1      44.079  23.657  32.800  1.00  0.00     0.040 A 
ATOM     85  F   UNL A   1      44.785  24.310  30.661  1.00  0.00    -0.206 F 
ATOM     86  C   UNL A   1      43.859  23.944  34.146  1.00  0.00     0.006 A 
ENDBRANCH  62  79
ENDBRANCH  36  37
ENDBRANCH  29  31
ENDBRANCH  28  29
ENDBRANCH  27  28
ENDBRANCH   1  27
TORSDOF 16
ENDMDL
