MODEL 1
REMARK VINA RESULT:     -13.0      0.000      0.000
REMARK SMILES COc1ccc(NC(=O)N[C@@H]2C=C[C@H](C(=O)OCCOC(=O)c3ccc(-c4c5nc(c(-c6c(F)cccc6F)c6ccc([nH]6)c(-c6c(F)cccc6F)c6nc(c(-c7c(F)cccc7F)c7ccc4[nH]7)C=C6)C=C5)cc3)C2)c(C)c1
REMARK SMILES IDX 18 1 17 2 15 3 16 4 14 5 11 6 12 7 77 8 13 9 10 10 7 11 8 12
REMARK SMILES IDX 9 14 6 16 3 17 4 18 80 19 5 20 78 21 79 22 2 23 1 24 19 25
REMARK SMILES IDX 20 26 21 27 22 28 23 29 24 30 76 31 25 32 75 33 26 34 27 35
REMARK SMILES IDX 28 36 69 37 29 38 74 39 68 40 70 41 30 42 73 43 67 44 66 45
REMARK SMILES IDX 31 47 57 48 40 49 56 50 41 51 44 52 55 53 71 54 42 55 43 56
REMARK SMILES IDX 54 58 72 59 45 60 32 61 33 62 38 63 34 64 35 65 37 66 39 67
REMARK SMILES IDX 36 68 58 69 59 70 64 71 60 72 61 73 63 74 65 75 62 76 46 77
REMARK SMILES IDX 47 78 52 79 48 80 49 81 51 82 53 83 50 84
REMARK H PARENT 7 13 10 15 70 46 44 57
REMARK Flexibility Score: inf
ROOT
ATOM      1  C   UNL A   1      39.019  22.254  26.190  1.00  0.00     0.274 C 
ENDROOT
BRANCH   1   2
ATOM      2  O   UNL A   1      38.595  21.266  25.248  1.00  0.00    -0.462 OA
BRANCH   2   3
ATOM      3  C   UNL A   1      37.188  21.242  24.909  1.00  0.00     0.312 C 
ATOM      4  O   UNL A   1      36.879  20.007  24.976  1.00  0.00    -0.252 OA
BRANCH   3   5
ATOM      5  C   UNL A   1      36.015  23.010  24.399  1.00  0.00     0.124 C 
ATOM      6  C   UNL A   1      33.758  24.463  25.071  1.00  0.00     0.107 C 
ATOM      7  C   UNL A   1      33.667  23.947  23.696  1.00  0.00    -0.006 C 
ATOM      8  C   UNL A   1      35.211  24.219  25.465  1.00  0.00     0.048 C 
ATOM      9  C   UNL A   1      34.782  23.351  23.267  1.00  0.00    -0.014 C 
BRANCH   6  10
ATOM     10  N   UNL A   1      32.742  23.872  25.925  1.00  0.00    -0.332 N 
ATOM     11  N   UNL A   1      31.048  25.489  26.461  1.00  0.00    -0.308 N 
ATOM     12  C   UNL A   1      31.658  24.297  26.603  1.00  0.00     0.319 C 
ATOM     13  H   UNL A   1      30.415  25.695  27.186  1.00  0.00     0.171 HD
ATOM     14  O   UNL A   1      31.224  23.550  27.487  1.00  0.00    -0.248 OA
ATOM     15  H   UNL A   1      32.882  22.905  26.038  1.00  0.00     0.165 HD
BRANCH  11  16
ATOM     16  C   UNL A   1      31.133  26.492  25.493  1.00  0.00     0.046 A 
ATOM     17  C   UNL A   1      30.560  28.778  24.027  1.00  0.00     0.119 A 
ATOM     18  C   UNL A   1      31.482  28.834  25.062  1.00  0.00     0.048 A 
ATOM     19  C   UNL A   1      30.139  27.526  23.570  1.00  0.00     0.052 A 
ATOM     20  C   UNL A   1      31.813  27.672  25.754  1.00  0.00     0.030 A 
ATOM     21  C   UNL A   1      30.463  26.352  24.272  1.00  0.00    -0.024 A 
ATOM     22  C   UNL A   1      30.148  25.021  23.647  1.00  0.00     0.047 C 
BRANCH  17  23
ATOM     23  O   UNL A   1      30.034  29.860  23.378  1.00  0.00    -0.497 OA
ATOM     24  C   UNL A   1      28.689  29.720  22.927  1.00  0.00     0.278 C 
ENDBRANCH  17  23
ENDBRANCH  11  16
ENDBRANCH   6  10
ENDBRANCH   3   5
ENDBRANCH   2   3
ENDBRANCH   1   2
BRANCH   1  25
ATOM     25  C   UNL A   1      40.494  21.984  26.506  1.00  0.00     0.275 C 
BRANCH  25  26
ATOM     26  O   UNL A   1      41.427  23.040  26.103  1.00  0.00    -0.458 OA
BRANCH  26  27
ATOM     27  C   UNL A   1      41.749  24.144  26.846  1.00  0.00     0.338 C 
ATOM     28  O   UNL A   1      42.680  24.188  27.632  1.00  0.00    -0.246 OA
BRANCH  27  29
ATOM     29  C   UNL A   1      40.704  25.198  26.877  1.00  0.00     0.060 A 
ATOM     30  C   UNL A   1      41.100  26.745  26.037  1.00  0.00     0.016 A 
ATOM     31  C   UNL A   1      39.720  25.207  28.350  1.00  0.00     0.016 A 
ATOM     32  C   UNL A   1      40.710  28.319  26.848  1.00  0.00     0.010 A 
ATOM     33  C   UNL A   1      39.262  26.766  29.138  1.00  0.00     0.010 A 
ATOM     34  C   UNL A   1      39.831  28.322  28.437  1.00  0.00    -0.014 A 
BRANCH  34  35
ATOM     35  C   UNL A   1      40.105  29.312  29.485  1.00  0.00     0.031 A 
ATOM     36  C   UNL A   1      38.993  30.186  29.903  1.00  0.00     0.074 A 
ATOM     37  C   UNL A   1      41.314  29.381  30.098  1.00  0.00     0.049 A 
ATOM     38  N   UNL A   1      39.195  31.313  30.476  1.00  0.00    -0.248 NA
ATOM     39  C   UNL A   1      37.573  29.947  29.637  1.00  0.00     0.031 C 
ATOM     40  C   UNL A   1      41.701  30.225  31.234  1.00  0.00     0.029 A 
ATOM     41  N   UNL A   1      42.510  28.762  29.780  1.00  0.00    -0.354 N 
ATOM     42  C   UNL A   1      38.006  31.982  30.538  1.00  0.00     0.074 A 
ATOM     43  C   UNL A   1      37.001  31.047  30.126  1.00  0.00     0.031 C 
ATOM     44  C   UNL A   1      43.042  30.290  31.302  1.00  0.00     0.029 A 
ATOM     45  C   UNL A   1      43.586  29.543  30.185  1.00  0.00     0.049 A 
ATOM     46  H   UNL A   1      42.589  27.890  29.329  1.00  0.00     0.167 HD
ATOM     47  C   UNL A   1      38.020  33.294  30.873  1.00  0.00     0.037 A 
ATOM     48  C   UNL A   1      44.541  29.997  29.323  1.00  0.00     0.037 A 
ATOM     49  C   UNL A   1      39.395  33.753  31.048  1.00  0.00     0.049 A 
ATOM     50  C   UNL A   1      44.392  31.494  29.095  1.00  0.00     0.074 A 
ATOM     51  C   UNL A   1      40.244  33.747  32.143  1.00  0.00     0.029 A 
ATOM     52  N   UNL A   1      40.224  33.853  29.927  1.00  0.00    -0.354 N 
ATOM     53  N   UNL A   1      43.337  32.192  29.425  1.00  0.00    -0.248 NA
ATOM     54  C   UNL A   1      45.398  32.303  28.415  1.00  0.00     0.031 C 
ATOM     55  C   UNL A   1      41.576  33.898  31.674  1.00  0.00     0.029 A 
ATOM     56  C   UNL A   1      41.539  34.072  30.303  1.00  0.00     0.049 A 
ATOM     57  H   UNL A   1      39.914  33.778  28.995  1.00  0.00     0.167 HD
ATOM     58  C   UNL A   1      43.499  33.503  29.040  1.00  0.00     0.074 A 
ATOM     59  C   UNL A   1      44.779  33.495  28.346  1.00  0.00     0.031 C 
ATOM     60  C   UNL A   1      42.570  34.467  29.342  1.00  0.00     0.037 A 
BRANCH  47  61
ATOM     61  C   UNL A   1      36.765  34.020  31.250  1.00  0.00     0.057 A 
ATOM     62  C   UNL A   1      36.570  34.419  32.579  1.00  0.00     0.134 A 
ATOM     63  C   UNL A   1      35.665  34.232  30.397  1.00  0.00     0.134 A 
ATOM     64  F   UNL A   1      37.565  34.366  33.474  1.00  0.00    -0.206 F 
ATOM     65  C   UNL A   1      35.328  34.854  33.057  1.00  0.00     0.040 A 
ATOM     66  C   UNL A   1      34.400  34.604  30.873  1.00  0.00     0.040 A 
ATOM     67  F   UNL A   1      35.770  34.101  29.066  1.00  0.00    -0.206 F 
ATOM     68  C   UNL A   1      34.224  34.895  32.217  1.00  0.00     0.006 A 
ENDBRANCH  47  61
BRANCH  48  69
ATOM     69  C   UNL A   1      44.935  28.998  28.291  1.00  0.00     0.057 A 
ATOM     70  C   UNL A   1      45.654  27.865  28.720  1.00  0.00     0.134 A 
ATOM     71  C   UNL A   1      44.342  28.930  27.030  1.00  0.00     0.134 A 
ATOM     72  F   UNL A   1      46.306  27.883  29.894  1.00  0.00    -0.206 F 
ATOM     73  C   UNL A   1      45.611  26.657  28.023  1.00  0.00     0.040 A 
ATOM     74  C   UNL A   1      44.322  27.732  26.304  1.00  0.00     0.040 A 
ATOM     75  F   UNL A   1      43.649  29.968  26.539  1.00  0.00    -0.206 F 
ATOM     76  C   UNL A   1      44.910  26.579  26.828  1.00  0.00     0.006 A 
ENDBRANCH  48  69
BRANCH  60  77
ATOM     77  C   UNL A   1      42.574  35.931  28.915  1.00  0.00     0.057 A 
ATOM     78  C   UNL A   1      41.923  36.454  27.792  1.00  0.00     0.134 A 
ATOM     79  C   UNL A   1      43.364  36.885  29.612  1.00  0.00     0.134 A 
ATOM     80  F   UNL A   1      41.269  35.673  26.925  1.00  0.00    -0.206 F 
ATOM     81  C   UNL A   1      41.969  37.817  27.451  1.00  0.00     0.040 A 
ATOM     82  C   UNL A   1      43.475  38.227  29.242  1.00  0.00     0.040 A 
ATOM     83  F   UNL A   1      44.076  36.575  30.702  1.00  0.00    -0.206 F 
ATOM     84  C   UNL A   1      42.750  38.709  28.172  1.00  0.00     0.006 A 
ENDBRANCH  60  77
ENDBRANCH  34  35
ENDBRANCH  27  29
ENDBRANCH  26  27
ENDBRANCH  25  26
ENDBRANCH   1  25
TORSDOF 14
ENDMDL
MODEL 2
REMARK VINA RESULT:     -12.9      3.892      9.709
REMARK SMILES COc1ccc(NC(=O)N[C@@H]2C=C[C@H](C(=O)OCCOC(=O)c3ccc(-c4c5nc(c(-c6c(F)cccc6F)c6ccc([nH]6)c(-c6c(F)cccc6F)c6nc(c(-c7c(F)cccc7F)c7ccc4[nH]7)C=C6)C=C5)cc3)C2)c(C)c1
REMARK SMILES IDX 18 1 17 2 15 3 16 4 14 5 11 6 12 7 77 8 13 9 10 10 7 11 8 12
REMARK SMILES IDX 9 14 6 16 3 17 4 18 80 19 5 20 78 21 79 22 2 23 1 24 19 25
REMARK SMILES IDX 20 26 21 27 22 28 23 29 24 30 76 31 25 32 75 33 26 34 27 35
REMARK SMILES IDX 28 36 69 37 29 38 74 39 68 40 70 41 30 42 73 43 67 44 66 45
REMARK SMILES IDX 31 47 57 48 40 49 56 50 41 51 44 52 55 53 71 54 42 55 43 56
REMARK SMILES IDX 54 58 72 59 45 60 32 61 33 62 38 63 34 64 35 65 37 66 39 67
REMARK SMILES IDX 36 68 58 69 59 70 64 71 60 72 61 73 63 74 65 75 62 76 46 77
REMARK SMILES IDX 47 78 52 79 48 80 49 81 51 82 53 83 50 84
REMARK H PARENT 7 13 10 15 70 46 44 57
REMARK Flexibility Score: inf
ROOT
ATOM      1  C   UNL A   1      33.699  32.999  28.036  1.00  0.00     0.274 C 
ENDROOT
BRANCH   1   2
ATOM      2  O   UNL A   1      34.007  31.653  27.667  1.00  0.00    -0.462 OA
BRANCH   2   3
ATOM      3  C   UNL A   1      33.009  30.940  26.896  1.00  0.00     0.312 C 
ATOM      4  O   UNL A   1      31.986  31.699  26.946  1.00  0.00    -0.252 OA
BRANCH   3   5
ATOM      5  C   UNL A   1      33.340  29.002  25.950  1.00  0.00     0.124 C 
ATOM      6  C   UNL A   1      32.103  26.960  24.549  1.00  0.00     0.107 C 
ATOM      7  C   UNL A   1      32.634  26.477  25.834  1.00  0.00    -0.006 C 
ATOM      8  C   UNL A   1      32.716  28.348  24.391  1.00  0.00     0.048 C 
ATOM      9  C   UNL A   1      33.357  27.384  26.496  1.00  0.00    -0.014 C 
BRANCH   6  10
ATOM     10  N   UNL A   1      30.653  26.879  24.513  1.00  0.00    -0.332 N 
ATOM     11  N   UNL A   1      29.949  24.691  23.818  1.00  0.00    -0.308 N 
ATOM     12  C   UNL A   1      29.727  25.985  24.117  1.00  0.00     0.319 C 
ATOM     13  H   UNL A   1      29.198  24.263  23.348  1.00  0.00     0.171 HD
ATOM     14  O   UNL A   1      28.579  26.409  23.945  1.00  0.00    -0.248 OA
ATOM     15  H   UNL A   1      30.236  27.694  24.874  1.00  0.00     0.165 HD
BRANCH  11  16
ATOM     16  C   UNL A   1      31.029  23.834  24.041  1.00  0.00     0.046 A 
ATOM     17  C   UNL A   1      32.611  21.554  24.045  1.00  0.00     0.119 A 
ATOM     18  C   UNL A   1      32.766  22.501  23.042  1.00  0.00     0.048 A 
ATOM     19  C   UNL A   1      31.858  21.889  25.174  1.00  0.00     0.052 A 
ATOM     20  C   UNL A   1      32.014  23.672  23.078  1.00  0.00     0.030 A 
ATOM     21  C   UNL A   1      31.090  23.066  25.209  1.00  0.00    -0.024 A 
ATOM     22  C   UNL A   1      30.447  23.475  26.505  1.00  0.00     0.047 C 
BRANCH  17  23
ATOM     23  O   UNL A   1      33.166  20.305  24.045  1.00  0.00    -0.497 OA
ATOM     24  C   UNL A   1      32.545  19.350  24.902  1.00  0.00     0.278 C 
ENDBRANCH  17  23
ENDBRANCH  11  16
ENDBRANCH   6  10
ENDBRANCH   3   5
ENDBRANCH   2   3
ENDBRANCH   1   2
BRANCH   1  25
ATOM     25  C   UNL A   1      34.561  33.348  29.255  1.00  0.00     0.275 C 
BRANCH  25  26
ATOM     26  O   UNL A   1      34.993  32.207  30.066  1.00  0.00    -0.458 OA
BRANCH  26  27
ATOM     27  C   UNL A   1      36.287  31.792  30.233  1.00  0.00     0.338 C 
ATOM     28  O   UNL A   1      37.233  32.549  30.369  1.00  0.00    -0.246 OA
BRANCH  27  29
ATOM     29  C   UNL A   1      36.525  30.360  29.922  1.00  0.00     0.060 A 
ATOM     30  C   UNL A   1      37.025  29.312  31.304  1.00  0.00     0.016 A 
ATOM     31  C   UNL A   1      37.163  30.061  28.297  1.00  0.00     0.016 A 
ATOM     32  C   UNL A   1      38.377  28.126  31.072  1.00  0.00     0.010 A 
ATOM     33  C   UNL A   1      38.462  28.835  28.032  1.00  0.00     0.010 A 
ATOM     34  C   UNL A   1      39.134  27.929  29.434  1.00  0.00    -0.014 A 
BRANCH  34  35
ATOM     35  C   UNL A   1      40.564  27.653  29.256  1.00  0.00     0.031 A 
ATOM     36  C   UNL A   1      40.935  26.426  28.527  1.00  0.00     0.074 A 
ATOM     37  C   UNL A   1      41.514  28.523  29.685  1.00  0.00     0.049 A 
ATOM     38  N   UNL A   1      42.086  25.880  28.661  1.00  0.00    -0.248 NA
ATOM     39  C   UNL A   1      40.045  25.640  27.671  1.00  0.00     0.031 C 
ATOM     40  C   UNL A   1      42.964  28.449  29.477  1.00  0.00     0.029 A 
ATOM     41  N   UNL A   1      41.396  29.643  30.491  1.00  0.00    -0.354 N 
ATOM     42  C   UNL A   1      42.055  24.660  28.048  1.00  0.00     0.074 A 
ATOM     43  C   UNL A   1      40.814  24.605  27.331  1.00  0.00     0.031 C 
ATOM     44  C   UNL A   1      43.580  29.261  30.353  1.00  0.00     0.029 A 
ATOM     45  C   UNL A   1      42.569  29.853  31.206  1.00  0.00     0.049 A 
ATOM     46  H   UNL A   1      40.595  30.211  30.549  1.00  0.00     0.167 HD
ATOM     47  C   UNL A   1      43.073  23.797  28.275  1.00  0.00     0.037 A 
ATOM     48  C   UNL A   1      42.611  29.891  32.569  1.00  0.00     0.037 A 
ATOM     49  C   UNL A   1      44.012  24.369  29.236  1.00  0.00     0.049 A 
ATOM     50  C   UNL A   1      43.279  28.641  33.122  1.00  0.00     0.074 A 
ATOM     51  C   UNL A   1      45.112  25.197  29.079  1.00  0.00     0.029 A 
ATOM     52  N   UNL A   1      43.612  24.519  30.567  1.00  0.00    -0.354 N 
ATOM     53  N   UNL A   1      43.508  27.556  32.430  1.00  0.00    -0.248 NA
ATOM     54  C   UNL A   1      43.680  28.500  34.518  1.00  0.00     0.031 C 
ATOM     55  C   UNL A   1      45.400  25.797  30.333  1.00  0.00     0.029 A 
ATOM     56  C   UNL A   1      44.526  25.284  31.273  1.00  0.00     0.049 A 
ATOM     57  H   UNL A   1      42.791  24.133  30.951  1.00  0.00     0.167 HD
ATOM     58  C   UNL A   1      44.078  26.596  33.234  1.00  0.00     0.074 A 
ATOM     59  C   UNL A   1      44.093  27.220  34.548  1.00  0.00     0.031 C 
ATOM     60  C   UNL A   1      44.494  25.387  32.733  1.00  0.00     0.037 A 
BRANCH  47  61
ATOM     61  C   UNL A   1      43.271  22.577  27.427  1.00  0.00     0.057 A 
ATOM     62  C   UNL A   1      44.316  22.547  26.494  1.00  0.00     0.134 A 
ATOM     63  C   UNL A   1      42.400  21.472  27.382  1.00  0.00     0.134 A 
ATOM     64  F   UNL A   1      45.273  23.485  26.490  1.00  0.00    -0.206 F 
ATOM     65  C   UNL A   1      44.400  21.572  25.494  1.00  0.00     0.040 A 
ATOM     66  C   UNL A   1      42.434  20.525  26.350  1.00  0.00     0.040 A 
ATOM     67  F   UNL A   1      41.489  21.254  28.342  1.00  0.00    -0.206 F 
ATOM     68  C   UNL A   1      43.427  20.587  25.385  1.00  0.00     0.006 A 
ENDBRANCH  47  61
BRANCH  48  69
ATOM     69  C   UNL A   1      41.451  30.597  33.181  1.00  0.00     0.057 A 
ATOM     70  C   UNL A   1      41.307  31.972  32.911  1.00  0.00     0.134 A 
ATOM     71  C   UNL A   1      40.333  29.931  33.685  1.00  0.00     0.134 A 
ATOM     72  F   UNL A   1      42.359  32.691  32.487  1.00  0.00    -0.206 F 
ATOM     73  C   UNL A   1      40.063  32.604  32.945  1.00  0.00     0.040 A 
ATOM     74  C   UNL A   1      39.085  30.565  33.757  1.00  0.00     0.040 A 
ATOM     75  F   UNL A   1      40.386  28.624  33.979  1.00  0.00    -0.206 F 
ATOM     76  C   UNL A   1      38.939  31.887  33.333  1.00  0.00     0.006 A 
ENDBRANCH  48  69
BRANCH  60  77
ATOM     77  C   UNL A   1      45.063  24.204  33.510  1.00  0.00     0.057 A 
ATOM     78  C   UNL A   1      46.381  24.089  33.967  1.00  0.00     0.134 A 
ATOM     79  C   UNL A   1      44.276  23.044  33.740  1.00  0.00     0.134 A 
ATOM     80  F   UNL A   1      47.309  25.012  33.694  1.00  0.00    -0.206 F 
ATOM     81  C   UNL A   1      46.845  22.967  34.677  1.00  0.00     0.040 A 
ATOM     82  C   UNL A   1      44.746  21.896  34.382  1.00  0.00     0.040 A 
ATOM     83  F   UNL A   1      42.996  22.953  33.362  1.00  0.00    -0.206 F 
ATOM     84  C   UNL A   1      46.031  21.863  34.882  1.00  0.00     0.006 A 
ENDBRANCH  60  77
ENDBRANCH  34  35
ENDBRANCH  27  29
ENDBRANCH  26  27
ENDBRANCH  25  26
ENDBRANCH   1  25
TORSDOF 14
ENDMDL
MODEL 3
REMARK VINA RESULT:     -12.9      4.103      9.763
REMARK SMILES COc1ccc(NC(=O)N[C@@H]2C=C[C@H](C(=O)OCCOC(=O)c3ccc(-c4c5nc(c(-c6c(F)cccc6F)c6ccc([nH]6)c(-c6c(F)cccc6F)c6nc(c(-c7c(F)cccc7F)c7ccc4[nH]7)C=C6)C=C5)cc3)C2)c(C)c1
REMARK SMILES IDX 18 1 17 2 15 3 16 4 14 5 11 6 12 7 77 8 13 9 10 10 7 11 8 12
REMARK SMILES IDX 9 14 6 16 3 17 4 18 80 19 5 20 78 21 79 22 2 23 1 24 19 25
REMARK SMILES IDX 20 26 21 27 22 28 23 29 24 30 76 31 25 32 75 33 26 34 27 35
REMARK SMILES IDX 28 36 69 37 29 38 74 39 68 40 70 41 30 42 73 43 67 44 66 45
REMARK SMILES IDX 31 47 57 48 40 49 56 50 41 51 44 52 55 53 71 54 42 55 43 56
REMARK SMILES IDX 54 58 72 59 45 60 32 61 33 62 38 63 34 64 35 65 37 66 39 67
REMARK SMILES IDX 36 68 58 69 59 70 64 71 60 72 61 73 63 74 65 75 62 76 46 77
REMARK SMILES IDX 47 78 52 79 48 80 49 81 51 82 53 83 50 84
REMARK H PARENT 7 13 10 15 70 46 44 57
REMARK Flexibility Score: inf
ROOT
ATOM      1  C   UNL A   1      34.380  33.933  29.395  1.00  0.00     0.274 C 
ENDROOT
BRANCH   1   2
ATOM      2  O   UNL A   1      33.668  32.770  28.969  1.00  0.00    -0.462 OA
BRANCH   2   3
ATOM      3  C   UNL A   1      34.299  31.948  27.957  1.00  0.00     0.312 C 
ATOM      4  O   UNL A   1      35.103  32.746  27.373  1.00  0.00    -0.252 OA
BRANCH   3   5
ATOM      5  C   UNL A   1      33.844  29.840  27.624  1.00  0.00     0.124 C 
ATOM      6  C   UNL A   1      33.717  27.860  25.695  1.00  0.00     0.107 C 
ATOM      7  C   UNL A   1      32.396  28.100  26.297  1.00  0.00    -0.006 C 
ATOM      8  C   UNL A   1      34.682  28.617  26.601  1.00  0.00     0.048 C 
ATOM      9  C   UNL A   1      32.417  28.950  27.327  1.00  0.00    -0.014 C 
BRANCH   6  10
ATOM     10  N   UNL A   1      33.728  28.217  24.286  1.00  0.00    -0.332 N 
ATOM     11  N   UNL A   1      33.304  26.285  22.925  1.00  0.00    -0.308 N 
ATOM     12  C   UNL A   1      33.661  27.570  23.107  1.00  0.00     0.319 C 
ATOM     13  H   UNL A   1      33.522  25.940  22.029  1.00  0.00     0.171 HD
ATOM     14  O   UNL A   1      34.029  28.194  22.106  1.00  0.00    -0.248 OA
ATOM     15  H   UNL A   1      33.804  29.189  24.160  1.00  0.00     0.165 HD
BRANCH  11  16
ATOM     16  C   UNL A   1      32.686  25.342  23.750  1.00  0.00     0.046 A 
ATOM     17  C   UNL A   1      31.393  24.210  25.929  1.00  0.00     0.119 A 
ATOM     18  C   UNL A   1      30.652  24.674  24.851  1.00  0.00     0.048 A 
ATOM     19  C   UNL A   1      32.777  24.077  25.786  1.00  0.00     0.052 A 
ATOM     20  C   UNL A   1      31.308  25.184  23.734  1.00  0.00     0.030 A 
ATOM     21  C   UNL A   1      33.442  24.600  24.663  1.00  0.00    -0.024 A 
ATOM     22  C   UNL A   1      34.896  24.272  24.462  1.00  0.00     0.047 C 
BRANCH  17  23
ATOM     23  O   UNL A   1      30.878  23.835  27.139  1.00  0.00    -0.497 OA
ATOM     24  C   UNL A   1      29.743  22.975  27.090  1.00  0.00     0.278 C 
ENDBRANCH  17  23
ENDBRANCH  11  16
ENDBRANCH   6  10
ENDBRANCH   3   5
ENDBRANCH   2   3
ENDBRANCH   1   2
BRANCH   1  25
ATOM     25  C   UNL A   1      34.950  33.637  30.787  1.00  0.00     0.275 C 
BRANCH  25  26
ATOM     26  O   UNL A   1      35.432  32.268  30.990  1.00  0.00    -0.458 OA
BRANCH  26  27
ATOM     27  C   UNL A   1      36.736  31.861  30.900  1.00  0.00     0.338 C 
ATOM     28  O   UNL A   1      37.693  32.589  31.109  1.00  0.00    -0.246 OA
BRANCH  27  29
ATOM     29  C   UNL A   1      36.934  30.555  30.225  1.00  0.00     0.060 A 
ATOM     30  C   UNL A   1      37.210  29.130  31.298  1.00  0.00     0.016 A 
ATOM     31  C   UNL A   1      37.746  30.660  28.654  1.00  0.00     0.016 A 
ATOM     32  C   UNL A   1      38.516  27.944  30.879  1.00  0.00     0.010 A 
ATOM     33  C   UNL A   1      39.003  29.450  28.187  1.00  0.00     0.010 A 
ATOM     34  C   UNL A   1      39.452  28.141  29.336  1.00  0.00    -0.014 A 
BRANCH  34  35
ATOM     35  C   UNL A   1      40.877  27.805  29.233  1.00  0.00     0.031 A 
ATOM     36  C   UNL A   1      41.237  26.588  28.481  1.00  0.00     0.074 A 
ATOM     37  C   UNL A   1      41.837  28.614  29.750  1.00  0.00     0.049 A 
ATOM     38  N   UNL A   1      42.352  25.985  28.662  1.00  0.00    -0.248 NA
ATOM     39  C   UNL A   1      40.367  25.876  27.544  1.00  0.00     0.031 C 
ATOM     40  C   UNL A   1      43.292  28.480  29.626  1.00  0.00     0.029 A 
ATOM     41  N   UNL A   1      41.720  29.709  30.590  1.00  0.00    -0.354 N 
ATOM     42  C   UNL A   1      42.305  24.791  28.002  1.00  0.00     0.074 A 
ATOM     43  C   UNL A   1      41.109  24.819  27.212  1.00  0.00     0.031 C 
ATOM     44  C   UNL A   1      43.889  29.231  30.567  1.00  0.00     0.029 A 
ATOM     45  C   UNL A   1      42.855  29.838  31.381  1.00  0.00     0.049 A 
ATOM     46  H   UNL A   1      40.942  30.312  30.623  1.00  0.00     0.167 HD
ATOM     47  C   UNL A   1      43.268  23.874  28.256  1.00  0.00     0.037 A 
ATOM     48  C   UNL A   1      42.816  29.827  32.744  1.00  0.00     0.037 A 
ATOM     49  C   UNL A   1      44.171  24.367  29.292  1.00  0.00     0.049 A 
ATOM     50  C   UNL A   1      43.393  28.528  33.288  1.00  0.00     0.074 A 
ATOM     51  C   UNL A   1      45.314  25.148  29.232  1.00  0.00     0.029 A 
ATOM     52  N   UNL A   1      43.697  24.488  30.601  1.00  0.00    -0.354 N 
ATOM     53  N   UNL A   1      43.615  27.458  32.570  1.00  0.00    -0.248 NA
ATOM     54  C   UNL A   1      43.701  28.319  34.698  1.00  0.00     0.031 C 
ATOM     55  C   UNL A   1      45.552  25.689  30.523  1.00  0.00     0.029 A 
ATOM     56  C   UNL A   1      44.600  25.184  31.390  1.00  0.00     0.049 A 
ATOM     57  H   UNL A   1      42.839  24.127  30.921  1.00  0.00     0.167 HD
ATOM     58  C   UNL A   1      44.092  26.445  33.368  1.00  0.00     0.074 A 
ATOM     59  C   UNL A   1      44.054  27.021  34.704  1.00  0.00     0.031 C 
ATOM     60  C   UNL A   1      44.484  25.236  32.848  1.00  0.00     0.037 A 
BRANCH  47  61
ATOM     61  C   UNL A   1      43.463  22.677  27.375  1.00  0.00     0.057 A 
ATOM     62  C   UNL A   1      44.533  22.652  26.471  1.00  0.00     0.134 A 
ATOM     63  C   UNL A   1      42.569  21.594  27.271  1.00  0.00     0.134 A 
ATOM     64  F   UNL A   1      45.511  23.566  26.524  1.00  0.00    -0.206 F 
ATOM     65  C   UNL A   1      44.624  21.706  25.443  1.00  0.00     0.040 A 
ATOM     66  C   UNL A   1      42.611  20.679  26.210  1.00  0.00     0.040 A 
ATOM     67  F   UNL A   1      41.626  21.367  28.197  1.00  0.00    -0.206 F 
ATOM     68  C   UNL A   1      43.633  20.748  25.275  1.00  0.00     0.006 A 
ENDBRANCH  47  61
BRANCH  48  69
ATOM     69  C   UNL A   1      41.653  30.563  33.313  1.00  0.00     0.057 A 
ATOM     70  C   UNL A   1      40.570  29.801  33.796  1.00  0.00     0.134 A 
ATOM     71  C   UNL A   1      41.720  31.895  33.721  1.00  0.00     0.134 A 
ATOM     72  F   UNL A   1      40.405  28.531  33.392  1.00  0.00    -0.206 F 
ATOM     73  C   UNL A   1      39.718  30.279  34.793  1.00  0.00     0.040 A 
ATOM     74  C   UNL A   1      40.847  32.398  34.697  1.00  0.00     0.040 A 
ATOM     75  F   UNL A   1      42.710  32.695  33.300  1.00  0.00    -0.206 F 
ATOM     76  C   UNL A   1      39.882  31.571  35.273  1.00  0.00     0.006 A 
ENDBRANCH  48  69
BRANCH  60  77
ATOM     77  C   UNL A   1      44.952  24.002  33.611  1.00  0.00     0.057 A 
ATOM     78  C   UNL A   1      44.126  22.977  34.088  1.00  0.00     0.134 A 
ATOM     79  C   UNL A   1      46.314  23.860  33.990  1.00  0.00     0.134 A 
ATOM     80  F   UNL A   1      42.795  23.028  33.971  1.00  0.00    -0.206 F 
ATOM     81  C   UNL A   1      44.622  21.864  34.790  1.00  0.00     0.040 A 
ATOM     82  C   UNL A   1      46.808  22.795  34.747  1.00  0.00     0.040 A 
ATOM     83  F   UNL A   1      47.256  24.745  33.644  1.00  0.00    -0.206 F 
ATOM     84  C   UNL A   1      45.965  21.771  35.127  1.00  0.00     0.006 A 
ENDBRANCH  60  77
ENDBRANCH  34  35
ENDBRANCH  27  29
ENDBRANCH  26  27
ENDBRANCH  25  26
ENDBRANCH   1  25
TORSDOF 14
ENDMDL
