MODEL 1
REMARK VINA RESULT:     -12.3      0.000      0.000
REMARK SMILES O=C(OCCOC(=O)c1ccc(-c2c3nc(c(-c4c(F)cccc4F)c4ccc([nH]4)c(-c4c(F)cccc4F)c4nc(c(-c5c(F)cccc5F)c5ccc2[nH]5)C=C4)C=C3)cc1)C1=Cc2cc(S(F)(F)(F)(F)F)ccc2O[C@@H]1C(F)(F)F
REMARK SMILES IDX 5 1 4 2 3 3 2 4 1 5 63 6 64 7 78 8 65 9 77 10 66 11 76 12
REMARK SMILES IDX 67 13 75 14 74 15 79 16 80 17 81 18 82 19 68 20 69 21 70 22
REMARK SMILES IDX 71 23 72 24 73 25 6 26 7 27 8 28 9 29 10 30 62 31 11 32
REMARK SMILES IDX 61 33 12 34 13 35 14 36 55 37 15 38 60 39 54 40 56 41 16 42
REMARK SMILES IDX 59 43 53 44 52 45 17 47 43 48 26 49 42 50 27 51 30 52 41 53
REMARK SMILES IDX 57 54 28 55 29 56 40 58 58 59 31 60 18 61 19 62 24 63 20 64
REMARK SMILES IDX 21 65 23 66 25 67 22 68 44 69 45 70 50 71 46 72 47 73 49 74
REMARK SMILES IDX 51 75 48 76 32 77 33 78 38 79 34 80 35 81 37 82 39 83 36 84
REMARK H PARENT 56 46 30 57
REMARK Flexibility Score: inf
ROOT
ATOM      1  C   UNL A   1      34.177  30.079  27.122  1.00  0.00     0.275 C 
ENDROOT
BRANCH   1   2
ATOM      2  C   UNL A   1      34.230  28.778  26.336  1.00  0.00     0.275 C 
BRANCH   2   3
ATOM      3  O   UNL A   1      33.341  27.836  26.918  1.00  0.00    -0.459 OA
BRANCH   3   4
ATOM      4  C   UNL A   1      32.017  27.709  26.422  1.00  0.00     0.338 C 
ATOM      5  O   UNL A   1      31.040  27.629  27.231  1.00  0.00    -0.246 OA
BRANCH   4   6
ATOM      6  C   UNL A   1      31.767  27.668  24.923  1.00  0.00     0.087 C 
ATOM      7  C   UNL A   1      32.262  26.642  24.178  1.00  0.00     0.027 C 
ATOM      8  C   UNL A   1      30.966  28.774  24.256  1.00  0.00     0.316 C 
ATOM      9  C   UNL A   1      33.065  25.537  24.846  1.00  0.00     0.019 A 
ATOM     10  O   UNL A   1      31.551  25.444  26.676  1.00  0.00    -0.475 OA
ATOM     11  C   UNL A   1      34.254  25.195  24.223  1.00  0.00     0.036 A 
ATOM     12  C   UNL A   1      32.691  24.959  25.982  1.00  0.00     0.128 A 
ATOM     13  C   UNL A   1      34.847  24.014  24.729  1.00  0.00     0.107 A 
ATOM     14  C   UNL A   1      33.397  23.896  26.491  1.00  0.00     0.048 A 
ATOM     15  C   UNL A   1      34.549  23.466  25.894  1.00  0.00     0.028 A 
BRANCH   8  16
ATOM     16  C   UNL A   1      29.738  28.177  23.589  1.00  0.00     0.430 C 
ATOM     17  F   UNL A   1      29.318  27.127  24.291  1.00  0.00    -0.167 F 
ATOM     18  F   UNL A   1      28.772  29.090  23.540  1.00  0.00    -0.167 F 
ATOM     19  F   UNL A   1      30.045  27.791  22.355  1.00  0.00    -0.167 F 
ENDBRANCH   8  16
BRANCH  13  20
ATOM     20  S   UNL A   1      36.102  23.199  23.712  1.00  0.00     0.310 S 
ATOM     21  F   UNL A   1      35.988  21.859  24.553  1.00  0.00    -0.094 F 
ATOM     22  F   UNL A   1      37.203  23.667  24.737  1.00  0.00    -0.094 F 
ATOM     23  F   UNL A   1      37.175  22.488  22.840  1.00  0.00    -0.094 F 
ATOM     24  F   UNL A   1      34.970  22.620  22.774  1.00  0.00    -0.094 F 
ATOM     25  F   UNL A   1      34.989  23.819  24.648  1.00  0.00    -0.094 F 
ENDBRANCH  13  20
ENDBRANCH   4   6
ENDBRANCH   3   4
ENDBRANCH   2   3
ENDBRANCH   1   2
BRANCH   1  26
ATOM     26  O   UNL A   1      34.543  29.833  28.471  1.00  0.00    -0.458 OA
BRANCH  26  27
ATOM     27  C   UNL A   1      35.725  30.413  29.004  1.00  0.00     0.338 C 
ATOM     28  O   UNL A   1      35.658  31.501  29.658  1.00  0.00    -0.246 OA
BRANCH  27  29
ATOM     29  C   UNL A   1      37.068  29.735  28.792  1.00  0.00     0.060 A 
ATOM     30  C   UNL A   1      37.694  29.203  29.908  1.00  0.00     0.016 A 
ATOM     31  C   UNL A   1      37.672  29.760  27.610  1.00  0.00     0.016 A 
ATOM     32  C   UNL A   1      39.081  28.983  29.735  1.00  0.00     0.010 A 
ATOM     33  C   UNL A   1      38.992  29.402  27.491  1.00  0.00     0.010 A 
ATOM     34  C   UNL A   1      39.691  28.923  28.565  1.00  0.00    -0.014 A 
BRANCH  34  35
ATOM     35  C   UNL A   1      41.093  28.354  28.420  1.00  0.00     0.031 A 
ATOM     36  C   UNL A   1      41.306  27.004  28.141  1.00  0.00     0.074 A 
ATOM     37  C   UNL A   1      42.104  29.296  28.505  1.00  0.00     0.049 A 
ATOM     38  N   UNL A   1      42.467  26.399  27.882  1.00  0.00    -0.248 NA
ATOM     39  C   UNL A   1      40.237  25.995  28.082  1.00  0.00     0.031 C 
ATOM     40  C   UNL A   1      41.895  30.662  28.778  1.00  0.00     0.029 A 
ATOM     41  N   UNL A   1      43.457  29.099  28.352  1.00  0.00    -0.354 N 
ATOM     42  C   UNL A   1      42.269  25.101  27.645  1.00  0.00     0.074 A 
ATOM     43  C   UNL A   1      40.833  24.821  27.775  1.00  0.00     0.031 C 
ATOM     44  C   UNL A   1      43.107  31.278  28.798  1.00  0.00     0.029 A 
ATOM     45  C   UNL A   1      44.093  30.307  28.539  1.00  0.00     0.049 A 
ATOM     46  H   UNL A   1      43.896  28.242  28.142  1.00  0.00     0.167 HD
ATOM     47  C   UNL A   1      43.229  24.141  27.322  1.00  0.00     0.037 A 
ATOM     48  C   UNL A   1      45.453  30.567  28.493  1.00  0.00     0.037 A 
ATOM     49  C   UNL A   1      44.586  24.410  27.233  1.00  0.00     0.049 A 
ATOM     50  C   UNL A   1      46.419  29.594  28.227  1.00  0.00     0.074 A 
ATOM     51  C   UNL A   1      45.566  23.455  26.901  1.00  0.00     0.029 A 
ATOM     52  N   UNL A   1      45.223  25.612  27.445  1.00  0.00    -0.354 N 
ATOM     53  N   UNL A   1      46.217  28.304  27.950  1.00  0.00    -0.248 NA
ATOM     54  C   UNL A   1      47.865  29.850  28.208  1.00  0.00     0.031 C 
ATOM     55  C   UNL A   1      46.778  24.070  26.922  1.00  0.00     0.029 A 
ATOM     56  C   UNL A   1      46.575  25.420  27.269  1.00  0.00     0.049 A 
ATOM     57  H   UNL A   1      44.787  26.463  27.682  1.00  0.00     0.167 HD
ATOM     58  C   UNL A   1      47.383  27.692  27.734  1.00  0.00     0.074 A 
ATOM     59  C   UNL A   1      48.461  28.678  27.904  1.00  0.00     0.031 C 
ATOM     60  C   UNL A   1      47.591  26.354  27.398  1.00  0.00     0.037 A 
BRANCH  47  61
ATOM     61  C   UNL A   1      42.760  22.721  27.053  1.00  0.00     0.057 A 
ATOM     62  C   UNL A   1      42.610  22.350  25.726  1.00  0.00     0.134 A 
ATOM     63  C   UNL A   1      42.603  21.841  28.035  1.00  0.00     0.134 A 
ATOM     64  F   UNL A   1      43.000  23.116  24.712  1.00  0.00    -0.206 F 
ATOM     65  C   UNL A   1      42.004  21.084  25.550  1.00  0.00     0.040 A 
ATOM     66  C   UNL A   1      42.134  20.576  27.773  1.00  0.00     0.040 A 
ATOM     67  F   UNL A   1      42.900  22.188  29.285  1.00  0.00    -0.206 F 
ATOM     68  C   UNL A   1      41.908  20.162  26.491  1.00  0.00     0.006 A 
ENDBRANCH  47  61
BRANCH  48  69
ATOM     69  C   UNL A   1      45.920  31.991  28.746  1.00  0.00     0.057 A 
ATOM     70  C   UNL A   1      46.066  32.878  27.692  1.00  0.00     0.134 A 
ATOM     71  C   UNL A   1      46.284  32.321  29.979  1.00  0.00     0.134 A 
ATOM     72  F   UNL A   1      45.492  32.695  26.506  1.00  0.00    -0.206 F 
ATOM     73  C   UNL A   1      46.881  33.995  27.991  1.00  0.00     0.040 A 
ATOM     74  C   UNL A   1      46.960  33.494  30.218  1.00  0.00     0.040 A 
ATOM     75  F   UNL A   1      45.994  31.510  30.992  1.00  0.00    -0.206 F 
ATOM     76  C   UNL A   1      47.191  34.391  29.212  1.00  0.00     0.006 A 
ENDBRANCH  48  69
BRANCH  60  77
ATOM     77  C   UNL A   1      49.020  25.892  27.159  1.00  0.00     0.057 A 
ATOM     78  C   UNL A   1      49.747  25.510  28.275  1.00  0.00     0.134 A 
ATOM     79  C   UNL A   1      49.580  25.938  25.956  1.00  0.00     0.134 A 
ATOM     80  F   UNL A   1      49.180  25.206  29.439  1.00  0.00    -0.206 F 
ATOM     81  C   UNL A   1      51.145  25.475  28.064  1.00  0.00     0.040 A 
ATOM     82  C   UNL A   1      50.934  25.760  25.807  1.00  0.00     0.040 A 
ATOM     83  F   UNL A   1      48.823  26.161  24.886  1.00  0.00    -0.206 F 
ATOM     84  C   UNL A   1      51.722  25.439  26.877  1.00  0.00     0.006 A 
ENDBRANCH  60  77
ENDBRANCH  34  35
ENDBRANCH  27  29
ENDBRANCH  26  27
ENDBRANCH   1  26
TORSDOF 13
ENDMDL
MODEL 2
REMARK VINA RESULT:     -12.3      5.677     10.112
REMARK SMILES O=C(OCCOC(=O)c1ccc(-c2c3nc(c(-c4c(F)cccc4F)c4ccc([nH]4)c(-c4c(F)cccc4F)c4nc(c(-c5c(F)cccc5F)c5ccc2[nH]5)C=C4)C=C3)cc1)C1=Cc2cc(S(F)(F)(F)(F)F)ccc2O[C@@H]1C(F)(F)F
REMARK SMILES IDX 5 1 4 2 3 3 2 4 1 5 63 6 64 7 78 8 65 9 77 10 66 11 76 12
REMARK SMILES IDX 67 13 75 14 74 15 79 16 80 17 81 18 82 19 68 20 69 21 70 22
REMARK SMILES IDX 71 23 72 24 73 25 6 26 7 27 8 28 9 29 10 30 62 31 11 32
REMARK SMILES IDX 61 33 12 34 13 35 14 36 55 37 15 38 60 39 54 40 56 41 16 42
REMARK SMILES IDX 59 43 53 44 52 45 17 47 43 48 26 49 42 50 27 51 30 52 41 53
REMARK SMILES IDX 57 54 28 55 29 56 40 58 58 59 31 60 18 61 19 62 24 63 20 64
REMARK SMILES IDX 21 65 23 66 25 67 22 68 44 69 45 70 50 71 46 72 47 73 49 74
REMARK SMILES IDX 51 75 48 76 32 77 33 78 38 79 34 80 35 81 37 82 39 83 36 84
REMARK H PARENT 56 46 30 57
REMARK Flexibility Score: inf
ROOT
ATOM      1  C   UNL A   1      38.783  22.752  25.822  1.00  0.00     0.275 C 
ENDROOT
BRANCH   1   2
ATOM      2  C   UNL A   1      37.410  23.379  26.012  1.00  0.00     0.275 C 
BRANCH   2   3
ATOM      3  O   UNL A   1      36.885  23.761  24.749  1.00  0.00    -0.459 OA
BRANCH   3   4
ATOM      4  C   UNL A   1      35.933  22.933  24.097  1.00  0.00     0.338 C 
ATOM      5  O   UNL A   1      35.988  22.771  22.838  1.00  0.00    -0.246 OA
BRANCH   4   6
ATOM      6  C   UNL A   1      34.847  22.241  24.906  1.00  0.00     0.087 C 
ATOM      7  C   UNL A   1      33.776  22.952  25.355  1.00  0.00     0.027 C 
ATOM      8  C   UNL A   1      34.957  20.757  25.212  1.00  0.00     0.316 C 
ATOM      9  C   UNL A   1      33.667  24.437  25.050  1.00  0.00     0.019 A 
ATOM     10  O   UNL A   1      34.388  24.103  22.809  1.00  0.00    -0.475 OA
ATOM     11  C   UNL A   1      33.348  25.251  26.123  1.00  0.00     0.036 A 
ATOM     12  C   UNL A   1      33.909  24.945  23.847  1.00  0.00     0.128 A 
ATOM     13  C   UNL A   1      33.021  26.579  25.758  1.00  0.00     0.107 A 
ATOM     14  C   UNL A   1      33.697  26.280  23.596  1.00  0.00     0.048 A 
ATOM     15  C   UNL A   1      33.323  27.133  24.597  1.00  0.00     0.028 A 
BRANCH   8  16
ATOM     16  C   UNL A   1      33.759  20.029  24.625  1.00  0.00     0.430 C 
ATOM     17  F   UNL A   1      32.815  19.905  25.554  1.00  0.00    -0.167 F 
ATOM     18  F   UNL A   1      33.279  20.724  23.597  1.00  0.00    -0.167 F 
ATOM     19  F   UNL A   1      34.132  18.823  24.208  1.00  0.00    -0.167 F 
ENDBRANCH   8  16
BRANCH  13  20
ATOM     20  S   UNL A   1      32.129  27.589  26.966  1.00  0.00     0.310 S 
ATOM     21  F   UNL A   1      32.004  28.795  25.942  1.00  0.00    -0.094 F 
ATOM     22  F   UNL A   1      33.503  28.212  27.423  1.00  0.00    -0.094 F 
ATOM     23  F   UNL A   1      31.358  28.463  27.995  1.00  0.00    -0.094 F 
ATOM     24  F   UNL A   1      30.754  27.060  26.397  1.00  0.00    -0.094 F 
ATOM     25  F   UNL A   1      32.889  26.781  25.840  1.00  0.00    -0.094 F 
ENDBRANCH  13  20
ENDBRANCH   4   6
ENDBRANCH   3   4
ENDBRANCH   2   3
ENDBRANCH   1   2
BRANCH   1  26
ATOM     26  O   UNL A   1      39.623  23.114  26.906  1.00  0.00    -0.458 OA
BRANCH  26  27
ATOM     27  C   UNL A   1      40.480  24.242  26.796  1.00  0.00     0.338 C 
ATOM     28  O   UNL A   1      41.434  24.234  25.956  1.00  0.00    -0.246 OA
BRANCH  27  29
ATOM     29  C   UNL A   1      40.257  25.457  27.681  1.00  0.00     0.060 A 
ATOM     30  C   UNL A   1      41.184  26.483  27.597  1.00  0.00     0.016 A 
ATOM     31  C   UNL A   1      39.283  25.479  28.584  1.00  0.00     0.016 A 
ATOM     32  C   UNL A   1      41.173  27.357  28.711  1.00  0.00     0.010 A 
ATOM     33  C   UNL A   1      39.259  26.443  29.563  1.00  0.00     0.010 A 
ATOM     34  C   UNL A   1      40.180  27.454  29.577  1.00  0.00    -0.014 A 
BRANCH  34  35
ATOM     35  C   UNL A   1      40.067  28.626  30.538  1.00  0.00     0.031 A 
ATOM     36  C   UNL A   1      39.142  29.650  30.333  1.00  0.00     0.074 A 
ATOM     37  C   UNL A   1      40.891  28.538  31.647  1.00  0.00     0.049 A 
ATOM     38  N   UNL A   1      38.864  30.671  31.146  1.00  0.00    -0.248 NA
ATOM     39  C   UNL A   1      38.289  29.765  29.140  1.00  0.00     0.031 C 
ATOM     40  C   UNL A   1      41.822  27.503  31.864  1.00  0.00     0.029 A 
ATOM     41  N   UNL A   1      40.967  29.404  32.714  1.00  0.00    -0.354 N 
ATOM     42  C   UNL A   1      37.906  31.435  30.617  1.00  0.00     0.074 A 
ATOM     43  C   UNL A   1      37.526  30.867  29.317  1.00  0.00     0.031 C 
ATOM     44  C   UNL A   1      42.457  27.747  33.040  1.00  0.00     0.029 A 
ATOM     45  C   UNL A   1      41.935  28.939  33.577  1.00  0.00     0.049 A 
ATOM     46  H   UNL A   1      40.424  30.216  32.839  1.00  0.00     0.167 HD
ATOM     47  C   UNL A   1      37.333  32.582  31.169  1.00  0.00     0.037 A 
ATOM     48  C   UNL A   1      42.353  29.508  34.769  1.00  0.00     0.037 A 
ATOM     49  C   UNL A   1      37.722  33.127  32.382  1.00  0.00     0.049 A 
ATOM     50  C   UNL A   1      41.820  30.689  35.294  1.00  0.00     0.074 A 
ATOM     51  C   UNL A   1      37.149  34.279  32.957  1.00  0.00     0.029 A 
ATOM     52  N   UNL A   1      38.706  32.677  33.233  1.00  0.00    -0.354 N 
ATOM     53  N   UNL A   1      40.835  31.430  34.784  1.00  0.00    -0.248 NA
ATOM     54  C   UNL A   1      42.278  31.319  36.539  1.00  0.00     0.031 C 
ATOM     55  C   UNL A   1      37.785  34.524  34.133  1.00  0.00     0.029 A 
ATOM     56  C   UNL A   1      38.767  33.530  34.312  1.00  0.00     0.049 A 
ATOM     57  H   UNL A   1      39.270  31.881  33.095  1.00  0.00     0.167 HD
ATOM     58  C   UNL A   1      40.588  32.474  35.577  1.00  0.00     0.074 A 
ATOM     59  C   UNL A   1      41.518  32.421  36.715  1.00  0.00     0.031 C 
ATOM     60  C   UNL A   1      39.622  33.466  35.401  1.00  0.00     0.037 A 
BRANCH  47  61
ATOM     61  C   UNL A   1      36.221  33.271  30.396  1.00  0.00     0.057 A 
ATOM     62  C   UNL A   1      36.599  34.048  29.313  1.00  0.00     0.134 A 
ATOM     63  C   UNL A   1      34.941  33.055  30.675  1.00  0.00     0.134 A 
ATOM     64  F   UNL A   1      37.843  34.086  28.847  1.00  0.00    -0.206 F 
ATOM     65  C   UNL A   1      35.540  34.800  28.750  1.00  0.00     0.040 A 
ATOM     66  C   UNL A   1      33.953  33.723  29.992  1.00  0.00     0.040 A 
ATOM     67  F   UNL A   1      34.611  32.185  31.626  1.00  0.00    -0.206 F 
ATOM     68  C   UNL A   1      34.258  34.554  28.950  1.00  0.00     0.006 A 
ENDBRANCH  47  61
BRANCH  48  69
ATOM     69  C   UNL A   1      43.455  28.811  35.550  1.00  0.00     0.057 A 
ATOM     70  C   UNL A   1      44.783  29.147  35.342  1.00  0.00     0.134 A 
ATOM     71  C   UNL A   1      43.117  27.806  36.349  1.00  0.00     0.134 A 
ATOM     72  F   UNL A   1      45.160  30.284  34.764  1.00  0.00    -0.206 F 
ATOM     73  C   UNL A   1      45.699  28.171  35.797  1.00  0.00     0.040 A 
ATOM     74  C   UNL A   1      44.077  26.971  36.869  1.00  0.00     0.040 A 
ATOM     75  F   UNL A   1      41.837  27.603  36.648  1.00  0.00    -0.206 F 
ATOM     76  C   UNL A   1      45.407  27.210  36.654  1.00  0.00     0.006 A 
ENDBRANCH  48  69
BRANCH  60  77
ATOM     77  C   UNL A   1      39.500  34.541  36.470  1.00  0.00     0.057 A 
ATOM     78  C   UNL A   1      40.233  35.701  36.273  1.00  0.00     0.134 A 
ATOM     79  C   UNL A   1      38.803  34.348  37.582  1.00  0.00     0.134 A 
ATOM     80  F   UNL A   1      40.733  36.051  35.091  1.00  0.00    -0.206 F 
ATOM     81  C   UNL A   1      40.401  36.478  37.443  1.00  0.00     0.040 A 
ATOM     82  C   UNL A   1      38.912  35.222  38.637  1.00  0.00     0.040 A 
ATOM     83  F   UNL A   1      37.993  33.298  37.678  1.00  0.00    -0.206 F 
ATOM     84  C   UNL A   1      39.666  36.357  38.534  1.00  0.00     0.006 A 
ENDBRANCH  60  77
ENDBRANCH  34  35
ENDBRANCH  27  29
ENDBRANCH  26  27
ENDBRANCH   1  26
TORSDOF 13
ENDMDL
MODEL 3
REMARK VINA RESULT:     -12.1      3.356      4.296
REMARK SMILES O=C(OCCOC(=O)c1ccc(-c2c3nc(c(-c4c(F)cccc4F)c4ccc([nH]4)c(-c4c(F)cccc4F)c4nc(c(-c5c(F)cccc5F)c5ccc2[nH]5)C=C4)C=C3)cc1)C1=Cc2cc(S(F)(F)(F)(F)F)ccc2O[C@@H]1C(F)(F)F
REMARK SMILES IDX 5 1 4 2 3 3 2 4 1 5 63 6 64 7 78 8 65 9 77 10 66 11 76 12
REMARK SMILES IDX 67 13 75 14 74 15 79 16 80 17 81 18 82 19 68 20 69 21 70 22
REMARK SMILES IDX 71 23 72 24 73 25 6 26 7 27 8 28 9 29 10 30 62 31 11 32
REMARK SMILES IDX 61 33 12 34 13 35 14 36 55 37 15 38 60 39 54 40 56 41 16 42
REMARK SMILES IDX 59 43 53 44 52 45 17 47 43 48 26 49 42 50 27 51 30 52 41 53
REMARK SMILES IDX 57 54 28 55 29 56 40 58 58 59 31 60 18 61 19 62 24 63 20 64
REMARK SMILES IDX 21 65 23 66 25 67 22 68 44 69 45 70 50 71 46 72 47 73 49 74
REMARK SMILES IDX 51 75 48 76 32 77 33 78 38 79 34 80 35 81 37 82 39 83 36 84
REMARK H PARENT 56 46 30 57
REMARK Flexibility Score: inf
ROOT
ATOM      1  C   UNL A   1      33.447  30.066  26.350  1.00  0.00     0.275 C 
ENDROOT
BRANCH   1   2
ATOM      2  C   UNL A   1      34.001  28.650  26.378  1.00  0.00     0.275 C 
BRANCH   2   3
ATOM      3  O   UNL A   1      33.105  27.805  27.085  1.00  0.00    -0.459 OA
BRANCH   3   4
ATOM      4  C   UNL A   1      31.860  27.445  26.503  1.00  0.00     0.338 C 
ATOM      5  O   UNL A   1      30.846  27.247  27.243  1.00  0.00    -0.246 OA
BRANCH   4   6
ATOM      6  C   UNL A   1      31.741  27.297  24.995  1.00  0.00     0.087 C 
ATOM      7  C   UNL A   1      32.310  26.230  24.369  1.00  0.00     0.027 C 
ATOM      8  C   UNL A   1      30.986  28.339  24.186  1.00  0.00     0.316 C 
ATOM      9  C   UNL A   1      33.066  25.189  25.178  1.00  0.00     0.019 A 
ATOM     10  O   UNL A   1      31.402  25.195  26.876  1.00  0.00    -0.475 OA
ATOM     11  C   UNL A   1      34.307  24.826  24.684  1.00  0.00     0.036 A 
ATOM     12  C   UNL A   1      32.602  24.684  26.316  1.00  0.00     0.128 A 
ATOM     13  C   UNL A   1      34.869  23.694  25.320  1.00  0.00     0.107 A 
ATOM     14  C   UNL A   1      33.275  23.672  26.957  1.00  0.00     0.048 A 
ATOM     15  C   UNL A   1      34.479  23.222  26.491  1.00  0.00     0.028 A 
BRANCH   8  16
ATOM     16  C   UNL A   1      29.827  27.675  23.461  1.00  0.00     0.430 C 
ATOM     17  F   UNL A   1      28.905  28.588  23.168  1.00  0.00    -0.167 F 
ATOM     18  F   UNL A   1      30.269  27.115  22.339  1.00  0.00    -0.167 F 
ATOM     19  F   UNL A   1      29.292  26.741  24.242  1.00  0.00    -0.167 F 
ENDBRANCH   8  16
BRANCH  13  20
ATOM     20  S   UNL A   1      36.216  22.832  24.473  1.00  0.00     0.310 S 
ATOM     21  F   UNL A   1      36.017  23.703  23.161  1.00  0.00    -0.094 F 
ATOM     22  F   UNL A   1      35.164  21.822  23.878  1.00  0.00    -0.094 F 
ATOM     23  F   UNL A   1      37.375  22.101  23.738  1.00  0.00    -0.094 F 
ATOM     24  F   UNL A   1      37.234  23.937  24.962  1.00  0.00    -0.094 F 
ATOM     25  F   UNL A   1      35.035  23.650  25.132  1.00  0.00    -0.094 F 
ENDBRANCH  13  20
ENDBRANCH   4   6
ENDBRANCH   3   4
ENDBRANCH   2   3
ENDBRANCH   1   2
BRANCH   1  26
ATOM     26  O   UNL A   1      33.593  30.657  27.632  1.00  0.00    -0.458 OA
BRANCH  26  27
ATOM     27  C   UNL A   1      34.714  31.482  27.911  1.00  0.00     0.338 C 
ATOM     28  O   UNL A   1      34.678  32.721  27.626  1.00  0.00    -0.246 OA
BRANCH  27  29
ATOM     29  C   UNL A   1      35.958  30.886  28.549  1.00  0.00     0.060 A 
ATOM     30  C   UNL A   1      37.185  31.300  28.058  1.00  0.00     0.016 A 
ATOM     31  C   UNL A   1      35.869  29.918  29.454  1.00  0.00     0.016 A 
ATOM     32  C   UNL A   1      38.253  30.426  28.372  1.00  0.00     0.010 A 
ATOM     33  C   UNL A   1      36.979  29.194  29.815  1.00  0.00     0.010 A 
ATOM     34  C   UNL A   1      38.216  29.510  29.323  1.00  0.00    -0.014 A 
BRANCH  34  35
ATOM     35  C   UNL A   1      39.479  28.842  29.842  1.00  0.00     0.031 A 
ATOM     36  C   UNL A   1      40.054  27.756  29.180  1.00  0.00     0.074 A 
ATOM     37  C   UNL A   1      40.032  29.451  30.955  1.00  0.00     0.049 A 
ATOM     38  N   UNL A   1      41.209  27.151  29.461  1.00  0.00    -0.248 NA
ATOM     39  C   UNL A   1      39.452  27.085  28.017  1.00  0.00     0.031 C 
ATOM     40  C   UNL A   1      39.461  30.553  31.623  1.00  0.00     0.029 A 
ATOM     41  N   UNL A   1      41.197  29.120  31.608  1.00  0.00    -0.354 N 
ATOM     42  C   UNL A   1      41.435  26.162  28.594  1.00  0.00     0.074 A 
ATOM     43  C   UNL A   1      40.305  26.102  27.656  1.00  0.00     0.031 C 
ATOM     44  C   UNL A   1      40.266  30.874  32.670  1.00  0.00     0.029 A 
ATOM     45  C   UNL A   1      41.352  29.978  32.674  1.00  0.00     0.049 A 
ATOM     46  H   UNL A   1      41.814  28.395  31.357  1.00  0.00     0.167 HD
ATOM     47  C   UNL A   1      42.539  25.309  28.547  1.00  0.00     0.037 A 
ATOM     48  C   UNL A   1      42.375  29.995  33.609  1.00  0.00     0.037 A 
ATOM     49  C   UNL A   1      43.584  25.354  29.457  1.00  0.00     0.049 A 
ATOM     50  C   UNL A   1      43.451  29.104  33.596  1.00  0.00     0.074 A 
ATOM     51  C   UNL A   1      44.709  24.507  29.418  1.00  0.00     0.029 A 
ATOM     52  N   UNL A   1      43.726  26.196  30.536  1.00  0.00    -0.354 N 
ATOM     53  N   UNL A   1      43.697  28.142  32.705  1.00  0.00    -0.248 NA
ATOM     54  C   UNL A   1      44.523  29.091  34.600  1.00  0.00     0.031 C 
ATOM     55  C   UNL A   1      45.513  24.828  30.466  1.00  0.00     0.029 A 
ATOM     56  C   UNL A   1      44.904  25.880  31.177  1.00  0.00     0.049 A 
ATOM     57  H   UNL A   1      43.096  26.903  30.805  1.00  0.00     0.167 HD
ATOM     58  C   UNL A   1      44.831  27.510  33.013  1.00  0.00     0.074 A 
ATOM     59  C   UNL A   1      45.375  28.107  34.241  1.00  0.00     0.031 C 
ATOM     60  C   UNL A   1      45.436  26.461  32.317  1.00  0.00     0.037 A 
BRANCH  47  61
ATOM     61  C   UNL A   1      42.599  24.275  27.436  1.00  0.00     0.057 A 
ATOM     62  C   UNL A   1      43.242  24.647  26.266  1.00  0.00     0.134 A 
ATOM     63  C   UNL A   1      42.151  23.037  27.611  1.00  0.00     0.134 A 
ATOM     64  F   UNL A   1      43.923  25.781  26.143  1.00  0.00    -0.206 F 
ATOM     65  C   UNL A   1      43.107  23.709  25.215  1.00  0.00     0.040 A 
ATOM     66  C   UNL A   1      42.174  22.131  26.578  1.00  0.00     0.040 A 
ATOM     67  F   UNL A   1      41.675  22.670  28.798  1.00  0.00    -0.206 F 
ATOM     68  C   UNL A   1      42.741  22.450  25.376  1.00  0.00     0.006 A 
ENDBRANCH  47  61
BRANCH  48  69
ATOM     69  C   UNL A   1      42.323  31.041  34.711  1.00  0.00     0.057 A 
ATOM     70  C   UNL A   1      41.639  30.785  35.888  1.00  0.00     0.134 A 
ATOM     71  C   UNL A   1      42.855  32.233  34.469  1.00  0.00     0.134 A 
ATOM     72  F   UNL A   1      41.314  29.558  36.285  1.00  0.00    -0.206 F 
ATOM     73  C   UNL A   1      41.317  31.946  36.628  1.00  0.00     0.040 A 
ATOM     74  C   UNL A   1      42.609  33.292  35.309  1.00  0.00     0.040 A 
ATOM     75  F   UNL A   1      43.632  32.405  33.404  1.00  0.00    -0.206 F 
ATOM     76  C   UNL A   1      41.890  33.125  36.460  1.00  0.00     0.006 A 
ENDBRANCH  48  69
BRANCH  60  77
ATOM     77  C   UNL A   1      46.758  25.926  32.842  1.00  0.00     0.057 A 
ATOM     78  C   UNL A   1      47.910  26.445  32.275  1.00  0.00     0.134 A 
ATOM     79  C   UNL A   1      46.812  24.943  33.733  1.00  0.00     0.134 A 
ATOM     80  F   UNL A   1      47.929  27.581  31.583  1.00  0.00    -0.206 F 
ATOM     81  C   UNL A   1      49.064  25.657  32.499  1.00  0.00     0.040 A 
ATOM     82  C   UNL A   1      47.999  24.307  34.002  1.00  0.00     0.040 A 
ATOM     83  F   UNL A   1      45.706  24.569  34.370  1.00  0.00    -0.206 F 
ATOM     84  C   UNL A   1      49.168  24.729  33.432  1.00  0.00     0.006 A 
ENDBRANCH  60  77
ENDBRANCH  34  35
ENDBRANCH  27  29
ENDBRANCH  26  27
ENDBRANCH   1  26
TORSDOF 13
ENDMDL
