MODEL 1
REMARK VINA RESULT:     -10.7      0.000      0.000
REMARK SMILES CC[C@@H](C)[C@H](NC(=O)C1CCN(C(=O)OC(C)(C)C)CC1)C(=O)OCCOC(=O)c1ccc(-c2c3nc(c(-c4c(F)cccc4F)c4ccc([nH]4)c(-c4c(F)cccc4F)c4nc(c(-c5c(F)cccc5F)c5ccc2[nH]5)C=C4)C=C3)cc1
REMARK SMILES IDX 25 1 24 2 22 3 23 4 5 5 3 6 4 7 2 8 1 9 6 10 7 11 8 13 9 14
REMARK SMILES IDX 10 15 21 16 11 17 20 18 12 19 13 20 14 21 15 22 16 23 17 24
REMARK SMILES IDX 18 25 19 26 26 27 27 28 28 29 29 30 30 31 31 32 83 33 32 34
REMARK SMILES IDX 82 35 33 36 34 37 35 38 76 39 36 40 81 41 75 42 77 43 37 44
REMARK SMILES IDX 80 45 74 46 73 47 38 49 64 50 47 51 63 52 48 53 51 54 62 55
REMARK SMILES IDX 78 56 49 57 50 58 61 60 79 61 52 62 39 63 40 64 45 65 41 66
REMARK SMILES IDX 42 67 44 68 46 69 43 70 65 71 66 72 71 73 67 74 68 75 70 76
REMARK SMILES IDX 72 77 69 78 53 79 54 80 59 81 55 82 56 83 58 84 60 85 57 86
REMARK H PARENT 6 12 77 48 51 59
REMARK Flexibility Score: inf
ROOT
ATOM      1  C   UNL A   1      32.871  31.124  27.153  1.00  0.00     0.274 C 
ENDROOT
BRANCH   1   2
ATOM      2  O   UNL A   1      32.325  30.365  26.056  1.00  0.00    -0.461 OA
BRANCH   2   3
ATOM      3  C   UNL A   1      31.795  29.151  26.372  1.00  0.00     0.329 C 
ATOM      4  O   UNL A   1      31.403  28.832  27.489  1.00  0.00    -0.250 OA
BRANCH   3   5
ATOM      5  C   UNL A   1      31.795  28.172  25.175  1.00  0.00     0.195 C 
BRANCH   5   6
ATOM      6  C   UNL A   1      31.263  28.953  23.941  1.00  0.00     0.019 C 
ATOM      7  C   UNL A   1      29.874  28.478  23.501  1.00  0.00     0.010 C 
BRANCH   6   8
ATOM      8  C   UNL A   1      32.279  28.938  22.783  1.00  0.00     0.002 C 
ATOM      9  C   UNL A   1      33.701  28.643  23.245  1.00  0.00     0.004 C 
ENDBRANCH   6   8
ENDBRANCH   5   6
BRANCH   5  10
ATOM     10  N   UNL A   1      31.048  26.949  25.472  1.00  0.00    -0.342 N 
ATOM     11  C   UNL A   1      31.240  25.650  25.119  1.00  0.00     0.223 C 
ATOM     12  H   UNL A   1      30.254  27.094  26.035  1.00  0.00     0.164 HD
ATOM     13  O   UNL A   1      30.458  24.821  25.583  1.00  0.00    -0.275 OA
BRANCH  11  14
ATOM     14  C   UNL A   1      32.373  25.251  24.172  1.00  0.00     0.082 C 
ATOM     15  C   UNL A   1      32.116  23.870  23.546  1.00  0.00     0.035 C 
ATOM     16  C   UNL A   1      33.748  25.278  24.851  1.00  0.00     0.035 C 
ATOM     17  C   UNL A   1      32.396  22.713  24.504  1.00  0.00     0.124 C 
ATOM     18  C   UNL A   1      34.025  24.076  25.758  1.00  0.00     0.124 C 
ATOM     19  N   UNL A   1      33.725  22.819  25.085  1.00  0.00    -0.308 N 
ATOM     20  C   UNL A   1      34.524  21.687  25.136  1.00  0.00     0.410 C 
ATOM     21  O   UNL A   1      34.195  20.610  24.653  1.00  0.00    -0.224 OA
BRANCH  20  22
ATOM     22  O   UNL A   1      35.708  21.897  25.770  1.00  0.00    -0.444 OA
BRANCH  22  23
ATOM     23  C   UNL A   1      36.932  22.044  24.999  1.00  0.00     0.106 C 
ATOM     24  C   UNL A   1      37.750  20.749  24.977  1.00  0.00     0.056 C 
ATOM     25  C   UNL A   1      36.653  22.578  23.587  1.00  0.00     0.056 C 
ATOM     26  C   UNL A   1      37.741  23.105  25.751  1.00  0.00     0.056 C 
ENDBRANCH  22  23
ENDBRANCH  20  22
ENDBRANCH  11  14
ENDBRANCH   5  10
ENDBRANCH   3   5
ENDBRANCH   2   3
ENDBRANCH   1   2
BRANCH   1  27
ATOM     27  C   UNL A   1      32.222  32.507  27.251  1.00  0.00     0.275 C 
BRANCH  27  28
ATOM     28  O   UNL A   1      33.205  33.560  27.213  1.00  0.00    -0.458 OA
BRANCH  28  29
ATOM     29  C   UNL A   1      33.294  34.293  28.343  1.00  0.00     0.338 C 
ATOM     30  O   UNL A   1      32.528  35.158  28.735  1.00  0.00    -0.246 OA
BRANCH  29  31
ATOM     31  C   UNL A   1      34.412  33.822  29.167  1.00  0.00     0.060 A 
ATOM     32  C   UNL A   1      35.703  34.185  28.785  1.00  0.00     0.016 A 
ATOM     33  C   UNL A   1      34.209  32.893  30.184  1.00  0.00     0.016 A 
ATOM     34  C   UNL A   1      36.803  33.559  29.352  1.00  0.00     0.010 A 
ATOM     35  C   UNL A   1      35.320  32.318  30.810  1.00  0.00     0.010 A 
ATOM     36  C   UNL A   1      36.623  32.622  30.375  1.00  0.00    -0.014 A 
BRANCH  36  37
ATOM     37  C   UNL A   1      37.807  31.953  30.968  1.00  0.00     0.031 A 
ATOM     38  C   UNL A   1      38.534  30.876  30.211  1.00  0.00     0.074 A 
ATOM     39  C   UNL A   1      38.234  32.321  32.190  1.00  0.00     0.049 A 
ATOM     40  N   UNL A   1      39.531  30.125  30.604  1.00  0.00    -0.248 NA
ATOM     41  C   UNL A   1      38.069  30.593  28.845  1.00  0.00     0.031 C 
ATOM     42  C   UNL A   1      37.630  33.367  33.020  1.00  0.00     0.029 A 
ATOM     43  N   UNL A   1      39.271  31.850  32.953  1.00  0.00    -0.354 N 
ATOM     44  C   UNL A   1      39.804  29.275  29.541  1.00  0.00     0.074 A 
ATOM     45  C   UNL A   1      38.828  29.558  28.515  1.00  0.00     0.031 C 
ATOM     46  C   UNL A   1      38.311  33.460  34.172  1.00  0.00     0.029 A 
ATOM     47  C   UNL A   1      39.356  32.441  34.188  1.00  0.00     0.049 A 
ATOM     48  H   UNL A   1      39.896  31.154  32.644  1.00  0.00     0.167 HD
ATOM     49  C   UNL A   1      40.788  28.356  29.417  1.00  0.00     0.037 A 
ATOM     50  C   UNL A   1      40.157  32.169  35.234  1.00  0.00     0.037 A 
ATOM     51  C   UNL A   1      41.751  28.057  30.440  1.00  0.00     0.049 A 
ATOM     52  C   UNL A   1      41.167  31.064  35.117  1.00  0.00     0.074 A 
ATOM     53  C   UNL A   1      42.793  27.147  30.406  1.00  0.00     0.029 A 
ATOM     54  N   UNL A   1      41.778  28.655  31.688  1.00  0.00    -0.354 N 
ATOM     55  N   UNL A   1      41.439  30.300  34.087  1.00  0.00    -0.248 NA
ATOM     56  C   UNL A   1      41.972  30.775  36.311  1.00  0.00     0.031 C 
ATOM     57  C   UNL A   1      43.422  27.161  31.654  1.00  0.00     0.029 A 
ATOM     58  C   UNL A   1      42.797  28.108  32.449  1.00  0.00     0.049 A 
ATOM     59  H   UNL A   1      41.164  29.363  31.991  1.00  0.00     0.167 HD
ATOM     60  C   UNL A   1      42.463  29.458  34.501  1.00  0.00     0.074 A 
ATOM     61  C   UNL A   1      42.768  29.812  35.872  1.00  0.00     0.031 C 
ATOM     62  C   UNL A   1      43.093  28.479  33.807  1.00  0.00     0.037 A 
BRANCH  49  63
ATOM     63  C   UNL A   1      40.875  27.597  28.128  1.00  0.00     0.057 A 
ATOM     64  C   UNL A   1      41.644  28.062  27.055  1.00  0.00     0.134 A 
ATOM     65  C   UNL A   1      40.230  26.364  27.980  1.00  0.00     0.134 A 
ATOM     66  F   UNL A   1      42.269  29.247  27.129  1.00  0.00    -0.206 F 
ATOM     67  C   UNL A   1      41.768  27.326  25.875  1.00  0.00     0.040 A 
ATOM     68  C   UNL A   1      40.353  25.615  26.809  1.00  0.00     0.040 A 
ATOM     69  F   UNL A   1      39.479  25.866  28.973  1.00  0.00    -0.206 F 
ATOM     70  C   UNL A   1      41.124  26.096  25.752  1.00  0.00     0.006 A 
ENDBRANCH  49  63
BRANCH  50  71
ATOM     71  C   UNL A   1      40.009  32.935  36.495  1.00  0.00     0.057 A 
ATOM     72  C   UNL A   1      40.848  34.015  36.788  1.00  0.00     0.134 A 
ATOM     73  C   UNL A   1      39.026  32.604  37.437  1.00  0.00     0.134 A 
ATOM     74  F   UNL A   1      41.819  34.366  35.934  1.00  0.00    -0.206 F 
ATOM     75  C   UNL A   1      40.722  34.732  37.979  1.00  0.00     0.040 A 
ATOM     76  C   UNL A   1      38.874  33.328  38.619  1.00  0.00     0.040 A 
ATOM     77  F   UNL A   1      38.189  31.581  37.211  1.00  0.00    -0.206 F 
ATOM     78  C   UNL A   1      39.728  34.392  38.895  1.00  0.00     0.006 A 
ENDBRANCH  50  71
BRANCH  62  79
ATOM     79  C   UNL A   1      44.197  27.746  34.505  1.00  0.00     0.057 A 
ATOM     80  C   UNL A   1      43.970  26.538  35.175  1.00  0.00     0.134 A 
ATOM     81  C   UNL A   1      45.510  28.232  34.467  1.00  0.00     0.134 A 
ATOM     82  F   UNL A   1      42.731  26.028  35.256  1.00  0.00    -0.206 F 
ATOM     83  C   UNL A   1      45.008  25.847  35.799  1.00  0.00     0.040 A 
ATOM     84  C   UNL A   1      46.560  27.537  35.067  1.00  0.00     0.040 A 
ATOM     85  F   UNL A   1      45.793  29.380  33.833  1.00  0.00    -0.206 F 
ATOM     86  C   UNL A   1      46.309  26.343  35.739  1.00  0.00     0.006 A 
ENDBRANCH  62  79
ENDBRANCH  36  37
ENDBRANCH  29  31
ENDBRANCH  28  29
ENDBRANCH  27  28
ENDBRANCH   1  27
TORSDOF 17
ENDMDL
MODEL 2
REMARK VINA RESULT:     -10.7      3.318      7.212
REMARK SMILES CC[C@@H](C)[C@H](NC(=O)C1CCN(C(=O)OC(C)(C)C)CC1)C(=O)OCCOC(=O)c1ccc(-c2c3nc(c(-c4c(F)cccc4F)c4ccc([nH]4)c(-c4c(F)cccc4F)c4nc(c(-c5c(F)cccc5F)c5ccc2[nH]5)C=C4)C=C3)cc1
REMARK SMILES IDX 25 1 24 2 22 3 23 4 5 5 3 6 4 7 2 8 1 9 6 10 7 11 8 13 9 14
REMARK SMILES IDX 10 15 21 16 11 17 20 18 12 19 13 20 14 21 15 22 16 23 17 24
REMARK SMILES IDX 18 25 19 26 26 27 27 28 28 29 29 30 30 31 31 32 83 33 32 34
REMARK SMILES IDX 82 35 33 36 34 37 35 38 76 39 36 40 81 41 75 42 77 43 37 44
REMARK SMILES IDX 80 45 74 46 73 47 38 49 64 50 47 51 63 52 48 53 51 54 62 55
REMARK SMILES IDX 78 56 49 57 50 58 61 60 79 61 52 62 39 63 40 64 45 65 41 66
REMARK SMILES IDX 42 67 44 68 46 69 43 70 65 71 66 72 71 73 67 74 68 75 70 76
REMARK SMILES IDX 72 77 69 78 53 79 54 80 59 81 55 82 56 83 58 84 60 85 57 86
REMARK H PARENT 6 12 77 48 51 59
REMARK Flexibility Score: inf
ROOT
ATOM      1  C   UNL A   1      31.860  29.776  26.753  1.00  0.00     0.274 C 
ENDROOT
BRANCH   1   2
ATOM      2  O   UNL A   1      31.420  29.914  25.387  1.00  0.00    -0.461 OA
BRANCH   2   3
ATOM      3  C   UNL A   1      32.035  29.111  24.475  1.00  0.00     0.329 C 
ATOM      4  O   UNL A   1      33.218  29.194  24.160  1.00  0.00    -0.250 OA
BRANCH   3   5
ATOM      5  C   UNL A   1      31.063  28.106  23.814  1.00  0.00     0.195 C 
BRANCH   5   6
ATOM      6  C   UNL A   1      29.808  28.907  23.365  1.00  0.00     0.019 C 
ATOM      7  C   UNL A   1      28.570  28.016  23.213  1.00  0.00     0.010 C 
BRANCH   6   8
ATOM      8  C   UNL A   1      30.092  29.734  22.098  1.00  0.00     0.002 C 
ATOM      9  C   UNL A   1      28.833  30.351  21.498  1.00  0.00     0.004 C 
ENDBRANCH   6   8
ENDBRANCH   5   6
BRANCH   5  10
ATOM     10  N   UNL A   1      30.764  26.977  24.697  1.00  0.00    -0.342 N 
ATOM     11  C   UNL A   1      31.364  25.770  24.874  1.00  0.00     0.223 C 
ATOM     12  H   UNL A   1      29.979  27.119  25.274  1.00  0.00     0.164 HD
ATOM     13  O   UNL A   1      30.906  25.040  25.754  1.00  0.00    -0.275 OA
BRANCH  11  14
ATOM     14  C   UNL A   1      32.545  25.341  24.002  1.00  0.00     0.082 C 
ATOM     15  C   UNL A   1      32.363  23.905  23.486  1.00  0.00     0.035 C 
ATOM     16  C   UNL A   1      33.892  25.481  24.721  1.00  0.00     0.035 C 
ATOM     17  C   UNL A   1      32.653  22.843  24.547  1.00  0.00     0.124 C 
ATOM     18  C   UNL A   1      34.182  24.371  25.734  1.00  0.00     0.124 C 
ATOM     19  N   UNL A   1      33.956  23.051  25.159  1.00  0.00    -0.308 N 
ATOM     20  C   UNL A   1      34.796  21.962  25.331  1.00  0.00     0.410 C 
ATOM     21  O   UNL A   1      34.525  20.836  24.929  1.00  0.00    -0.224 OA
BRANCH  20  22
ATOM     22  O   UNL A   1      35.947  22.272  25.983  1.00  0.00    -0.444 OA
BRANCH  22  23
ATOM     23  C   UNL A   1      37.167  22.519  25.232  1.00  0.00     0.106 C 
ATOM     24  C   UNL A   1      38.207  21.418  25.456  1.00  0.00     0.056 C 
ATOM     25  C   UNL A   1      36.879  22.750  23.741  1.00  0.00     0.056 C 
ATOM     26  C   UNL A   1      37.723  23.824  25.810  1.00  0.00     0.056 C 
ENDBRANCH  22  23
ENDBRANCH  20  22
ENDBRANCH  11  14
ENDBRANCH   5  10
ENDBRANCH   3   5
ENDBRANCH   2   3
ENDBRANCH   1   2
BRANCH   1  27
ATOM     27  C   UNL A   1      32.811  30.909  27.148  1.00  0.00     0.275 C 
BRANCH  27  28
ATOM     28  O   UNL A   1      34.177  30.454  27.225  1.00  0.00    -0.458 OA
BRANCH  28  29
ATOM     29  C   UNL A   1      34.865  30.909  28.294  1.00  0.00     0.338 C 
ATOM     30  O   UNL A   1      34.491  31.704  29.141  1.00  0.00    -0.246 OA
BRANCH  29  31
ATOM     31  C   UNL A   1      36.147  30.207  28.408  1.00  0.00     0.060 A 
ATOM     32  C   UNL A   1      36.506  29.702  29.657  1.00  0.00     0.016 A 
ATOM     33  C   UNL A   1      37.058  30.206  27.355  1.00  0.00     0.016 A 
ATOM     34  C   UNL A   1      37.805  29.274  29.892  1.00  0.00     0.010 A 
ATOM     35  C   UNL A   1      38.345  29.703  27.571  1.00  0.00     0.010 A 
ATOM     36  C   UNL A   1      38.737  29.265  28.850  1.00  0.00    -0.014 A 
BRANCH  36  37
ATOM     37  C   UNL A   1      40.125  28.813  29.115  1.00  0.00     0.031 A 
ATOM     38  C   UNL A   1      41.106  29.724  29.799  1.00  0.00     0.074 A 
ATOM     39  C   UNL A   1      40.501  27.575  28.747  1.00  0.00     0.049 A 
ATOM     40  N   UNL A   1      42.380  29.533  30.036  1.00  0.00    -0.248 NA
ATOM     41  C   UNL A   1      40.598  31.026  30.258  1.00  0.00     0.031 C 
ATOM     42  C   UNL A   1      39.639  26.585  28.095  1.00  0.00     0.029 A 
ATOM     43  N   UNL A   1      41.711  26.939  28.858  1.00  0.00    -0.354 N 
ATOM     44  C   UNL A   1      42.825  30.690  30.659  1.00  0.00     0.074 A 
ATOM     45  C   UNL A   1      41.706  31.601  30.704  1.00  0.00     0.031 C 
ATOM     46  C   UNL A   1      40.347  25.468  27.870  1.00  0.00     0.029 A 
ATOM     47  C   UNL A   1      41.723  25.684  28.303  1.00  0.00     0.049 A 
ATOM     48  H   UNL A   1      42.495  27.344  29.295  1.00  0.00     0.167 HD
ATOM     49  C   UNL A   1      44.047  30.966  31.167  1.00  0.00     0.037 A 
ATOM     50  C   UNL A   1      42.738  24.818  28.124  1.00  0.00     0.037 A 
ATOM     51  C   UNL A   1      45.170  30.071  31.110  1.00  0.00     0.049 A 
ATOM     52  C   UNL A   1      44.114  25.194  28.592  1.00  0.00     0.074 A 
ATOM     53  C   UNL A   1      46.448  30.258  31.605  1.00  0.00     0.029 A 
ATOM     54  N   UNL A   1      45.148  28.825  30.508  1.00  0.00    -0.354 N 
ATOM     55  N   UNL A   1      44.507  26.276  29.218  1.00  0.00    -0.248 NA
ATOM     56  C   UNL A   1      45.190  24.232  28.316  1.00  0.00     0.031 C 
ATOM     57  C   UNL A   1      47.215  29.141  31.259  1.00  0.00     0.029 A 
ATOM     58  C   UNL A   1      46.401  28.244  30.585  1.00  0.00     0.049 A 
ATOM     59  H   UNL A   1      44.358  28.414  30.086  1.00  0.00     0.167 HD
ATOM     60  C   UNL A   1      45.870  26.114  29.433  1.00  0.00     0.074 A 
ATOM     61  C   UNL A   1      46.232  24.827  28.879  1.00  0.00     0.031 C 
ATOM     62  C   UNL A   1      46.741  26.958  30.037  1.00  0.00     0.037 A 
BRANCH  49  63
ATOM     63  C   UNL A   1      44.242  32.296  31.829  1.00  0.00     0.057 A 
ATOM     64  C   UNL A   1      44.069  32.460  33.208  1.00  0.00     0.134 A 
ATOM     65  C   UNL A   1      44.662  33.408  31.090  1.00  0.00     0.134 A 
ATOM     66  F   UNL A   1      43.649  31.437  33.968  1.00  0.00    -0.206 F 
ATOM     67  C   UNL A   1      44.306  33.687  33.831  1.00  0.00     0.040 A 
ATOM     68  C   UNL A   1      44.910  34.637  31.701  1.00  0.00     0.040 A 
ATOM     69  F   UNL A   1      44.846  33.313  29.764  1.00  0.00    -0.206 F 
ATOM     70  C   UNL A   1      44.731  34.779  33.077  1.00  0.00     0.006 A 
ENDBRANCH  49  63
BRANCH  50  71
ATOM     71  C   UNL A   1      42.491  23.527  27.438  1.00  0.00     0.057 A 
ATOM     72  C   UNL A   1      42.121  22.385  28.157  1.00  0.00     0.134 A 
ATOM     73  C   UNL A   1      42.622  23.403  26.049  1.00  0.00     0.134 A 
ATOM     74  F   UNL A   1      42.000  22.438  29.491  1.00  0.00    -0.206 F 
ATOM     75  C   UNL A   1      41.901  21.163  27.520  1.00  0.00     0.040 A 
ATOM     76  C   UNL A   1      42.380  22.194  25.397  1.00  0.00     0.040 A 
ATOM     77  F   UNL A   1      42.970  24.463  25.305  1.00  0.00    -0.206 F 
ATOM     78  C   UNL A   1      42.024  21.068  26.135  1.00  0.00     0.006 A 
ENDBRANCH  50  71
BRANCH  62  79
ATOM     79  C   UNL A   1      48.162  26.502  30.160  1.00  0.00     0.057 A 
ATOM     80  C   UNL A   1      48.611  25.781  31.273  1.00  0.00     0.134 A 
ATOM     81  C   UNL A   1      49.080  26.746  29.129  1.00  0.00     0.134 A 
ATOM     82  F   UNL A   1      47.783  25.526  32.297  1.00  0.00    -0.206 F 
ATOM     83  C   UNL A   1      49.929  25.335  31.366  1.00  0.00     0.040 A 
ATOM     84  C   UNL A   1      50.394  26.283  29.201  1.00  0.00     0.040 A 
ATOM     85  F   UNL A   1      48.707  27.423  28.032  1.00  0.00    -0.206 F 
ATOM     86  C   UNL A   1      50.823  25.579  30.324  1.00  0.00     0.006 A 
ENDBRANCH  62  79
ENDBRANCH  36  37
ENDBRANCH  29  31
ENDBRANCH  28  29
ENDBRANCH  27  28
ENDBRANCH   1  27
TORSDOF 17
ENDMDL
MODEL 3
REMARK VINA RESULT:     -10.6      4.056      9.498
REMARK SMILES CC[C@@H](C)[C@H](NC(=O)C1CCN(C(=O)OC(C)(C)C)CC1)C(=O)OCCOC(=O)c1ccc(-c2c3nc(c(-c4c(F)cccc4F)c4ccc([nH]4)c(-c4c(F)cccc4F)c4nc(c(-c5c(F)cccc5F)c5ccc2[nH]5)C=C4)C=C3)cc1
REMARK SMILES IDX 25 1 24 2 22 3 23 4 5 5 3 6 4 7 2 8 1 9 6 10 7 11 8 13 9 14
REMARK SMILES IDX 10 15 21 16 11 17 20 18 12 19 13 20 14 21 15 22 16 23 17 24
REMARK SMILES IDX 18 25 19 26 26 27 27 28 28 29 29 30 30 31 31 32 83 33 32 34
REMARK SMILES IDX 82 35 33 36 34 37 35 38 76 39 36 40 81 41 75 42 77 43 37 44
REMARK SMILES IDX 80 45 74 46 73 47 38 49 64 50 47 51 63 52 48 53 51 54 62 55
REMARK SMILES IDX 78 56 49 57 50 58 61 60 79 61 52 62 39 63 40 64 45 65 41 66
REMARK SMILES IDX 42 67 44 68 46 69 43 70 65 71 66 72 71 73 67 74 68 75 70 76
REMARK SMILES IDX 72 77 69 78 53 79 54 80 59 81 55 82 56 83 58 84 60 85 57 86
REMARK H PARENT 6 12 77 48 51 59
REMARK Flexibility Score: inf
ROOT
ATOM      1  C   UNL A   1      35.838  20.947  24.946  1.00  0.00     0.274 C 
ENDROOT
BRANCH   1   2
ATOM      2  O   UNL A   1      34.843  19.905  24.935  1.00  0.00    -0.461 OA
BRANCH   2   3
ATOM      3  C   UNL A   1      33.654  20.204  25.529  1.00  0.00     0.329 C 
ATOM      4  O   UNL A   1      33.528  20.545  26.700  1.00  0.00    -0.250 OA
BRANCH   3   5
ATOM      5  C   UNL A   1      32.448  20.006  24.581  1.00  0.00     0.195 C 
BRANCH   5   6
ATOM      6  C   UNL A   1      32.302  18.478  24.335  1.00  0.00     0.019 C 
ATOM      7  C   UNL A   1      32.705  17.647  25.558  1.00  0.00     0.010 C 
BRANCH   6   8
ATOM      8  C   UNL A   1      33.045  18.039  23.060  1.00  0.00     0.002 C 
ATOM      9  C   UNL A   1      33.921  16.810  23.277  1.00  0.00     0.004 C 
ENDBRANCH   6   8
ENDBRANCH   5   6
BRANCH   5  10
ATOM     10  N   UNL A   1      32.584  20.796  23.356  1.00  0.00    -0.342 N 
ATOM     11  C   UNL A   1      32.284  22.089  23.063  1.00  0.00     0.223 C 
ATOM     12  H   UNL A   1      32.966  20.295  22.599  1.00  0.00     0.164 HD
ATOM     13  O   UNL A   1      32.574  22.491  21.936  1.00  0.00    -0.275 OA
BRANCH  11  14
ATOM     14  C   UNL A   1      31.600  22.992  24.091  1.00  0.00     0.082 C 
ATOM     15  C   UNL A   1      30.617  23.962  23.415  1.00  0.00     0.035 C 
ATOM     16  C   UNL A   1      32.602  23.767  24.955  1.00  0.00     0.035 C 
ATOM     17  C   UNL A   1      31.310  25.134  22.722  1.00  0.00     0.124 C 
ATOM     18  C   UNL A   1      33.235  24.972  24.255  1.00  0.00     0.124 C 
ATOM     19  N   UNL A   1      32.226  25.814  23.623  1.00  0.00    -0.308 N 
ATOM     20  C   UNL A   1      32.213  27.199  23.671  1.00  0.00     0.410 C 
ATOM     21  O   UNL A   1      31.417  27.885  23.040  1.00  0.00    -0.224 OA
BRANCH  20  22
ATOM     22  O   UNL A   1      33.166  27.715  24.492  1.00  0.00    -0.444 OA
BRANCH  22  23
ATOM     23  C   UNL A   1      32.785  28.349  25.743  1.00  0.00     0.106 C 
ATOM     24  C   UNL A   1      32.508  29.845  25.563  1.00  0.00     0.056 C 
ATOM     25  C   UNL A   1      31.614  27.620  26.416  1.00  0.00     0.056 C 
ATOM     26  C   UNL A   1      34.013  28.198  26.646  1.00  0.00     0.056 C 
ENDBRANCH  22  23
ENDBRANCH  20  22
ENDBRANCH  11  14
ENDBRANCH   5  10
ENDBRANCH   3   5
ENDBRANCH   2   3
ENDBRANCH   1   2
BRANCH   1  27
ATOM     27  C   UNL A   1      37.253  20.366  24.996  1.00  0.00     0.275 C 
BRANCH  27  28
ATOM     28  O   UNL A   1      38.248  21.399  25.144  1.00  0.00    -0.458 OA
BRANCH  28  29
ATOM     29  C   UNL A   1      39.226  21.119  26.032  1.00  0.00     0.338 C 
ATOM     30  O   UNL A   1      39.750  20.039  26.252  1.00  0.00    -0.246 OA
BRANCH  29  31
ATOM     31  C   UNL A   1      39.711  22.353  26.657  1.00  0.00     0.060 A 
ATOM     32  C   UNL A   1      39.228  23.567  26.169  1.00  0.00     0.016 A 
ATOM     33  C   UNL A   1      40.755  22.326  27.578  1.00  0.00     0.016 A 
ATOM     34  C   UNL A   1      39.840  24.759  26.526  1.00  0.00     0.010 A 
ATOM     35  C   UNL A   1      41.323  23.534  27.997  1.00  0.00     0.010 A 
ATOM     36  C   UNL A   1      40.892  24.756  27.448  1.00  0.00    -0.014 A 
BRANCH  36  37
ATOM     37  C   UNL A   1      41.545  26.036  27.816  1.00  0.00     0.031 A 
ATOM     38  C   UNL A   1      40.785  27.090  28.572  1.00  0.00     0.074 A 
ATOM     39  C   UNL A   1      42.829  26.248  27.474  1.00  0.00     0.049 A 
ATOM     40  N   UNL A   1      41.163  28.299  28.904  1.00  0.00    -0.248 NA
ATOM     41  C   UNL A   1      39.417  26.750  28.994  1.00  0.00     0.031 C 
ATOM     42  C   UNL A   1      43.684  25.298  26.758  1.00  0.00     0.029 A 
ATOM     43  N   UNL A   1      43.638  27.337  27.675  1.00  0.00    -0.354 N 
ATOM     44  C   UNL A   1      40.079  28.865  29.560  1.00  0.00     0.074 A 
ATOM     45  C   UNL A   1      39.010  27.896  29.523  1.00  0.00     0.031 C 
ATOM     46  C   UNL A   1      44.897  25.844  26.585  1.00  0.00     0.029 A 
ATOM     47  C   UNL A   1      44.886  27.202  27.120  1.00  0.00     0.049 A 
ATOM     48  H   UNL A   1      43.351  28.139  28.170  1.00  0.00     0.167 HD
ATOM     49  C   UNL A   1      39.985  30.074  30.159  1.00  0.00     0.037 A 
ATOM     50  C   UNL A   1      45.895  28.085  27.016  1.00  0.00     0.037 A 
ATOM     51  C   UNL A   1      41.038  31.051  30.184  1.00  0.00     0.049 A 
ATOM     52  C   UNL A   1      45.726  29.464  27.586  1.00  0.00     0.074 A 
ATOM     53  C   UNL A   1      41.040  32.302  30.774  1.00  0.00     0.029 A 
ATOM     54  N   UNL A   1      42.273  30.886  29.580  1.00  0.00    -0.354 N 
ATOM     55  N   UNL A   1      44.709  29.968  28.242  1.00  0.00    -0.248 NA
ATOM     56  C   UNL A   1      46.841  30.400  27.389  1.00  0.00     0.031 C 
ATOM     57  C   UNL A   1      42.263  32.916  30.484  1.00  0.00     0.029 A 
ATOM     58  C   UNL A   1      43.035  32.029  29.750  1.00  0.00     0.049 A 
ATOM     59  H   UNL A   1      42.565  30.077  29.100  1.00  0.00     0.167 HD
ATOM     60  C   UNL A   1      45.071  31.270  28.558  1.00  0.00     0.074 A 
ATOM     61  C   UNL A   1      46.404  31.475  28.030  1.00  0.00     0.031 C 
ATOM     62  C   UNL A   1      44.362  32.212  29.227  1.00  0.00     0.037 A 
BRANCH  49  63
ATOM     63  C   UNL A   1      38.693  30.417  30.835  1.00  0.00     0.057 A 
ATOM     64  C   UNL A   1      38.461  30.094  32.177  1.00  0.00     0.134 A 
ATOM     65  C   UNL A   1      37.696  31.127  30.156  1.00  0.00     0.134 A 
ATOM     66  F   UNL A   1      39.370  29.397  32.877  1.00  0.00    -0.206 F 
ATOM     67  C   UNL A   1      37.279  30.464  32.822  1.00  0.00     0.040 A 
ATOM     68  C   UNL A   1      36.514  31.509  30.791  1.00  0.00     0.040 A 
ATOM     69  F   UNL A   1      37.861  31.466  28.869  1.00  0.00    -0.206 F 
ATOM     70  C   UNL A   1      36.303  31.178  32.129  1.00  0.00     0.006 A 
ENDBRANCH  49  63
BRANCH  50  71
ATOM     71  C   UNL A   1      47.142  27.699  26.311  1.00  0.00     0.057 A 
ATOM     72  C   UNL A   1      48.263  27.251  27.018  1.00  0.00     0.134 A 
ATOM     73  C   UNL A   1      47.242  27.771  24.916  1.00  0.00     0.134 A 
ATOM     74  F   UNL A   1      48.233  27.181  28.356  1.00  0.00    -0.206 F 
ATOM     75  C   UNL A   1      49.444  26.899  26.363  1.00  0.00     0.040 A 
ATOM     76  C   UNL A   1      48.408  27.398  24.247  1.00  0.00     0.040 A 
ATOM     77  F   UNL A   1      46.200  28.189  24.183  1.00  0.00    -0.206 F 
ATOM     78  C   UNL A   1      49.516  26.966  24.972  1.00  0.00     0.006 A 
ENDBRANCH  50  71
BRANCH  62  79
ATOM     79  C   UNL A   1      45.025  33.535  29.454  1.00  0.00     0.057 A 
ATOM     80  C   UNL A   1      44.860  34.604  28.565  1.00  0.00     0.134 A 
ATOM     81  C   UNL A   1      45.799  33.756  30.601  1.00  0.00     0.134 A 
ATOM     82  F   UNL A   1      44.141  34.450  27.443  1.00  0.00    -0.206 F 
ATOM     83  C   UNL A   1      45.458  35.842  28.799  1.00  0.00     0.040 A 
ATOM     84  C   UNL A   1      46.381  34.997  30.857  1.00  0.00     0.040 A 
ATOM     85  F   UNL A   1      45.986  32.774  31.496  1.00  0.00    -0.206 F 
ATOM     86  C   UNL A   1      46.215  36.043  29.952  1.00  0.00     0.006 A 
ENDBRANCH  62  79
ENDBRANCH  36  37
ENDBRANCH  29  31
ENDBRANCH  28  29
ENDBRANCH  27  28
ENDBRANCH   1  27
TORSDOF 17
ENDMDL
