MODEL 1
REMARK VINA RESULT:     -11.4      0.000      0.000
REMARK SMILES CC1(C)[C@H](C(=O)Nc2ccc(C(F)(F)F)nc2)[C@@H]1C(=O)OCCOC(=O)c1ccc(-c2c3nc(c(-c4c(F)cccc4F)c4ccc([nH]4)c(-c4c(F)cccc4F)c4nc(c(-c5c(F)cccc5F)c5ccc2[nH]5)C=C4)C=C3)cc1
REMARK SMILES IDX 22 1 21 2 19 3 20 4 18 5 1 6 2 7 3 8 4 9 5 10 6 11 7 12 8 14
REMARK SMILES IDX 9 15 17 16 10 17 16 18 11 19 12 20 13 21 14 22 15 23 23 24
REMARK SMILES IDX 24 25 25 26 26 27 27 28 28 29 80 30 29 31 79 32 30 33 31 34
REMARK SMILES IDX 32 35 73 36 33 37 78 38 72 39 74 40 34 41 77 42 71 43 70 44
REMARK SMILES IDX 35 46 61 47 44 48 60 49 45 50 48 51 59 52 75 53 46 54 47 55
REMARK SMILES IDX 58 57 76 58 49 59 36 60 37 61 42 62 38 63 39 64 41 65 43 66
REMARK SMILES IDX 40 67 62 68 63 69 68 70 64 71 65 72 67 73 69 74 66 75 50 76
REMARK SMILES IDX 51 77 56 78 52 79 53 80 55 81 57 82 54 83
REMARK H PARENT 7 13 74 45 48 56
REMARK Flexibility Score: inf
ROOT
ATOM      1  C   UNL A   1      31.563  31.276  26.531  1.00  0.00     0.274 C 
ENDROOT
BRANCH   1   2
ATOM      2  O   UNL A   1      31.027  30.971  25.228  1.00  0.00    -0.462 OA
BRANCH   2   3
ATOM      3  C   UNL A   1      31.090  29.669  24.841  1.00  0.00     0.310 C 
ATOM      4  O   UNL A   1      30.718  29.230  23.755  1.00  0.00    -0.252 OA
BRANCH   3   5
ATOM      5  C   UNL A   1      31.840  28.853  25.815  1.00  0.00     0.118 C 
ATOM      6  C   UNL A   1      34.212  28.179  26.664  1.00  0.00     0.013 C 
ATOM      7  C   UNL A   1      33.182  28.152  25.547  1.00  0.00    -0.009 C 
ATOM      8  C   UNL A   1      33.861  28.192  24.206  1.00  0.00     0.013 C 
ATOM      9  C   UNL A   1      31.909  27.354  25.828  1.00  0.00     0.100 C 
BRANCH   9  10
ATOM     10  C   UNL A   1      31.163  26.364  24.983  1.00  0.00     0.228 C 
ATOM     11  O   UNL A   1      29.936  26.397  25.044  1.00  0.00    -0.274 OA
ATOM     12  N   UNL A   1      31.751  25.725  23.916  1.00  0.00    -0.324 N 
ATOM     13  H   UNL A   1      31.446  26.003  23.022  1.00  0.00     0.169 HD
BRANCH  12  14
ATOM     14  C   UNL A   1      32.732  24.727  23.952  1.00  0.00     0.059 A 
ATOM     15  C   UNL A   1      33.335  24.318  25.127  1.00  0.00     0.030 A 
ATOM     16  C   UNL A   1      33.174  24.145  22.773  1.00  0.00     0.137 A 
ATOM     17  C   UNL A   1      34.521  23.589  25.071  1.00  0.00     0.035 A 
ATOM     18  N   UNL A   1      34.321  23.431  22.679  1.00  0.00    -0.250 NA
ATOM     19  C   UNL A   1      35.046  23.255  23.824  1.00  0.00     0.144 A 
BRANCH  19  20
ATOM     20  C   UNL A   1      36.488  22.768  23.736  1.00  0.00     0.433 C 
ATOM     21  F   UNL A   1      36.646  21.486  24.169  1.00  0.00    -0.165 F 
ATOM     22  F   UNL A   1      36.997  22.805  22.470  1.00  0.00    -0.165 F 
ATOM     23  F   UNL A   1      37.351  23.514  24.491  1.00  0.00    -0.165 F 
ENDBRANCH  19  20
ENDBRANCH  12  14
ENDBRANCH   9  10
ENDBRANCH   3   5
ENDBRANCH   2   3
ENDBRANCH   1   2
BRANCH   1  24
ATOM     24  C   UNL A   1      31.568  32.777  26.831  1.00  0.00     0.275 C 
BRANCH  24  25
ATOM     25  O   UNL A   1      32.899  33.325  26.788  1.00  0.00    -0.458 OA
BRANCH  25  26
ATOM     26  C   UNL A   1      33.351  33.806  27.969  1.00  0.00     0.338 C 
ATOM     27  O   UNL A   1      32.779  34.591  28.710  1.00  0.00    -0.246 OA
BRANCH  26  28
ATOM     28  C   UNL A   1      34.596  33.119  28.357  1.00  0.00     0.060 A 
ATOM     29  C   UNL A   1      34.486  31.801  28.812  1.00  0.00     0.016 A 
ATOM     30  C   UNL A   1      35.833  33.764  28.350  1.00  0.00     0.016 A 
ATOM     31  C   UNL A   1      35.601  31.127  29.289  1.00  0.00     0.010 A 
ATOM     32  C   UNL A   1      36.956  33.089  28.839  1.00  0.00     0.010 A 
ATOM     33  C   UNL A   1      36.839  31.779  29.335  1.00  0.00    -0.014 A 
BRANCH  33  34
ATOM     34  C   UNL A   1      37.971  31.108  30.012  1.00  0.00     0.031 A 
ATOM     35  C   UNL A   1      38.230  31.392  31.463  1.00  0.00     0.074 A 
ATOM     36  C   UNL A   1      38.714  30.204  29.348  1.00  0.00     0.049 A 
ATOM     37  N   UNL A   1      39.164  30.919  32.246  1.00  0.00    -0.248 NA
ATOM     38  C   UNL A   1      37.312  32.334  32.121  1.00  0.00     0.031 C 
ATOM     39  C   UNL A   1      38.517  29.813  27.953  1.00  0.00     0.029 A 
ATOM     40  N   UNL A   1      39.778  29.448  29.765  1.00  0.00    -0.354 N 
ATOM     41  C   UNL A   1      38.955  31.512  33.484  1.00  0.00     0.074 A 
ATOM     42  C   UNL A   1      37.824  32.402  33.342  1.00  0.00     0.031 C 
ATOM     43  C   UNL A   1      39.435  28.887  27.628  1.00  0.00     0.029 A 
ATOM     44  C   UNL A   1      40.303  28.651  28.779  1.00  0.00     0.049 A 
ATOM     45  H   UNL A   1      40.133  29.475  30.683  1.00  0.00     0.167 HD
ATOM     46  C   UNL A   1      39.642  31.324  34.636  1.00  0.00     0.037 A 
ATOM     47  C   UNL A   1      41.376  27.839  28.800  1.00  0.00     0.037 A 
ATOM     48  C   UNL A   1      40.765  30.433  34.769  1.00  0.00     0.049 A 
ATOM     49  C   UNL A   1      42.164  27.700  30.075  1.00  0.00     0.074 A 
ATOM     50  C   UNL A   1      41.525  30.165  35.894  1.00  0.00     0.029 A 
ATOM     51  N   UNL A   1      41.293  29.670  33.737  1.00  0.00    -0.354 N 
ATOM     52  N   UNL A   1      41.953  28.255  31.244  1.00  0.00    -0.248 NA
ATOM     53  C   UNL A   1      43.337  26.817  30.035  1.00  0.00     0.031 C 
ATOM     54  C   UNL A   1      42.546  29.280  35.530  1.00  0.00     0.029 A 
ATOM     55  C   UNL A   1      42.384  28.948  34.194  1.00  0.00     0.049 A 
ATOM     56  H   UNL A   1      40.944  29.645  32.817  1.00  0.00     0.167 HD
ATOM     57  C   UNL A   1      42.945  27.767  32.084  1.00  0.00     0.074 A 
ATOM     58  C   UNL A   1      43.750  26.858  31.294  1.00  0.00     0.031 C 
ATOM     59  C   UNL A   1      43.168  28.041  33.393  1.00  0.00     0.037 A 
BRANCH  46  60
ATOM     60  C   UNL A   1      39.215  32.123  35.834  1.00  0.00     0.057 A 
ATOM     61  C   UNL A   1      39.686  33.421  36.070  1.00  0.00     0.134 A 
ATOM     62  C   UNL A   1      38.300  31.592  36.753  1.00  0.00     0.134 A 
ATOM     63  F   UNL A   1      40.576  33.984  35.238  1.00  0.00    -0.206 F 
ATOM     64  C   UNL A   1      39.280  34.153  37.187  1.00  0.00     0.040 A 
ATOM     65  C   UNL A   1      37.865  32.325  37.858  1.00  0.00     0.040 A 
ATOM     66  F   UNL A   1      37.807  30.355  36.587  1.00  0.00    -0.206 F 
ATOM     67  C   UNL A   1      38.361  33.607  38.082  1.00  0.00     0.006 A 
ENDBRANCH  46  60
BRANCH  47  68
ATOM     68  C   UNL A   1      41.777  27.104  27.574  1.00  0.00     0.057 A 
ATOM     69  C   UNL A   1      42.576  27.705  26.594  1.00  0.00     0.134 A 
ATOM     70  C   UNL A   1      41.356  25.788  27.344  1.00  0.00     0.134 A 
ATOM     71  F   UNL A   1      42.995  28.970  26.746  1.00  0.00    -0.206 F 
ATOM     72  C   UNL A   1      42.926  27.030  25.422  1.00  0.00     0.040 A 
ATOM     73  C   UNL A   1      41.720  25.093  26.191  1.00  0.00     0.040 A 
ATOM     74  F   UNL A   1      40.589  25.156  28.245  1.00  0.00    -0.206 F 
ATOM     75  C   UNL A   1      42.502  25.718  25.221  1.00  0.00     0.006 A 
ENDBRANCH  47  68
BRANCH  59  76
ATOM     76  C   UNL A   1      44.298  27.314  34.065  1.00  0.00     0.057 A 
ATOM     77  C   UNL A   1      45.590  27.850  34.137  1.00  0.00     0.134 A 
ATOM     78  C   UNL A   1      44.079  26.071  34.675  1.00  0.00     0.134 A 
ATOM     79  F   UNL A   1      45.870  29.030  33.563  1.00  0.00    -0.206 F 
ATOM     80  C   UNL A   1      46.630  27.164  34.767  1.00  0.00     0.040 A 
ATOM     81  C   UNL A   1      45.103  25.390  35.335  1.00  0.00     0.040 A 
ATOM     82  F   UNL A   1      42.862  25.506  34.652  1.00  0.00    -0.206 F 
ATOM     83  C   UNL A   1      46.385  25.933  35.374  1.00  0.00     0.006 A 
ENDBRANCH  59  76
ENDBRANCH  33  34
ENDBRANCH  26  28
ENDBRANCH  25  26
ENDBRANCH  24  25
ENDBRANCH   1  24
TORSDOF 14
ENDMDL
MODEL 2
REMARK VINA RESULT:     -11.2      4.896      9.461
REMARK SMILES CC1(C)[C@H](C(=O)Nc2ccc(C(F)(F)F)nc2)[C@@H]1C(=O)OCCOC(=O)c1ccc(-c2c3nc(c(-c4c(F)cccc4F)c4ccc([nH]4)c(-c4c(F)cccc4F)c4nc(c(-c5c(F)cccc5F)c5ccc2[nH]5)C=C4)C=C3)cc1
REMARK SMILES IDX 22 1 21 2 19 3 20 4 18 5 1 6 2 7 3 8 4 9 5 10 6 11 7 12 8 14
REMARK SMILES IDX 9 15 17 16 10 17 16 18 11 19 12 20 13 21 14 22 15 23 23 24
REMARK SMILES IDX 24 25 25 26 26 27 27 28 28 29 80 30 29 31 79 32 30 33 31 34
REMARK SMILES IDX 32 35 73 36 33 37 78 38 72 39 74 40 34 41 77 42 71 43 70 44
REMARK SMILES IDX 35 46 61 47 44 48 60 49 45 50 48 51 59 52 75 53 46 54 47 55
REMARK SMILES IDX 58 57 76 58 49 59 36 60 37 61 42 62 38 63 39 64 41 65 43 66
REMARK SMILES IDX 40 67 62 68 63 69 68 70 64 71 65 72 67 73 69 74 66 75 50 76
REMARK SMILES IDX 51 77 56 78 52 79 53 80 55 81 57 82 54 83
REMARK H PARENT 7 13 74 45 48 56
REMARK Flexibility Score: inf
ROOT
ATOM      1  C   UNL A   1      35.744  20.832  25.384  1.00  0.00     0.274 C 
ENDROOT
BRANCH   1   2
ATOM      2  O   UNL A   1      34.658  20.262  24.626  1.00  0.00    -0.462 OA
BRANCH   2   3
ATOM      3  C   UNL A   1      33.722  21.134  24.168  1.00  0.00     0.310 C 
ATOM      4  O   UNL A   1      32.732  20.834  23.505  1.00  0.00    -0.252 OA
BRANCH   3   5
ATOM      5  C   UNL A   1      33.929  22.487  24.720  1.00  0.00     0.118 C 
ATOM      6  C   UNL A   1      33.267  24.143  26.623  1.00  0.00     0.013 C 
ATOM      7  C   UNL A   1      32.850  23.350  25.397  1.00  0.00    -0.009 C 
ATOM      8  C   UNL A   1      31.420  22.903  25.522  1.00  0.00     0.013 C 
ATOM      9  C   UNL A   1      33.493  23.769  24.075  1.00  0.00     0.100 C 
BRANCH   9  10
ATOM     10  C   UNL A   1      32.895  23.991  22.717  1.00  0.00     0.228 C 
ATOM     11  O   UNL A   1      33.469  23.467  21.766  1.00  0.00    -0.274 OA
ATOM     12  N   UNL A   1      31.593  24.405  22.551  1.00  0.00    -0.324 N 
ATOM     13  H   UNL A   1      30.966  23.735  22.197  1.00  0.00     0.169 HD
BRANCH  12  14
ATOM     14  C   UNL A   1      31.056  25.669  22.827  1.00  0.00     0.059 A 
ATOM     15  C   UNL A   1      30.170  25.889  23.865  1.00  0.00     0.030 A 
ATOM     16  C   UNL A   1      31.365  26.747  22.013  1.00  0.00     0.137 A 
ATOM     17  C   UNL A   1      29.414  27.060  23.883  1.00  0.00     0.035 A 
ATOM     18  N   UNL A   1      30.654  27.900  22.001  1.00  0.00    -0.250 NA
ATOM     19  C   UNL A   1      29.604  27.998  22.871  1.00  0.00     0.144 A 
BRANCH  19  20
ATOM     20  C   UNL A   1      28.569  29.102  22.683  1.00  0.00     0.433 C 
ATOM     21  F   UNL A   1      28.712  30.126  23.570  1.00  0.00    -0.165 F 
ATOM     22  F   UNL A   1      28.602  29.669  21.441  1.00  0.00    -0.165 F 
ATOM     23  F   UNL A   1      27.284  28.662  22.842  1.00  0.00    -0.165 F 
ENDBRANCH  19  20
ENDBRANCH  12  14
ENDBRANCH   9  10
ENDBRANCH   3   5
ENDBRANCH   2   3
ENDBRANCH   1   2
BRANCH   1  24
ATOM     24  C   UNL A   1      37.105  20.243  25.001  1.00  0.00     0.275 C 
BRANCH  24  25
ATOM     25  O   UNL A   1      38.148  21.234  25.050  1.00  0.00    -0.458 OA
BRANCH  25  26
ATOM     26  C   UNL A   1      39.142  20.967  25.928  1.00  0.00     0.338 C 
ATOM     27  O   UNL A   1      39.678  19.888  26.123  1.00  0.00    -0.246 OA
BRANCH  26  28
ATOM     28  C   UNL A   1      39.639  22.216  26.531  1.00  0.00     0.060 A 
ATOM     29  C   UNL A   1      39.062  23.414  26.095  1.00  0.00     0.016 A 
ATOM     30  C   UNL A   1      40.693  22.231  27.445  1.00  0.00     0.016 A 
ATOM     31  C   UNL A   1      39.549  24.633  26.545  1.00  0.00     0.010 A 
ATOM     32  C   UNL A   1      41.192  23.459  27.892  1.00  0.00     0.010 A 
ATOM     33  C   UNL A   1      40.639  24.664  27.422  1.00  0.00    -0.014 A 
BRANCH  33  34
ATOM     34  C   UNL A   1      41.255  25.970  27.745  1.00  0.00     0.031 A 
ATOM     35  C   UNL A   1      42.648  26.262  27.268  1.00  0.00     0.074 A 
ATOM     36  C   UNL A   1      40.545  26.908  28.398  1.00  0.00     0.049 A 
ATOM     37  N   UNL A   1      43.376  27.334  27.440  1.00  0.00    -0.248 NA
ATOM     38  C   UNL A   1      43.311  25.202  26.491  1.00  0.00     0.031 C 
ATOM     39  C   UNL A   1      39.167  26.751  28.860  1.00  0.00     0.029 A 
ATOM     40  N   UNL A   1      40.888  28.179  28.778  1.00  0.00    -0.354 N 
ATOM     41  C   UNL A   1      44.584  27.077  26.805  1.00  0.00     0.074 A 
ATOM     42  C   UNL A   1      44.503  25.736  26.268  1.00  0.00     0.031 C 
ATOM     43  C   UNL A   1      38.780  27.888  29.465  1.00  0.00     0.029 A 
ATOM     44  C   UNL A   1      39.895  28.832  29.464  1.00  0.00     0.049 A 
ATOM     45  H   UNL A   1      41.763  28.585  28.579  1.00  0.00     0.167 HD
ATOM     46  C   UNL A   1      45.659  27.890  26.676  1.00  0.00     0.037 A 
ATOM     47  C   UNL A   1      39.895  30.047  30.044  1.00  0.00     0.037 A 
ATOM     48  C   UNL A   1      45.728  29.225  27.211  1.00  0.00     0.049 A 
ATOM     49  C   UNL A   1      41.128  30.905  29.944  1.00  0.00     0.074 A 
ATOM     50  C   UNL A   1      46.768  30.134  27.128  1.00  0.00     0.029 A 
ATOM     51  N   UNL A   1      44.716  29.839  27.935  1.00  0.00    -0.354 N 
ATOM     52  N   UNL A   1      42.261  30.658  29.332  1.00  0.00    -0.248 NA
ATOM     53  C   UNL A   1      41.080  32.212  30.613  1.00  0.00     0.031 C 
ATOM     54  C   UNL A   1      46.406  31.278  27.848  1.00  0.00     0.029 A 
ATOM     55  C   UNL A   1      45.116  31.106  28.325  1.00  0.00     0.049 A 
ATOM     56  H   UNL A   1      43.842  29.434  28.140  1.00  0.00     0.167 HD
ATOM     57  C   UNL A   1      43.048  31.789  29.515  1.00  0.00     0.074 A 
ATOM     58  C   UNL A   1      42.256  32.727  30.283  1.00  0.00     0.031 C 
ATOM     59  C   UNL A   1      44.310  32.031  29.083  1.00  0.00     0.037 A 
BRANCH  46  60
ATOM     60  C   UNL A   1      46.858  27.344  25.955  1.00  0.00     0.057 A 
ATOM     61  C   UNL A   1      47.859  26.621  26.617  1.00  0.00     0.134 A 
ATOM     62  C   UNL A   1      46.998  27.523  24.573  1.00  0.00     0.134 A 
ATOM     63  F   UNL A   1      47.795  26.427  27.942  1.00  0.00    -0.206 F 
ATOM     64  C   UNL A   1      48.968  26.117  25.934  1.00  0.00     0.040 A 
ATOM     65  C   UNL A   1      48.087  26.999  23.874  1.00  0.00     0.040 A 
ATOM     66  F   UNL A   1      46.074  28.203  23.876  1.00  0.00    -0.206 F 
ATOM     67  C   UNL A   1      49.080  26.301  24.557  1.00  0.00     0.006 A 
ENDBRANCH  46  60
BRANCH  47  68
ATOM     68  C   UNL A   1      38.695  30.520  30.779  1.00  0.00     0.057 A 
ATOM     69  C   UNL A   1      38.506  30.220  32.133  1.00  0.00     0.134 A 
ATOM     70  C   UNL A   1      37.700  31.270  30.141  1.00  0.00     0.134 A 
ATOM     71  F   UNL A   1      39.414  29.488  32.796  1.00  0.00    -0.206 F 
ATOM     72  C   UNL A   1      37.363  30.633  32.821  1.00  0.00     0.040 A 
ATOM     73  C   UNL A   1      36.565  31.712  30.822  1.00  0.00     0.040 A 
ATOM     74  F   UNL A   1      37.822  31.592  28.844  1.00  0.00    -0.206 F 
ATOM     75  C   UNL A   1      36.391  31.385  32.165  1.00  0.00     0.006 A 
ENDBRANCH  47  68
BRANCH  59  76
ATOM     76  C   UNL A   1      44.893  33.381  29.388  1.00  0.00     0.057 A 
ATOM     77  C   UNL A   1      45.667  33.615  30.532  1.00  0.00     0.134 A 
ATOM     78  C   UNL A   1      44.703  34.453  28.506  1.00  0.00     0.134 A 
ATOM     79  F   UNL A   1      45.877  32.636  31.424  1.00  0.00    -0.206 F 
ATOM     80  C   UNL A   1      46.205  34.875  30.802  1.00  0.00     0.040 A 
ATOM     81  C   UNL A   1      45.263  35.708  28.749  1.00  0.00     0.040 A 
ATOM     82  F   UNL A   1      43.982  34.293  27.386  1.00  0.00    -0.206 F 
ATOM     83  C   UNL A   1      46.009  35.923  29.905  1.00  0.00     0.006 A 
ENDBRANCH  59  76
ENDBRANCH  33  34
ENDBRANCH  26  28
ENDBRANCH  25  26
ENDBRANCH  24  25
ENDBRANCH   1  24
TORSDOF 14
ENDMDL
MODEL 3
REMARK VINA RESULT:     -11.2      4.753      9.732
REMARK SMILES CC1(C)[C@H](C(=O)Nc2ccc(C(F)(F)F)nc2)[C@@H]1C(=O)OCCOC(=O)c1ccc(-c2c3nc(c(-c4c(F)cccc4F)c4ccc([nH]4)c(-c4c(F)cccc4F)c4nc(c(-c5c(F)cccc5F)c5ccc2[nH]5)C=C4)C=C3)cc1
REMARK SMILES IDX 22 1 21 2 19 3 20 4 18 5 1 6 2 7 3 8 4 9 5 10 6 11 7 12 8 14
REMARK SMILES IDX 9 15 17 16 10 17 16 18 11 19 12 20 13 21 14 22 15 23 23 24
REMARK SMILES IDX 24 25 25 26 26 27 27 28 28 29 80 30 29 31 79 32 30 33 31 34
REMARK SMILES IDX 32 35 73 36 33 37 78 38 72 39 74 40 34 41 77 42 71 43 70 44
REMARK SMILES IDX 35 46 61 47 44 48 60 49 45 50 48 51 59 52 75 53 46 54 47 55
REMARK SMILES IDX 58 57 76 58 49 59 36 60 37 61 42 62 38 63 39 64 41 65 43 66
REMARK SMILES IDX 40 67 62 68 63 69 68 70 64 71 65 72 67 73 69 74 66 75 50 76
REMARK SMILES IDX 51 77 56 78 52 79 53 80 55 81 57 82 54 83
REMARK H PARENT 7 13 74 45 48 56
REMARK Flexibility Score: inf
ROOT
ATOM      1  C   UNL A   1      37.492  20.014  24.636  1.00  0.00     0.274 C 
ENDROOT
BRANCH   1   2
ATOM      2  O   UNL A   1      36.187  19.522  25.002  1.00  0.00    -0.462 OA
BRANCH   2   3
ATOM      3  C   UNL A   1      35.159  20.404  24.889  1.00  0.00     0.310 C 
ATOM      4  O   UNL A   1      33.977  20.155  25.119  1.00  0.00    -0.252 OA
BRANCH   3   5
ATOM      5  C   UNL A   1      35.647  21.773  24.632  1.00  0.00     0.118 C 
ATOM      6  C   UNL A   1      36.605  23.941  25.720  1.00  0.00     0.013 C 
ATOM      7  C   UNL A   1      35.436  22.985  25.555  1.00  0.00    -0.009 C 
ATOM      8  C   UNL A   1      34.644  22.900  26.830  1.00  0.00     0.013 C 
ATOM      9  C   UNL A   1      34.809  22.925  24.163  1.00  0.00     0.100 C 
BRANCH   9  10
ATOM     10  C   UNL A   1      33.372  22.938  23.730  1.00  0.00     0.228 C 
ATOM     11  O   UNL A   1      33.078  22.237  22.764  1.00  0.00    -0.274 OA
ATOM     12  N   UNL A   1      32.363  23.368  24.560  1.00  0.00    -0.324 N 
ATOM     13  H   UNL A   1      31.760  22.673  24.908  1.00  0.00     0.169 HD
BRANCH  12  14
ATOM     14  C   UNL A   1      32.094  24.680  24.969  1.00  0.00     0.059 A 
ATOM     15  C   UNL A   1      32.775  25.772  24.463  1.00  0.00     0.030 A 
ATOM     16  C   UNL A   1      31.151  24.920  25.956  1.00  0.00     0.137 A 
ATOM     17  C   UNL A   1      32.715  26.990  25.137  1.00  0.00     0.035 A 
ATOM     18  N   UNL A   1      31.061  26.089  26.634  1.00  0.00    -0.250 NA
ATOM     19  C   UNL A   1      31.932  27.084  26.286  1.00  0.00     0.144 A 
BRANCH  19  20
ATOM     20  C   UNL A   1      32.119  28.281  27.211  1.00  0.00     0.433 C 
ATOM     21  F   UNL A   1      31.770  29.464  26.633  1.00  0.00    -0.165 F 
ATOM     22  F   UNL A   1      31.392  28.194  28.363  1.00  0.00    -0.165 F 
ATOM     23  F   UNL A   1      33.415  28.445  27.617  1.00  0.00    -0.165 F 
ENDBRANCH  19  20
ENDBRANCH  12  14
ENDBRANCH   9  10
ENDBRANCH   3   5
ENDBRANCH   2   3
ENDBRANCH   1   2
BRANCH   1  24
ATOM     24  C   UNL A   1      38.627  19.163  25.212  1.00  0.00     0.275 C 
BRANCH  24  25
ATOM     25  O   UNL A   1      39.157  19.731  26.424  1.00  0.00    -0.458 OA
BRANCH  25  26
ATOM     26  C   UNL A   1      40.492  19.954  26.408  1.00  0.00     0.338 C 
ATOM     27  O   UNL A   1      41.353  19.222  25.946  1.00  0.00    -0.246 OA
BRANCH  26  28
ATOM     28  C   UNL A   1      40.788  21.315  26.888  1.00  0.00     0.060 A 
ATOM     29  C   UNL A   1      40.224  22.382  26.181  1.00  0.00     0.016 A 
ATOM     30  C   UNL A   1      41.654  21.555  27.955  1.00  0.00     0.016 A 
ATOM     31  C   UNL A   1      40.540  23.691  26.513  1.00  0.00     0.010 A 
ATOM     32  C   UNL A   1      41.982  22.874  28.286  1.00  0.00     0.010 A 
ATOM     33  C   UNL A   1      41.447  23.945  27.548  1.00  0.00    -0.014 A 
BRANCH  33  34
ATOM     34  C   UNL A   1      41.907  25.334  27.766  1.00  0.00     0.031 A 
ATOM     35  C   UNL A   1      43.236  25.761  27.214  1.00  0.00     0.074 A 
ATOM     36  C   UNL A   1      41.110  26.219  28.392  1.00  0.00     0.049 A 
ATOM     37  N   UNL A   1      43.831  26.923  27.291  1.00  0.00    -0.248 NA
ATOM     38  C   UNL A   1      43.998  24.742  26.475  1.00  0.00     0.031 C 
ATOM     39  C   UNL A   1      39.778  25.926  28.920  1.00  0.00     0.029 A 
ATOM     40  N   UNL A   1      41.305  27.544  28.680  1.00  0.00    -0.354 N 
ATOM     41  C   UNL A   1      45.039  26.774  26.622  1.00  0.00     0.074 A 
ATOM     42  C   UNL A   1      45.107  25.401  26.171  1.00  0.00     0.031 C 
ATOM     43  C   UNL A   1      39.275  27.044  29.472  1.00  0.00     0.029 A 
ATOM     44  C   UNL A   1      40.263  28.114  29.367  1.00  0.00     0.049 A 
ATOM     45  H   UNL A   1      42.116  28.040  28.421  1.00  0.00     0.167 HD
ATOM     46  C   UNL A   1      46.000  27.702  26.400  1.00  0.00     0.037 A 
ATOM     47  C   UNL A   1      40.133  29.355  29.873  1.00  0.00     0.037 A 
ATOM     48  C   UNL A   1      45.922  29.067  26.851  1.00  0.00     0.049 A 
ATOM     49  C   UNL A   1      41.246  30.348  29.671  1.00  0.00     0.074 A 
ATOM     50  C   UNL A   1      46.838  30.088  26.671  1.00  0.00     0.029 A 
ATOM     51  N   UNL A   1      44.867  29.599  27.579  1.00  0.00    -0.354 N 
ATOM     52  N   UNL A   1      42.380  30.202  29.027  1.00  0.00    -0.248 NA
ATOM     53  C   UNL A   1      41.060  31.680  30.262  1.00  0.00     0.031 C 
ATOM     54  C   UNL A   1      46.362  31.224  27.335  1.00  0.00     0.029 A 
ATOM     55  C   UNL A   1      45.120  30.928  27.875  1.00  0.00     0.049 A 
ATOM     56  H   UNL A   1      44.058  29.105  27.845  1.00  0.00     0.167 HD
ATOM     57  C   UNL A   1      43.026  31.429  29.109  1.00  0.00     0.074 A 
ATOM     58  C   UNL A   1      42.151  32.312  29.853  1.00  0.00     0.031 C 
ATOM     59  C   UNL A   1      44.233  31.794  28.610  1.00  0.00     0.037 A 
BRANCH  46  60
ATOM     60  C   UNL A   1      47.232  27.260  25.663  1.00  0.00     0.057 A 
ATOM     61  C   UNL A   1      47.384  27.454  24.284  1.00  0.00     0.134 A 
ATOM     62  C   UNL A   1      48.291  26.654  26.350  1.00  0.00     0.134 A 
ATOM     63  F   UNL A   1      46.401  28.013  23.562  1.00  0.00    -0.206 F 
ATOM     64  C   UNL A   1      48.535  27.039  23.612  1.00  0.00     0.040 A 
ATOM     65  C   UNL A   1      49.459  26.262  25.694  1.00  0.00     0.040 A 
ATOM     66  F   UNL A   1      48.213  26.441  27.673  1.00  0.00    -0.206 F 
ATOM     67  C   UNL A   1      49.580  26.447  24.319  1.00  0.00     0.006 A 
ENDBRANCH  46  60
BRANCH  47  68
ATOM     68  C   UNL A   1      38.910  29.726  30.629  1.00  0.00     0.057 A 
ATOM     69  C   UNL A   1      38.791  29.457  31.998  1.00  0.00     0.134 A 
ATOM     70  C   UNL A   1      37.824  30.343  29.997  1.00  0.00     0.134 A 
ATOM     71  F   UNL A   1      39.789  28.849  32.656  1.00  0.00    -0.206 F 
ATOM     72  C   UNL A   1      37.629  29.771  32.706  1.00  0.00     0.040 A 
ATOM     73  C   UNL A   1      36.667  30.687  30.698  1.00  0.00     0.040 A 
ATOM     74  F   UNL A   1      37.876  30.628  28.688  1.00  0.00    -0.206 F 
ATOM     75  C   UNL A   1      36.565  30.393  32.056  1.00  0.00     0.006 A 
ENDBRANCH  47  68
BRANCH  59  76
ATOM     76  C   UNL A   1      44.655  33.222  28.810  1.00  0.00     0.057 A 
ATOM     77  C   UNL A   1      45.410  33.627  29.918  1.00  0.00     0.134 A 
ATOM     78  C   UNL A   1      44.326  34.199  27.860  1.00  0.00     0.134 A 
ATOM     79  F   UNL A   1      45.747  32.745  30.871  1.00  0.00    -0.206 F 
ATOM     80  C   UNL A   1      45.797  34.957  30.089  1.00  0.00     0.040 A 
ATOM     81  C   UNL A   1      44.735  35.525  28.004  1.00  0.00     0.040 A 
ATOM     82  F   UNL A   1      43.615  33.876  26.769  1.00  0.00    -0.206 F 
ATOM     83  C   UNL A   1      45.465  35.909  29.126  1.00  0.00     0.006 A 
ENDBRANCH  59  76
ENDBRANCH  33  34
ENDBRANCH  26  28
ENDBRANCH  25  26
ENDBRANCH  24  25
ENDBRANCH   1  24
TORSDOF 14
ENDMDL
