MODEL 1
REMARK VINA RESULT:     -12.8      0.000      0.000
REMARK SMILES O=C(Cc1c(C(=O)c2cc3c(cn2)CCCC3)[nH]c2cc(Cl)ccc12)OCCOC(=O)c1ccc(-c2c3nc(c(-c4c(F)cccc4F)c4ccc([nH]4)c(-c4c(F)cccc4F)c4nc(c(-c5c(F)cccc5F)c5ccc2[nH]5)C=C4)C=C3)cc1
REMARK SMILES IDX 27 1 26 2 2 3 1 4 3 5 4 6 5 7 25 8 18 9 19 10 24 11 20 13
REMARK SMILES IDX 23 14 21 15 22 16 6 17 7 18 8 19 9 20 13 21 10 22 12 23
REMARK SMILES IDX 11 24 17 25 14 26 16 27 15 28 28 29 29 30 30 31 31 32 32 33
REMARK SMILES IDX 33 34 85 35 34 36 84 37 35 38 36 39 37 40 78 41 38 42 83 43
REMARK SMILES IDX 77 44 79 45 39 46 82 47 76 48 75 49 40 51 66 52 49 53 65 54
REMARK SMILES IDX 50 55 53 56 64 57 80 58 51 59 52 60 63 62 81 63 54 64 41 65
REMARK SMILES IDX 42 66 47 67 43 68 44 69 46 70 48 71 45 72 67 73 68 74 73 75
REMARK SMILES IDX 69 76 70 77 72 78 74 79 71 80 55 81 56 82 61 83 57 84 58 85
REMARK SMILES IDX 60 86 62 87 59 88
REMARK H PARENT 18 12 79 50 53 61
REMARK Flexibility Score: inf
ROOT
ATOM      1  C   UNL A   1      31.709  28.211  26.718  1.00  0.00     0.274 C 
ENDROOT
BRANCH   1   2
ATOM      2  O   UNL A   1      32.493  27.134  26.163  1.00  0.00    -0.462 OA
BRANCH   2   3
ATOM      3  C   UNL A   1      32.185  25.818  26.282  1.00  0.00     0.310 C 
ATOM      4  O   UNL A   1      31.183  25.480  26.914  1.00  0.00    -0.252 OA
BRANCH   3   5
ATOM      5  C   UNL A   1      33.130  24.786  25.709  1.00  0.00     0.161 C 
BRANCH   5   6
ATOM      6  C   UNL A   1      32.586  24.024  24.541  1.00  0.00     0.000 A 
ATOM      7  C   UNL A   1      32.144  24.550  23.325  1.00  0.00     0.093 A 
ATOM      8  C   UNL A   1      32.574  22.600  24.426  1.00  0.00     0.004 A 
ATOM      9  N   UNL A   1      31.768  23.477  22.545  1.00  0.00    -0.351 N 
ATOM     10  C   UNL A   1      32.073  22.288  23.167  1.00  0.00     0.048 A 
ATOM     11  C   UNL A   1      32.996  21.550  25.269  1.00  0.00     0.012 A 
ATOM     12  H   UNL A   1      31.340  23.552  21.661  1.00  0.00     0.167 HD
ATOM     13  C   UNL A   1      31.974  20.972  22.699  1.00  0.00     0.047 A 
ATOM     14  C   UNL A   1      32.931  20.230  24.811  1.00  0.00     0.021 A 
ATOM     15  C   UNL A   1      32.428  19.952  23.544  1.00  0.00     0.043 A 
ATOM     16  Cl  UNL A   1      32.381  18.321  22.992  1.00  0.00    -0.084 Cl
BRANCH   7  17
ATOM     17  C   UNL A   1      32.174  25.939  22.880  1.00  0.00     0.227 C 
ATOM     18  O   UNL A   1      33.206  26.463  22.462  1.00  0.00    -0.285 OA
BRANCH  17  19
ATOM     19  C   UNL A   1      30.941  26.782  22.949  1.00  0.00     0.113 A 
ATOM     20  C   UNL A   1      30.896  28.053  22.384  1.00  0.00     0.036 A 
ATOM     21  N   UNL A   1      29.874  26.196  23.547  1.00  0.00    -0.252 NA
ATOM     22  C   UNL A   1      29.702  28.780  22.468  1.00  0.00    -0.041 A 
ATOM     23  C   UNL A   1      28.734  26.910  23.609  1.00  0.00     0.115 A 
ATOM     24  C   UNL A   1      28.602  28.204  23.120  1.00  0.00    -0.026 A 
ATOM     25  C   UNL A   1      29.644  30.182  21.912  1.00  0.00     0.036 C 
ATOM     26  C   UNL A   1      27.289  28.924  23.256  1.00  0.00     0.037 C 
ATOM     27  C   UNL A   1      28.232  30.770  21.862  1.00  0.00     0.005 C 
ATOM     28  C   UNL A   1      27.453  30.436  23.128  1.00  0.00     0.005 C 
ENDBRANCH  17  19
ENDBRANCH   7  17
ENDBRANCH   5   6
ENDBRANCH   3   5
ENDBRANCH   2   3
ENDBRANCH   1   2
BRANCH   1  29
ATOM     29  C   UNL A   1      31.741  29.476  25.857  1.00  0.00     0.275 C 
BRANCH  29  30
ATOM     30  O   UNL A   1      33.032  30.105  25.904  1.00  0.00    -0.458 OA
BRANCH  30  31
ATOM     31  C   UNL A   1      33.190  31.076  26.838  1.00  0.00     0.338 C 
ATOM     32  O   UNL A   1      32.349  31.872  27.201  1.00  0.00    -0.246 OA
BRANCH  31  33
ATOM     33  C   UNL A   1      34.508  30.904  27.509  1.00  0.00     0.060 A 
ATOM     34  C   UNL A   1      35.326  31.987  27.847  1.00  0.00     0.016 A 
ATOM     35  C   UNL A   1      34.956  29.597  27.739  1.00  0.00     0.016 A 
ATOM     36  C   UNL A   1      36.575  31.761  28.438  1.00  0.00     0.010 A 
ATOM     37  C   UNL A   1      36.201  29.371  28.334  1.00  0.00     0.010 A 
ATOM     38  C   UNL A   1      37.013  30.452  28.704  1.00  0.00    -0.014 A 
BRANCH  38  39
ATOM     39  C   UNL A   1      38.244  30.228  29.503  1.00  0.00     0.031 A 
ATOM     40  C   UNL A   1      38.415  30.787  30.885  1.00  0.00     0.074 A 
ATOM     41  C   UNL A   1      39.241  29.519  28.943  1.00  0.00     0.049 A 
ATOM     42  N   UNL A   1      39.411  30.616  31.720  1.00  0.00    -0.248 NA
ATOM     43  C   UNL A   1      37.342  31.651  31.392  1.00  0.00     0.031 C 
ATOM     44  C   UNL A   1      39.218  28.963  27.588  1.00  0.00     0.029 A 
ATOM     45  N   UNL A   1      40.463  29.146  29.438  1.00  0.00    -0.354 N 
ATOM     46  C   UNL A   1      39.077  31.328  32.864  1.00  0.00     0.074 A 
ATOM     47  C   UNL A   1      37.807  31.977  32.592  1.00  0.00     0.031 C 
ATOM     48  C   UNL A   1      40.369  28.310  27.364  1.00  0.00     0.029 A 
ATOM     49  C   UNL A   1      41.212  28.414  28.551  1.00  0.00     0.049 A 
ATOM     50  H   UNL A   1      40.774  29.380  30.343  1.00  0.00     0.167 HD
ATOM     51  C   UNL A   1      39.753  31.414  34.037  1.00  0.00     0.037 A 
ATOM     52  C   UNL A   1      42.442  27.882  28.677  1.00  0.00     0.037 A 
ATOM     53  C   UNL A   1      41.031  30.796  34.299  1.00  0.00     0.049 A 
ATOM     54  C   UNL A   1      43.185  28.026  29.972  1.00  0.00     0.074 A 
ATOM     55  C   UNL A   1      41.771  30.801  35.471  1.00  0.00     0.029 A 
ATOM     56  N   UNL A   1      41.770  30.075  33.372  1.00  0.00    -0.354 N 
ATOM     57  N   UNL A   1      42.815  28.625  31.076  1.00  0.00    -0.248 NA
ATOM     58  C   UNL A   1      44.515  27.403  30.039  1.00  0.00     0.031 C 
ATOM     59  C   UNL A   1      42.974  30.122  35.240  1.00  0.00     0.029 A 
ATOM     60  C   UNL A   1      42.965  29.654  33.937  1.00  0.00     0.049 A 
ATOM     61  H   UNL A   1      41.487  29.890  32.447  1.00  0.00     0.167 HD
ATOM     62  C   UNL A   1      43.856  28.437  31.976  1.00  0.00     0.074 A 
ATOM     63  C   UNL A   1      44.861  27.645  31.295  1.00  0.00     0.031 C 
ATOM     64  C   UNL A   1      43.969  28.881  33.252  1.00  0.00     0.037 A 
BRANCH  51  65
ATOM     65  C   UNL A   1      39.114  32.204  35.143  1.00  0.00     0.057 A 
ATOM     66  C   UNL A   1      39.300  33.588  35.245  1.00  0.00     0.134 A 
ATOM     67  C   UNL A   1      38.358  31.577  36.143  1.00  0.00     0.134 A 
ATOM     68  F   UNL A   1      40.024  34.249  34.329  1.00  0.00    -0.206 F 
ATOM     69  C   UNL A   1      38.756  34.320  36.303  1.00  0.00     0.040 A 
ATOM     70  C   UNL A   1      37.790  32.303  37.192  1.00  0.00     0.040 A 
ATOM     71  F   UNL A   1      38.141  30.254  36.103  1.00  0.00    -0.206 F 
ATOM     72  C   UNL A   1      37.994  33.679  37.276  1.00  0.00     0.006 A 
ENDBRANCH  51  65
BRANCH  52  73
ATOM     73  C   UNL A   1      43.041  27.136  27.545  1.00  0.00     0.057 A 
ATOM     74  C   UNL A   1      42.822  25.763  27.384  1.00  0.00     0.134 A 
ATOM     75  C   UNL A   1      43.826  27.785  26.587  1.00  0.00     0.134 A 
ATOM     76  F   UNL A   1      42.082  25.086  28.273  1.00  0.00    -0.206 F 
ATOM     77  C   UNL A   1      43.365  25.061  26.308  1.00  0.00     0.040 A 
ATOM     78  C   UNL A   1      44.356  27.101  25.494  1.00  0.00     0.040 A 
ATOM     79  F   UNL A   1      44.053  29.105  26.682  1.00  0.00    -0.206 F 
ATOM     80  C   UNL A   1      44.127  25.733  25.354  1.00  0.00     0.006 A 
ENDBRANCH  52  73
BRANCH  64  81
ATOM     81  C   UNL A   1      45.223  28.503  33.988  1.00  0.00     0.057 A 
ATOM     82  C   UNL A   1      45.303  27.298  34.697  1.00  0.00     0.134 A 
ATOM     83  C   UNL A   1      46.362  29.320  33.975  1.00  0.00     0.134 A 
ATOM     84  F   UNL A   1      44.248  26.469  34.754  1.00  0.00    -0.206 F 
ATOM     85  C   UNL A   1      46.472  26.914  35.356  1.00  0.00     0.040 A 
ATOM     86  C   UNL A   1      47.545  28.935  34.608  1.00  0.00     0.040 A 
ATOM     87  F   UNL A   1      46.359  30.478  33.298  1.00  0.00    -0.206 F 
ATOM     88  C   UNL A   1      47.602  27.729  35.303  1.00  0.00     0.006 A 
ENDBRANCH  64  81
ENDBRANCH  38  39
ENDBRANCH  31  33
ENDBRANCH  30  31
ENDBRANCH  29  30
ENDBRANCH   1  29
TORSDOF 14
ENDMDL
MODEL 2
REMARK VINA RESULT:     -12.8      3.916      8.045
REMARK SMILES O=C(Cc1c(C(=O)c2cc3c(cn2)CCCC3)[nH]c2cc(Cl)ccc12)OCCOC(=O)c1ccc(-c2c3nc(c(-c4c(F)cccc4F)c4ccc([nH]4)c(-c4c(F)cccc4F)c4nc(c(-c5c(F)cccc5F)c5ccc2[nH]5)C=C4)C=C3)cc1
REMARK SMILES IDX 27 1 26 2 2 3 1 4 3 5 4 6 5 7 25 8 18 9 19 10 24 11 20 13
REMARK SMILES IDX 23 14 21 15 22 16 6 17 7 18 8 19 9 20 13 21 10 22 12 23
REMARK SMILES IDX 11 24 17 25 14 26 16 27 15 28 28 29 29 30 30 31 31 32 32 33
REMARK SMILES IDX 33 34 85 35 34 36 84 37 35 38 36 39 37 40 78 41 38 42 83 43
REMARK SMILES IDX 77 44 79 45 39 46 82 47 76 48 75 49 40 51 66 52 49 53 65 54
REMARK SMILES IDX 50 55 53 56 64 57 80 58 51 59 52 60 63 62 81 63 54 64 41 65
REMARK SMILES IDX 42 66 47 67 43 68 44 69 46 70 48 71 45 72 67 73 68 74 73 75
REMARK SMILES IDX 69 76 70 77 72 78 74 79 71 80 55 81 56 82 61 83 57 84 58 85
REMARK SMILES IDX 60 86 62 87 59 88
REMARK H PARENT 18 12 79 50 53 61
REMARK Flexibility Score: inf
ROOT
ATOM      1  C   UNL A   1      38.536  20.464  25.017  1.00  0.00     0.274 C 
ENDROOT
BRANCH   1   2
ATOM      2  O   UNL A   1      38.312  21.712  25.707  1.00  0.00    -0.462 OA
BRANCH   2   3
ATOM      3  C   UNL A   1      37.379  22.631  25.351  1.00  0.00     0.310 C 
ATOM      4  O   UNL A   1      37.154  23.590  26.090  1.00  0.00    -0.252 OA
BRANCH   3   5
ATOM      5  C   UNL A   1      36.571  22.410  24.092  1.00  0.00     0.161 C 
BRANCH   5   6
ATOM      6  C   UNL A   1      35.136  22.055  24.328  1.00  0.00     0.000 A 
ATOM      7  C   UNL A   1      34.030  22.898  24.210  1.00  0.00     0.093 A 
ATOM      8  C   UNL A   1      34.649  20.733  24.571  1.00  0.00     0.004 A 
ATOM      9  N   UNL A   1      32.918  22.131  24.487  1.00  0.00    -0.351 N 
ATOM     10  C   UNL A   1      33.262  20.809  24.650  1.00  0.00     0.048 A 
ATOM     11  C   UNL A   1      35.267  19.469  24.677  1.00  0.00     0.012 A 
ATOM     12  H   UNL A   1      32.000  22.483  24.557  1.00  0.00     0.167 HD
ATOM     13  C   UNL A   1      32.454  19.679  24.828  1.00  0.00     0.047 A 
ATOM     14  C   UNL A   1      34.477  18.326  24.827  1.00  0.00     0.021 A 
ATOM     15  C   UNL A   1      33.092  18.436  24.900  1.00  0.00     0.043 A 
ATOM     16  Cl  UNL A   1      32.139  17.010  25.060  1.00  0.00    -0.084 Cl
BRANCH   7  17
ATOM     17  C   UNL A   1      33.998  24.287  23.763  1.00  0.00     0.227 C 
ATOM     18  O   UNL A   1      34.444  24.624  22.667  1.00  0.00    -0.285 OA
BRANCH  17  19
ATOM     19  C   UNL A   1      33.444  25.354  24.651  1.00  0.00     0.113 A 
ATOM     20  C   UNL A   1      33.681  26.703  24.403  1.00  0.00     0.036 A 
ATOM     21  N   UNL A   1      32.661  24.912  25.665  1.00  0.00    -0.252 NA
ATOM     22  C   UNL A   1      33.114  27.651  25.263  1.00  0.00    -0.041 A 
ATOM     23  C   UNL A   1      32.119  25.841  26.476  1.00  0.00     0.115 A 
ATOM     24  C   UNL A   1      32.335  27.208  26.343  1.00  0.00    -0.026 A 
ATOM     25  C   UNL A   1      33.402  29.118  25.048  1.00  0.00     0.036 C 
ATOM     26  C   UNL A   1      31.699  28.163  27.313  1.00  0.00     0.037 C 
ATOM     27  C   UNL A   1      32.544  30.049  25.908  1.00  0.00     0.005 C 
ATOM     28  C   UNL A   1      32.409  29.515  27.329  1.00  0.00     0.005 C 
ENDBRANCH  17  19
ENDBRANCH   7  17
ENDBRANCH   5   6
ENDBRANCH   3   5
ENDBRANCH   2   3
ENDBRANCH   1   2
BRANCH   1  29
ATOM     29  C   UNL A   1      39.418  19.496  25.810  1.00  0.00     0.275 C 
BRANCH  29  30
ATOM     30  O   UNL A   1      40.719  19.369  25.212  1.00  0.00    -0.458 OA
BRANCH  30  31
ATOM     31  C   UNL A   1      41.771  19.365  26.068  1.00  0.00     0.338 C 
ATOM     32  O   UNL A   1      42.556  18.457  26.244  1.00  0.00    -0.246 OA
BRANCH  31  33
ATOM     33  C   UNL A   1      41.947  20.730  26.637  1.00  0.00     0.060 A 
ATOM     34  C   UNL A   1      41.713  21.019  27.986  1.00  0.00     0.016 A 
ATOM     35  C   UNL A   1      42.296  21.763  25.756  1.00  0.00     0.016 A 
ATOM     36  C   UNL A   1      41.854  22.331  28.453  1.00  0.00     0.010 A 
ATOM     37  C   UNL A   1      42.442  23.072  26.225  1.00  0.00     0.010 A 
ATOM     38  C   UNL A   1      42.239  23.363  27.581  1.00  0.00    -0.014 A 
BRANCH  38  39
ATOM     39  C   UNL A   1      42.575  24.705  28.119  1.00  0.00     0.031 A 
ATOM     40  C   UNL A   1      43.968  25.077  28.533  1.00  0.00     0.074 A 
ATOM     41  C   UNL A   1      41.577  25.598  28.258  1.00  0.00     0.049 A 
ATOM     42  N   UNL A   1      44.415  26.233  28.960  1.00  0.00    -0.248 NA
ATOM     43  C   UNL A   1      44.986  24.021  28.469  1.00  0.00     0.031 C 
ATOM     44  C   UNL A   1      40.171  25.343  27.939  1.00  0.00     0.029 A 
ATOM     45  N   UNL A   1      41.591  26.894  28.704  1.00  0.00    -0.354 N 
ATOM     46  C   UNL A   1      45.772  26.057  29.191  1.00  0.00     0.074 A 
ATOM     47  C   UNL A   1      46.063  24.663  28.907  1.00  0.00     0.031 C 
ATOM     48  C   UNL A   1      39.458  26.452  28.189  1.00  0.00     0.029 A 
ATOM     49  C   UNL A   1      40.353  27.487  28.698  1.00  0.00     0.049 A 
ATOM     50  H   UNL A   1      42.409  27.355  29.001  1.00  0.00     0.167 HD
ATOM     51  C   UNL A   1      46.692  26.974  29.582  1.00  0.00     0.037 A 
ATOM     52  C   UNL A   1      39.977  28.727  29.060  1.00  0.00     0.037 A 
ATOM     53  C   UNL A   1      46.399  28.353  29.896  1.00  0.00     0.049 A 
ATOM     54  C   UNL A   1      41.010  29.711  29.526  1.00  0.00     0.074 A 
ATOM     55  C   UNL A   1      47.276  29.361  30.265  1.00  0.00     0.029 A 
ATOM     56  N   UNL A   1      45.132  28.916  29.895  1.00  0.00    -0.354 N 
ATOM     57  N   UNL A   1      42.304  29.555  29.652  1.00  0.00    -0.248 NA
ATOM     58  C   UNL A   1      40.525  31.050  29.887  1.00  0.00     0.031 C 
ATOM     59  C   UNL A   1      46.535  30.520  30.529  1.00  0.00     0.029 A 
ATOM     60  C   UNL A   1      45.200  30.247  30.281  1.00  0.00     0.049 A 
ATOM     61  H   UNL A   1      44.304  28.440  29.657  1.00  0.00     0.167 HD
ATOM     62  C   UNL A   1      42.792  30.780  30.088  1.00  0.00     0.074 A 
ATOM     63  C   UNL A   1      41.656  31.675  30.179  1.00  0.00     0.031 C 
ATOM     64  C   UNL A   1      44.067  31.130  30.387  1.00  0.00     0.037 A 
BRANCH  51  65
ATOM     65  C   UNL A   1      48.119  26.517  29.683  1.00  0.00     0.057 A 
ATOM     66  C   UNL A   1      48.625  25.981  30.874  1.00  0.00     0.134 A 
ATOM     67  C   UNL A   1      49.009  26.664  28.611  1.00  0.00     0.134 A 
ATOM     68  F   UNL A   1      47.830  25.825  31.944  1.00  0.00    -0.206 F 
ATOM     69  C   UNL A   1      49.965  25.607  30.993  1.00  0.00     0.040 A 
ATOM     70  C   UNL A   1      50.345  26.272  28.711  1.00  0.00     0.040 A 
ATOM     71  F   UNL A   1      48.588  27.171  27.442  1.00  0.00    -0.206 F 
ATOM     72  C   UNL A   1      50.828  25.746  29.908  1.00  0.00     0.006 A 
ENDBRANCH  51  65
BRANCH  52  73
ATOM     73  C   UNL A   1      38.551  29.120  28.969  1.00  0.00     0.057 A 
ATOM     74  C   UNL A   1      37.703  29.036  30.078  1.00  0.00     0.134 A 
ATOM     75  C   UNL A   1      38.012  29.610  27.775  1.00  0.00     0.134 A 
ATOM     76  F   UNL A   1      38.162  28.569  31.248  1.00  0.00    -0.206 F 
ATOM     77  C   UNL A   1      36.366  29.427  30.004  1.00  0.00     0.040 A 
ATOM     78  C   UNL A   1      36.684  30.026  27.692  1.00  0.00     0.040 A 
ATOM     79  F   UNL A   1      38.785  29.730  26.684  1.00  0.00    -0.206 F 
ATOM     80  C   UNL A   1      35.856  29.932  28.809  1.00  0.00     0.006 A 
ENDBRANCH  52  73
BRANCH  64  81
ATOM     81  C   UNL A   1      44.290  32.549  30.827  1.00  0.00     0.057 A 
ATOM     82  C   UNL A   1      44.266  32.892  32.184  1.00  0.00     0.134 A 
ATOM     83  C   UNL A   1      44.556  33.573  29.907  1.00  0.00     0.134 A 
ATOM     84  F   UNL A   1      44.014  31.961  33.118  1.00  0.00    -0.206 F 
ATOM     85  C   UNL A   1      44.508  34.198  32.612  1.00  0.00     0.040 A 
ATOM     86  C   UNL A   1      44.825  34.878  30.324  1.00  0.00     0.040 A 
ATOM     87  F   UNL A   1      44.613  33.309  28.593  1.00  0.00    -0.206 F 
ATOM     88  C   UNL A   1      44.800  35.194  31.681  1.00  0.00     0.006 A 
ENDBRANCH  64  81
ENDBRANCH  38  39
ENDBRANCH  31  33
ENDBRANCH  30  31
ENDBRANCH  29  30
ENDBRANCH   1  29
TORSDOF 14
ENDMDL
MODEL 3
REMARK VINA RESULT:     -12.7      2.040      3.105
REMARK SMILES O=C(Cc1c(C(=O)c2cc3c(cn2)CCCC3)[nH]c2cc(Cl)ccc12)OCCOC(=O)c1ccc(-c2c3nc(c(-c4c(F)cccc4F)c4ccc([nH]4)c(-c4c(F)cccc4F)c4nc(c(-c5c(F)cccc5F)c5ccc2[nH]5)C=C4)C=C3)cc1
REMARK SMILES IDX 27 1 26 2 2 3 1 4 3 5 4 6 5 7 25 8 18 9 19 10 24 11 20 13
REMARK SMILES IDX 23 14 21 15 22 16 6 17 7 18 8 19 9 20 13 21 10 22 12 23
REMARK SMILES IDX 11 24 17 25 14 26 16 27 15 28 28 29 29 30 30 31 31 32 32 33
REMARK SMILES IDX 33 34 85 35 34 36 84 37 35 38 36 39 37 40 78 41 38 42 83 43
REMARK SMILES IDX 77 44 79 45 39 46 82 47 76 48 75 49 40 51 66 52 49 53 65 54
REMARK SMILES IDX 50 55 53 56 64 57 80 58 51 59 52 60 63 62 81 63 54 64 41 65
REMARK SMILES IDX 42 66 47 67 43 68 44 69 46 70 48 71 45 72 67 73 68 74 73 75
REMARK SMILES IDX 69 76 70 77 72 78 74 79 71 80 55 81 56 82 61 83 57 84 58 85
REMARK SMILES IDX 60 86 62 87 59 88
REMARK H PARENT 18 12 79 50 53 61
REMARK Flexibility Score: inf
ROOT
ATOM      1  C   UNL A   1      31.779  29.320  26.100  1.00  0.00     0.274 C 
ENDROOT
BRANCH   1   2
ATOM      2  O   UNL A   1      31.568  28.140  26.902  1.00  0.00    -0.462 OA
BRANCH   2   3
ATOM      3  C   UNL A   1      31.985  26.894  26.563  1.00  0.00     0.310 C 
ATOM      4  O   UNL A   1      31.249  25.927  26.767  1.00  0.00    -0.252 OA
BRANCH   3   5
ATOM      5  C   UNL A   1      33.385  26.708  26.021  1.00  0.00     0.161 C 
BRANCH   5   6
ATOM      6  C   UNL A   1      33.520  25.613  25.010  1.00  0.00     0.000 A 
ATOM      7  C   UNL A   1      33.283  25.700  23.637  1.00  0.00     0.093 A 
ATOM      8  C   UNL A   1      34.069  24.320  25.273  1.00  0.00     0.004 A 
ATOM      9  N   UNL A   1      33.571  24.461  23.107  1.00  0.00    -0.351 N 
ATOM     10  C   UNL A   1      34.102  23.629  24.066  1.00  0.00     0.048 A 
ATOM     11  C   UNL A   1      34.590  23.697  26.427  1.00  0.00     0.012 A 
ATOM     12  H   UNL A   1      33.418  24.206  22.168  1.00  0.00     0.167 HD
ATOM     13  C   UNL A   1      34.636  22.340  23.949  1.00  0.00     0.047 A 
ATOM     14  C   UNL A   1      35.153  22.421  26.327  1.00  0.00     0.021 A 
ATOM     15  C   UNL A   1      35.173  21.758  25.103  1.00  0.00     0.043 A 
ATOM     16  Cl  UNL A   1      35.894  20.197  25.000  1.00  0.00    -0.084 Cl
BRANCH   7  17
ATOM     17  C   UNL A   1      32.922  26.880  22.858  1.00  0.00     0.227 C 
ATOM     18  O   UNL A   1      33.746  27.474  22.163  1.00  0.00    -0.285 OA
BRANCH  17  19
ATOM     19  C   UNL A   1      31.530  27.424  22.909  1.00  0.00     0.113 A 
ATOM     20  C   UNL A   1      31.215  28.670  22.377  1.00  0.00     0.036 A 
ATOM     21  N   UNL A   1      30.607  26.596  23.457  1.00  0.00    -0.252 NA
ATOM     22  C   UNL A   1      29.888  29.110  22.441  1.00  0.00    -0.041 A 
ATOM     23  C   UNL A   1      29.334  27.034  23.501  1.00  0.00     0.115 A 
ATOM     24  C   UNL A   1      28.928  28.281  23.041  1.00  0.00    -0.026 A 
ATOM     25  C   UNL A   1      29.531  30.481  21.920  1.00  0.00     0.036 C 
ATOM     26  C   UNL A   1      27.484  28.684  23.154  1.00  0.00     0.037 C 
ATOM     27  C   UNL A   1      28.025  30.740  21.840  1.00  0.00     0.005 C 
ATOM     28  C   UNL A   1      27.308  30.198  23.071  1.00  0.00     0.005 C 
ENDBRANCH  17  19
ENDBRANCH   7  17
ENDBRANCH   5   6
ENDBRANCH   3   5
ENDBRANCH   2   3
ENDBRANCH   1   2
BRANCH   1  29
ATOM     29  C   UNL A   1      32.442  30.459  26.879  1.00  0.00     0.275 C 
BRANCH  29  30
ATOM     30  O   UNL A   1      33.701  30.047  27.434  1.00  0.00    -0.458 OA
BRANCH  30  31
ATOM     31  C   UNL A   1      34.554  31.042  27.784  1.00  0.00     0.338 C 
ATOM     32  O   UNL A   1      34.285  32.220  27.888  1.00  0.00    -0.246 OA
BRANCH  31  33
ATOM     33  C   UNL A   1      35.848  30.450  28.221  1.00  0.00     0.060 A 
ATOM     34  C   UNL A   1      37.019  30.561  27.463  1.00  0.00     0.016 A 
ATOM     35  C   UNL A   1      35.856  29.700  29.404  1.00  0.00     0.016 A 
ATOM     36  C   UNL A   1      38.197  29.946  27.904  1.00  0.00     0.010 A 
ATOM     37  C   UNL A   1      37.033  29.090  29.847  1.00  0.00     0.010 A 
ATOM     38  C   UNL A   1      38.218  29.223  29.110  1.00  0.00    -0.014 A 
BRANCH  38  39
ATOM     39  C   UNL A   1      39.507  28.742  29.666  1.00  0.00     0.031 A 
ATOM     40  C   UNL A   1      40.160  29.389  30.852  1.00  0.00     0.074 A 
ATOM     41  C   UNL A   1      40.111  27.705  29.057  1.00  0.00     0.049 A 
ATOM     42  N   UNL A   1      41.253  29.034  31.481  1.00  0.00    -0.248 NA
ATOM     43  C   UNL A   1      39.512  30.589  31.396  1.00  0.00     0.031 C 
ATOM     44  C   UNL A   1      39.605  27.020  27.865  1.00  0.00     0.029 A 
ATOM     45  N   UNL A   1      41.278  27.049  29.351  1.00  0.00    -0.354 N 
ATOM     46  C   UNL A   1      41.414  29.947  32.514  1.00  0.00     0.074 A 
ATOM     47  C   UNL A   1      40.332  30.906  32.392  1.00  0.00     0.031 C 
ATOM     48  C   UNL A   1      40.452  26.032  27.537  1.00  0.00     0.029 A 
ATOM     49  C   UNL A   1      41.563  26.025  28.483  1.00  0.00     0.049 A 
ATOM     50  H   UNL A   1      41.856  27.289  30.112  1.00  0.00     0.167 HD
ATOM     51  C   UNL A   1      42.362  29.971  33.485  1.00  0.00     0.037 A 
ATOM     52  C   UNL A   1      42.602  25.170  28.452  1.00  0.00     0.037 A 
ATOM     53  C   UNL A   1      43.457  29.037  33.590  1.00  0.00     0.049 A 
ATOM     54  C   UNL A   1      43.657  25.244  29.516  1.00  0.00     0.074 A 
ATOM     55  C   UNL A   1      44.442  28.965  34.563  1.00  0.00     0.029 A 
ATOM     56  N   UNL A   1      43.725  28.021  32.684  1.00  0.00    -0.354 N 
ATOM     57  N   UNL A   1      43.746  26.056  30.539  1.00  0.00    -0.248 NA
ATOM     58  C   UNL A   1      44.751  24.266  29.424  1.00  0.00     0.031 C 
ATOM     59  C   UNL A   1      45.329  27.935  34.222  1.00  0.00     0.029 A 
ATOM     60  C   UNL A   1      44.872  27.335  33.061  1.00  0.00     0.049 A 
ATOM     61  H   UNL A   1      43.182  27.817  31.889  1.00  0.00     0.167 HD
ATOM     62  C   UNL A   1      44.893  25.678  31.224  1.00  0.00     0.074 A 
ATOM     63  C   UNL A   1      45.452  24.545  30.513  1.00  0.00     0.031 C 
ATOM     64  C   UNL A   1      45.434  26.221  32.342  1.00  0.00     0.037 A 
BRANCH  51  65
ATOM     65  C   UNL A   1      42.249  31.044  34.529  1.00  0.00     0.057 A 
ATOM     66  C   UNL A   1      41.456  30.864  35.669  1.00  0.00     0.134 A 
ATOM     67  C   UNL A   1      42.887  32.282  34.373  1.00  0.00     0.134 A 
ATOM     68  F   UNL A   1      40.808  29.708  35.874  1.00  0.00    -0.206 F 
ATOM     69  C   UNL A   1      41.301  31.879  36.616  1.00  0.00     0.040 A 
ATOM     70  C   UNL A   1      42.758  33.295  35.325  1.00  0.00     0.040 A 
ATOM     71  F   UNL A   1      43.662  32.519  33.304  1.00  0.00    -0.206 F 
ATOM     72  C   UNL A   1      41.957  33.096  36.449  1.00  0.00     0.006 A 
ENDBRANCH  51  65
BRANCH  52  73
ATOM     73  C   UNL A   1      42.681  24.147  27.383  1.00  0.00     0.057 A 
ATOM     74  C   UNL A   1      43.296  24.424  26.157  1.00  0.00     0.134 A 
ATOM     75  C   UNL A   1      42.164  22.861  27.574  1.00  0.00     0.134 A 
ATOM     76  F   UNL A   1      43.805  25.641  25.914  1.00  0.00    -0.206 F 
ATOM     77  C   UNL A   1      43.393  23.457  25.156  1.00  0.00     0.040 A 
ATOM     78  C   UNL A   1      42.276  21.878  26.592  1.00  0.00     0.040 A 
ATOM     79  F   UNL A   1      41.581  22.534  28.738  1.00  0.00    -0.206 F 
ATOM     80  C   UNL A   1      42.890  22.176  25.377  1.00  0.00     0.006 A 
ENDBRANCH  52  73
BRANCH  64  81
ATOM     81  C   UNL A   1      46.689  25.580  32.863  1.00  0.00     0.057 A 
ATOM     82  C   UNL A   1      47.947  25.980  32.396  1.00  0.00     0.134 A 
ATOM     83  C   UNL A   1      46.654  24.582  33.848  1.00  0.00     0.134 A 
ATOM     84  F   UNL A   1      48.053  26.927  31.452  1.00  0.00    -0.206 F 
ATOM     85  C   UNL A   1      49.123  25.420  32.897  1.00  0.00     0.040 A 
ATOM     86  C   UNL A   1      47.824  24.034  34.375  1.00  0.00     0.040 A 
ATOM     87  F   UNL A   1      45.482  24.167  34.352  1.00  0.00    -0.206 F 
ATOM     88  C   UNL A   1      49.065  24.452  33.897  1.00  0.00     0.006 A 
ENDBRANCH  64  81
ENDBRANCH  38  39
ENDBRANCH  31  33
ENDBRANCH  30  31
ENDBRANCH  29  30
ENDBRANCH   1  29
TORSDOF 14
ENDMDL
