MODEL 1
REMARK VINA RESULT:     -11.8      0.000      0.000
REMARK SMILES CC(=O)Nc1nc(C[N@@H+]2CCO[C@@H](CC(=O)OCCOC(=O)c3ccc(-c4c5nc(c(-c6c(F)cccc6F)c6ccc([nH]6)c(-c6c(F)cccc6F)c6nc(c(-c7c(F)cccc7F)c7ccc4[nH]7)C=C6)C=C5)cc3)C2)cs1
REMARK SMILES IDX 18 1 17 2 15 3 16 4 14 5 13 6 9 7 10 8 77 9 11 11 12 12 8 13
REMARK SMILES IDX 7 14 5 15 6 16 79 17 78 18 4 19 1 20 2 21 3 22 19 24 20 25
REMARK SMILES IDX 21 26 22 27 23 28 24 29 76 30 25 31 75 32 26 33 27 34 28 35
REMARK SMILES IDX 69 36 29 37 74 38 68 39 70 40 30 41 73 42 67 43 66 44 31 46
REMARK SMILES IDX 57 47 40 48 56 49 41 50 44 51 55 52 71 53 42 54 43 55 54 57
REMARK SMILES IDX 72 58 45 59 32 60 33 61 38 62 34 63 35 64 37 65 39 66 36 67
REMARK SMILES IDX 58 68 59 69 64 70 60 71 61 72 63 73 65 74 62 75 46 76 47 77
REMARK SMILES IDX 52 78 48 79 49 80 51 81 53 82 50 83
REMARK H PARENT 9 10 4 23 70 45 44 56
REMARK Flexibility Score: inf
ROOT
ATOM      1  C   UNL A   1      31.884  32.067  26.890  1.00  0.00     0.274 C 
ENDROOT
BRANCH   1   2
ATOM      2  O   UNL A   1      32.558  30.985  26.208  1.00  0.00    -0.462 OA
BRANCH   2   3
ATOM      3  C   UNL A   1      32.969  29.887  26.899  1.00  0.00     0.308 C 
ATOM      4  O   UNL A   1      33.993  29.844  27.570  1.00  0.00    -0.252 OA
BRANCH   3   5
ATOM      5  C   UNL A   1      32.078  28.663  26.660  1.00  0.00     0.160 C 
BRANCH   5   6
ATOM      6  C   UNL A   1      32.404  27.927  25.369  1.00  0.00     0.184 C 
ATOM      7  N   UNL A   1      32.176  27.926  22.909  1.00  0.00    -0.326 N 
ATOM      8  C   UNL A   1      33.358  27.055  22.856  1.00  0.00     0.291 C 
ATOM      9  C   UNL A   1      32.276  28.782  24.097  1.00  0.00     0.295 C 
ATOM     10  H   UNL A   1      32.218  28.489  22.060  1.00  0.00     0.348 HD
ATOM     11  C   UNL A   1      33.823  26.439  24.204  1.00  0.00     0.222 C 
ATOM     12  O   UNL A   1      33.724  27.337  25.340  1.00  0.00    -0.366 OA
BRANCH   7  13
ATOM     13  C   UNL A   1      30.840  27.325  22.693  1.00  0.00     0.320 C 
BRANCH  13  14
ATOM     14  C   UNL A   1      29.673  28.282  22.506  1.00  0.00     0.108 A 
ATOM     15  C   UNL A   1      28.683  30.164  21.758  1.00  0.00     0.189 A 
ATOM     16  N   UNL A   1      29.724  29.379  21.596  1.00  0.00    -0.219 NA
ATOM     17  S   UNL A   1      27.551  29.624  22.936  1.00  0.00    -0.105 S 
ATOM     18  C   UNL A   1      28.472  28.203  23.187  1.00  0.00     0.098 A 
BRANCH  15  19
ATOM     19  N   UNL A   1      28.309  31.376  21.244  1.00  0.00    -0.302 N 
ATOM     20  C   UNL A   1      28.902  33.145  22.940  1.00  0.00     0.114 C 
ATOM     21  C   UNL A   1      28.195  32.636  21.725  1.00  0.00     0.223 C 
ATOM     22  O   UNL A   1      27.578  33.448  21.024  1.00  0.00    -0.275 OA
ATOM     23  H   UNL A   1      28.064  31.317  20.292  1.00  0.00     0.172 HD
ENDBRANCH  15  19
ENDBRANCH  13  14
ENDBRANCH   7  13
ENDBRANCH   5   6
ENDBRANCH   3   5
ENDBRANCH   2   3
ENDBRANCH   1   2
BRANCH   1  24
ATOM     24  C   UNL A   1      32.881  33.047  27.571  1.00  0.00     0.275 C 
BRANCH  24  25
ATOM     25  O   UNL A   1      32.267  34.299  27.967  1.00  0.00    -0.458 OA
BRANCH  25  26
ATOM     26  C   UNL A   1      32.953  35.096  28.843  1.00  0.00     0.338 C 
ATOM     27  O   UNL A   1      32.652  36.210  29.201  1.00  0.00    -0.246 OA
BRANCH  26  28
ATOM     28  C   UNL A   1      34.181  34.369  29.300  1.00  0.00     0.060 A 
ATOM     29  C   UNL A   1      34.050  33.346  30.237  1.00  0.00     0.016 A 
ATOM     30  C   UNL A   1      35.450  34.641  28.788  1.00  0.00     0.016 A 
ATOM     31  C   UNL A   1      35.105  32.481  30.534  1.00  0.00     0.010 A 
ATOM     32  C   UNL A   1      36.545  33.822  29.147  1.00  0.00     0.010 A 
ATOM     33  C   UNL A   1      36.370  32.711  29.994  1.00  0.00    -0.014 A 
BRANCH  33  34
ATOM     34  C   UNL A   1      37.509  31.909  30.522  1.00  0.00     0.031 A 
ATOM     35  C   UNL A   1      37.891  32.096  31.964  1.00  0.00     0.074 A 
ATOM     36  C   UNL A   1      38.101  30.926  29.812  1.00  0.00     0.049 A 
ATOM     37  N   UNL A   1      38.869  31.560  32.649  1.00  0.00    -0.248 NA
ATOM     38  C   UNL A   1      37.025  32.992  32.746  1.00  0.00     0.031 C 
ATOM     39  C   UNL A   1      37.720  30.498  28.469  1.00  0.00     0.029 A 
ATOM     40  N   UNL A   1      39.138  30.085  30.148  1.00  0.00    -0.354 N 
ATOM     41  C   UNL A   1      38.752  32.077  33.932  1.00  0.00     0.074 A 
ATOM     42  C   UNL A   1      37.593  32.942  33.939  1.00  0.00     0.031 C 
ATOM     43  C   UNL A   1      38.505  29.467  28.099  1.00  0.00     0.029 A 
ATOM     44  C   UNL A   1      39.481  29.197  29.155  1.00  0.00     0.049 A 
ATOM     45  H   UNL A   1      39.594  30.116  31.021  1.00  0.00     0.167 HD
ATOM     46  C   UNL A   1      39.552  31.877  35.005  1.00  0.00     0.037 A 
ATOM     47  C   UNL A   1      40.484  28.294  29.099  1.00  0.00     0.037 A 
ATOM     48  C   UNL A   1      40.713  31.031  35.005  1.00  0.00     0.049 A 
ATOM     49  C   UNL A   1      41.445  28.178  30.259  1.00  0.00     0.074 A 
ATOM     50  C   UNL A   1      41.644  30.837  36.009  1.00  0.00     0.029 A 
ATOM     51  N   UNL A   1      41.098  30.233  33.940  1.00  0.00    -0.354 N 
ATOM     52  N   UNL A   1      41.400  28.759  31.434  1.00  0.00    -0.248 NA
ATOM     53  C   UNL A   1      42.614  27.302  30.073  1.00  0.00     0.031 C 
ATOM     54  C   UNL A   1      42.615  29.946  35.537  1.00  0.00     0.029 A 
ATOM     55  C   UNL A   1      42.263  29.556  34.254  1.00  0.00     0.049 A 
ATOM     56  H   UNL A   1      40.615  30.159  33.085  1.00  0.00     0.167 HD
ATOM     57  C   UNL A   1      42.521  28.311  32.127  1.00  0.00     0.074 A 
ATOM     58  C   UNL A   1      43.218  27.394  31.250  1.00  0.00     0.031 C 
ATOM     59  C   UNL A   1      42.939  28.637  33.375  1.00  0.00     0.037 A 
BRANCH  46  60
ATOM     60  C   UNL A   1      39.236  32.685  36.225  1.00  0.00     0.057 A 
ATOM     61  C   UNL A   1      38.338  32.244  37.205  1.00  0.00     0.134 A 
ATOM     62  C   UNL A   1      39.786  33.964  36.377  1.00  0.00     0.134 A 
ATOM     63  F   UNL A   1      37.752  31.042  37.097  1.00  0.00    -0.206 F 
ATOM     64  C   UNL A   1      37.969  33.063  38.273  1.00  0.00     0.040 A 
ATOM     65  C   UNL A   1      39.443  34.783  37.452  1.00  0.00     0.040 A 
ATOM     66  F   UNL A   1      40.647  34.447  35.468  1.00  0.00    -0.206 F 
ATOM     67  C   UNL A   1      38.522  34.337  38.398  1.00  0.00     0.006 A 
ENDBRANCH  46  60
BRANCH  47  68
ATOM     68  C   UNL A   1      40.690  27.456  27.884  1.00  0.00     0.057 A 
ATOM     69  C   UNL A   1      40.154  26.165  27.788  1.00  0.00     0.134 A 
ATOM     70  C   UNL A   1      41.484  27.898  26.818  1.00  0.00     0.134 A 
ATOM     71  F   UNL A   1      39.420  25.663  28.792  1.00  0.00    -0.206 F 
ATOM     72  C   UNL A   1      40.406  25.345  26.685  1.00  0.00     0.040 A 
ATOM     73  C   UNL A   1      41.724  27.099  25.698  1.00  0.00     0.040 A 
ATOM     74  F   UNL A   1      42.049  29.114  26.854  1.00  0.00    -0.206 F 
ATOM     75  C   UNL A   1      41.189  25.814  25.633  1.00  0.00     0.006 A 
ENDBRANCH  47  68
BRANCH  59  76
ATOM     76  C   UNL A   1      44.192  27.987  33.881  1.00  0.00     0.057 A 
ATOM     77  C   UNL A   1      45.444  28.602  33.755  1.00  0.00     0.134 A 
ATOM     78  C   UNL A   1      44.137  26.766  34.565  1.00  0.00     0.134 A 
ATOM     79  F   UNL A   1      45.565  29.769  33.104  1.00  0.00    -0.206 F 
ATOM     80  C   UNL A   1      46.598  28.020  34.282  1.00  0.00     0.040 A 
ATOM     81  C   UNL A   1      45.281  26.184  35.113  1.00  0.00     0.040 A 
ATOM     82  F   UNL A   1      42.967  26.130  34.728  1.00  0.00    -0.206 F 
ATOM     83  C   UNL A   1      46.518  26.811  34.970  1.00  0.00     0.006 A 
ENDBRANCH  59  76
ENDBRANCH  33  34
ENDBRANCH  26  28
ENDBRANCH  25  26
ENDBRANCH  24  25
ENDBRANCH   1  24
TORSDOF 15
ENDMDL
MODEL 2
REMARK VINA RESULT:     -11.4      4.319      7.605
REMARK SMILES CC(=O)Nc1nc(C[N@@H+]2CCO[C@@H](CC(=O)OCCOC(=O)c3ccc(-c4c5nc(c(-c6c(F)cccc6F)c6ccc([nH]6)c(-c6c(F)cccc6F)c6nc(c(-c7c(F)cccc7F)c7ccc4[nH]7)C=C6)C=C5)cc3)C2)cs1
REMARK SMILES IDX 18 1 17 2 15 3 16 4 14 5 13 6 9 7 10 8 77 9 11 11 12 12 8 13
REMARK SMILES IDX 7 14 5 15 6 16 79 17 78 18 4 19 1 20 2 21 3 22 19 24 20 25
REMARK SMILES IDX 21 26 22 27 23 28 24 29 76 30 25 31 75 32 26 33 27 34 28 35
REMARK SMILES IDX 69 36 29 37 74 38 68 39 70 40 30 41 73 42 67 43 66 44 31 46
REMARK SMILES IDX 57 47 40 48 56 49 41 50 44 51 55 52 71 53 42 54 43 55 54 57
REMARK SMILES IDX 72 58 45 59 32 60 33 61 38 62 34 63 35 64 37 65 39 66 36 67
REMARK SMILES IDX 58 68 59 69 64 70 60 71 61 72 63 73 65 74 62 75 46 76 47 77
REMARK SMILES IDX 52 78 48 79 49 80 51 81 53 82 50 83
REMARK H PARENT 9 10 4 23 70 45 44 56
REMARK Flexibility Score: inf
ROOT
ATOM      1  C   UNL A   1      34.080  20.781  26.085  1.00  0.00     0.274 C 
ENDROOT
BRANCH   1   2
ATOM      2  O   UNL A   1      33.765  22.121  26.528  1.00  0.00    -0.462 OA
BRANCH   2   3
ATOM      3  C   UNL A   1      32.471  22.534  26.604  1.00  0.00     0.308 C 
ATOM      4  O   UNL A   1      31.961  23.009  27.611  1.00  0.00    -0.252 OA
BRANCH   3   5
ATOM      5  C   UNL A   1      31.674  22.236  25.329  1.00  0.00     0.160 C 
BRANCH   5   6
ATOM      6  C   UNL A   1      32.061  23.127  24.158  1.00  0.00     0.184 C 
ATOM      7  N   UNL A   1      32.418  25.450  23.395  1.00  0.00    -0.326 N 
ATOM      8  C   UNL A   1      33.273  24.909  22.331  1.00  0.00     0.291 C 
ATOM      9  C   UNL A   1      32.485  24.552  24.553  1.00  0.00     0.295 C 
ATOM     10  H   UNL A   1      32.817  26.360  23.626  1.00  0.00     0.348 HD
ATOM     11  C   UNL A   1      33.213  23.372  22.110  1.00  0.00     0.222 C 
ATOM     12  O   UNL A   1      33.120  22.595  23.331  1.00  0.00    -0.366 OA
BRANCH   7  13
ATOM     13  C   UNL A   1      31.052  25.906  23.046  1.00  0.00     0.320 C 
BRANCH  13  14
ATOM     14  C   UNL A   1      30.726  27.370  23.303  1.00  0.00     0.108 A 
ATOM     15  C   UNL A   1      30.081  29.446  22.711  1.00  0.00     0.189 A 
ATOM     16  N   UNL A   1      30.073  28.187  22.334  1.00  0.00    -0.219 NA
ATOM     17  S   UNL A   1      30.790  29.733  24.251  1.00  0.00    -0.105 S 
ATOM     18  C   UNL A   1      31.028  28.052  24.469  1.00  0.00     0.098 A 
BRANCH  15  19
ATOM     19  N   UNL A   1      29.707  30.623  22.121  1.00  0.00    -0.302 N 
ATOM     20  C   UNL A   1      27.653  31.464  23.318  1.00  0.00     0.114 C 
ATOM     21  C   UNL A   1      28.624  31.433  22.182  1.00  0.00     0.223 C 
ATOM     22  O   UNL A   1      28.525  32.300  21.304  1.00  0.00    -0.275 OA
ATOM     23  H   UNL A   1      30.392  30.962  21.500  1.00  0.00     0.172 HD
ENDBRANCH  15  19
ENDBRANCH  13  14
ENDBRANCH   7  13
ENDBRANCH   5   6
ENDBRANCH   3   5
ENDBRANCH   2   3
ENDBRANCH   1   2
BRANCH   1  24
ATOM     24  C   UNL A   1      35.404  20.726  25.270  1.00  0.00     0.275 C 
BRANCH  24  25
ATOM     25  O   UNL A   1      36.488  21.455  25.898  1.00  0.00    -0.458 OA
BRANCH  25  26
ATOM     26  C   UNL A   1      37.768  21.082  25.589  1.00  0.00     0.338 C 
ATOM     27  O   UNL A   1      38.125  20.026  25.123  1.00  0.00    -0.246 OA
BRANCH  26  28
ATOM     28  C   UNL A   1      38.698  22.203  25.939  1.00  0.00     0.060 A 
ATOM     29  C   UNL A   1      38.278  23.516  25.734  1.00  0.00     0.016 A 
ATOM     30  C   UNL A   1      39.953  21.990  26.510  1.00  0.00     0.016 A 
ATOM     31  C   UNL A   1      38.989  24.604  26.243  1.00  0.00     0.010 A 
ATOM     32  C   UNL A   1      40.720  23.091  26.954  1.00  0.00     0.010 A 
ATOM     33  C   UNL A   1      40.224  24.405  26.858  1.00  0.00    -0.014 A 
BRANCH  33  34
ATOM     34  C   UNL A   1      41.048  25.606  27.171  1.00  0.00     0.031 A 
ATOM     35  C   UNL A   1      40.485  26.612  28.136  1.00  0.00     0.074 A 
ATOM     36  C   UNL A   1      42.322  25.747  26.752  1.00  0.00     0.049 A 
ATOM     37  N   UNL A   1      40.976  27.758  28.535  1.00  0.00    -0.248 NA
ATOM     38  C   UNL A   1      39.201  26.254  28.759  1.00  0.00     0.031 C 
ATOM     39  C   UNL A   1      43.073  24.771  25.966  1.00  0.00     0.029 A 
ATOM     40  N   UNL A   1      43.223  26.767  26.963  1.00  0.00    -0.354 N 
ATOM     41  C   UNL A   1      40.046  28.270  29.431  1.00  0.00     0.074 A 
ATOM     42  C   UNL A   1      38.980  27.298  29.541  1.00  0.00     0.031 C 
ATOM     43  C   UNL A   1      44.323  25.235  25.771  1.00  0.00     0.029 A 
ATOM     44  C   UNL A   1      44.447  26.564  26.369  1.00  0.00     0.049 A 
ATOM     45  H   UNL A   1      43.009  27.570  27.493  1.00  0.00     0.167 HD
ATOM     46  C   UNL A   1      40.059  29.454  30.085  1.00  0.00     0.037 A 
ATOM     47  C   UNL A   1      45.527  27.373  26.295  1.00  0.00     0.037 A 
ATOM     48  C   UNL A   1      41.105  30.432  29.972  1.00  0.00     0.049 A 
ATOM     49  C   UNL A   1      45.471  28.745  26.923  1.00  0.00     0.074 A 
ATOM     50  C   UNL A   1      41.166  31.703  30.514  1.00  0.00     0.029 A 
ATOM     51  N   UNL A   1      42.281  30.240  29.265  1.00  0.00    -0.354 N 
ATOM     52  N   UNL A   1      44.537  29.276  27.675  1.00  0.00    -0.248 NA
ATOM     53  C   UNL A   1      46.610  29.644  26.666  1.00  0.00     0.031 C 
ATOM     54  C   UNL A   1      42.367  32.294  30.104  1.00  0.00     0.029 A 
ATOM     55  C   UNL A   1      43.070  31.375  29.342  1.00  0.00     0.049 A 
ATOM     56  H   UNL A   1      42.521  29.418  28.778  1.00  0.00     0.167 HD
ATOM     57  C   UNL A   1      44.979  30.558  27.989  1.00  0.00     0.074 A 
ATOM     58  C   UNL A   1      46.274  30.721  27.363  1.00  0.00     0.031 C 
ATOM     59  C   UNL A   1      44.362  31.517  28.723  1.00  0.00     0.037 A 
BRANCH  46  60
ATOM     60  C   UNL A   1      38.838  29.779  30.888  1.00  0.00     0.057 A 
ATOM     61  C   UNL A   1      37.755  30.487  30.352  1.00  0.00     0.134 A 
ATOM     62  C   UNL A   1      38.786  29.443  32.246  1.00  0.00     0.134 A 
ATOM     63  F   UNL A   1      37.763  30.868  29.065  1.00  0.00    -0.206 F 
ATOM     64  C   UNL A   1      36.679  30.881  31.149  1.00  0.00     0.040 A 
ATOM     65  C   UNL A   1      37.706  29.811  33.048  1.00  0.00     0.040 A 
ATOM     66  F   UNL A   1      39.795  28.772  32.821  1.00  0.00    -0.206 F 
ATOM     67  C   UNL A   1      36.653  30.543  32.502  1.00  0.00     0.006 A 
ENDBRANCH  46  60
BRANCH  47  68
ATOM     68  C   UNL A   1      46.747  26.951  25.551  1.00  0.00     0.057 A 
ATOM     69  C   UNL A   1      47.722  26.139  26.147  1.00  0.00     0.134 A 
ATOM     70  C   UNL A   1      47.002  27.403  24.250  1.00  0.00     0.134 A 
ATOM     71  F   UNL A   1      47.560  25.705  27.406  1.00  0.00    -0.206 F 
ATOM     72  C   UNL A   1      48.903  25.801  25.482  1.00  0.00     0.040 A 
ATOM     73  C   UNL A   1      48.167  27.054  23.565  1.00  0.00     0.040 A 
ATOM     74  F   UNL A   1      46.124  28.203  23.628  1.00  0.00    -0.206 F 
ATOM     75  C   UNL A   1      49.126  26.255  24.184  1.00  0.00     0.006 A 
ENDBRANCH  47  68
BRANCH  59  76
ATOM     76  C   UNL A   1      45.082  32.819  28.913  1.00  0.00     0.057 A 
ATOM     77  C   UNL A   1      46.026  32.997  29.932  1.00  0.00     0.134 A 
ATOM     78  C   UNL A   1      44.880  33.883  28.024  1.00  0.00     0.134 A 
ATOM     79  F   UNL A   1      46.259  32.019  30.821  1.00  0.00    -0.206 F 
ATOM     80  C   UNL A   1      46.737  34.191  30.066  1.00  0.00     0.040 A 
ATOM     81  C   UNL A   1      45.598  35.074  28.137  1.00  0.00     0.040 A 
ATOM     82  F   UNL A   1      43.996  33.773  27.021  1.00  0.00    -0.206 F 
ATOM     83  C   UNL A   1      46.530  35.231  29.162  1.00  0.00     0.006 A 
ENDBRANCH  59  76
ENDBRANCH  33  34
ENDBRANCH  26  28
ENDBRANCH  25  26
ENDBRANCH  24  25
ENDBRANCH   1  24
TORSDOF 15
ENDMDL
MODEL 3
REMARK VINA RESULT:     -11.3      3.766      8.388
REMARK SMILES CC(=O)Nc1nc(C[N@@H+]2CCO[C@@H](CC(=O)OCCOC(=O)c3ccc(-c4c5nc(c(-c6c(F)cccc6F)c6ccc([nH]6)c(-c6c(F)cccc6F)c6nc(c(-c7c(F)cccc7F)c7ccc4[nH]7)C=C6)C=C5)cc3)C2)cs1
REMARK SMILES IDX 18 1 17 2 15 3 16 4 14 5 13 6 9 7 10 8 77 9 11 11 12 12 8 13
REMARK SMILES IDX 7 14 5 15 6 16 79 17 78 18 4 19 1 20 2 21 3 22 19 24 20 25
REMARK SMILES IDX 21 26 22 27 23 28 24 29 76 30 25 31 75 32 26 33 27 34 28 35
REMARK SMILES IDX 69 36 29 37 74 38 68 39 70 40 30 41 73 42 67 43 66 44 31 46
REMARK SMILES IDX 57 47 40 48 56 49 41 50 44 51 55 52 71 53 42 54 43 55 54 57
REMARK SMILES IDX 72 58 45 59 32 60 33 61 38 62 34 63 35 64 37 65 39 66 36 67
REMARK SMILES IDX 58 68 59 69 64 70 60 71 61 72 63 73 65 74 62 75 46 76 47 77
REMARK SMILES IDX 52 78 48 79 49 80 51 81 53 82 50 83
REMARK H PARENT 9 10 4 23 70 45 44 56
REMARK Flexibility Score: inf
ROOT
ATOM      1  C   UNL A   1      31.857  28.910  23.676  1.00  0.00     0.274 C 
ENDROOT
BRANCH   1   2
ATOM      2  O   UNL A   1      33.093  28.179  23.505  1.00  0.00    -0.462 OA
BRANCH   2   3
ATOM      3  C   UNL A   1      33.076  26.828  23.344  1.00  0.00     0.308 C 
ATOM      4  O   UNL A   1      32.433  26.250  22.475  1.00  0.00    -0.252 OA
BRANCH   3   5
ATOM      5  C   UNL A   1      33.855  26.086  24.436  1.00  0.00     0.160 C 
BRANCH   5   6
ATOM      6  C   UNL A   1      33.130  24.853  24.956  1.00  0.00     0.184 C 
ATOM      7  N   UNL A   1      33.277  22.420  25.356  1.00  0.00    -0.326 N 
ATOM      8  C   UNL A   1      32.218  22.578  26.361  1.00  0.00     0.291 C 
ATOM      9  C   UNL A   1      34.050  23.665  25.287  1.00  0.00     0.295 C 
ATOM     10  H   UNL A   1      33.862  21.656  25.698  1.00  0.00     0.348 HD
ATOM     11  C   UNL A   1      31.472  23.940  26.369  1.00  0.00     0.222 C 
ATOM     12  O   UNL A   1      32.322  25.091  26.131  1.00  0.00    -0.366 OA
BRANCH   7  13
ATOM     13  C   UNL A   1      32.927  21.837  24.040  1.00  0.00     0.320 C 
BRANCH  13  14
ATOM     14  C   UNL A   1      32.981  20.322  23.918  1.00  0.00     0.108 A 
ATOM     15  C   UNL A   1      33.900  18.286  24.221  1.00  0.00     0.189 A 
ATOM     16  N   UNL A   1      33.923  19.532  24.640  1.00  0.00    -0.219 NA
ATOM     17  S   UNL A   1      32.727  17.957  23.007  1.00  0.00    -0.105 S 
ATOM     18  C   UNL A   1      32.152  19.567  23.107  1.00  0.00     0.098 A 
BRANCH  15  19
ATOM     19  N   UNL A   1      34.655  17.176  24.482  1.00  0.00    -0.302 N 
ATOM     20  C   UNL A   1      33.116  15.394  25.384  1.00  0.00     0.114 C 
ATOM     21  C   UNL A   1      34.457  16.002  25.125  1.00  0.00     0.223 C 
ATOM     22  O   UNL A   1      35.463  15.328  25.382  1.00  0.00    -0.275 OA
ATOM     23  H   UNL A   1      35.565  17.248  24.111  1.00  0.00     0.172 HD
ENDBRANCH  15  19
ENDBRANCH  13  14
ENDBRANCH   7  13
ENDBRANCH   5   6
ENDBRANCH   3   5
ENDBRANCH   2   3
ENDBRANCH   1   2
BRANCH   1  24
ATOM     24  C   UNL A   1      31.710  29.491  25.111  1.00  0.00     0.275 C 
BRANCH  24  25
ATOM     25  O   UNL A   1      32.892  30.200  25.561  1.00  0.00    -0.458 OA
BRANCH  25  26
ATOM     26  C   UNL A   1      32.764  31.031  26.641  1.00  0.00     0.338 C 
ATOM     27  O   UNL A   1      31.853  31.791  26.868  1.00  0.00    -0.246 OA
BRANCH  26  28
ATOM     28  C   UNL A   1      33.963  30.869  27.523  1.00  0.00     0.060 A 
ATOM     29  C   UNL A   1      34.333  29.589  27.931  1.00  0.00     0.016 A 
ATOM     30  C   UNL A   1      34.760  31.945  27.915  1.00  0.00     0.016 A 
ATOM     31  C   UNL A   1      35.556  29.339  28.555  1.00  0.00     0.010 A 
ATOM     32  C   UNL A   1      35.961  31.711  28.622  1.00  0.00     0.010 A 
ATOM     33  C   UNL A   1      36.386  30.400  28.913  1.00  0.00    -0.014 A 
BRANCH  33  34
ATOM     34  C   UNL A   1      37.560  30.105  29.781  1.00  0.00     0.031 A 
ATOM     35  C   UNL A   1      38.697  29.322  29.183  1.00  0.00     0.074 A 
ATOM     36  C   UNL A   1      37.710  30.634  31.013  1.00  0.00     0.049 A 
ATOM     37  N   UNL A   1      39.802  28.894  29.736  1.00  0.00    -0.248 NA
ATOM     38  C   UNL A   1      38.575  29.009  27.751  1.00  0.00     0.031 C 
ATOM     39  C   UNL A   1      36.785  31.563  31.658  1.00  0.00     0.029 A 
ATOM     40  N   UNL A   1      38.727  30.486  31.929  1.00  0.00    -0.354 N 
ATOM     41  C   UNL A   1      40.493  28.235  28.728  1.00  0.00     0.074 A 
ATOM     42  C   UNL A   1      39.699  28.348  27.524  1.00  0.00     0.031 C 
ATOM     43  C   UNL A   1      37.282  31.909  32.862  1.00  0.00     0.029 A 
ATOM     44  C   UNL A   1      38.532  31.186  33.097  1.00  0.00     0.049 A 
ATOM     45  H   UNL A   1      39.522  29.929  31.763  1.00  0.00     0.167 HD
ATOM     46  C   UNL A   1      41.669  27.570  28.797  1.00  0.00     0.037 A 
ATOM     47  C   UNL A   1      39.266  31.214  34.232  1.00  0.00     0.037 A 
ATOM     48  C   UNL A   1      42.459  27.441  29.990  1.00  0.00     0.049 A 
ATOM     49  C   UNL A   1      40.508  30.361  34.333  1.00  0.00     0.074 A 
ATOM     50  C   UNL A   1      43.614  26.706  30.189  1.00  0.00     0.029 A 
ATOM     51  N   UNL A   1      42.169  28.069  31.190  1.00  0.00    -0.354 N 
ATOM     52  N   UNL A   1      41.099  29.641  33.409  1.00  0.00    -0.248 NA
ATOM     53  C   UNL A   1      41.171  30.300  35.648  1.00  0.00     0.031 C 
ATOM     54  C   UNL A   1      44.004  26.863  31.524  1.00  0.00     0.029 A 
ATOM     55  C   UNL A   1      43.115  27.727  32.142  1.00  0.00     0.049 A 
ATOM     56  H   UNL A   1      41.404  28.669  31.345  1.00  0.00     0.167 HD
ATOM     57  C   UNL A   1      42.202  29.057  34.024  1.00  0.00     0.074 A 
ATOM     58  C   UNL A   1      42.213  29.519  35.395  1.00  0.00     0.031 C 
ATOM     59  C   UNL A   1      43.118  28.206  33.500  1.00  0.00     0.037 A 
BRANCH  46  60
ATOM     60  C   UNL A   1      42.094  26.847  27.557  1.00  0.00     0.057 A 
ATOM     61  C   UNL A   1      41.804  25.493  27.343  1.00  0.00     0.134 A 
ATOM     62  C   UNL A   1      42.875  27.503  26.598  1.00  0.00     0.134 A 
ATOM     63  F   UNL A   1      41.089  24.801  28.243  1.00  0.00    -0.206 F 
ATOM     64  C   UNL A   1      42.309  24.809  26.237  1.00  0.00     0.040 A 
ATOM     65  C   UNL A   1      43.367  26.836  25.476  1.00  0.00     0.040 A 
ATOM     66  F   UNL A   1      43.193  28.798  26.749  1.00  0.00    -0.206 F 
ATOM     67  C   UNL A   1      43.094  25.481  25.299  1.00  0.00     0.006 A 
ENDBRANCH  46  60
BRANCH  47  68
ATOM     68  C   UNL A   1      38.831  32.027  35.403  1.00  0.00     0.057 A 
ATOM     69  C   UNL A   1      39.148  33.388  35.505  1.00  0.00     0.134 A 
ATOM     70  C   UNL A   1      38.147  31.449  36.480  1.00  0.00     0.134 A 
ATOM     71  F   UNL A   1      39.839  33.994  34.527  1.00  0.00    -0.206 F 
ATOM     72  C   UNL A   1      38.810  34.139  36.633  1.00  0.00     0.040 A 
ATOM     73  C   UNL A   1      37.781  32.193  37.603  1.00  0.00     0.040 A 
ATOM     74  F   UNL A   1      37.833  30.145  36.460  1.00  0.00    -0.206 F 
ATOM     75  C   UNL A   1      38.119  33.542  37.685  1.00  0.00     0.006 A 
ENDBRANCH  47  68
BRANCH  59  76
ATOM     76  C   UNL A   1      44.224  27.735  34.398  1.00  0.00     0.057 A 
ATOM     77  C   UNL A   1      44.130  26.535  35.114  1.00  0.00     0.134 A 
ATOM     78  C   UNL A   1      45.423  28.453  34.492  1.00  0.00     0.134 A 
ATOM     79  F   UNL A   1      43.005  25.805  35.073  1.00  0.00    -0.206 F 
ATOM     80  C   UNL A   1      45.187  26.072  35.901  1.00  0.00     0.040 A 
ATOM     81  C   UNL A   1      46.492  27.991  35.260  1.00  0.00     0.040 A 
ATOM     82  F   UNL A   1      45.579  29.606  33.823  1.00  0.00    -0.206 F 
ATOM     83  C   UNL A   1      46.375  26.796  35.969  1.00  0.00     0.006 A 
ENDBRANCH  59  76
ENDBRANCH  33  34
ENDBRANCH  26  28
ENDBRANCH  25  26
ENDBRANCH  24  25
ENDBRANCH   1  24
TORSDOF 15
ENDMDL
