MODEL 1
REMARK VINA RESULT:     -11.4      0.000      0.000
REMARK SMILES O=C(OCCOC(=O)[C@H](Cc1ccc([N+](=O)[O-])cc1)c1ccccc1Br)c1ccc(-c2c3nc(c(-c4c(F)cccc4F)c4ccc([nH]4)c(-c4c(F)cccc4F)c4nc(c(-c5c(F)cccc5F)c5ccc2[nH]5)C=C4)C=C3)cc1
REMARK SMILES IDX 5 1 4 2 3 3 2 4 1 5 27 6 28 7 80 8 29 9 79 10 30 11 31 12
REMARK SMILES IDX 32 13 73 14 33 15 78 16 72 17 74 18 34 19 77 20 71 21 70 22
REMARK SMILES IDX 35 24 61 25 44 26 60 27 45 28 48 29 59 30 75 31 46 32 47 33
REMARK SMILES IDX 58 35 76 36 49 37 36 38 37 39 42 40 38 41 39 42 41 43 43 44
REMARK SMILES IDX 40 45 62 46 63 47 68 48 64 49 65 50 67 51 69 52 66 53 50 54
REMARK SMILES IDX 51 55 56 56 52 57 53 58 55 59 57 60 54 61 6 62 7 63 8 64
REMARK SMILES IDX 9 65 20 66 21 67 25 68 22 69 24 70 26 71 23 72 10 73 11 74
REMARK SMILES IDX 12 75 19 76 13 77 18 78 14 79 15 80 16 81 17 82
REMARK H PARENT 74 23 48 34
REMARK Flexibility Score: inf
ROOT
ATOM      1  C   UNL A   1      31.864  30.786  26.091  1.00  0.00     0.274 C 
ENDROOT
BRANCH   1   2
ATOM      2  C   UNL A   1      31.297  31.971  26.890  1.00  0.00     0.275 C 
BRANCH   2   3
ATOM      3  O   UNL A   1      32.113  33.146  26.859  1.00  0.00    -0.458 OA
BRANCH   3   4
ATOM      4  C   UNL A   1      32.906  33.648  27.831  1.00  0.00     0.338 C 
ATOM      5  O   UNL A   1      32.578  34.714  28.351  1.00  0.00    -0.246 OA
BRANCH   4   6
ATOM      6  C   UNL A   1      34.241  33.070  28.216  1.00  0.00     0.060 A 
ATOM      7  C   UNL A   1      35.483  33.714  28.227  1.00  0.00     0.016 A 
ATOM      8  C   UNL A   1      34.196  31.766  28.724  1.00  0.00     0.016 A 
ATOM      9  C   UNL A   1      36.588  33.169  28.887  1.00  0.00     0.010 A 
ATOM     10  C   UNL A   1      35.295  31.217  29.382  1.00  0.00     0.010 A 
ATOM     11  C   UNL A   1      36.489  31.930  29.504  1.00  0.00    -0.014 A 
BRANCH  11  12
ATOM     12  C   UNL A   1      37.683  31.274  30.072  1.00  0.00     0.031 A 
ATOM     13  C   UNL A   1      37.993  31.568  31.509  1.00  0.00     0.074 A 
ATOM     14  C   UNL A   1      38.457  30.450  29.341  1.00  0.00     0.049 A 
ATOM     15  N   UNL A   1      39.012  31.198  32.234  1.00  0.00    -0.248 NA
ATOM     16  C   UNL A   1      37.039  32.446  32.215  1.00  0.00     0.031 C 
ATOM     17  C   UNL A   1      38.251  30.106  27.932  1.00  0.00     0.029 A 
ATOM     18  N   UNL A   1      39.576  29.738  29.692  1.00  0.00    -0.354 N 
ATOM     19  C   UNL A   1      38.833  31.829  33.456  1.00  0.00     0.074 A 
ATOM     20  C   UNL A   1      37.679  32.685  33.343  1.00  0.00     0.031 C 
ATOM     21  C   UNL A   1      39.193  29.223  27.552  1.00  0.00     0.029 A 
ATOM     22  C   UNL A   1      40.084  28.958  28.678  1.00  0.00     0.049 A 
ATOM     23  H   UNL A   1      39.979  29.780  30.590  1.00  0.00     0.167 HD
ATOM     24  C   UNL A   1      39.531  31.662  34.600  1.00  0.00     0.037 A 
ATOM     25  C   UNL A   1      41.145  28.126  28.681  1.00  0.00     0.037 A 
ATOM     26  C   UNL A   1      40.630  30.753  34.718  1.00  0.00     0.049 A 
ATOM     27  C   UNL A   1      41.925  27.968  29.967  1.00  0.00     0.074 A 
ATOM     28  C   UNL A   1      41.394  30.462  35.830  1.00  0.00     0.029 A 
ATOM     29  N   UNL A   1      41.110  29.975  33.674  1.00  0.00    -0.354 N 
ATOM     30  N   UNL A   1      41.712  28.522  31.138  1.00  0.00    -0.248 NA
ATOM     31  C   UNL A   1      43.086  27.068  29.935  1.00  0.00     0.031 C 
ATOM     32  C   UNL A   1      42.368  29.535  35.446  1.00  0.00     0.029 A 
ATOM     33  C   UNL A   1      42.175  29.212  34.110  1.00  0.00     0.049 A 
ATOM     34  H   UNL A   1      40.747  29.970  32.759  1.00  0.00     0.167 HD
ATOM     35  C   UNL A   1      42.688  28.014  31.987  1.00  0.00     0.074 A 
ATOM     36  C   UNL A   1      43.483  27.093  31.200  1.00  0.00     0.031 C 
ATOM     37  C   UNL A   1      42.917  28.282  33.297  1.00  0.00     0.037 A 
BRANCH  24  38
ATOM     38  C   UNL A   1      39.097  32.481  35.777  1.00  0.00     0.057 A 
ATOM     39  C   UNL A   1      39.576  33.782  35.993  1.00  0.00     0.134 A 
ATOM     40  C   UNL A   1      38.254  31.932  36.749  1.00  0.00     0.134 A 
ATOM     41  F   UNL A   1      40.418  34.352  35.116  1.00  0.00    -0.206 F 
ATOM     42  C   UNL A   1      39.277  34.485  37.161  1.00  0.00     0.040 A 
ATOM     43  C   UNL A   1      37.919  32.640  37.904  1.00  0.00     0.040 A 
ATOM     44  F   UNL A   1      37.765  30.692  36.606  1.00  0.00    -0.206 F 
ATOM     45  C   UNL A   1      38.444  33.914  38.119  1.00  0.00     0.006 A 
ENDBRANCH  24  38
BRANCH  25  46
ATOM     46  C   UNL A   1      41.534  27.362  27.463  1.00  0.00     0.057 A 
ATOM     47  C   UNL A   1      41.116  26.038  27.270  1.00  0.00     0.134 A 
ATOM     48  C   UNL A   1      42.382  27.908  26.492  1.00  0.00     0.134 A 
ATOM     49  F   UNL A   1      40.315  25.446  28.168  1.00  0.00    -0.206 F 
ATOM     50  C   UNL A   1      41.556  25.276  26.183  1.00  0.00     0.040 A 
ATOM     51  C   UNL A   1      42.810  27.167  25.387  1.00  0.00     0.040 A 
ATOM     52  F   UNL A   1      42.814  29.172  26.603  1.00  0.00    -0.206 F 
ATOM     53  C   UNL A   1      42.406  25.842  25.237  1.00  0.00     0.006 A 
ENDBRANCH  25  46
BRANCH  37  54
ATOM     54  C   UNL A   1      44.034  27.544  33.971  1.00  0.00     0.057 A 
ATOM     55  C   UNL A   1      43.843  26.284  34.550  1.00  0.00     0.134 A 
ATOM     56  C   UNL A   1      45.338  28.057  33.943  1.00  0.00     0.134 A 
ATOM     57  F   UNL A   1      42.617  25.745  34.614  1.00  0.00    -0.206 F 
ATOM     58  C   UNL A   1      44.909  25.563  35.086  1.00  0.00     0.040 A 
ATOM     59  C   UNL A   1      46.416  27.334  34.449  1.00  0.00     0.040 A 
ATOM     60  F   UNL A   1      45.587  29.254  33.389  1.00  0.00    -0.206 F 
ATOM     61  C   UNL A   1      46.202  26.083  35.024  1.00  0.00     0.006 A 
ENDBRANCH  37  54
ENDBRANCH  11  12
ENDBRANCH   4   6
ENDBRANCH   3   4
ENDBRANCH   2   3
ENDBRANCH   1   2
BRANCH   1  62
ATOM     62  O   UNL A   1      32.152  29.600  26.876  1.00  0.00    -0.462 OA
BRANCH  62  63
ATOM     63  C   UNL A   1      33.242  28.868  26.482  1.00  0.00     0.313 C 
ATOM     64  O   UNL A   1      34.331  29.397  26.288  1.00  0.00    -0.252 OA
BRANCH  63  65
ATOM     65  C   UNL A   1      32.901  27.371  26.247  1.00  0.00     0.135 C 
BRANCH  65  66
ATOM     66  C   UNL A   1      31.633  27.215  25.401  1.00  0.00    -0.019 A 
ATOM     67  C   UNL A   1      30.598  26.421  25.951  1.00  0.00     0.006 A 
ATOM     68  C   UNL A   1      31.487  27.660  24.069  1.00  0.00     0.022 A 
ATOM     69  C   UNL A   1      29.504  26.025  25.181  1.00  0.00     0.000 A 
ATOM     70  C   UNL A   1      30.358  27.298  23.325  1.00  0.00     0.016 A 
ATOM     71  Br  UNL A   1      32.782  28.645  23.079  1.00  0.00    -0.051 Br
ATOM     72  C   UNL A   1      29.386  26.465  23.868  1.00  0.00     0.001 A 
ENDBRANCH  65  66
BRANCH  65  73
ATOM     73  C   UNL A   1      34.068  26.490  25.691  1.00  0.00     0.055 C 
BRANCH  73  74
ATOM     74  C   UNL A   1      33.780  25.020  25.339  1.00  0.00    -0.046 A 
ATOM     75  C   UNL A   1      33.535  24.030  26.300  1.00  0.00     0.011 A 
ATOM     76  C   UNL A   1      33.639  24.624  24.000  1.00  0.00     0.011 A 
ATOM     77  C   UNL A   1      33.336  22.685  25.958  1.00  0.00     0.086 A 
ATOM     78  C   UNL A   1      33.455  23.281  23.627  1.00  0.00     0.086 A 
ATOM     79  C   UNL A   1      33.328  22.308  24.616  1.00  0.00     0.269 A 
BRANCH  79  80
ATOM     80  N   UNL A   1      33.124  20.901  24.252  1.00  0.00     0.062 N 
ATOM     81  O   UNL A   1      32.426  20.657  23.256  1.00  0.00    -0.258 OA
ATOM     82  O   UNL A   1      33.673  20.038  24.953  1.00  0.00    -0.258 OA
ENDBRANCH  79  80
ENDBRANCH  73  74
ENDBRANCH  65  73
ENDBRANCH  63  65
ENDBRANCH  62  63
ENDBRANCH   1  62
TORSDOF 15
ENDMDL
MODEL 2
REMARK VINA RESULT:     -11.3      2.472      4.230
REMARK SMILES O=C(OCCOC(=O)[C@H](Cc1ccc([N+](=O)[O-])cc1)c1ccccc1Br)c1ccc(-c2c3nc(c(-c4c(F)cccc4F)c4ccc([nH]4)c(-c4c(F)cccc4F)c4nc(c(-c5c(F)cccc5F)c5ccc2[nH]5)C=C4)C=C3)cc1
REMARK SMILES IDX 5 1 4 2 3 3 2 4 1 5 27 6 28 7 80 8 29 9 79 10 30 11 31 12
REMARK SMILES IDX 32 13 73 14 33 15 78 16 72 17 74 18 34 19 77 20 71 21 70 22
REMARK SMILES IDX 35 24 61 25 44 26 60 27 45 28 48 29 59 30 75 31 46 32 47 33
REMARK SMILES IDX 58 35 76 36 49 37 36 38 37 39 42 40 38 41 39 42 41 43 43 44
REMARK SMILES IDX 40 45 62 46 63 47 68 48 64 49 65 50 67 51 69 52 66 53 50 54
REMARK SMILES IDX 51 55 56 56 52 57 53 58 55 59 57 60 54 61 6 62 7 63 8 64
REMARK SMILES IDX 9 65 20 66 21 67 25 68 22 69 24 70 26 71 23 72 10 73 11 74
REMARK SMILES IDX 12 75 19 76 13 77 18 78 14 79 15 80 16 81 17 82
REMARK H PARENT 74 23 48 34
REMARK Flexibility Score: inf
ROOT
ATOM      1  C   UNL A   1      31.955  28.551  27.127  1.00  0.00     0.274 C 
ENDROOT
BRANCH   1   2
ATOM      2  C   UNL A   1      31.745  29.996  26.647  1.00  0.00     0.275 C 
BRANCH   2   3
ATOM      3  O   UNL A   1      32.957  30.727  26.434  1.00  0.00    -0.458 OA
BRANCH   3   4
ATOM      4  C   UNL A   1      33.651  31.485  27.312  1.00  0.00     0.338 C 
ATOM      5  O   UNL A   1      33.198  32.591  27.604  1.00  0.00    -0.246 OA
BRANCH   4   6
ATOM      6  C   UNL A   1      35.014  31.131  27.842  1.00  0.00     0.060 A 
ATOM      7  C   UNL A   1      36.116  31.977  28.007  1.00  0.00     0.016 A 
ATOM      8  C   UNL A   1      35.139  29.821  28.323  1.00  0.00     0.016 A 
ATOM      9  C   UNL A   1      37.217  31.607  28.784  1.00  0.00     0.010 A 
ATOM     10  C   UNL A   1      36.235  29.446  29.097  1.00  0.00     0.010 A 
ATOM     11  C   UNL A   1      37.266  30.348  29.368  1.00  0.00    -0.014 A 
BRANCH  11  12
ATOM     12  C   UNL A   1      38.484  29.887  30.063  1.00  0.00     0.031 A 
ATOM     13  C   UNL A   1      38.673  30.358  31.473  1.00  0.00     0.074 A 
ATOM     14  C   UNL A   1      39.383  29.082  29.463  1.00  0.00     0.049 A 
ATOM     15  N   UNL A   1      39.679  30.176  32.284  1.00  0.00    -0.248 NA
ATOM     16  C   UNL A   1      37.594  31.193  32.032  1.00  0.00     0.031 C 
ATOM     17  C   UNL A   1      39.300  28.577  28.092  1.00  0.00     0.029 A 
ATOM     18  N   UNL A   1      40.545  28.535  29.945  1.00  0.00    -0.354 N 
ATOM     19  C   UNL A   1      39.362  30.904  33.421  1.00  0.00     0.074 A 
ATOM     20  C   UNL A   1      38.135  31.614  33.158  1.00  0.00     0.031 C 
ATOM     21  C   UNL A   1      40.349  27.768  27.856  1.00  0.00     0.029 A 
ATOM     22  C   UNL A   1      41.192  27.717  29.047  1.00  0.00     0.049 A 
ATOM     23  H   UNL A   1      40.886  28.712  30.852  1.00  0.00     0.167 HD
ATOM     24  C   UNL A   1      40.002  30.931  34.609  1.00  0.00     0.037 A 
ATOM     25  C   UNL A   1      42.331  27.010  29.193  1.00  0.00     0.037 A 
ATOM     26  C   UNL A   1      41.179  30.164  34.879  1.00  0.00     0.049 A 
ATOM     27  C   UNL A   1      43.043  27.069  30.525  1.00  0.00     0.074 A 
ATOM     28  C   UNL A   1      41.900  30.073  36.053  1.00  0.00     0.029 A 
ATOM     29  N   UNL A   1      41.800  29.342  33.950  1.00  0.00    -0.354 N 
ATOM     30  N   UNL A   1      42.702  27.712  31.618  1.00  0.00    -0.248 NA
ATOM     31  C   UNL A   1      44.290  26.302  30.649  1.00  0.00     0.031 C 
ATOM     32  C   UNL A   1      42.985  29.222  35.820  1.00  0.00     0.029 A 
ATOM     33  C   UNL A   1      42.909  28.746  34.518  1.00  0.00     0.049 A 
ATOM     34  H   UNL A   1      41.497  29.204  33.024  1.00  0.00     0.167 HD
ATOM     35  C   UNL A   1      43.671  27.402  32.565  1.00  0.00     0.074 A 
ATOM     36  C   UNL A   1      44.604  26.499  31.922  1.00  0.00     0.031 C 
ATOM     37  C   UNL A   1      43.791  27.825  33.848  1.00  0.00     0.037 A 
BRANCH  24  38
ATOM     38  C   UNL A   1      39.415  31.814  35.668  1.00  0.00     0.057 A 
ATOM     39  C   UNL A   1      38.417  31.360  36.544  1.00  0.00     0.134 A 
ATOM     40  C   UNL A   1      39.793  33.158  35.759  1.00  0.00     0.134 A 
ATOM     41  F   UNL A   1      37.984  30.090  36.483  1.00  0.00    -0.206 F 
ATOM     42  C   UNL A   1      37.778  32.225  37.433  1.00  0.00     0.040 A 
ATOM     43  C   UNL A   1      39.185  34.024  36.669  1.00  0.00     0.040 A 
ATOM     44  F   UNL A   1      40.737  33.657  34.947  1.00  0.00    -0.206 F 
ATOM     45  C   UNL A   1      38.165  33.561  37.498  1.00  0.00     0.006 A 
ENDBRANCH  24  38
BRANCH  25  46
ATOM     46  C   UNL A   1      42.870  26.173  28.085  1.00  0.00     0.057 A 
ATOM     47  C   UNL A   1      42.476  24.838  27.923  1.00  0.00     0.134 A 
ATOM     48  C   UNL A   1      43.838  26.661  27.198  1.00  0.00     0.134 A 
ATOM     49  F   UNL A   1      41.565  24.298  28.747  1.00  0.00    -0.206 F 
ATOM     50  C   UNL A   1      43.049  24.011  26.952  1.00  0.00     0.040 A 
ATOM     51  C   UNL A   1      44.401  25.855  26.205  1.00  0.00     0.040 A 
ATOM     52  F   UNL A   1      44.255  27.933  27.284  1.00  0.00    -0.206 F 
ATOM     53  C   UNL A   1      44.016  24.521  26.089  1.00  0.00     0.006 A 
ENDBRANCH  25  46
BRANCH  37  54
ATOM     54  C   UNL A   1      44.935  27.285  34.652  1.00  0.00     0.057 A 
ATOM     55  C   UNL A   1      46.152  27.969  34.754  1.00  0.00     0.134 A 
ATOM     56  C   UNL A   1      44.776  26.122  35.416  1.00  0.00     0.134 A 
ATOM     57  F   UNL A   1      46.367  29.084  34.041  1.00  0.00    -0.206 F 
ATOM     58  C   UNL A   1      47.175  27.509  35.584  1.00  0.00     0.040 A 
ATOM     59  C   UNL A   1      45.779  25.668  36.271  1.00  0.00     0.040 A 
ATOM     60  F   UNL A   1      43.626  25.430  35.371  1.00  0.00    -0.206 F 
ATOM     61  C   UNL A   1      46.984  26.363  36.354  1.00  0.00     0.006 A 
ENDBRANCH  37  54
ENDBRANCH  11  12
ENDBRANCH   4   6
ENDBRANCH   3   4
ENDBRANCH   2   3
ENDBRANCH   1   2
BRANCH   1  62
ATOM     62  O   UNL A   1      32.113  27.570  26.070  1.00  0.00    -0.462 OA
BRANCH  62  63
ATOM     63  C   UNL A   1      30.977  26.903  25.694  1.00  0.00     0.313 C 
ATOM     64  O   UNL A   1      30.276  26.319  26.514  1.00  0.00    -0.252 OA
BRANCH  63  65
ATOM     65  C   UNL A   1      30.759  26.917  24.156  1.00  0.00     0.135 C 
BRANCH  65  66
ATOM     66  C   UNL A   1      31.315  25.647  23.503  1.00  0.00    -0.019 A 
ATOM     67  C   UNL A   1      30.643  24.437  23.802  1.00  0.00     0.006 A 
ATOM     68  C   UNL A   1      32.521  25.571  22.773  1.00  0.00     0.022 A 
ATOM     69  C   UNL A   1      31.192  23.203  23.452  1.00  0.00     0.000 A 
ATOM     70  C   UNL A   1      33.031  24.328  22.384  1.00  0.00     0.016 A 
ATOM     71  Br  UNL A   1      33.653  27.041  22.344  1.00  0.00    -0.051 Br
ATOM     72  C   UNL A   1      32.386  23.150  22.743  1.00  0.00     0.001 A 
ENDBRANCH  65  66
BRANCH  65  73
ATOM     73  C   UNL A   1      29.298  27.210  23.681  1.00  0.00     0.055 C 
BRANCH  73  74
ATOM     74  C   UNL A   1      28.973  28.599  23.103  1.00  0.00    -0.046 A 
ATOM     75  C   UNL A   1      27.866  29.360  23.501  1.00  0.00     0.011 A 
ATOM     76  C   UNL A   1      29.858  29.221  22.209  1.00  0.00     0.011 A 
ATOM     77  C   UNL A   1      27.556  30.596  22.915  1.00  0.00     0.086 A 
ATOM     78  C   UNL A   1      29.566  30.451  21.595  1.00  0.00     0.086 A 
ATOM     79  C   UNL A   1      28.395  31.125  21.936  1.00  0.00     0.269 A 
BRANCH  79  80
ATOM     80  N   UNL A   1      28.073  32.416  21.316  1.00  0.00     0.062 N 
ATOM     81  O   UNL A   1      28.028  33.414  22.052  1.00  0.00    -0.258 OA
ATOM     82  O   UNL A   1      27.878  32.437  20.093  1.00  0.00    -0.258 OA
ENDBRANCH  79  80
ENDBRANCH  73  74
ENDBRANCH  65  73
ENDBRANCH  63  65
ENDBRANCH  62  63
ENDBRANCH   1  62
TORSDOF 15
ENDMDL
MODEL 3
REMARK VINA RESULT:     -11.2      4.494      9.105
REMARK SMILES O=C(OCCOC(=O)[C@H](Cc1ccc([N+](=O)[O-])cc1)c1ccccc1Br)c1ccc(-c2c3nc(c(-c4c(F)cccc4F)c4ccc([nH]4)c(-c4c(F)cccc4F)c4nc(c(-c5c(F)cccc5F)c5ccc2[nH]5)C=C4)C=C3)cc1
REMARK SMILES IDX 5 1 4 2 3 3 2 4 1 5 27 6 28 7 80 8 29 9 79 10 30 11 31 12
REMARK SMILES IDX 32 13 73 14 33 15 78 16 72 17 74 18 34 19 77 20 71 21 70 22
REMARK SMILES IDX 35 24 61 25 44 26 60 27 45 28 48 29 59 30 75 31 46 32 47 33
REMARK SMILES IDX 58 35 76 36 49 37 36 38 37 39 42 40 38 41 39 42 41 43 43 44
REMARK SMILES IDX 40 45 62 46 63 47 68 48 64 49 65 50 67 51 69 52 66 53 50 54
REMARK SMILES IDX 51 55 56 56 52 57 53 58 55 59 57 60 54 61 6 62 7 63 8 64
REMARK SMILES IDX 9 65 20 66 21 67 25 68 22 69 24 70 26 71 23 72 10 73 11 74
REMARK SMILES IDX 12 75 19 76 13 77 18 78 14 79 15 80 16 81 17 82
REMARK H PARENT 74 23 48 34
REMARK Flexibility Score: inf
ROOT
ATOM      1  C   UNL A   1      35.455  22.138  25.052  1.00  0.00     0.274 C 
ENDROOT
BRANCH   1   2
ATOM      2  C   UNL A   1      36.335  20.904  25.309  1.00  0.00     0.275 C 
BRANCH   2   3
ATOM      3  O   UNL A   1      37.712  21.081  24.961  1.00  0.00    -0.458 OA
BRANCH   3   4
ATOM      4  C   UNL A   1      38.797  21.058  25.766  1.00  0.00     0.338 C 
ATOM      5  O   UNL A   1      39.263  19.962  26.077  1.00  0.00    -0.246 OA
BRANCH   4   6
ATOM      6  C   UNL A   1      39.382  22.274  26.431  1.00  0.00     0.060 A 
ATOM      7  C   UNL A   1      40.423  22.324  27.365  1.00  0.00     0.016 A 
ATOM      8  C   UNL A   1      38.886  23.499  25.967  1.00  0.00     0.016 A 
ATOM      9  C   UNL A   1      41.076  23.520  27.676  1.00  0.00     0.010 A 
ATOM     10  C   UNL A   1      39.531  24.694  26.275  1.00  0.00     0.010 A 
ATOM     11  C   UNL A   1      40.656  24.712  27.101  1.00  0.00    -0.014 A 
BRANCH  11  12
ATOM     12  C   UNL A   1      41.233  26.000  27.534  1.00  0.00     0.031 A 
ATOM     13  C   UNL A   1      42.633  26.294  27.087  1.00  0.00     0.074 A 
ATOM     14  C   UNL A   1      40.538  26.871  28.290  1.00  0.00     0.049 A 
ATOM     15  N   UNL A   1      43.407  27.302  27.383  1.00  0.00    -0.248 NA
ATOM     16  C   UNL A   1      43.267  25.282  26.220  1.00  0.00     0.031 C 
ATOM     17  C   UNL A   1      39.175  26.677  28.788  1.00  0.00     0.029 A 
ATOM     18  N   UNL A   1      40.887  28.111  28.764  1.00  0.00    -0.354 N 
ATOM     19  C   UNL A   1      44.618  27.017  26.770  1.00  0.00     0.074 A 
ATOM     20  C   UNL A   1      44.516  25.705  26.183  1.00  0.00     0.031 C 
ATOM     21  C   UNL A   1      38.794  27.774  29.468  1.00  0.00     0.029 A 
ATOM     22  C   UNL A   1      39.892  28.737  29.478  1.00  0.00     0.049 A 
ATOM     23  H   UNL A   1      41.771  28.516  28.606  1.00  0.00     0.167 HD
ATOM     24  C   UNL A   1      45.706  27.808  26.648  1.00  0.00     0.037 A 
ATOM     25  C   UNL A   1      39.884  29.954  30.058  1.00  0.00     0.037 A 
ATOM     26  C   UNL A   1      45.768  29.137  27.173  1.00  0.00     0.049 A 
ATOM     27  C   UNL A   1      41.120  30.816  29.927  1.00  0.00     0.074 A 
ATOM     28  C   UNL A   1      46.795  30.054  27.083  1.00  0.00     0.029 A 
ATOM     29  N   UNL A   1      44.739  29.740  27.883  1.00  0.00    -0.354 N 
ATOM     30  N   UNL A   1      42.240  30.564  29.291  1.00  0.00    -0.248 NA
ATOM     31  C   UNL A   1      41.089  32.130  30.585  1.00  0.00     0.031 C 
ATOM     32  C   UNL A   1      46.402  31.203  27.777  1.00  0.00     0.029 A 
ATOM     33  C   UNL A   1      45.110  31.018  28.253  1.00  0.00     0.049 A 
ATOM     34  H   UNL A   1      43.873  29.320  28.092  1.00  0.00     0.167 HD
ATOM     35  C   UNL A   1      43.032  31.697  29.445  1.00  0.00     0.074 A 
ATOM     36  C   UNL A   1      42.255  32.643  30.218  1.00  0.00     0.031 C 
ATOM     37  C   UNL A   1      44.289  31.939  28.995  1.00  0.00     0.037 A 
BRANCH  24  38
ATOM     38  C   UNL A   1      46.879  27.228  25.916  1.00  0.00     0.057 A 
ATOM     39  C   UNL A   1      47.869  26.482  26.572  1.00  0.00     0.134 A 
ATOM     40  C   UNL A   1      47.061  27.489  24.553  1.00  0.00     0.134 A 
ATOM     41  F   UNL A   1      47.771  26.229  27.887  1.00  0.00    -0.206 F 
ATOM     42  C   UNL A   1      49.026  26.066  25.913  1.00  0.00     0.040 A 
ATOM     43  C   UNL A   1      48.197  27.047  23.875  1.00  0.00     0.040 A 
ATOM     44  F   UNL A   1      46.155  28.201  23.868  1.00  0.00    -0.206 F 
ATOM     45  C   UNL A   1      49.190  26.347  24.559  1.00  0.00     0.006 A 
ENDBRANCH  24  38
BRANCH  25  46
ATOM     46  C   UNL A   1      38.689  30.454  30.794  1.00  0.00     0.057 A 
ATOM     47  C   UNL A   1      38.494  30.162  32.151  1.00  0.00     0.134 A 
ATOM     48  C   UNL A   1      37.681  31.182  30.150  1.00  0.00     0.134 A 
ATOM     49  F   UNL A   1      39.412  29.455  32.827  1.00  0.00    -0.206 F 
ATOM     50  C   UNL A   1      37.330  30.538  32.828  1.00  0.00     0.040 A 
ATOM     51  C   UNL A   1      36.523  31.588  30.820  1.00  0.00     0.040 A 
ATOM     52  F   UNL A   1      37.803  31.509  28.856  1.00  0.00    -0.206 F 
ATOM     53  C   UNL A   1      36.339  31.254  32.160  1.00  0.00     0.006 A 
ENDBRANCH  25  46
BRANCH  37  54
ATOM     54  C   UNL A   1      44.882  33.284  29.286  1.00  0.00     0.057 A 
ATOM     55  C   UNL A   1      44.665  34.383  28.447  1.00  0.00     0.134 A 
ATOM     56  C   UNL A   1      45.590  33.503  30.475  1.00  0.00     0.134 A 
ATOM     57  F   UNL A   1      44.002  34.234  27.291  1.00  0.00    -0.206 F 
ATOM     58  C   UNL A   1      45.138  35.653  28.777  1.00  0.00     0.040 A 
ATOM     59  C   UNL A   1      46.042  34.772  30.831  1.00  0.00     0.040 A 
ATOM     60  F   UNL A   1      45.818  32.491  31.328  1.00  0.00    -0.206 F 
ATOM     61  C   UNL A   1      45.817  35.851  29.979  1.00  0.00     0.006 A 
ENDBRANCH  37  54
ENDBRANCH  11  12
ENDBRANCH   4   6
ENDBRANCH   3   4
ENDBRANCH   2   3
ENDBRANCH   1   2
BRANCH   1  62
ATOM     62  O   UNL A   1      35.357  22.543  23.662  1.00  0.00    -0.462 OA
BRANCH  62  63
ATOM     63  C   UNL A   1      34.100  22.850  23.212  1.00  0.00     0.313 C 
ATOM     64  O   UNL A   1      33.923  23.677  22.323  1.00  0.00    -0.252 OA
BRANCH  63  65
ATOM     65  C   UNL A   1      32.987  22.109  24.001  1.00  0.00     0.135 C 
BRANCH  65  66
ATOM     66  C   UNL A   1      31.944  23.089  24.547  1.00  0.00    -0.019 A 
ATOM     67  C   UNL A   1      31.228  23.849  23.590  1.00  0.00     0.006 A 
ATOM     68  C   UNL A   1      31.762  23.405  25.911  1.00  0.00     0.022 A 
ATOM     69  C   UNL A   1      30.427  24.924  23.975  1.00  0.00     0.000 A 
ATOM     70  C   UNL A   1      30.914  24.453  26.284  1.00  0.00     0.016 A 
ATOM     71  Br  UNL A   1      32.688  22.601  27.369  1.00  0.00    -0.051 Br
ATOM     72  C   UNL A   1      30.271  25.225  25.323  1.00  0.00     0.001 A 
ENDBRANCH  65  66
BRANCH  65  73
ATOM     73  C   UNL A   1      32.309  20.913  23.254  1.00  0.00     0.055 C 
BRANCH  73  74
ATOM     74  C   UNL A   1      32.604  19.480  23.735  1.00  0.00    -0.046 A 
ATOM     75  C   UNL A   1      32.739  18.389  22.867  1.00  0.00     0.011 A 
ATOM     76  C   UNL A   1      32.863  19.224  25.090  1.00  0.00     0.011 A 
ATOM     77  C   UNL A   1      32.945  17.082  23.332  1.00  0.00     0.086 A 
ATOM     78  C   UNL A   1      33.058  17.924  25.587  1.00  0.00     0.086 A 
ATOM     79  C   UNL A   1      33.074  16.849  24.700  1.00  0.00     0.269 A 
BRANCH  79  80
ATOM     80  N   UNL A   1      33.286  15.482  25.193  1.00  0.00     0.062 N 
ATOM     81  O   UNL A   1      32.283  14.778  25.391  1.00  0.00    -0.258 OA
ATOM     82  O   UNL A   1      34.453  15.106  25.369  1.00  0.00    -0.258 OA
ENDBRANCH  79  80
ENDBRANCH  73  74
ENDBRANCH  65  73
ENDBRANCH  63  65
ENDBRANCH  62  63
ENDBRANCH   1  62
TORSDOF 15
ENDMDL
