MODEL 1
REMARK VINA RESULT:     -10.9      0.000      0.000
REMARK SMILES C[C@H]1[C@H](C(=O)OCCOC(=O)c2ccc(-c3c4nc(c(-c5c(F)cccc5F)c5ccc([nH]5)c(-c5c(F)cccc5F)c5nc(c(-c6c(F)cccc6F)c6ccc3[nH]6)C=C5)C=C4)cc2)CCN1C(=O)NCc1ccncc1
REMARK SMILES IDX 7 1 6 2 4 3 5 4 3 5 1 6 2 7 68 8 66 9 67 10 69 11 70 12
REMARK SMILES IDX 71 13 72 15 73 16 74 17 78 18 75 19 77 20 76 21 8 22 9 23
REMARK SMILES IDX 10 24 11 25 12 26 13 27 65 28 14 29 64 30 15 31 16 32 17 33
REMARK SMILES IDX 58 34 18 35 63 36 57 37 59 38 19 39 62 40 56 41 55 42 20 44
REMARK SMILES IDX 46 45 29 46 45 47 30 48 33 49 44 50 60 51 31 52 32 53 43 55
REMARK SMILES IDX 61 56 34 57 21 58 22 59 27 60 23 61 24 62 26 63 28 64 25 65
REMARK SMILES IDX 47 66 48 67 53 68 49 69 50 70 52 71 54 72 51 73 35 74 36 75
REMARK SMILES IDX 41 76 37 77 38 78 40 79 42 80 39 81
REMARK H PARENT 71 14 59 43 33 54
REMARK Flexibility Score: inf
ROOT
ATOM      1  C   UNL A   1      31.629  30.802  26.488  1.00  0.00     0.274 C 
ENDROOT
BRANCH   1   2
ATOM      2  O   UNL A   1      32.987  30.451  26.153  1.00  0.00    -0.462 OA
BRANCH   2   3
ATOM      3  C   UNL A   1      33.359  29.173  26.409  1.00  0.00     0.311 C 
ATOM      4  O   UNL A   1      33.609  28.731  27.527  1.00  0.00    -0.252 OA
BRANCH   3   5
ATOM      5  C   UNL A   1      33.486  28.320  25.169  1.00  0.00     0.123 C 
ATOM      6  C   UNL A   1      32.405  26.047  24.946  1.00  0.00     0.032 C 
ATOM      7  C   UNL A   1      32.210  27.558  24.744  1.00  0.00     0.098 C 
ATOM      8  N   UNL A   1      32.046  27.858  23.320  1.00  0.00    -0.321 N 
ATOM      9  C   UNL A   1      33.870  29.173  23.965  1.00  0.00     0.039 C 
ATOM     10  C   UNL A   1      33.284  28.409  22.796  1.00  0.00     0.122 C 
BRANCH   8  11
ATOM     11  C   UNL A   1      30.977  27.742  22.494  1.00  0.00     0.317 C 
ATOM     12  O   UNL A   1      30.980  26.938  21.555  1.00  0.00    -0.249 OA
ATOM     13  N   UNL A   1      29.858  28.471  22.609  1.00  0.00    -0.334 N 
ATOM     14  H   UNL A   1      29.229  28.270  21.880  1.00  0.00     0.165 HD
BRANCH  13  15
ATOM     15  C   UNL A   1      29.317  29.471  23.505  1.00  0.00     0.153 C 
BRANCH  15  16
ATOM     16  C   UNL A   1      28.900  30.724  22.782  1.00  0.00    -0.026 A 
ATOM     17  C   UNL A   1      28.435  30.683  21.463  1.00  0.00     0.025 A 
ATOM     18  C   UNL A   1      28.922  31.961  23.433  1.00  0.00     0.025 A 
ATOM     19  C   UNL A   1      28.024  31.864  20.863  1.00  0.00     0.111 A 
ATOM     20  C   UNL A   1      28.487  33.085  22.750  1.00  0.00     0.111 A 
ATOM     21  N   UNL A   1      28.037  33.065  21.478  1.00  0.00    -0.265 NA
ENDBRANCH  15  16
ENDBRANCH  13  15
ENDBRANCH   8  11
ENDBRANCH   3   5
ENDBRANCH   2   3
ENDBRANCH   1   2
BRANCH   1  22
ATOM     22  C   UNL A   1      31.503  32.281  26.868  1.00  0.00     0.275 C 
BRANCH  22  23
ATOM     23  O   UNL A   1      32.758  32.975  26.741  1.00  0.00    -0.458 OA
BRANCH  23  24
ATOM     24  C   UNL A   1      33.153  33.653  27.842  1.00  0.00     0.338 C 
ATOM     25  O   UNL A   1      32.555  34.542  28.423  1.00  0.00    -0.246 OA
BRANCH  24  26
ATOM     26  C   UNL A   1      34.409  33.088  28.349  1.00  0.00     0.060 A 
ATOM     27  C   UNL A   1      34.372  31.833  28.964  1.00  0.00     0.016 A 
ATOM     28  C   UNL A   1      35.587  33.832  28.315  1.00  0.00     0.016 A 
ATOM     29  C   UNL A   1      35.509  31.323  29.579  1.00  0.00     0.010 A 
ATOM     30  C   UNL A   1      36.734  33.310  28.915  1.00  0.00     0.010 A 
ATOM     31  C   UNL A   1      36.697  32.061  29.561  1.00  0.00    -0.014 A 
BRANCH  31  32
ATOM     32  C   UNL A   1      37.903  31.548  30.245  1.00  0.00     0.031 A 
ATOM     33  C   UNL A   1      38.780  30.550  29.550  1.00  0.00     0.074 A 
ATOM     34  C   UNL A   1      38.191  31.961  31.491  1.00  0.00     0.049 A 
ATOM     35  N   UNL A   1      39.754  29.829  30.036  1.00  0.00    -0.248 NA
ATOM     36  C   UNL A   1      38.521  30.336  28.118  1.00  0.00     0.031 C 
ATOM     37  C   UNL A   1      37.449  32.977  32.237  1.00  0.00     0.029 A 
ATOM     38  N   UNL A   1      39.176  31.561  32.356  1.00  0.00    -0.354 N 
ATOM     39  C   UNL A   1      40.205  29.048  28.980  1.00  0.00     0.074 A 
ATOM     40  C   UNL A   1      39.398  29.385  27.826  1.00  0.00     0.031 C 
ATOM     41  C   UNL A   1      37.993  33.106  33.458  1.00  0.00     0.029 A 
ATOM     42  C   UNL A   1      39.080  32.141  33.596  1.00  0.00     0.049 A 
ATOM     43  H   UNL A   1      39.882  30.919  32.112  1.00  0.00     0.167 HD
ATOM     44  C   UNL A   1      41.196  28.127  28.983  1.00  0.00     0.037 A 
ATOM     45  C   UNL A   1      39.760  31.886  34.729  1.00  0.00     0.037 A 
ATOM     46  C   UNL A   1      42.001  27.813  30.133  1.00  0.00     0.049 A 
ATOM     47  C   UNL A   1      40.810  30.813  34.726  1.00  0.00     0.074 A 
ATOM     48  C   UNL A   1      43.032  26.895  30.243  1.00  0.00     0.029 A 
ATOM     49  N   UNL A   1      41.867  28.416  31.374  1.00  0.00    -0.354 N 
ATOM     50  N   UNL A   1      41.207  30.049  33.736  1.00  0.00    -0.248 NA
ATOM     51  C   UNL A   1      41.499  30.555  35.998  1.00  0.00     0.031 C 
ATOM     52  C   UNL A   1      43.500  26.922  31.560  1.00  0.00     0.029 A 
ATOM     53  C   UNL A   1      42.786  27.882  32.260  1.00  0.00     0.049 A 
ATOM     54  H   UNL A   1      41.215  29.121  31.593  1.00  0.00     0.167 HD
ATOM     55  C   UNL A   1      42.203  29.236  34.257  1.00  0.00     0.074 A 
ATOM     56  C   UNL A   1      42.354  29.601  35.652  1.00  0.00     0.031 C 
ATOM     57  C   UNL A   1      42.928  28.275  33.638  1.00  0.00     0.037 A 
BRANCH  44  58
ATOM     58  C   UNL A   1      41.437  27.367  27.714  1.00  0.00     0.057 A 
ATOM     59  C   UNL A   1      42.304  27.838  26.722  1.00  0.00     0.134 A 
ATOM     60  C   UNL A   1      40.813  26.132  27.499  1.00  0.00     0.134 A 
ATOM     61  F   UNL A   1      42.918  29.022  26.861  1.00  0.00    -0.206 F 
ATOM     62  C   UNL A   1      42.531  27.113  25.550  1.00  0.00     0.040 A 
ATOM     63  C   UNL A   1      41.047  25.388  26.341  1.00  0.00     0.040 A 
ATOM     64  F   UNL A   1      39.971  25.626  28.412  1.00  0.00    -0.206 F 
ATOM     65  C   UNL A   1      41.906  25.881  25.360  1.00  0.00     0.006 A 
ENDBRANCH  44  58
BRANCH  45  66
ATOM     66  C   UNL A   1      39.432  32.633  35.967  1.00  0.00     0.057 A 
ATOM     67  C   UNL A   1      38.510  32.130  36.891  1.00  0.00     0.134 A 
ATOM     68  C   UNL A   1      40.041  33.859  36.261  1.00  0.00     0.134 A 
ATOM     69  F   UNL A   1      37.881  30.970  36.653  1.00  0.00    -0.206 F 
ATOM     70  C   UNL A   1      38.199  32.824  38.061  1.00  0.00     0.040 A 
ATOM     71  C   UNL A   1      39.755  34.553  37.438  1.00  0.00     0.040 A 
ATOM     72  F   UNL A   1      40.935  34.391  35.415  1.00  0.00    -0.206 F 
ATOM     73  C   UNL A   1      38.829  34.036  38.340  1.00  0.00     0.006 A 
ENDBRANCH  45  66
BRANCH  57  74
ATOM     74  C   UNL A   1      43.980  27.581  34.448  1.00  0.00     0.057 A 
ATOM     75  C   UNL A   1      43.727  26.370  35.100  1.00  0.00     0.134 A 
ATOM     76  C   UNL A   1      45.277  28.104  34.521  1.00  0.00     0.134 A 
ATOM     77  F   UNL A   1      42.499  25.828  35.075  1.00  0.00    -0.206 F 
ATOM     78  C   UNL A   1      44.728  25.703  35.806  1.00  0.00     0.040 A 
ATOM     79  C   UNL A   1      46.291  27.437  35.208  1.00  0.00     0.040 A 
ATOM     80  F   UNL A   1      45.582  29.258  33.910  1.00  0.00    -0.206 F 
ATOM     81  C   UNL A   1      46.018  26.233  35.854  1.00  0.00     0.006 A 
ENDBRANCH  57  74
ENDBRANCH  31  32
ENDBRANCH  24  26
ENDBRANCH  23  24
ENDBRANCH  22  23
ENDBRANCH   1  22
TORSDOF 14
ENDMDL
MODEL 2
REMARK VINA RESULT:     -10.9      5.075      9.456
REMARK SMILES C[C@H]1[C@H](C(=O)OCCOC(=O)c2ccc(-c3c4nc(c(-c5c(F)cccc5F)c5ccc([nH]5)c(-c5c(F)cccc5F)c5nc(c(-c6c(F)cccc6F)c6ccc3[nH]6)C=C5)C=C4)cc2)CCN1C(=O)NCc1ccncc1
REMARK SMILES IDX 7 1 6 2 4 3 5 4 3 5 1 6 2 7 68 8 66 9 67 10 69 11 70 12
REMARK SMILES IDX 71 13 72 15 73 16 74 17 78 18 75 19 77 20 76 21 8 22 9 23
REMARK SMILES IDX 10 24 11 25 12 26 13 27 65 28 14 29 64 30 15 31 16 32 17 33
REMARK SMILES IDX 58 34 18 35 63 36 57 37 59 38 19 39 62 40 56 41 55 42 20 44
REMARK SMILES IDX 46 45 29 46 45 47 30 48 33 49 44 50 60 51 31 52 32 53 43 55
REMARK SMILES IDX 61 56 34 57 21 58 22 59 27 60 23 61 24 62 26 63 28 64 25 65
REMARK SMILES IDX 47 66 48 67 53 68 49 69 50 70 52 71 54 72 51 73 35 74 36 75
REMARK SMILES IDX 41 76 37 77 38 78 40 79 42 80 39 81
REMARK H PARENT 71 14 59 43 33 54
REMARK Flexibility Score: inf
ROOT
ATOM      1  C   UNL A   1      36.038  33.828  29.132  1.00  0.00     0.274 C 
ENDROOT
BRANCH   1   2
ATOM      2  O   UNL A   1      37.269  33.151  29.459  1.00  0.00    -0.462 OA
BRANCH   2   3
ATOM      3  C   UNL A   1      38.134  33.826  30.257  1.00  0.00     0.311 C 
ATOM      4  O   UNL A   1      38.788  34.803  29.905  1.00  0.00    -0.252 OA
BRANCH   3   5
ATOM      5  C   UNL A   1      38.263  33.238  31.643  1.00  0.00     0.123 C 
ATOM      6  C   UNL A   1      39.040  34.578  33.638  1.00  0.00     0.032 C 
ATOM      7  C   UNL A   1      37.820  34.155  32.806  1.00  0.00     0.098 C 
ATOM      8  N   UNL A   1      36.919  33.332  33.615  1.00  0.00    -0.321 N 
ATOM      9  C   UNL A   1      37.416  31.977  31.774  1.00  0.00     0.039 C 
ATOM     10  C   UNL A   1      37.081  31.934  33.250  1.00  0.00     0.122 C 
BRANCH   8  11
ATOM     11  C   UNL A   1      35.998  33.662  34.554  1.00  0.00     0.317 C 
ATOM     12  O   UNL A   1      36.323  33.828  35.736  1.00  0.00    -0.249 OA
ATOM     13  N   UNL A   1      34.693  33.827  34.299  1.00  0.00    -0.334 N 
ATOM     14  H   UNL A   1      34.191  34.012  35.125  1.00  0.00     0.165 HD
BRANCH  13  15
ATOM     15  C   UNL A   1      33.814  33.809  33.148  1.00  0.00     0.153 C 
BRANCH  15  16
ATOM     16  C   UNL A   1      33.653  35.170  32.526  1.00  0.00    -0.026 A 
ATOM     17  C   UNL A   1      33.084  35.328  31.258  1.00  0.00     0.025 A 
ATOM     18  C   UNL A   1      34.028  36.321  33.226  1.00  0.00     0.025 A 
ATOM     19  C   UNL A   1      32.921  36.610  30.755  1.00  0.00     0.111 A 
ATOM     20  C   UNL A   1      33.821  37.559  32.641  1.00  0.00     0.111 A 
ATOM     21  N   UNL A   1      33.276  37.731  31.419  1.00  0.00    -0.265 NA
ENDBRANCH  15  16
ENDBRANCH  13  15
ENDBRANCH   8  11
ENDBRANCH   3   5
ENDBRANCH   2   3
ENDBRANCH   1   2
BRANCH   1  22
ATOM     22  C   UNL A   1      35.051  32.895  28.423  1.00  0.00     0.275 C 
BRANCH  22  23
ATOM     23  O   UNL A   1      34.884  31.653  29.131  1.00  0.00    -0.458 OA
BRANCH  23  24
ATOM     24  C   UNL A   1      34.951  30.542  28.365  1.00  0.00     0.338 C 
ATOM     25  O   UNL A   1      34.090  30.094  27.626  1.00  0.00    -0.246 OA
BRANCH  24  26
ATOM     26  C   UNL A   1      36.296  29.962  28.447  1.00  0.00     0.060 A 
ATOM     27  C   UNL A   1      36.689  29.363  29.647  1.00  0.00     0.016 A 
ATOM     28  C   UNL A   1      37.195  30.102  27.391  1.00  0.00     0.016 A 
ATOM     29  C   UNL A   1      37.997  28.925  29.814  1.00  0.00     0.010 A 
ATOM     30  C   UNL A   1      38.503  29.643  27.552  1.00  0.00     0.010 A 
ATOM     31  C   UNL A   1      38.914  29.067  28.768  1.00  0.00    -0.014 A 
BRANCH  31  32
ATOM     32  C   UNL A   1      40.319  28.641  28.945  1.00  0.00     0.031 A 
ATOM     33  C   UNL A   1      41.335  29.626  29.437  1.00  0.00     0.074 A 
ATOM     34  C   UNL A   1      40.678  27.381  28.641  1.00  0.00     0.049 A 
ATOM     35  N   UNL A   1      42.636  29.523  29.469  1.00  0.00    -0.248 NA
ATOM     36  C   UNL A   1      40.813  30.899  29.961  1.00  0.00     0.031 C 
ATOM     37  C   UNL A   1      39.764  26.320  28.219  1.00  0.00     0.029 A 
ATOM     38  N   UNL A   1      41.913  26.789  28.623  1.00  0.00    -0.354 N 
ATOM     39  C   UNL A   1      43.096  30.729  29.982  1.00  0.00     0.074 A 
ATOM     40  C   UNL A   1      41.932  31.548  30.251  1.00  0.00     0.031 C 
ATOM     41  C   UNL A   1      40.474  25.209  27.963  1.00  0.00     0.029 A 
ATOM     42  C   UNL A   1      41.892  25.501  28.147  1.00  0.00     0.049 A 
ATOM     43  H   UNL A   1      42.735  27.242  28.921  1.00  0.00     0.167 HD
ATOM     44  C   UNL A   1      44.375  31.115  30.198  1.00  0.00     0.037 A 
ATOM     45  C   UNL A   1      42.907  24.670  27.845  1.00  0.00     0.037 A 
ATOM     46  C   UNL A   1      45.521  30.284  29.942  1.00  0.00     0.049 A 
ATOM     47  C   UNL A   1      44.320  25.144  28.029  1.00  0.00     0.074 A 
ATOM     48  C   UNL A   1      46.861  30.579  30.125  1.00  0.00     0.029 A 
ATOM     49  N   UNL A   1      45.458  28.989  29.450  1.00  0.00    -0.354 N 
ATOM     50  N   UNL A   1      44.751  26.299  28.478  1.00  0.00    -0.248 NA
ATOM     51  C   UNL A   1      45.389  24.208  27.654  1.00  0.00     0.031 C 
ATOM     52  C   UNL A   1      47.611  29.472  29.715  1.00  0.00     0.029 A 
ATOM     53  C   UNL A   1      46.736  28.475  29.311  1.00  0.00     0.049 A 
ATOM     54  H   UNL A   1      44.629  28.506  29.232  1.00  0.00     0.167 HD
ATOM     55  C   UNL A   1      46.136  26.222  28.460  1.00  0.00     0.074 A 
ATOM     56  C   UNL A   1      46.476  24.905  27.958  1.00  0.00     0.031 C 
ATOM     57  C   UNL A   1      47.046  27.155  28.826  1.00  0.00     0.037 A 
BRANCH  44  58
ATOM     58  C   UNL A   1      44.601  32.508  30.701  1.00  0.00     0.057 A 
ATOM     59  C   UNL A   1      44.695  32.796  32.067  1.00  0.00     0.134 A 
ATOM     60  C   UNL A   1      44.755  33.569  29.800  1.00  0.00     0.134 A 
ATOM     61  F   UNL A   1      44.538  31.826  32.979  1.00  0.00    -0.206 F 
ATOM     62  C   UNL A   1      44.921  34.097  32.521  1.00  0.00     0.040 A 
ATOM     63  C   UNL A   1      45.001  34.871  30.242  1.00  0.00     0.040 A 
ATOM     64  F   UNL A   1      44.676  33.358  28.478  1.00  0.00    -0.206 F 
ATOM     65  C   UNL A   1      45.080  35.138  31.607  1.00  0.00     0.006 A 
ENDBRANCH  44  58
BRANCH  45  66
ATOM     66  C   UNL A   1      42.617  23.325  27.294  1.00  0.00     0.057 A 
ATOM     67  C   UNL A   1      42.296  22.254  28.136  1.00  0.00     0.134 A 
ATOM     68  C   UNL A   1      42.642  23.081  25.916  1.00  0.00     0.134 A 
ATOM     69  F   UNL A   1      42.277  22.424  29.466  1.00  0.00    -0.206 F 
ATOM     70  C   UNL A   1      42.017  20.986  27.626  1.00  0.00     0.040 A 
ATOM     71  C   UNL A   1      42.344  21.823  25.391  1.00  0.00     0.040 A 
ATOM     72  F   UNL A   1      42.941  24.068  25.059  1.00  0.00    -0.206 F 
ATOM     73  C   UNL A   1      42.034  20.770  26.249  1.00  0.00     0.006 A 
ENDBRANCH  45  66
BRANCH  57  74
ATOM     74  C   UNL A   1      48.492  26.774  28.741  1.00  0.00     0.057 A 
ATOM     75  C   UNL A   1      49.129  26.069  29.767  1.00  0.00     0.134 A 
ATOM     76  C   UNL A   1      49.233  27.062  27.588  1.00  0.00     0.134 A 
ATOM     77  F   UNL A   1      48.472  25.775  30.900  1.00  0.00    -0.206 F 
ATOM     78  C   UNL A   1      50.461  25.668  29.654  1.00  0.00     0.040 A 
ATOM     79  C   UNL A   1      50.560  26.651  27.456  1.00  0.00     0.040 A 
ATOM     80  F   UNL A   1      48.674  27.730  26.568  1.00  0.00    -0.206 F 
ATOM     81  C   UNL A   1      51.177  25.953  28.491  1.00  0.00     0.006 A 
ENDBRANCH  57  74
ENDBRANCH  31  32
ENDBRANCH  24  26
ENDBRANCH  23  24
ENDBRANCH  22  23
ENDBRANCH   1  22
TORSDOF 14
ENDMDL
MODEL 3
REMARK VINA RESULT:     -10.8      4.442      9.230
REMARK SMILES C[C@H]1[C@H](C(=O)OCCOC(=O)c2ccc(-c3c4nc(c(-c5c(F)cccc5F)c5ccc([nH]5)c(-c5c(F)cccc5F)c5nc(c(-c6c(F)cccc6F)c6ccc3[nH]6)C=C5)C=C4)cc2)CCN1C(=O)NCc1ccncc1
REMARK SMILES IDX 7 1 6 2 4 3 5 4 3 5 1 6 2 7 68 8 66 9 67 10 69 11 70 12
REMARK SMILES IDX 71 13 72 15 73 16 74 17 78 18 75 19 77 20 76 21 8 22 9 23
REMARK SMILES IDX 10 24 11 25 12 26 13 27 65 28 14 29 64 30 15 31 16 32 17 33
REMARK SMILES IDX 58 34 18 35 63 36 57 37 59 38 19 39 62 40 56 41 55 42 20 44
REMARK SMILES IDX 46 45 29 46 45 47 30 48 33 49 44 50 60 51 31 52 32 53 43 55
REMARK SMILES IDX 61 56 34 57 21 58 22 59 27 60 23 61 24 62 26 63 28 64 25 65
REMARK SMILES IDX 47 66 48 67 53 68 49 69 50 70 52 71 54 72 51 73 35 74 36 75
REMARK SMILES IDX 41 76 37 77 38 78 40 79 42 80 39 81
REMARK H PARENT 71 14 59 43 33 54
REMARK Flexibility Score: inf
ROOT
ATOM      1  C   UNL A   1      40.003  21.321  25.796  1.00  0.00     0.274 C 
ENDROOT
BRANCH   1   2
ATOM      2  O   UNL A   1      39.101  22.027  26.673  1.00  0.00    -0.462 OA
BRANCH   2   3
ATOM      3  C   UNL A   1      38.421  23.065  26.126  1.00  0.00     0.311 C 
ATOM      4  O   UNL A   1      38.705  24.248  26.290  1.00  0.00    -0.252 OA
BRANCH   3   5
ATOM      5  C   UNL A   1      37.224  22.639  25.308  1.00  0.00     0.123 C 
ATOM      6  C   UNL A   1      36.583  20.220  24.965  1.00  0.00     0.032 C 
ATOM      7  C   UNL A   1      36.414  21.449  25.871  1.00  0.00     0.098 C 
ATOM      8  N   UNL A   1      35.021  21.898  25.855  1.00  0.00    -0.321 N 
ATOM      9  C   UNL A   1      36.226  23.784  25.177  1.00  0.00     0.039 C 
ATOM     10  C   UNL A   1      34.900  23.073  25.009  1.00  0.00     0.122 C 
BRANCH   8  11
ATOM     11  C   UNL A   1      33.920  21.436  26.498  1.00  0.00     0.317 C 
ATOM     12  O   UNL A   1      33.687  21.749  27.671  1.00  0.00    -0.249 OA
ATOM     13  N   UNL A   1      33.015  20.618  25.942  1.00  0.00    -0.334 N 
ATOM     14  H   UNL A   1      32.323  20.361  26.594  1.00  0.00     0.165 HD
BRANCH  13  15
ATOM     15  C   UNL A   1      32.769  20.007  24.653  1.00  0.00     0.153 C 
BRANCH  15  16
ATOM     16  C   UNL A   1      33.104  18.539  24.640  1.00  0.00    -0.026 A 
ATOM     17  C   UNL A   1      32.851  17.726  25.751  1.00  0.00     0.025 A 
ATOM     18  C   UNL A   1      33.634  17.940  23.494  1.00  0.00     0.025 A 
ATOM     19  C   UNL A   1      33.139  16.372  25.666  1.00  0.00     0.111 A 
ATOM     20  C   UNL A   1      33.884  16.578  23.505  1.00  0.00     0.111 A 
ATOM     21  N   UNL A   1      33.649  15.778  24.566  1.00  0.00    -0.265 NA
ENDBRANCH  15  16
ENDBRANCH  13  15
ENDBRANCH   8  11
ENDBRANCH   3   5
ENDBRANCH   2   3
ENDBRANCH   1   2
BRANCH   1  22
ATOM     22  C   UNL A   1      41.456  21.757  26.009  1.00  0.00     0.275 C 
BRANCH  22  23
ATOM     23  O   UNL A   1      41.735  23.019  25.375  1.00  0.00    -0.458 OA
BRANCH  23  24
ATOM     24  C   UNL A   1      42.928  23.570  25.692  1.00  0.00     0.338 C 
ATOM     25  O   UNL A   1      44.001  23.388  25.143  1.00  0.00    -0.246 OA
BRANCH  24  26
ATOM     26  C   UNL A   1      42.751  24.553  26.768  1.00  0.00     0.060 A 
ATOM     27  C   UNL A   1      41.874  24.245  27.811  1.00  0.00     0.016 A 
ATOM     28  C   UNL A   1      43.360  25.804  26.692  1.00  0.00     0.016 A 
ATOM     29  C   UNL A   1      41.572  25.199  28.774  1.00  0.00     0.010 A 
ATOM     30  C   UNL A   1      43.072  26.756  27.672  1.00  0.00     0.010 A 
ATOM     31  C   UNL A   1      42.167  26.463  28.709  1.00  0.00    -0.014 A 
BRANCH  31  32
ATOM     32  C   UNL A   1      41.826  27.501  29.705  1.00  0.00     0.031 A 
ATOM     33  C   UNL A   1      42.573  27.555  31.002  1.00  0.00     0.074 A 
ATOM     34  C   UNL A   1      40.833  28.371  29.449  1.00  0.00     0.049 A 
ATOM     35  N   UNL A   1      42.304  28.241  32.081  1.00  0.00    -0.248 NA
ATOM     36  C   UNL A   1      43.784  26.725  31.097  1.00  0.00     0.031 C 
ATOM     37  C   UNL A   1      40.083  28.454  28.196  1.00  0.00     0.029 A 
ATOM     38  N   UNL A   1      40.272  29.338  30.242  1.00  0.00    -0.354 N 
ATOM     39  C   UNL A   1      43.290  27.900  32.998  1.00  0.00     0.074 A 
ATOM     40  C   UNL A   1      44.165  26.948  32.347  1.00  0.00     0.031 C 
ATOM     41  C   UNL A   1      39.145  29.408  28.311  1.00  0.00     0.029 A 
ATOM     42  C   UNL A   1      39.192  29.957  29.663  1.00  0.00     0.049 A 
ATOM     43  H   UNL A   1      40.610  29.566  31.138  1.00  0.00     0.167 HD
ATOM     44  C   UNL A   1      43.440  28.338  34.269  1.00  0.00     0.037 A 
ATOM     45  C   UNL A   1      38.310  30.831  30.183  1.00  0.00     0.037 A 
ATOM     46  C   UNL A   1      42.571  29.298  34.898  1.00  0.00     0.049 A 
ATOM     47  C   UNL A   1      38.457  31.252  31.617  1.00  0.00     0.074 A 
ATOM     48  C   UNL A   1      42.635  29.809  36.183  1.00  0.00     0.029 A 
ATOM     49  N   UNL A   1      41.483  29.894  34.281  1.00  0.00    -0.354 N 
ATOM     50  N   UNL A   1      39.368  30.898  32.492  1.00  0.00    -0.248 NA
ATOM     51  C   UNL A   1      37.448  32.183  32.142  1.00  0.00     0.031 C 
ATOM     52  C   UNL A   1      41.564  30.693  36.353  1.00  0.00     0.029 A 
ATOM     53  C   UNL A   1      40.857  30.759  35.163  1.00  0.00     0.049 A 
ATOM     54  H   UNL A   1      41.196  29.729  33.354  1.00  0.00     0.167 HD
ATOM     55  C   UNL A   1      39.056  31.575  33.662  1.00  0.00     0.074 A 
ATOM     56  C   UNL A   1      37.873  32.366  33.385  1.00  0.00     0.031 C 
ATOM     57  C   UNL A   1      39.692  31.548  34.857  1.00  0.00     0.037 A 
BRANCH  44  58
ATOM     58  C   UNL A   1      44.561  27.754  35.074  1.00  0.00     0.057 A 
ATOM     59  C   UNL A   1      45.816  28.367  35.148  1.00  0.00     0.134 A 
ATOM     60  C   UNL A   1      44.367  26.577  35.808  1.00  0.00     0.134 A 
ATOM     61  F   UNL A   1      46.069  29.486  34.454  1.00  0.00    -0.206 F 
ATOM     62  C   UNL A   1      46.848  27.819  35.914  1.00  0.00     0.040 A 
ATOM     63  C   UNL A   1      45.384  26.031  36.593  1.00  0.00     0.040 A 
ATOM     64  F   UNL A   1      43.185  25.943  35.779  1.00  0.00    -0.206 F 
ATOM     65  C   UNL A   1      46.631  26.651  36.644  1.00  0.00     0.006 A 
ENDBRANCH  44  58
BRANCH  45  66
ATOM     66  C   UNL A   1      37.188  31.326  29.351  1.00  0.00     0.057 A 
ATOM     67  C   UNL A   1      36.051  30.541  29.131  1.00  0.00     0.134 A 
ATOM     68  C   UNL A   1      37.221  32.597  28.765  1.00  0.00     0.134 A 
ATOM     69  F   UNL A   1      35.972  29.307  29.650  1.00  0.00    -0.206 F 
ATOM     70  C   UNL A   1      34.988  31.001  28.353  1.00  0.00     0.040 A 
ATOM     71  C   UNL A   1      36.156  33.078  28.003  1.00  0.00     0.040 A 
ATOM     72  F   UNL A   1      38.284  33.396  28.941  1.00  0.00    -0.206 F 
ATOM     73  C   UNL A   1      35.036  32.277  27.792  1.00  0.00     0.006 A 
ENDBRANCH  45  66
BRANCH  57  74
ATOM     74  C   UNL A   1      39.150  32.428  35.941  1.00  0.00     0.057 A 
ATOM     75  C   UNL A   1      38.246  31.949  36.895  1.00  0.00     0.134 A 
ATOM     76  C   UNL A   1      39.592  33.751  36.066  1.00  0.00     0.134 A 
ATOM     77  F   UNL A   1      37.779  30.693  36.818  1.00  0.00    -0.206 F 
ATOM     78  C   UNL A   1      37.791  32.760  37.934  1.00  0.00     0.040 A 
ATOM     79  C   UNL A   1      39.158  34.566  37.112  1.00  0.00     0.040 A 
ATOM     80  F   UNL A   1      40.464  34.264  35.186  1.00  0.00    -0.206 F 
ATOM     81  C   UNL A   1      38.254  34.071  38.049  1.00  0.00     0.006 A 
ENDBRANCH  57  74
ENDBRANCH  31  32
ENDBRANCH  24  26
ENDBRANCH  23  24
ENDBRANCH  22  23
ENDBRANCH   1  22
TORSDOF 14
ENDMDL
