MODEL 1
REMARK VINA RESULT:     -12.8      0.000      0.000
REMARK SMILES COc1ccc(/C=C2/C(=O)N(c3ccccc3)C(=O)N=C2OCCOC(=O)c2ccc(-c3c4nc(c(-c5c(F)cccc5F)c5ccc([nH]5)c(-c5c(F)cccc5F)c5nc(c(-c6c(F)cccc6F)c6ccc3[nH]6)C=C5)C=C4)cc2)cc1C(=O)[O-]
REMARK SMILES IDX 24 1 23 2 22 3 21 4 7 5 8 6 9 7 10 8 11 9 20 10 18 11 19 12
REMARK SMILES IDX 6 13 3 14 4 15 83 16 5 17 82 18 2 19 1 20 84 21 85 22 86 23
REMARK SMILES IDX 12 24 13 25 17 26 14 27 16 28 15 29 25 30 26 31 27 32 28 33
REMARK SMILES IDX 29 34 81 35 30 36 80 37 31 38 32 39 33 40 74 41 34 42 79 43
REMARK SMILES IDX 73 44 75 45 35 46 78 47 72 48 71 49 36 51 62 52 45 53 61 54
REMARK SMILES IDX 46 55 49 56 60 57 76 58 47 59 48 60 59 62 77 63 50 64 37 65
REMARK SMILES IDX 38 66 43 67 39 68 40 69 42 70 44 71 41 72 63 73 64 74 69 75
REMARK SMILES IDX 65 76 66 77 68 78 70 79 67 80 51 81 52 82 57 83 53 84 54 85
REMARK SMILES IDX 56 86 58 87 55 88
REMARK H PARENT 75 50 49 61
REMARK Flexibility Score: inf
ROOT
ATOM      1  C   UNL A   1      35.835  21.453  26.073  1.00  0.00     0.274 C 
ENDROOT
BRANCH   1   2
ATOM      2  C   UNL A   1      34.952  22.656  26.414  1.00  0.00     0.273 C 
BRANCH   2   3
ATOM      3  O   UNL A   1      34.323  23.181  25.218  1.00  0.00    -0.473 OA
BRANCH   3   4
ATOM      4  C   UNL A   1      33.164  23.869  25.301  1.00  0.00     0.231 C 
ATOM      5  C   UNL A   1      31.778  22.174  24.001  1.00  0.00     0.027 C 
ATOM      6  C   UNL A   1      32.148  23.423  24.348  1.00  0.00     0.103 C 
ATOM      7  C   UNL A   1      31.355  24.555  23.780  1.00  0.00     0.272 C 
ATOM      8  O   UNL A   1      30.754  24.419  22.717  1.00  0.00    -0.268 OA
ATOM      9  N   UNL A   1      31.332  25.687  24.594  1.00  0.00    -0.226 N 
ATOM     10  N   UNL A   1      33.008  24.896  26.057  1.00  0.00    -0.156 NA
ATOM     11  C   UNL A   1      31.835  25.606  25.901  1.00  0.00     0.358 C 
ATOM     12  O   UNL A   1      31.329  26.155  26.874  1.00  0.00    -0.245 OA
BRANCH   5  13
ATOM     13  C   UNL A   1      32.243  20.833  24.414  1.00  0.00    -0.024 A 
ATOM     14  C   UNL A   1      33.266  18.266  25.015  1.00  0.00     0.127 A 
ATOM     15  C   UNL A   1      32.901  19.141  26.036  1.00  0.00     0.048 A 
ATOM     16  C   UNL A   1      32.989  18.609  23.691  1.00  0.00     0.040 A 
ATOM     17  C   UNL A   1      32.359  20.395  25.736  1.00  0.00     0.012 A 
ATOM     18  C   UNL A   1      32.526  19.903  23.398  1.00  0.00     0.022 A 
BRANCH  14  19
ATOM     19  O   UNL A   1      33.863  17.100  25.412  1.00  0.00    -0.496 OA
ATOM     20  C   UNL A   1      32.888  16.110  25.751  1.00  0.00     0.278 C 
ENDBRANCH  14  19
BRANCH  16  21
ATOM     21  C   UNL A   1      33.110  17.672  22.554  1.00  0.00     0.075 C 
ATOM     22  O   UNL A   1      34.023  16.884  22.380  1.00  0.00    -0.545 OA
ATOM     23  O   UNL A   1      32.153  17.852  21.630  1.00  0.00    -0.545 OA
ENDBRANCH  16  21
ENDBRANCH   5  13
BRANCH   9  24
ATOM     24  C   UNL A   1      30.746  26.909  24.099  1.00  0.00     0.054 A 
ATOM     25  C   UNL A   1      29.349  26.982  23.926  1.00  0.00     0.027 A 
ATOM     26  C   UNL A   1      31.513  27.986  23.632  1.00  0.00     0.027 A 
ATOM     27  C   UNL A   1      28.753  28.054  23.251  1.00  0.00     0.002 A 
ATOM     28  C   UNL A   1      30.912  29.076  22.989  1.00  0.00     0.002 A 
ATOM     29  C   UNL A   1      29.537  29.098  22.777  1.00  0.00     0.000 A 
ENDBRANCH   9  24
ENDBRANCH   3   4
ENDBRANCH   2   3
ENDBRANCH   1   2
BRANCH   1  30
ATOM     30  O   UNL A   1      36.988  21.902  25.339  1.00  0.00    -0.458 OA
BRANCH  30  31
ATOM     31  C   UNL A   1      38.176  21.409  25.750  1.00  0.00     0.338 C 
ATOM     32  O   UNL A   1      38.667  20.323  25.501  1.00  0.00    -0.246 OA
BRANCH  31  33
ATOM     33  C   UNL A   1      38.933  22.528  26.325  1.00  0.00     0.060 A 
ATOM     34  C   UNL A   1      38.459  23.798  26.016  1.00  0.00     0.016 A 
ATOM     35  C   UNL A   1      40.074  22.366  27.108  1.00  0.00     0.016 A 
ATOM     36  C   UNL A   1      39.121  24.921  26.483  1.00  0.00     0.010 A 
ATOM     37  C   UNL A   1      40.754  23.506  27.564  1.00  0.00     0.010 A 
ATOM     38  C   UNL A   1      40.289  24.793  27.236  1.00  0.00    -0.014 A 
BRANCH  38  39
ATOM     39  C   UNL A   1      41.077  26.024  27.503  1.00  0.00     0.031 A 
ATOM     40  C   UNL A   1      40.520  27.048  28.451  1.00  0.00     0.074 A 
ATOM     41  C   UNL A   1      42.344  26.152  27.066  1.00  0.00     0.049 A 
ATOM     42  N   UNL A   1      40.981  28.234  28.757  1.00  0.00    -0.248 NA
ATOM     43  C   UNL A   1      39.288  26.677  29.166  1.00  0.00     0.031 C 
ATOM     44  C   UNL A   1      43.077  25.152  26.288  1.00  0.00     0.029 A 
ATOM     45  N   UNL A   1      43.255  27.160  27.257  1.00  0.00    -0.354 N 
ATOM     46  C   UNL A   1      40.071  28.768  29.659  1.00  0.00     0.074 A 
ATOM     47  C   UNL A   1      39.041  27.775  29.867  1.00  0.00     0.031 C 
ATOM     48  C   UNL A   1      44.340  25.576  26.114  1.00  0.00     0.029 A 
ATOM     49  C   UNL A   1      44.482  26.910  26.692  1.00  0.00     0.049 A 
ATOM     50  H   UNL A   1      43.050  27.986  27.753  1.00  0.00     0.167 HD
ATOM     51  C   UNL A   1      40.088  29.986  30.251  1.00  0.00     0.037 A 
ATOM     52  C   UNL A   1      45.583  27.682  26.621  1.00  0.00     0.037 A 
ATOM     53  C   UNL A   1      41.131  30.958  30.068  1.00  0.00     0.049 A 
ATOM     54  C   UNL A   1      45.543  29.070  27.200  1.00  0.00     0.074 A 
ATOM     55  C   UNL A   1      41.194  32.260  30.534  1.00  0.00     0.029 A 
ATOM     56  N   UNL A   1      42.311  30.719  29.383  1.00  0.00    -0.354 N 
ATOM     57  N   UNL A   1      44.598  29.646  27.903  1.00  0.00    -0.248 NA
ATOM     58  C   UNL A   1      46.707  29.931  26.940  1.00  0.00     0.031 C 
ATOM     59  C   UNL A   1      42.409  32.814  30.114  1.00  0.00     0.029 A 
ATOM     60  C   UNL A   1      43.113  31.847  29.414  1.00  0.00     0.049 A 
ATOM     61  H   UNL A   1      42.545  29.872  28.939  1.00  0.00     0.167 HD
ATOM     62  C   UNL A   1      45.049  30.934  28.163  1.00  0.00     0.074 A 
ATOM     63  C   UNL A   1      46.365  31.046  27.571  1.00  0.00     0.031 C 
ATOM     64  C   UNL A   1      44.419  31.940  28.818  1.00  0.00     0.037 A 
BRANCH  51  65
ATOM     65  C   UNL A   1      38.907  30.350  31.094  1.00  0.00     0.057 A 
ATOM     66  C   UNL A   1      38.864  30.089  32.468  1.00  0.00     0.134 A 
ATOM     67  C   UNL A   1      37.794  30.975  30.515  1.00  0.00     0.134 A 
ATOM     68  F   UNL A   1      39.887  29.468  33.075  1.00  0.00    -0.206 F 
ATOM     69  C   UNL A   1      37.747  30.424  33.237  1.00  0.00     0.040 A 
ATOM     70  C   UNL A   1      36.681  31.332  31.276  1.00  0.00     0.040 A 
ATOM     71  F   UNL A   1      37.774  31.247  29.203  1.00  0.00    -0.206 F 
ATOM     72  C   UNL A   1      36.653  31.053  32.641  1.00  0.00     0.006 A 
ENDBRANCH  51  65
BRANCH  52  73
ATOM     73  C   UNL A   1      46.801  27.191  25.928  1.00  0.00     0.057 A 
ATOM     74  C   UNL A   1      47.787  26.476  26.616  1.00  0.00     0.134 A 
ATOM     75  C   UNL A   1      47.020  27.444  24.568  1.00  0.00     0.134 A 
ATOM     76  F   UNL A   1      47.650  26.227  27.927  1.00  0.00    -0.206 F 
ATOM     77  C   UNL A   1      48.948  26.033  25.979  1.00  0.00     0.040 A 
ATOM     78  C   UNL A   1      48.164  26.986  23.912  1.00  0.00     0.040 A 
ATOM     79  F   UNL A   1      46.120  28.136  23.854  1.00  0.00    -0.206 F 
ATOM     80  C   UNL A   1      49.134  26.282  24.621  1.00  0.00     0.006 A 
ENDBRANCH  52  73
BRANCH  64  81
ATOM     81  C   UNL A   1      45.148  33.245  28.931  1.00  0.00     0.057 A 
ATOM     82  C   UNL A   1      44.939  34.279  28.012  1.00  0.00     0.134 A 
ATOM     83  C   UNL A   1      46.031  33.483  29.991  1.00  0.00     0.134 A 
ATOM     84  F   UNL A   1      44.113  34.107  26.969  1.00  0.00    -0.206 F 
ATOM     85  C   UNL A   1      45.596  35.504  28.134  1.00  0.00     0.040 A 
ATOM     86  C   UNL A   1      46.681  34.710  30.134  1.00  0.00     0.040 A 
ATOM     87  F   UNL A   1      46.268  32.533  30.907  1.00  0.00    -0.206 F 
ATOM     88  C   UNL A   1      46.466  35.724  29.201  1.00  0.00     0.006 A 
ENDBRANCH  64  81
ENDBRANCH  38  39
ENDBRANCH  31  33
ENDBRANCH  30  31
ENDBRANCH   1  30
TORSDOF 14
ENDMDL
MODEL 2
REMARK VINA RESULT:     -12.8      3.798      9.417
REMARK SMILES COc1ccc(/C=C2/C(=O)N(c3ccccc3)C(=O)N=C2OCCOC(=O)c2ccc(-c3c4nc(c(-c5c(F)cccc5F)c5ccc([nH]5)c(-c5c(F)cccc5F)c5nc(c(-c6c(F)cccc6F)c6ccc3[nH]6)C=C5)C=C4)cc2)cc1C(=O)[O-]
REMARK SMILES IDX 24 1 23 2 22 3 21 4 7 5 8 6 9 7 10 8 11 9 20 10 18 11 19 12
REMARK SMILES IDX 6 13 3 14 4 15 83 16 5 17 82 18 2 19 1 20 84 21 85 22 86 23
REMARK SMILES IDX 12 24 13 25 17 26 14 27 16 28 15 29 25 30 26 31 27 32 28 33
REMARK SMILES IDX 29 34 81 35 30 36 80 37 31 38 32 39 33 40 74 41 34 42 79 43
REMARK SMILES IDX 73 44 75 45 35 46 78 47 72 48 71 49 36 51 62 52 45 53 61 54
REMARK SMILES IDX 46 55 49 56 60 57 76 58 47 59 48 60 59 62 77 63 50 64 37 65
REMARK SMILES IDX 38 66 43 67 39 68 40 69 42 70 44 71 41 72 63 73 64 74 69 75
REMARK SMILES IDX 65 76 66 77 68 78 70 79 67 80 51 81 52 82 57 83 53 84 54 85
REMARK SMILES IDX 56 86 58 87 55 88
REMARK H PARENT 75 50 49 61
REMARK Flexibility Score: inf
ROOT
ATOM      1  C   UNL A   1      31.778  29.205  26.091  1.00  0.00     0.274 C 
ENDROOT
BRANCH   1   2
ATOM      2  C   UNL A   1      32.220  27.747  25.951  1.00  0.00     0.273 C 
BRANCH   2   3
ATOM      3  O   UNL A   1      32.947  27.552  24.712  1.00  0.00    -0.473 OA
BRANCH   3   4
ATOM      4  C   UNL A   1      33.013  26.330  24.142  1.00  0.00     0.231 C 
ATOM      5  C   UNL A   1      30.569  26.258  23.431  1.00  0.00     0.027 C 
ATOM      6  C   UNL A   1      31.704  25.716  23.916  1.00  0.00     0.103 C 
ATOM      7  C   UNL A   1      31.705  24.245  24.175  1.00  0.00     0.272 C 
ATOM      8  O   UNL A   1      30.653  23.657  24.412  1.00  0.00    -0.268 OA
ATOM      9  N   UNL A   1      32.963  23.656  24.054  1.00  0.00    -0.226 N 
ATOM     10  N   UNL A   1      34.119  25.711  23.930  1.00  0.00    -0.156 NA
ATOM     11  C   UNL A   1      34.023  24.399  23.513  1.00  0.00     0.358 C 
ATOM     12  O   UNL A   1      34.870  23.946  22.750  1.00  0.00    -0.245 OA
BRANCH   5  13
ATOM     13  C   UNL A   1      30.215  27.619  22.976  1.00  0.00    -0.024 A 
ATOM     14  C   UNL A   1      29.439  30.256  22.313  1.00  0.00     0.127 A 
ATOM     15  C   UNL A   1      30.600  29.703  21.778  1.00  0.00     0.048 A 
ATOM     16  C   UNL A   1      28.584  29.451  23.067  1.00  0.00     0.040 A 
ATOM     17  C   UNL A   1      30.960  28.384  22.076  1.00  0.00     0.012 A 
ATOM     18  C   UNL A   1      28.998  28.159  23.431  1.00  0.00     0.022 A 
BRANCH  14  19
ATOM     19  O   UNL A   1      29.219  31.577  22.027  1.00  0.00    -0.496 OA
ATOM     20  C   UNL A   1      28.403  31.724  20.862  1.00  0.00     0.278 C 
ENDBRANCH  14  19
BRANCH  16  21
ATOM     21  C   UNL A   1      27.223  29.855  23.480  1.00  0.00     0.075 C 
ATOM     22  O   UNL A   1      26.903  30.962  23.876  1.00  0.00    -0.545 OA
ATOM     23  O   UNL A   1      26.361  28.827  23.501  1.00  0.00    -0.545 OA
ENDBRANCH  16  21
ENDBRANCH   5  13
BRANCH   9  24
ATOM     24  C   UNL A   1      33.144  22.277  24.436  1.00  0.00     0.054 A 
ATOM     25  C   UNL A   1      32.827  21.258  23.514  1.00  0.00     0.027 A 
ATOM     26  C   UNL A   1      33.477  21.887  25.741  1.00  0.00     0.027 A 
ATOM     27  C   UNL A   1      32.776  19.914  23.902  1.00  0.00     0.002 A 
ATOM     28  C   UNL A   1      33.461  20.538  26.119  1.00  0.00     0.002 A 
ATOM     29  C   UNL A   1      33.087  19.555  25.207  1.00  0.00     0.000 A 
ENDBRANCH   9  24
ENDBRANCH   3   4
ENDBRANCH   2   3
ENDBRANCH   1   2
BRANCH   1  30
ATOM     30  O   UNL A   1      32.922  30.065  25.940  1.00  0.00    -0.458 OA
BRANCH  30  31
ATOM     31  C   UNL A   1      33.031  31.063  26.843  1.00  0.00     0.338 C 
ATOM     32  O   UNL A   1      32.164  31.821  27.236  1.00  0.00    -0.246 OA
BRANCH  31  33
ATOM     33  C   UNL A   1      34.329  30.901  27.510  1.00  0.00     0.060 A 
ATOM     34  C   UNL A   1      34.751  29.589  27.697  1.00  0.00     0.016 A 
ATOM     35  C   UNL A   1      35.099  31.967  27.967  1.00  0.00     0.016 A 
ATOM     36  C   UNL A   1      35.947  29.328  28.345  1.00  0.00     0.010 A 
ATOM     37  C   UNL A   1      36.302  31.700  28.641  1.00  0.00     0.010 A 
ATOM     38  C   UNL A   1      36.722  30.373  28.851  1.00  0.00    -0.014 A 
BRANCH  38  39
ATOM     39  C   UNL A   1      37.862  30.021  29.736  1.00  0.00     0.031 A 
ATOM     40  C   UNL A   1      39.013  29.246  29.160  1.00  0.00     0.074 A 
ATOM     41  C   UNL A   1      37.970  30.537  30.975  1.00  0.00     0.049 A 
ATOM     42  N   UNL A   1      40.062  28.746  29.762  1.00  0.00    -0.248 NA
ATOM     43  C   UNL A   1      38.989  29.020  27.706  1.00  0.00     0.031 C 
ATOM     44  C   UNL A   1      37.015  31.455  31.597  1.00  0.00     0.029 A 
ATOM     45  N   UNL A   1      38.960  30.398  31.915  1.00  0.00    -0.354 N 
ATOM     46  C   UNL A   1      40.794  28.107  28.771  1.00  0.00     0.074 A 
ATOM     47  C   UNL A   1      40.083  28.295  27.526  1.00  0.00     0.031 C 
ATOM     48  C   UNL A   1      37.492  31.835  32.794  1.00  0.00     0.029 A 
ATOM     49  C   UNL A   1      38.741  31.127  33.059  1.00  0.00     0.049 A 
ATOM     50  H   UNL A   1      39.753  29.830  31.783  1.00  0.00     0.167 HD
ATOM     51  C   UNL A   1      41.950  27.414  28.894  1.00  0.00     0.037 A 
ATOM     52  C   UNL A   1      39.451  31.189  34.202  1.00  0.00     0.037 A 
ATOM     53  C   UNL A   1      42.673  27.258  30.127  1.00  0.00     0.049 A 
ATOM     54  C   UNL A   1      40.679  30.332  34.350  1.00  0.00     0.074 A 
ATOM     55  C   UNL A   1      43.794  26.489  30.384  1.00  0.00     0.029 A 
ATOM     56  N   UNL A   1      42.354  27.911  31.307  1.00  0.00    -0.354 N 
ATOM     57  N   UNL A   1      41.272  29.576  33.458  1.00  0.00    -0.248 NA
ATOM     58  C   UNL A   1      41.312  30.305  35.677  1.00  0.00     0.031 C 
ATOM     59  C   UNL A   1      44.144  26.665  31.728  1.00  0.00     0.029 A 
ATOM     60  C   UNL A   1      43.259  27.567  32.297  1.00  0.00     0.049 A 
ATOM     61  H   UNL A   1      41.596  28.529  31.425  1.00  0.00     0.167 HD
ATOM     62  C   UNL A   1      42.341  28.980  34.115  1.00  0.00     0.074 A 
ATOM     63  C   UNL A   1      42.335  29.487  35.471  1.00  0.00     0.031 C 
ATOM     64  C   UNL A   1      43.236  28.080  33.641  1.00  0.00     0.037 A 
BRANCH  51  65
ATOM     65  C   UNL A   1      42.461  26.719  27.671  1.00  0.00     0.057 A 
ATOM     66  C   UNL A   1      43.342  27.338  26.776  1.00  0.00     0.134 A 
ATOM     67  C   UNL A   1      42.061  25.406  27.388  1.00  0.00     0.134 A 
ATOM     68  F   UNL A   1      43.739  28.603  26.978  1.00  0.00    -0.206 F 
ATOM     69  C   UNL A   1      43.797  26.678  25.633  1.00  0.00     0.040 A 
ATOM     70  C   UNL A   1      42.524  24.730  26.259  1.00  0.00     0.040 A 
ATOM     71  F   UNL A   1      41.215  24.763  28.204  1.00  0.00    -0.206 F 
ATOM     72  C   UNL A   1      43.392  25.368  25.375  1.00  0.00     0.006 A 
ENDBRANCH  51  65
BRANCH  52  73
ATOM     73  C   UNL A   1      38.993  32.047  35.324  1.00  0.00     0.057 A 
ATOM     74  C   UNL A   1      39.348  33.399  35.393  1.00  0.00     0.134 A 
ATOM     75  C   UNL A   1      38.210  31.533  36.365  1.00  0.00     0.134 A 
ATOM     76  F   UNL A   1      40.122  33.943  34.442  1.00  0.00    -0.206 F 
ATOM     77  C   UNL A   1      38.945  34.207  36.458  1.00  0.00     0.040 A 
ATOM     78  C   UNL A   1      37.778  32.336  37.422  1.00  0.00     0.040 A 
ATOM     79  F   UNL A   1      37.846  30.242  36.366  1.00  0.00    -0.206 F 
ATOM     80  C   UNL A   1      38.151  33.677  37.472  1.00  0.00     0.006 A 
ENDBRANCH  52  73
BRANCH  64  81
ATOM     81  C   UNL A   1      44.283  27.589  34.594  1.00  0.00     0.057 A 
ATOM     82  C   UNL A   1      45.486  28.281  34.777  1.00  0.00     0.134 A 
ATOM     83  C   UNL A   1      44.068  26.440  35.364  1.00  0.00     0.134 A 
ATOM     84  F   UNL A   1      45.754  29.382  34.059  1.00  0.00    -0.206 F 
ATOM     85  C   UNL A   1      46.449  27.839  35.686  1.00  0.00     0.040 A 
ATOM     86  C   UNL A   1      45.015  25.998  36.290  1.00  0.00     0.040 A 
ATOM     87  F   UNL A   1      42.933  25.738  35.239  1.00  0.00    -0.206 F 
ATOM     88  C   UNL A   1      46.211  26.696  36.449  1.00  0.00     0.006 A 
ENDBRANCH  64  81
ENDBRANCH  38  39
ENDBRANCH  31  33
ENDBRANCH  30  31
ENDBRANCH   1  30
TORSDOF 14
ENDMDL
MODEL 3
REMARK VINA RESULT:     -12.2      3.675      8.189
REMARK SMILES COc1ccc(/C=C2/C(=O)N(c3ccccc3)C(=O)N=C2OCCOC(=O)c2ccc(-c3c4nc(c(-c5c(F)cccc5F)c5ccc([nH]5)c(-c5c(F)cccc5F)c5nc(c(-c6c(F)cccc6F)c6ccc3[nH]6)C=C5)C=C4)cc2)cc1C(=O)[O-]
REMARK SMILES IDX 24 1 23 2 22 3 21 4 7 5 8 6 9 7 10 8 11 9 20 10 18 11 19 12
REMARK SMILES IDX 6 13 3 14 4 15 83 16 5 17 82 18 2 19 1 20 84 21 85 22 86 23
REMARK SMILES IDX 12 24 13 25 17 26 14 27 16 28 15 29 25 30 26 31 27 32 28 33
REMARK SMILES IDX 29 34 81 35 30 36 80 37 31 38 32 39 33 40 74 41 34 42 79 43
REMARK SMILES IDX 73 44 75 45 35 46 78 47 72 48 71 49 36 51 62 52 45 53 61 54
REMARK SMILES IDX 46 55 49 56 60 57 76 58 47 59 48 60 59 62 77 63 50 64 37 65
REMARK SMILES IDX 38 66 43 67 39 68 40 69 42 70 44 71 41 72 63 73 64 74 69 75
REMARK SMILES IDX 65 76 66 77 68 78 70 79 67 80 51 81 52 82 57 83 53 84 54 85
REMARK SMILES IDX 56 86 58 87 55 88
REMARK H PARENT 75 50 49 61
REMARK Flexibility Score: inf
ROOT
ATOM      1  C   UNL A   1      31.774  28.643  26.686  1.00  0.00     0.274 C 
ENDROOT
BRANCH   1   2
ATOM      2  C   UNL A   1      32.315  27.212  26.662  1.00  0.00     0.273 C 
BRANCH   2   3
ATOM      3  O   UNL A   1      31.462  26.358  25.859  1.00  0.00    -0.473 OA
BRANCH   3   4
ATOM      4  C   UNL A   1      30.835  26.847  24.768  1.00  0.00     0.231 C 
ATOM      5  C   UNL A   1      32.820  26.570  23.197  1.00  0.00     0.027 C 
ATOM      6  C   UNL A   1      31.745  27.221  23.686  1.00  0.00     0.103 C 
ATOM      7  C   UNL A   1      31.317  28.465  22.977  1.00  0.00     0.272 C 
ATOM      8  O   UNL A   1      32.130  29.122  22.332  1.00  0.00    -0.268 OA
ATOM      9  N   UNL A   1      29.951  28.726  23.081  1.00  0.00    -0.226 N 
ATOM     10  N   UNL A   1      29.572  27.078  24.727  1.00  0.00    -0.156 NA
ATOM     11  C   UNL A   1      29.101  27.748  23.617  1.00  0.00     0.358 C 
ATOM     12  O   UNL A   1      27.977  27.498  23.193  1.00  0.00    -0.245 OA
BRANCH   5  13
ATOM     13  C   UNL A   1      33.475  25.295  23.557  1.00  0.00    -0.024 A 
ATOM     14  C   UNL A   1      34.641  22.766  24.049  1.00  0.00     0.127 A 
ATOM     15  C   UNL A   1      35.262  23.932  24.492  1.00  0.00     0.048 A 
ATOM     16  C   UNL A   1      33.367  22.844  23.485  1.00  0.00     0.040 A 
ATOM     17  C   UNL A   1      34.663  25.179  24.282  1.00  0.00     0.012 A 
ATOM     18  C   UNL A   1      32.815  24.105  23.201  1.00  0.00     0.022 A 
BRANCH  14  19
ATOM     19  O   UNL A   1      35.347  21.607  24.229  1.00  0.00    -0.496 OA
ATOM     20  C   UNL A   1      36.276  21.730  25.310  1.00  0.00     0.278 C 
ENDBRANCH  14  19
BRANCH  16  21
ATOM     21  C   UNL A   1      32.519  21.667  23.201  1.00  0.00     0.075 C 
ATOM     22  O   UNL A   1      32.006  21.407  22.127  1.00  0.00    -0.545 OA
ATOM     23  O   UNL A   1      32.249  20.944  24.300  1.00  0.00    -0.545 OA
ENDBRANCH  16  21
ENDBRANCH   5  13
BRANCH   9  24
ATOM     24  C   UNL A   1      29.426  29.976  22.588  1.00  0.00     0.054 A 
ATOM     25  C   UNL A   1      29.146  31.015  23.501  1.00  0.00     0.027 A 
ATOM     26  C   UNL A   1      29.030  30.163  21.256  1.00  0.00     0.027 A 
ATOM     27  C   UNL A   1      28.439  32.158  23.110  1.00  0.00     0.002 A 
ATOM     28  C   UNL A   1      28.354  31.324  20.858  1.00  0.00     0.002 A 
ATOM     29  C   UNL A   1      28.038  32.308  21.789  1.00  0.00     0.000 A 
ENDBRANCH   9  24
ENDBRANCH   3   4
ENDBRANCH   2   3
ENDBRANCH   1   2
BRANCH   1  30
ATOM     30  O   UNL A   1      32.743  29.528  26.094  1.00  0.00    -0.458 OA
BRANCH  30  31
ATOM     31  C   UNL A   1      32.912  30.715  26.716  1.00  0.00     0.338 C 
ATOM     32  O   UNL A   1      32.091  31.596  26.891  1.00  0.00    -0.246 OA
BRANCH  31  33
ATOM     33  C   UNL A   1      34.198  30.653  27.420  1.00  0.00     0.060 A 
ATOM     34  C   UNL A   1      34.853  29.428  27.374  1.00  0.00     0.016 A 
ATOM     35  C   UNL A   1      34.743  31.724  28.125  1.00  0.00     0.016 A 
ATOM     36  C   UNL A   1      36.059  29.257  28.034  1.00  0.00     0.010 A 
ATOM     37  C   UNL A   1      35.956  31.544  28.809  1.00  0.00     0.010 A 
ATOM     38  C   UNL A   1      36.611  30.298  28.782  1.00  0.00    -0.014 A 
BRANCH  38  39
ATOM     39  C   UNL A   1      37.773  29.982  29.652  1.00  0.00     0.031 A 
ATOM     40  C   UNL A   1      38.922  29.208  29.072  1.00  0.00     0.074 A 
ATOM     41  C   UNL A   1      37.898  30.529  30.876  1.00  0.00     0.049 A 
ATOM     42  N   UNL A   1      39.989  28.736  29.665  1.00  0.00    -0.248 NA
ATOM     43  C   UNL A   1      38.873  28.947  27.624  1.00  0.00     0.031 C 
ATOM     44  C   UNL A   1      36.943  31.450  31.495  1.00  0.00     0.029 A 
ATOM     45  N   UNL A   1      38.908  30.426  31.800  1.00  0.00    -0.354 N 
ATOM     46  C   UNL A   1      40.710  28.082  28.675  1.00  0.00     0.074 A 
ATOM     47  C   UNL A   1      39.973  28.231  27.441  1.00  0.00     0.031 C 
ATOM     48  C   UNL A   1      37.439  31.865  32.673  1.00  0.00     0.029 A 
ATOM     49  C   UNL A   1      38.702  31.178  32.930  1.00  0.00     0.049 A 
ATOM     50  H   UNL A   1      39.706  29.865  31.665  1.00  0.00     0.167 HD
ATOM     51  C   UNL A   1      41.877  27.407  28.791  1.00  0.00     0.037 A 
ATOM     52  C   UNL A   1      39.434  31.277  34.057  1.00  0.00     0.037 A 
ATOM     53  C   UNL A   1      42.626  27.290  30.013  1.00  0.00     0.049 A 
ATOM     54  C   UNL A   1      40.675  30.439  34.200  1.00  0.00     0.074 A 
ATOM     55  C   UNL A   1      43.762  26.542  30.266  1.00  0.00     0.029 A 
ATOM     56  N   UNL A   1      42.322  27.967  31.184  1.00  0.00    -0.354 N 
ATOM     57  N   UNL A   1      41.261  29.670  33.316  1.00  0.00    -0.248 NA
ATOM     58  C   UNL A   1      41.335  30.452  35.515  1.00  0.00     0.031 C 
ATOM     59  C   UNL A   1      44.136  26.754  31.598  1.00  0.00     0.029 A 
ATOM     60  C   UNL A   1      43.250  27.659  32.163  1.00  0.00     0.049 A 
ATOM     61  H   UNL A   1      41.559  28.578  31.301  1.00  0.00     0.167 HD
ATOM     62  C   UNL A   1      42.350  29.104  33.965  1.00  0.00     0.074 A 
ATOM     63  C   UNL A   1      42.364  29.642  35.309  1.00  0.00     0.031 C 
ATOM     64  C   UNL A   1      43.247  28.203  33.495  1.00  0.00     0.037 A 
BRANCH  51  65
ATOM     65  C   UNL A   1      42.373  26.690  27.575  1.00  0.00     0.057 A 
ATOM     66  C   UNL A   1      43.235  27.295  26.654  1.00  0.00     0.134 A 
ATOM     67  C   UNL A   1      41.978  25.369  27.327  1.00  0.00     0.134 A 
ATOM     68  F   UNL A   1      43.627  28.566  26.822  1.00  0.00    -0.206 F 
ATOM     69  C   UNL A   1      43.677  26.613  25.517  1.00  0.00     0.040 A 
ATOM     70  C   UNL A   1      42.427  24.672  26.206  1.00  0.00     0.040 A 
ATOM     71  F   UNL A   1      41.149  24.737  28.171  1.00  0.00    -0.206 F 
ATOM     72  C   UNL A   1      43.276  25.296  25.294  1.00  0.00     0.006 A 
ENDBRANCH  51  65
BRANCH  52  73
ATOM     73  C   UNL A   1      38.986  32.156  35.167  1.00  0.00     0.057 A 
ATOM     74  C   UNL A   1      39.369  33.501  35.224  1.00  0.00     0.134 A 
ATOM     75  C   UNL A   1      38.187  31.669  36.209  1.00  0.00     0.134 A 
ATOM     76  F   UNL A   1      40.158  34.020  34.272  1.00  0.00    -0.206 F 
ATOM     77  C   UNL A   1      38.976  34.329  36.278  1.00  0.00     0.040 A 
ATOM     78  C   UNL A   1      37.766  32.491  37.255  1.00  0.00     0.040 A 
ATOM     79  F   UNL A   1      37.797  30.386  36.221  1.00  0.00    -0.206 F 
ATOM     80  C   UNL A   1      38.165  33.825  37.293  1.00  0.00     0.006 A 
ENDBRANCH  52  73
BRANCH  64  81
ATOM     81  C   UNL A   1      44.319  27.749  34.438  1.00  0.00     0.057 A 
ATOM     82  C   UNL A   1      45.526  28.447  34.564  1.00  0.00     0.134 A 
ATOM     83  C   UNL A   1      44.125  26.630  35.257  1.00  0.00     0.134 A 
ATOM     84  F   UNL A   1      45.774  29.520  33.798  1.00  0.00    -0.206 F 
ATOM     85  C   UNL A   1      46.512  28.039  35.463  1.00  0.00     0.040 A 
ATOM     86  C   UNL A   1      45.096  26.222  36.173  1.00  0.00     0.040 A 
ATOM     87  F   UNL A   1      42.988  25.923  35.187  1.00  0.00    -0.206 F 
ATOM     88  C   UNL A   1      46.295  26.926  36.275  1.00  0.00     0.006 A 
ENDBRANCH  64  81
ENDBRANCH  38  39
ENDBRANCH  31  33
ENDBRANCH  30  31
ENDBRANCH   1  30
TORSDOF 14
ENDMDL
