MODEL 1
REMARK VINA RESULT:     -11.8      0.000      0.000
REMARK SMILES Cc1c(C(=O)OCCOC(=O)c2ccc(-c3c4nc(c(-c5c(F)cccc5F)c5ccc([nH]5)c(-c5c(F)cccc5F)c5nc(c(-c6c(F)cccc6F)c6ccc3[nH]6)C=C5)C=C4)cc2)sc2ncnc(NCc3cn4c(n3)SCC4)c12
REMARK SMILES IDX 7 1 6 2 4 3 5 4 3 5 1 6 2 7 82 8 66 9 67 10 71 11 68 12
REMARK SMILES IDX 70 13 69 14 72 15 73 17 74 18 75 19 78 20 76 21 77 22 81 23
REMARK SMILES IDX 79 24 80 25 8 26 9 27 10 28 11 29 12 30 13 31 65 32 14 33
REMARK SMILES IDX 64 34 15 35 16 36 17 37 58 38 18 39 63 40 57 41 59 42 19 43
REMARK SMILES IDX 62 44 56 45 55 46 20 48 46 49 29 50 45 51 30 52 33 53 44 54
REMARK SMILES IDX 60 55 31 56 32 57 43 59 61 60 34 61 21 62 22 63 27 64 23 65
REMARK SMILES IDX 24 66 26 67 28 68 25 69 47 70 48 71 53 72 49 73 50 74 52 75
REMARK SMILES IDX 54 76 51 77 35 78 36 79 41 80 37 81 38 82 40 83 42 84 39 85
REMARK H PARENT 72 16 59 47 33 58
REMARK Flexibility Score: inf
ROOT
ATOM      1  C   UNL A   1      33.090  30.006  27.381  1.00  0.00     0.275 C 
ENDROOT
BRANCH   1   2
ATOM      2  O   UNL A   1      33.267  28.583  27.311  1.00  0.00    -0.458 OA
BRANCH   2   3
ATOM      3  C   UNL A   1      32.131  27.865  27.079  1.00  0.00     0.348 C 
ATOM      4  O   UNL A   1      31.150  27.878  27.820  1.00  0.00    -0.245 OA
BRANCH   3   5
ATOM      5  C   UNL A   1      32.183  27.168  25.805  1.00  0.00     0.118 A 
ATOM      6  C   UNL A   1      32.033  24.847  26.754  1.00  0.00     0.047 C 
ATOM      7  C   UNL A   1      32.227  25.788  25.613  1.00  0.00    -0.012 A 
ATOM      8  C   UNL A   1      32.453  25.430  24.213  1.00  0.00     0.058 A 
ATOM      9  S   UNL A   1      32.186  28.019  24.337  1.00  0.00    -0.108 S 
ATOM     10  C   UNL A   1      32.385  26.590  23.441  1.00  0.00     0.129 A 
ATOM     11  C   UNL A   1      32.716  24.244  23.474  1.00  0.00     0.138 A 
ATOM     12  N   UNL A   1      32.488  26.697  22.105  1.00  0.00    -0.225 NA
ATOM     13  N   UNL A   1      32.825  24.342  22.123  1.00  0.00    -0.219 NA
ATOM     14  C   UNL A   1      32.690  25.526  21.521  1.00  0.00     0.225 A 
BRANCH  11  15
ATOM     15  N   UNL A   1      32.973  22.960  23.866  1.00  0.00    -0.364 N 
ATOM     16  H   UNL A   1      33.933  22.762  23.952  1.00  0.00     0.162 HD
BRANCH  15  17
ATOM     17  C   UNL A   1      32.129  21.838  24.179  1.00  0.00     0.172 C 
BRANCH  17  18
ATOM     18  C   UNL A   1      32.797  20.577  24.640  1.00  0.00     0.079 A 
ATOM     19  C   UNL A   1      34.108  20.169  24.412  1.00  0.00     0.113 A 
ATOM     20  N   UNL A   1      32.055  19.550  25.215  1.00  0.00    -0.226 NA
ATOM     21  N   UNL A   1      34.110  18.862  24.770  1.00  0.00    -0.325 N 
ATOM     22  C   UNL A   1      32.877  18.542  25.249  1.00  0.00     0.168 A 
ATOM     23  C   UNL A   1      34.952  17.748  24.375  1.00  0.00     0.135 C 
ATOM     24  S   UNL A   1      32.595  16.840  25.265  1.00  0.00    -0.086 SA
ATOM     25  C   UNL A   1      33.975  16.607  24.073  1.00  0.00     0.100 C 
ENDBRANCH  17  18
ENDBRANCH  15  17
ENDBRANCH  11  15
ENDBRANCH   3   5
ENDBRANCH   2   3
ENDBRANCH   1   2
BRANCH   1  26
ATOM     26  C   UNL A   1      34.426  30.718  27.556  1.00  0.00     0.275 C 
BRANCH  26  27
ATOM     27  O   UNL A   1      35.551  29.834  27.510  1.00  0.00    -0.458 OA
BRANCH  27  28
ATOM     28  C   UNL A   1      36.307  29.848  28.631  1.00  0.00     0.338 C 
ATOM     29  O   UNL A   1      36.073  30.449  29.665  1.00  0.00    -0.246 OA
BRANCH  28  30
ATOM     30  C   UNL A   1      37.600  29.198  28.378  1.00  0.00     0.060 A 
ATOM     31  C   UNL A   1      38.145  28.425  29.404  1.00  0.00     0.016 A 
ATOM     32  C   UNL A   1      38.354  29.547  27.247  1.00  0.00     0.016 A 
ATOM     33  C   UNL A   1      39.487  28.094  29.345  1.00  0.00     0.010 A 
ATOM     34  C   UNL A   1      39.694  29.209  27.187  1.00  0.00     0.010 A 
ATOM     35  C   UNL A   1      40.265  28.533  28.261  1.00  0.00    -0.014 A 
BRANCH  35  36
ATOM     36  C   UNL A   1      41.662  28.116  28.233  1.00  0.00     0.031 A 
ATOM     37  C   UNL A   1      41.841  26.822  27.529  1.00  0.00     0.074 A 
ATOM     38  C   UNL A   1      42.689  28.853  28.709  1.00  0.00     0.049 A 
ATOM     39  N   UNL A   1      42.158  25.683  28.052  1.00  0.00    -0.248 NA
ATOM     40  C   UNL A   1      41.430  26.731  26.117  1.00  0.00     0.031 C 
ATOM     41  C   UNL A   1      42.647  30.246  29.163  1.00  0.00     0.029 A 
ATOM     42  N   UNL A   1      44.018  28.542  28.804  1.00  0.00    -0.354 N 
ATOM     43  C   UNL A   1      42.246  24.794  26.985  1.00  0.00     0.074 A 
ATOM     44  C   UNL A   1      41.595  25.429  25.873  1.00  0.00     0.031 C 
ATOM     45  C   UNL A   1      43.907  30.730  29.247  1.00  0.00     0.029 A 
ATOM     46  C   UNL A   1      44.843  29.646  29.008  1.00  0.00     0.049 A 
ATOM     47  H   UNL A   1      44.360  27.622  28.734  1.00  0.00     0.167 HD
ATOM     48  C   UNL A   1      43.136  23.765  27.037  1.00  0.00     0.037 A 
ATOM     49  C   UNL A   1      46.198  29.667  28.939  1.00  0.00     0.037 A 
ATOM     50  C   UNL A   1      43.600  23.564  28.385  1.00  0.00     0.049 A 
ATOM     51  C   UNL A   1      46.680  28.285  29.155  1.00  0.00     0.074 A 
ATOM     52  C   UNL A   1      43.177  22.934  29.532  1.00  0.00     0.029 A 
ATOM     53  N   UNL A   1      44.604  24.422  28.734  1.00  0.00    -0.354 N 
ATOM     54  N   UNL A   1      46.578  27.656  30.293  1.00  0.00    -0.248 NA
ATOM     55  C   UNL A   1      46.993  27.448  27.999  1.00  0.00     0.031 C 
ATOM     56  C   UNL A   1      43.902  23.530  30.607  1.00  0.00     0.029 A 
ATOM     57  C   UNL A   1      44.789  24.466  30.083  1.00  0.00     0.049 A 
ATOM     58  H   UNL A   1      45.131  24.946  28.088  1.00  0.00     0.167 HD
ATOM     59  C   UNL A   1      46.392  26.338  29.935  1.00  0.00     0.074 A 
ATOM     60  C   UNL A   1      46.830  26.241  28.547  1.00  0.00     0.031 C 
ATOM     61  C   UNL A   1      45.577  25.528  30.664  1.00  0.00     0.037 A 
BRANCH  48  62
ATOM     62  C   UNL A   1      44.023  23.341  25.878  1.00  0.00     0.057 A 
ATOM     63  C   UNL A   1      44.123  21.965  25.584  1.00  0.00     0.134 A 
ATOM     64  C   UNL A   1      45.025  24.144  25.297  1.00  0.00     0.134 A 
ATOM     65  F   UNL A   1      43.228  21.091  26.068  1.00  0.00    -0.206 F 
ATOM     66  C   UNL A   1      45.194  21.424  24.861  1.00  0.00     0.040 A 
ATOM     67  C   UNL A   1      46.074  23.618  24.536  1.00  0.00     0.040 A 
ATOM     68  F   UNL A   1      45.111  25.461  25.509  1.00  0.00    -0.206 F 
ATOM     69  C   UNL A   1      46.184  22.251  24.347  1.00  0.00     0.006 A 
ENDBRANCH  48  62
BRANCH  49  70
ATOM     70  C   UNL A   1      47.104  30.730  28.439  1.00  0.00     0.057 A 
ATOM     71  C   UNL A   1      46.983  31.222  27.129  1.00  0.00     0.134 A 
ATOM     72  C   UNL A   1      47.883  31.501  29.315  1.00  0.00     0.134 A 
ATOM     73  F   UNL A   1      46.239  30.572  26.222  1.00  0.00    -0.206 F 
ATOM     74  C   UNL A   1      47.556  32.438  26.730  1.00  0.00     0.040 A 
ATOM     75  C   UNL A   1      48.466  32.714  28.929  1.00  0.00     0.040 A 
ATOM     76  F   UNL A   1      48.027  31.156  30.602  1.00  0.00    -0.206 F 
ATOM     77  C   UNL A   1      48.284  33.198  27.639  1.00  0.00     0.006 A 
ENDBRANCH  49  70
BRANCH  61  78
ATOM     78  C   UNL A   1      45.348  25.854  32.100  1.00  0.00     0.057 A 
ATOM     79  C   UNL A   1      46.246  25.568  33.134  1.00  0.00     0.134 A 
ATOM     80  C   UNL A   1      44.218  26.618  32.417  1.00  0.00     0.134 A 
ATOM     81  F   UNL A   1      47.381  24.893  32.900  1.00  0.00    -0.206 F 
ATOM     82  C   UNL A   1      46.021  26.026  34.436  1.00  0.00     0.040 A 
ATOM     83  C   UNL A   1      44.000  27.107  33.703  1.00  0.00     0.040 A 
ATOM     84  F   UNL A   1      43.338  26.950  31.459  1.00  0.00    -0.206 F 
ATOM     85  C   UNL A   1      44.903  26.810  34.719  1.00  0.00     0.006 A 
ENDBRANCH  61  78
ENDBRANCH  35  36
ENDBRANCH  28  30
ENDBRANCH  27  28
ENDBRANCH  26  27
ENDBRANCH   1  26
TORSDOF 14
ENDMDL
MODEL 2
REMARK VINA RESULT:     -11.7      4.977      8.852
REMARK SMILES Cc1c(C(=O)OCCOC(=O)c2ccc(-c3c4nc(c(-c5c(F)cccc5F)c5ccc([nH]5)c(-c5c(F)cccc5F)c5nc(c(-c6c(F)cccc6F)c6ccc3[nH]6)C=C5)C=C4)cc2)sc2ncnc(NCc3cn4c(n3)SCC4)c12
REMARK SMILES IDX 7 1 6 2 4 3 5 4 3 5 1 6 2 7 82 8 66 9 67 10 71 11 68 12
REMARK SMILES IDX 70 13 69 14 72 15 73 17 74 18 75 19 78 20 76 21 77 22 81 23
REMARK SMILES IDX 79 24 80 25 8 26 9 27 10 28 11 29 12 30 13 31 65 32 14 33
REMARK SMILES IDX 64 34 15 35 16 36 17 37 58 38 18 39 63 40 57 41 59 42 19 43
REMARK SMILES IDX 62 44 56 45 55 46 20 48 46 49 29 50 45 51 30 52 33 53 44 54
REMARK SMILES IDX 60 55 31 56 32 57 43 59 61 60 34 61 21 62 22 63 27 64 23 65
REMARK SMILES IDX 24 66 26 67 28 68 25 69 47 70 48 71 53 72 49 73 50 74 52 75
REMARK SMILES IDX 54 76 51 77 35 78 36 79 41 80 37 81 38 82 40 83 42 84 39 85
REMARK H PARENT 72 16 59 47 33 58
REMARK Flexibility Score: inf
ROOT
ATOM      1  C   UNL A   1      32.510  35.939  30.590  1.00  0.00     0.275 C 
ENDROOT
BRANCH   1   2
ATOM      2  O   UNL A   1      32.723  34.664  29.965  1.00  0.00    -0.458 OA
BRANCH   2   3
ATOM      3  C   UNL A   1      33.457  34.694  28.814  1.00  0.00     0.348 C 
ATOM      4  O   UNL A   1      33.907  35.724  28.317  1.00  0.00    -0.245 OA
BRANCH   3   5
ATOM      5  C   UNL A   1      33.724  33.358  28.310  1.00  0.00     0.118 A 
ATOM      6  C   UNL A   1      31.756  33.252  26.752  1.00  0.00     0.047 C 
ATOM      7  C   UNL A   1      32.928  32.626  27.431  1.00  0.00    -0.012 A 
ATOM      8  C   UNL A   1      33.400  31.251  27.270  1.00  0.00     0.058 A 
ATOM      9  S   UNL A   1      35.124  32.512  28.762  1.00  0.00    -0.108 S 
ATOM     10  C   UNL A   1      34.628  31.123  27.919  1.00  0.00     0.129 A 
ATOM     11  C   UNL A   1      32.938  30.060  26.643  1.00  0.00     0.138 A 
ATOM     12  N   UNL A   1      35.422  30.041  27.972  1.00  0.00    -0.225 NA
ATOM     13  N   UNL A   1      33.733  28.959  26.695  1.00  0.00    -0.219 NA
ATOM     14  C   UNL A   1      34.910  29.008  27.320  1.00  0.00     0.225 A 
BRANCH  11  15
ATOM     15  N   UNL A   1      31.756  29.750  26.029  1.00  0.00    -0.364 N 
ATOM     16  H   UNL A   1      30.965  29.939  26.584  1.00  0.00     0.162 HD
BRANCH  15  17
ATOM     17  C   UNL A   1      31.431  29.203  24.740  1.00  0.00     0.172 C 
BRANCH  17  18
ATOM     18  C   UNL A   1      30.214  29.741  24.047  1.00  0.00     0.079 A 
ATOM     19  C   UNL A   1      29.445  29.124  23.064  1.00  0.00     0.113 A 
ATOM     20  N   UNL A   1      29.835  31.070  24.206  1.00  0.00    -0.226 NA
ATOM     21  N   UNL A   1      28.673  30.126  22.577  1.00  0.00    -0.325 N 
ATOM     22  C   UNL A   1      28.930  31.256  23.290  1.00  0.00     0.168 A 
ATOM     23  C   UNL A   1      28.017  30.313  21.296  1.00  0.00     0.135 C 
ATOM     24  S   UNL A   1      28.410  32.685  22.475  1.00  0.00    -0.086 SA
ATOM     25  C   UNL A   1      28.351  31.751  20.891  1.00  0.00     0.100 C 
ENDBRANCH  17  18
ENDBRANCH  15  17
ENDBRANCH  11  15
ENDBRANCH   3   5
ENDBRANCH   2   3
ENDBRANCH   1   2
BRANCH   1  26
ATOM     26  C   UNL A   1      33.322  36.064  31.874  1.00  0.00     0.275 C 
BRANCH  26  27
ATOM     27  O   UNL A   1      33.564  34.808  32.517  1.00  0.00    -0.458 OA
BRANCH  27  28
ATOM     28  C   UNL A   1      34.662  34.797  33.306  1.00  0.00     0.338 C 
ATOM     29  O   UNL A   1      34.868  35.494  34.285  1.00  0.00    -0.246 OA
BRANCH  28  30
ATOM     30  C   UNL A   1      35.711  33.962  32.704  1.00  0.00     0.060 A 
ATOM     31  C   UNL A   1      35.506  32.582  32.688  1.00  0.00     0.016 A 
ATOM     32  C   UNL A   1      36.959  34.520  32.389  1.00  0.00     0.016 A 
ATOM     33  C   UNL A   1      36.590  31.753  32.462  1.00  0.00     0.010 A 
ATOM     34  C   UNL A   1      38.040  33.689  32.156  1.00  0.00     0.010 A 
ATOM     35  C   UNL A   1      37.861  32.312  32.248  1.00  0.00    -0.014 A 
BRANCH  35  36
ATOM     36  C   UNL A   1      38.956  31.389  31.972  1.00  0.00     0.031 A 
ATOM     37  C   UNL A   1      39.706  31.035  33.203  1.00  0.00     0.074 A 
ATOM     38  C   UNL A   1      39.212  30.847  30.762  1.00  0.00     0.049 A 
ATOM     39  N   UNL A   1      40.908  31.390  33.518  1.00  0.00    -0.248 NA
ATOM     40  C   UNL A   1      38.976  30.379  34.302  1.00  0.00     0.031 C 
ATOM     41  C   UNL A   1      38.372  30.915  29.562  1.00  0.00     0.029 A 
ATOM     42  N   UNL A   1      40.241  30.035  30.368  1.00  0.00    -0.354 N 
ATOM     43  C   UNL A   1      41.173  30.772  34.737  1.00  0.00     0.074 A 
ATOM     44  C   UNL A   1      39.904  30.349  35.260  1.00  0.00     0.031 C 
ATOM     45  C   UNL A   1      38.790  29.990  28.669  1.00  0.00     0.029 A 
ATOM     46  C   UNL A   1      40.011  29.378  29.161  1.00  0.00     0.049 A 
ATOM     47  H   UNL A   1      41.068  29.926  30.889  1.00  0.00     0.167 HD
ATOM     48  C   UNL A   1      42.443  30.381  35.031  1.00  0.00     0.037 A 
ATOM     49  C   UNL A   1      40.753  28.373  28.633  1.00  0.00     0.037 A 
ATOM     50  C   UNL A   1      43.387  31.013  34.147  1.00  0.00     0.049 A 
ATOM     51  C   UNL A   1      42.104  28.449  29.233  1.00  0.00     0.074 A 
ATOM     52  C   UNL A   1      44.043  32.215  34.038  1.00  0.00     0.029 A 
ATOM     53  N   UNL A   1      43.493  30.376  32.942  1.00  0.00    -0.354 N 
ATOM     54  N   UNL A   1      42.942  29.419  28.997  1.00  0.00    -0.248 NA
ATOM     55  C   UNL A   1      42.426  27.603  30.379  1.00  0.00     0.031 C 
ATOM     56  C   UNL A   1      44.462  32.322  32.678  1.00  0.00     0.029 A 
ATOM     57  C   UNL A   1      44.101  31.158  32.006  1.00  0.00     0.049 A 
ATOM     58  H   UNL A   1      43.169  29.462  32.772  1.00  0.00     0.167 HD
ATOM     59  C   UNL A   1      43.634  29.563  30.181  1.00  0.00     0.074 A 
ATOM     60  C   UNL A   1      43.410  28.326  30.920  1.00  0.00     0.031 C 
ATOM     61  C   UNL A   1      44.028  30.792  30.611  1.00  0.00     0.037 A 
BRANCH  48  62
ATOM     62  C   UNL A   1      42.802  29.047  35.666  1.00  0.00     0.057 A 
ATOM     63  C   UNL A   1      43.749  29.040  36.711  1.00  0.00     0.134 A 
ATOM     64  C   UNL A   1      42.553  27.788  35.085  1.00  0.00     0.134 A 
ATOM     65  F   UNL A   1      44.072  30.172  37.355  1.00  0.00    -0.206 F 
ATOM     66  C   UNL A   1      44.466  27.892  37.072  1.00  0.00     0.040 A 
ATOM     67  C   UNL A   1      43.232  26.626  35.469  1.00  0.00     0.040 A 
ATOM     68  F   UNL A   1      41.721  27.618  34.053  1.00  0.00    -0.206 F 
ATOM     69  C   UNL A   1      44.219  26.682  36.439  1.00  0.00     0.006 A 
ENDBRANCH  48  62
BRANCH  49  70
ATOM     70  C   UNL A   1      40.321  27.186  27.854  1.00  0.00     0.057 A 
ATOM     71  C   UNL A   1      40.879  26.909  26.595  1.00  0.00     0.134 A 
ATOM     72  C   UNL A   1      39.601  26.140  28.450  1.00  0.00     0.134 A 
ATOM     73  F   UNL A   1      41.608  27.834  25.952  1.00  0.00    -0.206 F 
ATOM     74  C   UNL A   1      40.776  25.648  25.992  1.00  0.00     0.040 A 
ATOM     75  C   UNL A   1      39.484  24.877  27.856  1.00  0.00     0.040 A 
ATOM     76  F   UNL A   1      39.068  26.274  29.673  1.00  0.00    -0.206 F 
ATOM     77  C   UNL A   1      40.092  24.621  26.633  1.00  0.00     0.006 A 
ENDBRANCH  49  70
BRANCH  61  78
ATOM     78  C   UNL A   1      44.229  31.870  29.602  1.00  0.00     0.057 A 
ATOM     79  C   UNL A   1      43.261  32.814  29.241  1.00  0.00     0.134 A 
ATOM     80  C   UNL A   1      45.517  32.031  29.076  1.00  0.00     0.134 A 
ATOM     81  F   UNL A   1      42.021  32.763  29.749  1.00  0.00    -0.206 F 
ATOM     82  C   UNL A   1      43.568  33.876  28.386  1.00  0.00     0.040 A 
ATOM     83  C   UNL A   1      45.844  33.103  28.249  1.00  0.00     0.040 A 
ATOM     84  F   UNL A   1      46.495  31.174  29.412  1.00  0.00    -0.206 F 
ATOM     85  C   UNL A   1      44.866  34.030  27.900  1.00  0.00     0.006 A 
ENDBRANCH  61  78
ENDBRANCH  35  36
ENDBRANCH  28  30
ENDBRANCH  27  28
ENDBRANCH  26  27
ENDBRANCH   1  26
TORSDOF 14
ENDMDL
MODEL 3
REMARK VINA RESULT:     -11.7      4.938      7.499
REMARK SMILES Cc1c(C(=O)OCCOC(=O)c2ccc(-c3c4nc(c(-c5c(F)cccc5F)c5ccc([nH]5)c(-c5c(F)cccc5F)c5nc(c(-c6c(F)cccc6F)c6ccc3[nH]6)C=C5)C=C4)cc2)sc2ncnc(NCc3cn4c(n3)SCC4)c12
REMARK SMILES IDX 7 1 6 2 4 3 5 4 3 5 1 6 2 7 82 8 66 9 67 10 71 11 68 12
REMARK SMILES IDX 70 13 69 14 72 15 73 17 74 18 75 19 78 20 76 21 77 22 81 23
REMARK SMILES IDX 79 24 80 25 8 26 9 27 10 28 11 29 12 30 13 31 65 32 14 33
REMARK SMILES IDX 64 34 15 35 16 36 17 37 58 38 18 39 63 40 57 41 59 42 19 43
REMARK SMILES IDX 62 44 56 45 55 46 20 48 46 49 29 50 45 51 30 52 33 53 44 54
REMARK SMILES IDX 60 55 31 56 32 57 43 59 61 60 34 61 21 62 22 63 27 64 23 65
REMARK SMILES IDX 24 66 26 67 28 68 25 69 47 70 48 71 53 72 49 73 50 74 52 75
REMARK SMILES IDX 54 76 51 77 35 78 36 79 41 80 37 81 38 82 40 83 42 84 39 85
REMARK H PARENT 72 16 59 47 33 58
REMARK Flexibility Score: inf
ROOT
ATOM      1  C   UNL A   1      33.673  31.287  27.585  1.00  0.00     0.275 C 
ENDROOT
BRANCH   1   2
ATOM      2  O   UNL A   1      33.762  32.180  28.705  1.00  0.00    -0.458 OA
BRANCH   2   3
ATOM      3  C   UNL A   1      34.139  33.456  28.405  1.00  0.00     0.348 C 
ATOM      4  O   UNL A   1      34.402  33.842  27.268  1.00  0.00    -0.245 OA
BRANCH   3   5
ATOM      5  C   UNL A   1      34.093  34.321  29.571  1.00  0.00     0.118 A 
ATOM      6  C   UNL A   1      35.331  32.772  31.113  1.00  0.00     0.047 C 
ATOM      7  C   UNL A   1      34.549  34.015  30.852  1.00  0.00    -0.012 A 
ATOM      8  C   UNL A   1      34.188  35.043  31.829  1.00  0.00     0.058 A 
ATOM      9  S   UNL A   1      33.449  35.888  29.478  1.00  0.00    -0.108 S 
ATOM     10  C   UNL A   1      33.634  36.128  31.149  1.00  0.00     0.129 A 
ATOM     11  C   UNL A   1      34.257  35.203  33.241  1.00  0.00     0.138 A 
ATOM     12  N   UNL A   1      33.217  37.296  31.665  1.00  0.00    -0.225 NA
ATOM     13  N   UNL A   1      33.834  36.381  33.772  1.00  0.00    -0.219 NA
ATOM     14  C   UNL A   1      33.368  37.348  32.980  1.00  0.00     0.225 A 
BRANCH  11  15
ATOM     15  N   UNL A   1      34.608  34.343  34.243  1.00  0.00    -0.364 N 
ATOM     16  H   UNL A   1      33.880  33.738  34.513  1.00  0.00     0.162 HD
BRANCH  15  17
ATOM     17  C   UNL A   1      35.823  34.140  34.985  1.00  0.00     0.172 C 
BRANCH  17  18
ATOM     18  C   UNL A   1      37.038  33.709  34.218  1.00  0.00     0.079 A 
ATOM     19  C   UNL A   1      37.774  34.446  33.294  1.00  0.00     0.113 A 
ATOM     20  N   UNL A   1      37.450  32.380  34.226  1.00  0.00    -0.226 NA
ATOM     21  N   UNL A   1      38.559  33.521  32.690  1.00  0.00    -0.325 N 
ATOM     22  C   UNL A   1      38.341  32.315  33.281  1.00  0.00     0.168 A 
ATOM     23  C   UNL A   1      39.194  33.489  31.385  1.00  0.00     0.135 C 
ATOM     24  S   UNL A   1      38.877  30.995  32.307  1.00  0.00    -0.086 SA
ATOM     25  C   UNL A   1      38.884  32.095  30.833  1.00  0.00     0.100 C 
ENDBRANCH  17  18
ENDBRANCH  15  17
ENDBRANCH  11  15
ENDBRANCH   3   5
ENDBRANCH   2   3
ENDBRANCH   1   2
BRANCH   1  26
ATOM     26  C   UNL A   1      34.648  30.124  27.729  1.00  0.00     0.275 C 
BRANCH  26  27
ATOM     27  O   UNL A   1      35.907  30.506  28.293  1.00  0.00    -0.458 OA
BRANCH  27  28
ATOM     28  C   UNL A   1      36.346  29.680  29.269  1.00  0.00     0.338 C 
ATOM     29  O   UNL A   1      35.872  29.546  30.384  1.00  0.00    -0.246 OA
BRANCH  28  30
ATOM     30  C   UNL A   1      37.637  29.089  28.890  1.00  0.00     0.060 A 
ATOM     31  C   UNL A   1      38.220  28.188  29.782  1.00  0.00     0.016 A 
ATOM     32  C   UNL A   1      38.353  29.605  27.798  1.00  0.00     0.016 A 
ATOM     33  C   UNL A   1      39.562  27.888  29.638  1.00  0.00     0.010 A 
ATOM     34  C   UNL A   1      39.693  29.297  27.654  1.00  0.00     0.010 A 
ATOM     35  C   UNL A   1      40.304  28.484  28.605  1.00  0.00    -0.014 A 
BRANCH  35  36
ATOM     36  C   UNL A   1      41.703  28.096  28.479  1.00  0.00     0.031 A 
ATOM     37  C   UNL A   1      41.858  26.806  27.761  1.00  0.00     0.074 A 
ATOM     38  C   UNL A   1      42.746  28.852  28.885  1.00  0.00     0.049 A 
ATOM     39  N   UNL A   1      42.232  25.673  28.257  1.00  0.00    -0.248 NA
ATOM     40  C   UNL A   1      41.352  26.710  26.380  1.00  0.00     0.031 C 
ATOM     41  C   UNL A   1      42.708  30.243  29.345  1.00  0.00     0.029 A 
ATOM     42  N   UNL A   1      44.084  28.566  28.887  1.00  0.00    -0.354 N 
ATOM     43  C   UNL A   1      42.263  24.787  27.183  1.00  0.00     0.074 A 
ATOM     44  C   UNL A   1      41.525  25.412  26.122  1.00  0.00     0.031 C 
ATOM     45  C   UNL A   1      43.961  30.751  29.343  1.00  0.00     0.029 A 
ATOM     46  C   UNL A   1      44.900  29.686  29.036  1.00  0.00     0.049 A 
ATOM     47  H   UNL A   1      44.438  27.654  28.791  1.00  0.00     0.167 HD
ATOM     48  C   UNL A   1      43.174  23.776  27.171  1.00  0.00     0.037 A 
ATOM     49  C   UNL A   1      46.246  29.734  28.874  1.00  0.00     0.037 A 
ATOM     50  C   UNL A   1      43.735  23.582  28.483  1.00  0.00     0.049 A 
ATOM     51  C   UNL A   1      46.768  28.361  29.051  1.00  0.00     0.074 A 
ATOM     52  C   UNL A   1      43.405  22.942  29.654  1.00  0.00     0.029 A 
ATOM     53  N   UNL A   1      44.744  24.459  28.764  1.00  0.00    -0.354 N 
ATOM     54  N   UNL A   1      46.758  27.729  30.192  1.00  0.00    -0.248 NA
ATOM     55  C   UNL A   1      47.016  27.532  27.875  1.00  0.00     0.031 C 
ATOM     56  C   UNL A   1      44.190  23.551  30.678  1.00  0.00     0.029 A 
ATOM     57  C   UNL A   1      45.021  24.505  30.097  1.00  0.00     0.049 A 
ATOM     58  H   UNL A   1      45.214  24.995  28.084  1.00  0.00     0.167 HD
ATOM     59  C   UNL A   1      46.573  26.408  29.844  1.00  0.00     0.074 A 
ATOM     60  C   UNL A   1      46.916  26.322  28.429  1.00  0.00     0.031 C 
ATOM     61  C   UNL A   1      45.826  25.580  30.625  1.00  0.00     0.037 A 
BRANCH  48  62
ATOM     62  C   UNL A   1      43.987  23.372  25.952  1.00  0.00     0.057 A 
ATOM     63  C   UNL A   1      44.070  22.001  25.631  1.00  0.00     0.134 A 
ATOM     64  C   UNL A   1      44.950  24.185  25.322  1.00  0.00     0.134 A 
ATOM     65  F   UNL A   1      43.207  21.118  26.157  1.00  0.00    -0.206 F 
ATOM     66  C   UNL A   1      45.093  21.472  24.834  1.00  0.00     0.040 A 
ATOM     67  C   UNL A   1      45.950  23.673  24.488  1.00  0.00     0.040 A 
ATOM     68  F   UNL A   1      45.048  25.499  25.548  1.00  0.00    -0.206 F 
ATOM     69  C   UNL A   1      46.048  22.309  24.271  1.00  0.00     0.006 A 
ENDBRANCH  48  62
BRANCH  49  70
ATOM     70  C   UNL A   1      47.094  30.815  28.316  1.00  0.00     0.057 A 
ATOM     71  C   UNL A   1      46.853  31.329  27.030  1.00  0.00     0.134 A 
ATOM     72  C   UNL A   1      47.941  31.579  29.134  1.00  0.00     0.134 A 
ATOM     73  F   UNL A   1      46.037  30.687  26.181  1.00  0.00    -0.206 F 
ATOM     74  C   UNL A   1      47.377  32.558  26.606  1.00  0.00     0.040 A 
ATOM     75  C   UNL A   1      48.476  32.805  28.720  1.00  0.00     0.040 A 
ATOM     76  F   UNL A   1      48.201  31.213  30.396  1.00  0.00    -0.206 F 
ATOM     77  C   UNL A   1      48.176  33.310  27.460  1.00  0.00     0.006 A 
ENDBRANCH  49  70
BRANCH  61  78
ATOM     78  C   UNL A   1      45.691  25.900  32.075  1.00  0.00     0.057 A 
ATOM     79  C   UNL A   1      46.679  25.662  33.038  1.00  0.00     0.134 A 
ATOM     80  C   UNL A   1      44.553  26.608  32.477  1.00  0.00     0.134 A 
ATOM     81  F   UNL A   1      47.824  25.044  32.718  1.00  0.00    -0.206 F 
ATOM     82  C   UNL A   1      46.531  26.113  34.353  1.00  0.00     0.040 A 
ATOM     83  C   UNL A   1      44.408  27.090  33.776  1.00  0.00     0.040 A 
ATOM     84  F   UNL A   1      43.587  26.893  31.589  1.00  0.00    -0.206 F 
ATOM     85  C   UNL A   1      45.400  26.841  34.720  1.00  0.00     0.006 A 
ENDBRANCH  61  78
ENDBRANCH  35  36
ENDBRANCH  28  30
ENDBRANCH  27  28
ENDBRANCH  26  27
ENDBRANCH   1  26
TORSDOF 14
ENDMDL
