MODEL 1
REMARK VINA RESULT:     -13.7      0.000      0.000
REMARK SMILES C[C@]1(C(=O)OCCOC(=O)c2ccc(-c3c4nc(c(-c5c(F)cccc5F)c5ccc([nH]5)c(-c5c(F)cccc5F)c5nc(c(-c6c(F)cccc6F)c6ccc3[nH]6)C=C5)C=C4)cc2)[NH2+]C2(C(=O)c3ccccc3C2=O)[C@@H]2C(=O)N(c3ccccc3)C(=O)[C@H]21
REMARK SMILES IDX 7 1 6 2 5 3 3 4 4 5 2 6 1 7 65 8 89 9 66 10 77 13 87 14
REMARK SMILES IDX 67 15 75 16 78 17 80 18 88 19 68 20 69 21 74 22 76 23 79 24
REMARK SMILES IDX 70 25 73 26 71 27 72 28 81 29 82 30 86 31 83 32 85 33 84 34
REMARK SMILES IDX 8 35 9 36 10 37 11 38 12 39 64 40 13 41 63 42 14 43 15 44
REMARK SMILES IDX 16 45 57 46 17 47 62 48 56 49 58 50 18 51 61 52 55 53 54 54
REMARK SMILES IDX 19 56 45 57 28 58 44 59 29 60 32 61 43 62 59 63 30 64 31 65
REMARK SMILES IDX 42 67 60 68 33 69 20 70 21 71 26 72 22 73 23 74 25 75 27 76
REMARK SMILES IDX 24 77 46 78 47 79 52 80 48 81 49 82 51 83 53 84 50 85 34 86
REMARK SMILES IDX 35 87 40 88 36 89 37 90 39 91 41 92 38 93
REMARK H PARENT 65 11 65 12 58 55 32 66
REMARK Flexibility Score: inf
ROOT
ATOM      1  C   UNL A   1      39.014  20.652  25.800  1.00  0.00     0.275 C 
ENDROOT
BRANCH   1   2
ATOM      2  C   UNL A   1      38.080  20.995  24.640  1.00  0.00     0.274 C 
BRANCH   2   3
ATOM      3  O   UNL A   1      37.788  22.405  24.616  1.00  0.00    -0.457 OA
BRANCH   3   4
ATOM      4  C   UNL A   1      36.647  22.809  23.994  1.00  0.00     0.368 C 
ATOM      5  O   UNL A   1      36.493  22.792  22.780  1.00  0.00    -0.245 OA
BRANCH   4   6
ATOM      6  C   UNL A   1      35.600  23.398  24.995  1.00  0.00     0.205 C 
ATOM      7  C   UNL A   1      36.220  23.790  26.335  1.00  0.00     0.093 C 
ATOM      8  N   UNL A   1      34.852  24.577  24.417  1.00  0.00    -0.313 N 
ATOM      9  C   UNL A   1      34.489  22.411  25.203  1.00  0.00     0.172 C 
ATOM     10  C   UNL A   1      33.484  24.088  23.982  1.00  0.00     0.237 C 
ATOM     11  H   UNL A   1      35.360  24.950  23.614  1.00  0.00     0.348 HD
ATOM     12  H   UNL A   1      34.762  25.318  25.112  1.00  0.00     0.348 HD
ATOM     13  C   UNL A   1      33.671  22.605  23.945  1.00  0.00     0.177 C 
ATOM     14  C   UNL A   1      34.642  20.939  25.254  1.00  0.00     0.244 C 
ATOM     15  C   UNL A   1      32.423  24.652  24.924  1.00  0.00     0.232 C 
ATOM     16  C   UNL A   1      33.130  24.722  22.637  1.00  0.00     0.232 C 
ATOM     17  C   UNL A   1      32.718  21.472  24.094  1.00  0.00     0.245 C 
ATOM     18  N   UNL A   1      33.485  20.449  24.660  1.00  0.00    -0.250 N 
ATOM     19  O   UNL A   1      35.562  20.356  25.798  1.00  0.00    -0.273 OA
ATOM     20  O   UNL A   1      32.295  24.426  26.114  1.00  0.00    -0.286 OA
ATOM     21  C   UNL A   1      31.640  25.644  24.191  1.00  0.00     0.036 A 
ATOM     22  C   UNL A   1      32.056  25.694  22.867  1.00  0.00     0.036 A 
ATOM     23  O   UNL A   1      33.615  24.493  21.544  1.00  0.00    -0.286 OA
ATOM     24  O   UNL A   1      31.573  21.470  23.681  1.00  0.00    -0.273 OA
ATOM     25  C   UNL A   1      30.654  26.478  24.682  1.00  0.00     0.013 A 
ATOM     26  C   UNL A   1      31.493  26.579  21.968  1.00  0.00     0.013 A 
ATOM     27  C   UNL A   1      30.071  27.377  23.786  1.00  0.00     0.001 A 
ATOM     28  C   UNL A   1      30.486  27.426  22.441  1.00  0.00     0.001 A 
BRANCH  18  29
ATOM     29  C   UNL A   1      33.223  19.068  24.561  1.00  0.00     0.052 A 
ATOM     30  C   UNL A   1      32.789  18.344  25.681  1.00  0.00     0.027 A 
ATOM     31  C   UNL A   1      33.526  18.377  23.382  1.00  0.00     0.027 A 
ATOM     32  C   UNL A   1      32.671  16.955  25.633  1.00  0.00     0.002 A 
ATOM     33  C   UNL A   1      33.449  16.981  23.349  1.00  0.00     0.002 A 
ATOM     34  C   UNL A   1      33.020  16.274  24.471  1.00  0.00     0.000 A 
ENDBRANCH  18  29
ENDBRANCH   4   6
ENDBRANCH   3   4
ENDBRANCH   2   3
ENDBRANCH   1   2
BRANCH   1  35
ATOM     35  O   UNL A   1      39.792  19.481  25.499  1.00  0.00    -0.458 OA
BRANCH  35  36
ATOM     36  C   UNL A   1      41.067  19.513  25.947  1.00  0.00     0.338 C 
ATOM     37  O   UNL A   1      41.942  18.682  25.793  1.00  0.00    -0.246 OA
BRANCH  36  38
ATOM     38  C   UNL A   1      41.321  20.819  26.562  1.00  0.00     0.060 A 
ATOM     39  C   UNL A   1      41.284  20.995  27.937  1.00  0.00     0.016 A 
ATOM     40  C   UNL A   1      41.711  21.862  25.731  1.00  0.00     0.016 A 
ATOM     41  C   UNL A   1      41.618  22.248  28.460  1.00  0.00     0.010 A 
ATOM     42  C   UNL A   1      42.143  23.070  26.247  1.00  0.00     0.010 A 
ATOM     43  C   UNL A   1      42.062  23.291  27.619  1.00  0.00    -0.014 A 
BRANCH  43  44
ATOM     44  C   UNL A   1      42.441  24.615  28.161  1.00  0.00     0.031 A 
ATOM     45  C   UNL A   1      43.884  24.945  28.441  1.00  0.00     0.074 A 
ATOM     46  C   UNL A   1      41.467  25.502  28.433  1.00  0.00     0.049 A 
ATOM     47  N   UNL A   1      44.406  26.076  28.846  1.00  0.00    -0.248 NA
ATOM     48  C   UNL A   1      44.868  23.861  28.282  1.00  0.00     0.031 C 
ATOM     49  C   UNL A   1      40.029  25.245  28.303  1.00  0.00     0.029 A 
ATOM     50  N   UNL A   1      41.535  26.803  28.854  1.00  0.00    -0.354 N 
ATOM     51  C   UNL A   1      45.769  25.836  28.982  1.00  0.00     0.074 A 
ATOM     52  C   UNL A   1      45.983  24.435  28.709  1.00  0.00     0.031 C 
ATOM     53  C   UNL A   1      39.357  26.377  28.559  1.00  0.00     0.029 A 
ATOM     54  C   UNL A   1      40.311  27.423  28.909  1.00  0.00     0.049 A 
ATOM     55  H   UNL A   1      42.379  27.250  29.093  1.00  0.00     0.167 HD
ATOM     56  C   UNL A   1      46.759  26.715  29.265  1.00  0.00     0.037 A 
ATOM     57  C   UNL A   1      40.001  28.701  29.189  1.00  0.00     0.037 A 
ATOM     58  C   UNL A   1      46.532  28.112  29.522  1.00  0.00     0.049 A 
ATOM     59  C   UNL A   1      41.118  29.660  29.493  1.00  0.00     0.074 A 
ATOM     60  C   UNL A   1      47.457  29.112  29.765  1.00  0.00     0.029 A 
ATOM     61  N   UNL A   1      45.277  28.705  29.577  1.00  0.00    -0.354 N 
ATOM     62  N   UNL A   1      42.411  29.445  29.517  1.00  0.00    -0.248 NA
ATOM     63  C   UNL A   1      40.730  31.041  29.801  1.00  0.00     0.031 C 
ATOM     64  C   UNL A   1      46.759  30.299  30.013  1.00  0.00     0.029 A 
ATOM     65  C   UNL A   1      45.402  30.052  29.870  1.00  0.00     0.049 A 
ATOM     66  H   UNL A   1      44.424  28.235  29.429  1.00  0.00     0.167 HD
ATOM     67  C   UNL A   1      42.994  30.667  29.821  1.00  0.00     0.074 A 
ATOM     68  C   UNL A   1      41.911  31.624  29.942  1.00  0.00     0.031 C 
ATOM     69  C   UNL A   1      44.304  30.977  29.991  1.00  0.00     0.037 A 
BRANCH  56  70
ATOM     70  C   UNL A   1      48.168  26.190  29.288  1.00  0.00     0.057 A 
ATOM     71  C   UNL A   1      48.947  26.158  28.124  1.00  0.00     0.134 A 
ATOM     72  C   UNL A   1      48.756  25.701  30.465  1.00  0.00     0.134 A 
ATOM     73  F   UNL A   1      48.450  26.599  26.958  1.00  0.00    -0.206 F 
ATOM     74  C   UNL A   1      50.255  25.668  28.131  1.00  0.00     0.040 A 
ATOM     75  C   UNL A   1      50.072  25.239  30.492  1.00  0.00     0.040 A 
ATOM     76  F   UNL A   1      48.072  25.707  31.619  1.00  0.00    -0.206 F 
ATOM     77  C   UNL A   1      50.825  25.216  29.320  1.00  0.00     0.006 A 
ENDBRANCH  56  70
BRANCH  57  78
ATOM     78  C   UNL A   1      38.589  29.157  29.146  1.00  0.00     0.057 A 
ATOM     79  C   UNL A   1      37.770  29.115  30.279  1.00  0.00     0.134 A 
ATOM     80  C   UNL A   1      38.027  29.656  27.964  1.00  0.00     0.134 A 
ATOM     81  F   UNL A   1      38.241  28.632  31.439  1.00  0.00    -0.206 F 
ATOM     82  C   UNL A   1      36.446  29.554  30.242  1.00  0.00     0.040 A 
ATOM     83  C   UNL A   1      36.714  30.127  27.919  1.00  0.00     0.040 A 
ATOM     84  F   UNL A   1      38.764  29.731  26.846  1.00  0.00    -0.206 F 
ATOM     85  C   UNL A   1      35.918  30.074  29.061  1.00  0.00     0.006 A 
ENDBRANCH  57  78
BRANCH  69  86
ATOM     86  C   UNL A   1      44.623  32.410  30.299  1.00  0.00     0.057 A 
ATOM     87  C   UNL A   1      44.823  33.333  29.264  1.00  0.00     0.134 A 
ATOM     88  C   UNL A   1      44.741  32.875  31.615  1.00  0.00     0.134 A 
ATOM     89  F   UNL A   1      44.736  32.950  27.982  1.00  0.00    -0.206 F 
ATOM     90  C   UNL A   1      45.124  34.669  29.528  1.00  0.00     0.040 A 
ATOM     91  C   UNL A   1      45.009  34.216  31.891  1.00  0.00     0.040 A 
ATOM     92  F   UNL A   1      44.547  32.043  32.650  1.00  0.00    -0.206 F 
ATOM     93  C   UNL A   1      45.206  35.116  30.845  1.00  0.00     0.006 A 
ENDBRANCH  69  86
ENDBRANCH  43  44
ENDBRANCH  36  38
ENDBRANCH  35  36
ENDBRANCH   1  35
TORSDOF 12
ENDMDL
MODEL 2
REMARK VINA RESULT:     -13.6      3.897      9.276
REMARK SMILES C[C@]1(C(=O)OCCOC(=O)c2ccc(-c3c4nc(c(-c5c(F)cccc5F)c5ccc([nH]5)c(-c5c(F)cccc5F)c5nc(c(-c6c(F)cccc6F)c6ccc3[nH]6)C=C5)C=C4)cc2)[NH2+]C2(C(=O)c3ccccc3C2=O)[C@@H]2C(=O)N(c3ccccc3)C(=O)[C@H]21
REMARK SMILES IDX 7 1 6 2 5 3 3 4 4 5 2 6 1 7 65 8 89 9 66 10 77 13 87 14
REMARK SMILES IDX 67 15 75 16 78 17 80 18 88 19 68 20 69 21 74 22 76 23 79 24
REMARK SMILES IDX 70 25 73 26 71 27 72 28 81 29 82 30 86 31 83 32 85 33 84 34
REMARK SMILES IDX 8 35 9 36 10 37 11 38 12 39 64 40 13 41 63 42 14 43 15 44
REMARK SMILES IDX 16 45 57 46 17 47 62 48 56 49 58 50 18 51 61 52 55 53 54 54
REMARK SMILES IDX 19 56 45 57 28 58 44 59 29 60 32 61 43 62 59 63 30 64 31 65
REMARK SMILES IDX 42 67 60 68 33 69 20 70 21 71 26 72 22 73 23 74 25 75 27 76
REMARK SMILES IDX 24 77 46 78 47 79 52 80 48 81 49 82 51 83 53 84 50 85 34 86
REMARK SMILES IDX 35 87 40 88 36 89 37 90 39 91 41 92 38 93
REMARK H PARENT 65 11 65 12 58 55 32 66
REMARK Flexibility Score: inf
ROOT
ATOM      1  C   UNL A   1      32.919  32.150  27.195  1.00  0.00     0.275 C 
ENDROOT
BRANCH   1   2
ATOM      2  C   UNL A   1      32.052  30.893  27.257  1.00  0.00     0.274 C 
BRANCH   2   3
ATOM      3  O   UNL A   1      32.839  29.745  27.626  1.00  0.00    -0.457 OA
BRANCH   3   4
ATOM      4  C   UNL A   1      32.381  28.515  27.264  1.00  0.00     0.368 C 
ATOM      5  O   UNL A   1      31.409  27.976  27.775  1.00  0.00    -0.245 OA
BRANCH   4   6
ATOM      6  C   UNL A   1      33.301  27.826  26.203  1.00  0.00     0.205 C 
ATOM      7  C   UNL A   1      34.652  28.523  26.051  1.00  0.00     0.093 C 
ATOM      8  N   UNL A   1      33.515  26.360  26.494  1.00  0.00    -0.313 N 
ATOM      9  C   UNL A   1      32.592  27.770  24.882  1.00  0.00     0.172 C 
ATOM     10  C   UNL A   1      32.618  25.567  25.564  1.00  0.00     0.237 C 
ATOM     11  H   UNL A   1      33.273  26.159  27.466  1.00  0.00     0.348 HD
ATOM     12  H   UNL A   1      34.493  26.106  26.350  1.00  0.00     0.348 HD
ATOM     13  C   UNL A   1      31.650  26.605  25.094  1.00  0.00     0.177 C 
ATOM     14  C   UNL A   1      31.688  28.810  24.342  1.00  0.00     0.244 C 
ATOM     15  C   UNL A   1      33.475  24.861  24.515  1.00  0.00     0.232 C 
ATOM     16  C   UNL A   1      31.990  24.409  26.339  1.00  0.00     0.232 C 
ATOM     17  C   UNL A   1      30.831  26.723  23.856  1.00  0.00     0.245 C 
ATOM     18  N   UNL A   1      30.714  28.101  23.651  1.00  0.00    -0.250 N 
ATOM     19  O   UNL A   1      31.874  30.010  24.443  1.00  0.00    -0.273 OA
ATOM     20  O   UNL A   1      34.168  25.378  23.657  1.00  0.00    -0.286 OA
ATOM     21  C   UNL A   1      33.447  23.427  24.791  1.00  0.00     0.036 A 
ATOM     22  C   UNL A   1      32.594  23.164  25.856  1.00  0.00     0.036 A 
ATOM     23  O   UNL A   1      31.134  24.457  27.205  1.00  0.00    -0.286 OA
ATOM     24  O   UNL A   1      30.312  25.787  23.275  1.00  0.00    -0.273 OA
ATOM     25  C   UNL A   1      34.167  22.428  24.164  1.00  0.00     0.013 A 
ATOM     26  C   UNL A   1      32.416  21.880  26.336  1.00  0.00     0.013 A 
ATOM     27  C   UNL A   1      33.997  21.124  24.635  1.00  0.00     0.001 A 
ATOM     28  C   UNL A   1      33.128  20.853  25.710  1.00  0.00     0.001 A 
BRANCH  18  29
ATOM     29  C   UNL A   1      29.682  28.746  22.940  1.00  0.00     0.052 A 
ATOM     30  C   UNL A   1      29.984  29.703  21.961  1.00  0.00     0.027 A 
ATOM     31  C   UNL A   1      28.345  28.541  23.299  1.00  0.00     0.027 A 
ATOM     32  C   UNL A   1      28.974  30.454  21.360  1.00  0.00     0.002 A 
ATOM     33  C   UNL A   1      27.339  29.325  22.727  1.00  0.00     0.002 A 
ATOM     34  C   UNL A   1      27.653  30.276  21.757  1.00  0.00     0.000 A 
ENDBRANCH  18  29
ENDBRANCH   4   6
ENDBRANCH   3   4
ENDBRANCH   2   3
ENDBRANCH   1   2
BRANCH   1  35
ATOM     35  O   UNL A   1      32.175  33.304  27.625  1.00  0.00    -0.458 OA
BRANCH  35  36
ATOM     36  C   UNL A   1      32.886  34.205  28.339  1.00  0.00     0.338 C 
ATOM     37  O   UNL A   1      32.528  35.292  28.751  1.00  0.00    -0.246 OA
BRANCH  36  38
ATOM     38  C   UNL A   1      34.178  33.614  28.698  1.00  0.00     0.060 A 
ATOM     39  C   UNL A   1      35.353  33.995  28.067  1.00  0.00     0.016 A 
ATOM     40  C   UNL A   1      34.213  32.732  29.772  1.00  0.00     0.016 A 
ATOM     41  C   UNL A   1      36.560  33.451  28.516  1.00  0.00     0.010 A 
ATOM     42  C   UNL A   1      35.411  32.274  30.288  1.00  0.00     0.010 A 
ATOM     43  C   UNL A   1      36.598  32.596  29.638  1.00  0.00    -0.014 A 
BRANCH  43  44
ATOM     44  C   UNL A   1      37.872  32.032  30.139  1.00  0.00     0.031 A 
ATOM     45  C   UNL A   1      38.580  32.658  31.313  1.00  0.00     0.074 A 
ATOM     46  C   UNL A   1      38.403  30.974  29.500  1.00  0.00     0.049 A 
ATOM     47  N   UNL A   1      39.661  32.255  31.931  1.00  0.00    -0.248 NA
ATOM     48  C   UNL A   1      38.026  33.915  31.843  1.00  0.00     0.031 C 
ATOM     49  C   UNL A   1      37.857  30.359  28.286  1.00  0.00     0.029 A 
ATOM     50  N   UNL A   1      39.504  30.214  29.791  1.00  0.00    -0.354 N 
ATOM     51  C   UNL A   1      39.908  33.204  32.918  1.00  0.00     0.074 A 
ATOM     52  C   UNL A   1      38.923  34.247  32.759  1.00  0.00     0.031 C 
ATOM     53  C   UNL A   1      38.579  29.269  27.985  1.00  0.00     0.029 A 
ATOM     54  C   UNL A   1      39.657  29.134  28.957  1.00  0.00     0.049 A 
ATOM     55  H   UNL A   1      40.124  30.421  30.527  1.00  0.00     0.167 HD
ATOM     56  C   UNL A   1      40.844  33.184  33.896  1.00  0.00     0.037 A 
ATOM     57  C   UNL A   1      40.557  28.136  28.992  1.00  0.00     0.037 A 
ATOM     58  C   UNL A   1      41.812  32.130  34.049  1.00  0.00     0.049 A 
ATOM     59  C   UNL A   1      41.581  28.131  30.092  1.00  0.00     0.074 A 
ATOM     60  C   UNL A   1      42.772  31.970  35.032  1.00  0.00     0.029 A 
ATOM     61  N   UNL A   1      41.942  31.054  33.181  1.00  0.00    -0.354 N 
ATOM     62  N   UNL A   1      41.739  28.978  31.080  1.00  0.00    -0.248 NA
ATOM     63  C   UNL A   1      42.546  27.026  30.084  1.00  0.00     0.031 C 
ATOM     64  C   UNL A   1      43.515  30.823  34.731  1.00  0.00     0.029 A 
ATOM     65  C   UNL A   1      42.981  30.238  33.593  1.00  0.00     0.049 A 
ATOM     66  H   UNL A   1      41.379  30.897  32.389  1.00  0.00     0.167 HD
ATOM     67  C   UNL A   1      42.808  28.498  31.825  1.00  0.00     0.074 A 
ATOM     68  C   UNL A   1      43.238  27.269  31.188  1.00  0.00     0.031 C 
ATOM     69  C   UNL A   1      43.389  29.023  32.933  1.00  0.00     0.037 A 
BRANCH  56  70
ATOM     70  C   UNL A   1      40.845  34.322  34.879  1.00  0.00     0.057 A 
ATOM     71  C   UNL A   1      40.073  34.271  36.047  1.00  0.00     0.134 A 
ATOM     72  C   UNL A   1      41.604  35.483  34.665  1.00  0.00     0.134 A 
ATOM     73  F   UNL A   1      39.313  33.198  36.315  1.00  0.00    -0.206 F 
ATOM     74  C   UNL A   1      40.061  35.324  36.965  1.00  0.00     0.040 A 
ATOM     75  C   UNL A   1      41.626  36.528  35.590  1.00  0.00     0.040 A 
ATOM     76  F   UNL A   1      42.374  35.599  33.572  1.00  0.00    -0.206 F 
ATOM     77  C   UNL A   1      40.848  36.452  36.743  1.00  0.00     0.006 A 
ENDBRANCH  56  70
BRANCH  57  78
ATOM     78  C   UNL A   1      40.498  27.038  27.993  1.00  0.00     0.057 A 
ATOM     79  C   UNL A   1      41.214  27.101  26.793  1.00  0.00     0.134 A 
ATOM     80  C   UNL A   1      39.729  25.892  28.224  1.00  0.00     0.134 A 
ATOM     81  F   UNL A   1      41.958  28.180  26.503  1.00  0.00    -0.206 F 
ATOM     82  C   UNL A   1      41.169  26.066  25.859  1.00  0.00     0.040 A 
ATOM     83  C   UNL A   1      39.698  24.834  27.313  1.00  0.00     0.040 A 
ATOM     84  F   UNL A   1      39.027  25.767  29.361  1.00  0.00    -0.206 F 
ATOM     85  C   UNL A   1      40.418  24.922  26.125  1.00  0.00     0.006 A 
ENDBRANCH  57  78
BRANCH  69  86
ATOM     86  C   UNL A   1      44.529  28.250  33.526  1.00  0.00     0.057 A 
ATOM     87  C   UNL A   1      45.850  28.531  33.154  1.00  0.00     0.134 A 
ATOM     88  C   UNL A   1      44.322  27.224  34.458  1.00  0.00     0.134 A 
ATOM     89  F   UNL A   1      46.116  29.492  32.258  1.00  0.00    -0.206 F 
ATOM     90  C   UNL A   1      46.924  27.822  33.691  1.00  0.00     0.040 A 
ATOM     91  C   UNL A   1      45.391  26.531  35.027  1.00  0.00     0.040 A 
ATOM     92  F   UNL A   1      43.081  26.917  34.866  1.00  0.00    -0.206 F 
ATOM     93  C   UNL A   1      46.696  26.827  34.639  1.00  0.00     0.006 A 
ENDBRANCH  69  86
ENDBRANCH  43  44
ENDBRANCH  36  38
ENDBRANCH  35  36
ENDBRANCH   1  35
TORSDOF 12
ENDMDL
MODEL 3
REMARK VINA RESULT:     -13.5      2.875      8.293
REMARK SMILES C[C@]1(C(=O)OCCOC(=O)c2ccc(-c3c4nc(c(-c5c(F)cccc5F)c5ccc([nH]5)c(-c5c(F)cccc5F)c5nc(c(-c6c(F)cccc6F)c6ccc3[nH]6)C=C5)C=C4)cc2)[NH2+]C2(C(=O)c3ccccc3C2=O)[C@@H]2C(=O)N(c3ccccc3)C(=O)[C@H]21
REMARK SMILES IDX 7 1 6 2 5 3 3 4 4 5 2 6 1 7 65 8 89 9 66 10 77 13 87 14
REMARK SMILES IDX 67 15 75 16 78 17 80 18 88 19 68 20 69 21 74 22 76 23 79 24
REMARK SMILES IDX 70 25 73 26 71 27 72 28 81 29 82 30 86 31 83 32 85 33 84 34
REMARK SMILES IDX 8 35 9 36 10 37 11 38 12 39 64 40 13 41 63 42 14 43 15 44
REMARK SMILES IDX 16 45 57 46 17 47 62 48 56 49 58 50 18 51 61 52 55 53 54 54
REMARK SMILES IDX 19 56 45 57 28 58 44 59 29 60 32 61 43 62 59 63 30 64 31 65
REMARK SMILES IDX 42 67 60 68 33 69 20 70 21 71 26 72 22 73 23 74 25 75 27 76
REMARK SMILES IDX 24 77 46 78 47 79 52 80 48 81 49 82 51 83 53 84 50 85 34 86
REMARK SMILES IDX 35 87 40 88 36 89 37 90 39 91 41 92 38 93
REMARK H PARENT 65 11 65 12 58 55 32 66
REMARK Flexibility Score: inf
ROOT
ATOM      1  C   UNL A   1      34.000  31.336  27.896  1.00  0.00     0.275 C 
ENDROOT
BRANCH   1   2
ATOM      2  C   UNL A   1      32.904  30.412  27.367  1.00  0.00     0.274 C 
BRANCH   2   3
ATOM      3  O   UNL A   1      33.154  29.046  27.751  1.00  0.00    -0.457 OA
BRANCH   3   4
ATOM      4  C   UNL A   1      32.431  28.070  27.138  1.00  0.00     0.368 C 
ATOM      5  O   UNL A   1      31.309  27.733  27.491  1.00  0.00    -0.245 OA
BRANCH   4   6
ATOM      6  C   UNL A   1      33.239  27.353  26.006  1.00  0.00     0.205 C 
ATOM      7  C   UNL A   1      34.657  27.901  25.854  1.00  0.00     0.093 C 
ATOM      8  N   UNL A   1      33.291  25.856  26.196  1.00  0.00    -0.313 N 
ATOM      9  C   UNL A   1      32.495  27.466  24.708  1.00  0.00     0.172 C 
ATOM     10  C   UNL A   1      32.285  25.234  25.247  1.00  0.00     0.237 C 
ATOM     11  H   UNL A   1      33.051  25.620  27.160  1.00  0.00     0.348 HD
ATOM     12  H   UNL A   1      34.228  25.504  26.004  1.00  0.00     0.348 HD
ATOM     13  C   UNL A   1      31.431  26.403  24.875  1.00  0.00     0.177 C 
ATOM     14  C   UNL A   1      31.703  28.636  24.265  1.00  0.00     0.244 C 
ATOM     15  C   UNL A   1      33.029  24.507  24.128  1.00  0.00     0.232 C 
ATOM     16  C   UNL A   1      31.548  24.105  25.967  1.00  0.00     0.232 C 
ATOM     17  C   UNL A   1      30.600  26.695  23.675  1.00  0.00     0.245 C 
ATOM     18  N   UNL A   1      30.637  28.088  23.561  1.00  0.00    -0.250 N 
ATOM     19  O   UNL A   1      32.028  29.797  24.435  1.00  0.00    -0.273 OA
ATOM     20  O   UNL A   1      33.755  24.998  23.283  1.00  0.00    -0.286 OA
ATOM     21  C   UNL A   1      32.843  23.070  24.313  1.00  0.00     0.036 A 
ATOM     22  C   UNL A   1      31.992  22.835  25.386  1.00  0.00     0.036 A 
ATOM     23  O   UNL A   1      30.725  24.191  26.862  1.00  0.00    -0.286 OA
ATOM     24  O   UNL A   1      29.963  25.865  23.053  1.00  0.00    -0.273 OA
ATOM     25  C   UNL A   1      33.428  22.040  23.601  1.00  0.00     0.013 A 
ATOM     26  C   UNL A   1      31.681  21.550  25.789  1.00  0.00     0.013 A 
ATOM     27  C   UNL A   1      33.121  20.735  23.993  1.00  0.00     0.001 A 
ATOM     28  C   UNL A   1      32.254  20.492  25.077  1.00  0.00     0.001 A 
BRANCH  18  29
ATOM     29  C   UNL A   1      29.668  28.892  22.927  1.00  0.00     0.052 A 
ATOM     30  C   UNL A   1      30.044  29.807  21.934  1.00  0.00     0.027 A 
ATOM     31  C   UNL A   1      28.343  28.885  23.378  1.00  0.00     0.027 A 
ATOM     32  C   UNL A   1      29.121  30.710  21.407  1.00  0.00     0.002 A 
ATOM     33  C   UNL A   1      27.431  29.820  22.881  1.00  0.00     0.002 A 
ATOM     34  C   UNL A   1      27.819  30.727  21.895  1.00  0.00     0.000 A 
ENDBRANCH  18  29
ENDBRANCH   4   6
ENDBRANCH   3   4
ENDBRANCH   2   3
ENDBRANCH   1   2
BRANCH   1  35
ATOM     35  O   UNL A   1      35.277  30.675  27.878  1.00  0.00    -0.458 OA
BRANCH  35  36
ATOM     36  C   UNL A   1      35.984  30.771  29.026  1.00  0.00     0.338 C 
ATOM     37  O   UNL A   1      35.606  31.162  30.114  1.00  0.00    -0.246 OA
BRANCH  36  38
ATOM     38  C   UNL A   1      37.308  30.177  28.819  1.00  0.00     0.060 A 
ATOM     39  C   UNL A   1      37.797  29.913  27.548  1.00  0.00     0.016 A 
ATOM     40  C   UNL A   1      38.114  29.985  29.935  1.00  0.00     0.016 A 
ATOM     41  C   UNL A   1      39.100  29.423  27.421  1.00  0.00     0.010 A 
ATOM     42  C   UNL A   1      39.436  29.602  29.809  1.00  0.00     0.010 A 
ATOM     43  C   UNL A   1      39.933  29.276  28.551  1.00  0.00    -0.014 A 
BRANCH  43  44
ATOM     44  C   UNL A   1      41.323  28.781  28.428  1.00  0.00     0.031 A 
ATOM     45  C   UNL A   1      41.597  27.328  28.136  1.00  0.00     0.074 A 
ATOM     46  C   UNL A   1      42.334  29.647  28.620  1.00  0.00     0.049 A 
ATOM     47  N   UNL A   1      42.744  26.735  27.922  1.00  0.00    -0.248 NA
ATOM     48  C   UNL A   1      40.443  26.414  28.114  1.00  0.00     0.031 C 
ATOM     49  C   UNL A   1      42.181  31.050  29.017  1.00  0.00     0.029 A 
ATOM     50  N   UNL A   1      43.687  29.484  28.489  1.00  0.00    -0.354 N 
ATOM     51  C   UNL A   1      42.445  25.389  27.738  1.00  0.00     0.074 A 
ATOM     52  C   UNL A   1      41.026  25.236  27.955  1.00  0.00     0.031 C 
ATOM     53  C   UNL A   1      43.386  31.639  29.016  1.00  0.00     0.029 A 
ATOM     54  C   UNL A   1      44.395  30.649  28.661  1.00  0.00     0.049 A 
ATOM     55  H   UNL A   1      44.110  28.618  28.290  1.00  0.00     0.167 HD
ATOM     56  C   UNL A   1      43.272  24.380  27.375  1.00  0.00     0.037 A 
ATOM     57  C   UNL A   1      45.711  30.888  28.523  1.00  0.00     0.037 A 
ATOM     58  C   UNL A   1      44.683  24.551  27.149  1.00  0.00     0.049 A 
ATOM     59  C   UNL A   1      46.608  29.754  28.112  1.00  0.00     0.074 A 
ATOM     60  C   UNL A   1      45.613  23.619  26.724  1.00  0.00     0.029 A 
ATOM     61  N   UNL A   1      45.368  25.743  27.339  1.00  0.00    -0.354 N 
ATOM     62  N   UNL A   1      46.297  28.509  27.840  1.00  0.00    -0.248 NA
ATOM     63  C   UNL A   1      48.036  30.062  27.984  1.00  0.00     0.031 C 
ATOM     64  C   UNL A   1      46.869  24.235  26.705  1.00  0.00     0.029 A 
ATOM     65  C   UNL A   1      46.712  25.566  27.062  1.00  0.00     0.049 A 
ATOM     66  H   UNL A   1      44.957  26.590  27.630  1.00  0.00     0.167 HD
ATOM     67  C   UNL A   1      47.488  27.889  27.486  1.00  0.00     0.074 A 
ATOM     68  C   UNL A   1      48.520  28.906  27.551  1.00  0.00     0.031 C 
ATOM     69  C   UNL A   1      47.716  26.598  27.142  1.00  0.00     0.037 A 
BRANCH  56  70
ATOM     70  C   UNL A   1      42.663  23.018  27.183  1.00  0.00     0.057 A 
ATOM     71  C   UNL A   1      42.347  22.207  28.280  1.00  0.00     0.134 A 
ATOM     72  C   UNL A   1      42.398  22.500  25.906  1.00  0.00     0.134 A 
ATOM     73  F   UNL A   1      42.582  22.629  29.531  1.00  0.00    -0.206 F 
ATOM     74  C   UNL A   1      41.786  20.938  28.115  1.00  0.00     0.040 A 
ATOM     75  C   UNL A   1      41.808  21.248  25.729  1.00  0.00     0.040 A 
ATOM     76  F   UNL A   1      42.667  23.225  24.809  1.00  0.00    -0.206 F 
ATOM     77  C   UNL A   1      41.505  20.460  26.836  1.00  0.00     0.006 A 
ENDBRANCH  56  70
BRANCH  57  78
ATOM     78  C   UNL A   1      46.249  32.257  28.724  1.00  0.00     0.057 A 
ATOM     79  C   UNL A   1      46.673  32.702  29.981  1.00  0.00     0.134 A 
ATOM     80  C   UNL A   1      46.360  33.153  27.654  1.00  0.00     0.134 A 
ATOM     81  F   UNL A   1      46.578  31.898  31.052  1.00  0.00    -0.206 F 
ATOM     82  C   UNL A   1      47.189  33.984  30.168  1.00  0.00     0.040 A 
ATOM     83  C   UNL A   1      46.902  34.429  27.819  1.00  0.00     0.040 A 
ATOM     84  F   UNL A   1      45.979  32.784  26.422  1.00  0.00    -0.206 F 
ATOM     85  C   UNL A   1      47.316  34.848  29.081  1.00  0.00     0.006 A 
ENDBRANCH  57  78
BRANCH  69  86
ATOM     86  C   UNL A   1      49.128  26.233  26.790  1.00  0.00     0.057 A 
ATOM     87  C   UNL A   1      49.604  26.409  25.484  1.00  0.00     0.134 A 
ATOM     88  C   UNL A   1      50.013  25.700  27.737  1.00  0.00     0.134 A 
ATOM     89  F   UNL A   1      48.805  26.904  24.528  1.00  0.00    -0.206 F 
ATOM     90  C   UNL A   1      50.911  26.074  25.135  1.00  0.00     0.040 A 
ATOM     91  C   UNL A   1      51.332  25.392  27.407  1.00  0.00     0.040 A 
ATOM     92  F   UNL A   1      49.621  25.520  29.008  1.00  0.00    -0.206 F 
ATOM     93  C   UNL A   1      51.783  25.574  26.101  1.00  0.00     0.006 A 
ENDBRANCH  69  86
ENDBRANCH  43  44
ENDBRANCH  36  38
ENDBRANCH  35  36
ENDBRANCH   1  35
TORSDOF 12
ENDMDL
