MODEL 1
REMARK VINA RESULT:     -10.6      0.000      0.000
REMARK SMILES CC1(C)C[C@@H]1[NH2+]Cc1ccc(C(=O)OCCOC(=O)c2ccc(-c3c4nc(c(-c5c(F)cccc5F)c5ccc([nH]5)c(-c5c(F)cccc5F)c5nc(c(-c6c(F)cccc6F)c6ccc3[nH]6)C=C5)C=C4)cc2)cn1
REMARK SMILES IDX 15 1 14 2 12 3 13 4 11 5 8 6 9 7 75 8 10 9 74 10 7 11 6 12
REMARK SMILES IDX 5 15 1 16 2 17 3 18 4 19 16 20 17 21 18 22 19 23 20 24 21 25
REMARK SMILES IDX 73 26 22 27 72 28 23 29 24 30 25 31 66 32 26 33 71 34 65 35
REMARK SMILES IDX 67 36 27 37 70 38 64 39 63 40 28 42 54 43 37 44 53 45 38 46
REMARK SMILES IDX 41 47 52 48 68 49 39 50 40 51 51 53 69 54 42 55 29 56 30 57
REMARK SMILES IDX 35 58 31 59 32 60 34 61 36 62 33 63 55 64 56 65 61 66 57 67
REMARK SMILES IDX 58 68 60 69 62 70 59 71 43 72 44 73 49 74 45 75 46 76 48 77
REMARK SMILES IDX 50 78 47 79
REMARK H PARENT 6 13 6 14 67 41 41 52
REMARK Flexibility Score: inf
ROOT
ATOM      1  C   UNL A   1      34.441  34.032  29.838  1.00  0.00     0.275 C 
ENDROOT
BRANCH   1   2
ATOM      2  O   UNL A   1      33.880  32.941  29.075  1.00  0.00    -0.458 OA
BRANCH   2   3
ATOM      3  C   UNL A   1      34.628  32.551  28.015  1.00  0.00     0.339 C 
ATOM      4  O   UNL A   1      35.594  33.136  27.557  1.00  0.00    -0.246 OA
BRANCH   3   5
ATOM      5  C   UNL A   1      34.203  31.240  27.502  1.00  0.00     0.078 A 
ATOM      6  C   UNL A   1      33.090  28.807  26.869  1.00  0.00     0.094 A 
ATOM      7  C   UNL A   1      34.479  28.913  27.000  1.00  0.00     0.031 A 
ATOM      8  N   UNL A   1      32.276  29.873  26.980  1.00  0.00    -0.254 NA
ATOM      9  C   UNL A   1      35.048  30.153  27.320  1.00  0.00     0.019 A 
ATOM     10  C   UNL A   1      32.848  31.043  27.312  1.00  0.00     0.127 A 
BRANCH   6  11
ATOM     11  C   UNL A   1      32.385  27.491  26.641  1.00  0.00     0.318 C 
BRANCH  11  12
ATOM     12  N   UNL A   1      33.031  26.689  25.605  1.00  0.00    -0.338 N 
ATOM     13  H   UNL A   1      32.300  26.349  24.981  1.00  0.00     0.346 HD
ATOM     14  H   UNL A   1      33.714  27.317  25.180  1.00  0.00     0.346 HD
BRANCH  12  15
ATOM     15  C   UNL A   1      33.811  25.530  26.035  1.00  0.00     0.189 C 
ATOM     16  C   UNL A   1      35.842  24.093  25.331  1.00  0.00     0.017 C 
ATOM     17  C   UNL A   1      34.447  24.574  25.036  1.00  0.00     0.022 C 
ATOM     18  C   UNL A   1      34.127  24.655  23.561  1.00  0.00     0.017 C 
ATOM     19  C   UNL A   1      33.338  24.112  25.961  1.00  0.00     0.078 C 
ENDBRANCH  12  15
ENDBRANCH  11  12
ENDBRANCH   6  11
ENDBRANCH   3   5
ENDBRANCH   2   3
ENDBRANCH   1   2
BRANCH   1  20
ATOM     20  C   UNL A   1      34.411  33.746  31.342  1.00  0.00     0.275 C 
BRANCH  20  21
ATOM     21  O   UNL A   1      34.575  32.339  31.620  1.00  0.00    -0.458 OA
BRANCH  21  22
ATOM     22  C   UNL A   1      35.619  32.038  32.422  1.00  0.00     0.338 C 
ATOM     23  O   UNL A   1      35.757  32.342  33.597  1.00  0.00    -0.246 OA
BRANCH  22  24
ATOM     24  C   UNL A   1      36.599  31.183  31.735  1.00  0.00     0.060 A 
ATOM     25  C   UNL A   1      37.579  30.582  32.509  1.00  0.00     0.016 A 
ATOM     26  C   UNL A   1      36.739  31.217  30.351  1.00  0.00     0.016 A 
ATOM     27  C   UNL A   1      38.797  30.233  31.935  1.00  0.00     0.010 A 
ATOM     28  C   UNL A   1      37.885  30.662  29.757  1.00  0.00     0.010 A 
ATOM     29  C   UNL A   1      38.965  30.221  30.544  1.00  0.00    -0.014 A 
BRANCH  29  30
ATOM     30  C   UNL A   1      40.253  29.745  29.940  1.00  0.00     0.031 A 
ATOM     31  C   UNL A   1      41.451  30.663  29.827  1.00  0.00     0.074 A 
ATOM     32  C   UNL A   1      40.365  28.476  29.490  1.00  0.00     0.049 A 
ATOM     33  N   UNL A   1      42.571  30.488  29.166  1.00  0.00    -0.248 NA
ATOM     34  C   UNL A   1      41.375  31.954  30.527  1.00  0.00     0.031 C 
ATOM     35  C   UNL A   1      39.317  27.453  29.553  1.00  0.00     0.029 A 
ATOM     36  N   UNL A   1      41.417  27.817  28.897  1.00  0.00    -0.354 N 
ATOM     37  C   UNL A   1      43.297  31.665  29.317  1.00  0.00     0.074 A 
ATOM     38  C   UNL A   1      42.486  32.553  30.121  1.00  0.00     0.031 C 
ATOM     39  C   UNL A   1      39.794  26.292  29.090  1.00  0.00     0.029 A 
ATOM     40  C   UNL A   1      41.135  26.512  28.569  1.00  0.00     0.049 A 
ATOM     41  H   UNL A   1      42.289  28.241  28.722  1.00  0.00     0.167 HD
ATOM     42  C   UNL A   1      44.525  31.976  28.832  1.00  0.00     0.037 A 
ATOM     43  C   UNL A   1      41.836  25.598  27.874  1.00  0.00     0.037 A 
ATOM     44  C   UNL A   1      45.357  31.067  28.082  1.00  0.00     0.049 A 
ATOM     45  C   UNL A   1      43.171  25.980  27.310  1.00  0.00     0.074 A 
ATOM     46  C   UNL A   1      46.628  31.279  27.573  1.00  0.00     0.029 A 
ATOM     47  N   UNL A   1      45.008  29.767  27.745  1.00  0.00    -0.354 N 
ATOM     48  N   UNL A   1      43.821  27.112  27.420  1.00  0.00    -0.248 NA
ATOM     49  C   UNL A   1      43.860  24.963  26.505  1.00  0.00     0.031 C 
ATOM     50  C   UNL A   1      47.024  30.128  26.882  1.00  0.00     0.029 A 
ATOM     51  C   UNL A   1      46.027  29.176  27.013  1.00  0.00     0.049 A 
ATOM     52  H   UNL A   1      44.162  29.328  27.989  1.00  0.00     0.167 HD
ATOM     53  C   UNL A   1      45.003  26.939  26.715  1.00  0.00     0.074 A 
ATOM     54  C   UNL A   1      44.991  25.584  26.203  1.00  0.00     0.031 C 
ATOM     55  C   UNL A   1      46.005  27.827  26.507  1.00  0.00     0.037 A 
BRANCH  42  56
ATOM     56  C   UNL A   1      45.040  33.372  29.063  1.00  0.00     0.057 A 
ATOM     57  C   UNL A   1      45.842  33.708  30.161  1.00  0.00     0.134 A 
ATOM     58  C   UNL A   1      44.757  34.391  28.142  1.00  0.00     0.134 A 
ATOM     59  F   UNL A   1      46.147  32.786  31.087  1.00  0.00    -0.206 F 
ATOM     60  C   UNL A   1      46.316  35.009  30.351  1.00  0.00     0.040 A 
ATOM     61  C   UNL A   1      45.253  35.688  28.303  1.00  0.00     0.040 A 
ATOM     62  F   UNL A   1      44.007  34.141  27.057  1.00  0.00    -0.206 F 
ATOM     63  C   UNL A   1      46.028  36.001  29.416  1.00  0.00     0.006 A 
ENDBRANCH  42  56
BRANCH  43  64
ATOM     64  C   UNL A   1      41.257  24.250  27.625  1.00  0.00     0.057 A 
ATOM     65  C   UNL A   1      40.248  24.060  26.676  1.00  0.00     0.134 A 
ATOM     66  C   UNL A   1      41.703  23.121  28.327  1.00  0.00     0.134 A 
ATOM     67  F   UNL A   1      39.761  25.103  25.990  1.00  0.00    -0.206 F 
ATOM     68  C   UNL A   1      39.693  22.800  26.442  1.00  0.00     0.040 A 
ATOM     69  C   UNL A   1      41.184  21.851  28.077  1.00  0.00     0.040 A 
ATOM     70  F   UNL A   1      42.671  23.233  29.247  1.00  0.00    -0.206 F 
ATOM     71  C   UNL A   1      40.168  21.690  27.137  1.00  0.00     0.006 A 
ENDBRANCH  43  64
BRANCH  55  72
ATOM     72  C   UNL A   1      47.188  27.340  25.720  1.00  0.00     0.057 A 
ATOM     73  C   UNL A   1      48.249  26.654  26.324  1.00  0.00     0.134 A 
ATOM     74  C   UNL A   1      47.261  27.557  24.339  1.00  0.00     0.134 A 
ATOM     75  F   UNL A   1      48.250  26.429  27.646  1.00  0.00    -0.206 F 
ATOM     76  C   UNL A   1      49.357  26.232  25.587  1.00  0.00     0.040 A 
ATOM     77  C   UNL A   1      48.348  27.112  23.586  1.00  0.00     0.040 A 
ATOM     78  F   UNL A   1      46.275  28.202  23.695  1.00  0.00    -0.206 F 
ATOM     79  C   UNL A   1      49.405  26.455  24.212  1.00  0.00     0.006 A 
ENDBRANCH  55  72
ENDBRANCH  29  30
ENDBRANCH  22  24
ENDBRANCH  21  22
ENDBRANCH  20  21
ENDBRANCH   1  20
TORSDOF 14
ENDMDL
MODEL 2
REMARK VINA RESULT:     -10.5      3.164      7.706
REMARK SMILES CC1(C)C[C@@H]1[NH2+]Cc1ccc(C(=O)OCCOC(=O)c2ccc(-c3c4nc(c(-c5c(F)cccc5F)c5ccc([nH]5)c(-c5c(F)cccc5F)c5nc(c(-c6c(F)cccc6F)c6ccc3[nH]6)C=C5)C=C4)cc2)cn1
REMARK SMILES IDX 15 1 14 2 12 3 13 4 11 5 8 6 9 7 75 8 10 9 74 10 7 11 6 12
REMARK SMILES IDX 5 15 1 16 2 17 3 18 4 19 16 20 17 21 18 22 19 23 20 24 21 25
REMARK SMILES IDX 73 26 22 27 72 28 23 29 24 30 25 31 66 32 26 33 71 34 65 35
REMARK SMILES IDX 67 36 27 37 70 38 64 39 63 40 28 42 54 43 37 44 53 45 38 46
REMARK SMILES IDX 41 47 52 48 68 49 39 50 40 51 51 53 69 54 42 55 29 56 30 57
REMARK SMILES IDX 35 58 31 59 32 60 34 61 36 62 33 63 55 64 56 65 61 66 57 67
REMARK SMILES IDX 58 68 60 69 62 70 59 71 43 72 44 73 49 74 45 75 46 76 48 77
REMARK SMILES IDX 50 78 47 79
REMARK H PARENT 6 13 6 14 67 41 41 52
REMARK Flexibility Score: inf
ROOT
ATOM      1  C   UNL A   1      34.830  21.032  25.389  1.00  0.00     0.275 C 
ENDROOT
BRANCH   1   2
ATOM      2  O   UNL A   1      34.909  22.285  26.103  1.00  0.00    -0.458 OA
BRANCH   2   3
ATOM      3  C   UNL A   1      33.711  22.827  26.427  1.00  0.00     0.339 C 
ATOM      4  O   UNL A   1      32.821  22.287  27.060  1.00  0.00    -0.246 OA
BRANCH   3   5
ATOM      5  C   UNL A   1      33.616  24.231  26.003  1.00  0.00     0.078 A 
ATOM      6  C   UNL A   1      33.013  26.753  25.084  1.00  0.00     0.094 A 
ATOM      7  C   UNL A   1      34.216  26.150  24.699  1.00  0.00     0.031 A 
ATOM      8  N   UNL A   1      32.161  26.165  25.945  1.00  0.00    -0.254 NA
ATOM      9  C   UNL A   1      34.526  24.867  25.169  1.00  0.00     0.019 A 
ATOM     10  C   UNL A   1      32.474  24.925  26.358  1.00  0.00     0.127 A 
BRANCH   6  11
ATOM     11  C   UNL A   1      32.546  28.079  24.536  1.00  0.00     0.318 C 
BRANCH  11  12
ATOM     12  N   UNL A   1      33.472  29.165  24.852  1.00  0.00    -0.338 N 
ATOM     13  H   UNL A   1      34.364  28.741  25.108  1.00  0.00     0.346 HD
ATOM     14  H   UNL A   1      33.487  29.745  24.013  1.00  0.00     0.346 HD
BRANCH  12  15
ATOM     15  C   UNL A   1      33.099  30.080  25.929  1.00  0.00     0.189 C 
ATOM     16  C   UNL A   1      34.150  31.582  27.752  1.00  0.00     0.017 C 
ATOM     17  C   UNL A   1      33.922  30.199  27.203  1.00  0.00     0.022 C 
ATOM     18  C   UNL A   1      35.040  29.228  27.508  1.00  0.00     0.017 C 
ATOM     19  C   UNL A   1      32.506  29.659  27.237  1.00  0.00     0.078 C 
ENDBRANCH  12  15
ENDBRANCH  11  12
ENDBRANCH   6  11
ENDBRANCH   3   5
ENDBRANCH   2   3
ENDBRANCH   1   2
BRANCH   1  20
ATOM     20  C   UNL A   1      36.217  20.512  25.002  1.00  0.00     0.275 C 
BRANCH  20  21
ATOM     21  O   UNL A   1      37.203  21.566  25.007  1.00  0.00    -0.458 OA
BRANCH  21  22
ATOM     22  C   UNL A   1      38.387  21.230  25.561  1.00  0.00     0.338 C 
ATOM     23  O   UNL A   1      39.020  20.200  25.382  1.00  0.00    -0.246 OA
BRANCH  22  24
ATOM     24  C   UNL A   1      38.928  22.322  26.386  1.00  0.00     0.060 A 
ATOM     25  C   UNL A   1      38.413  23.593  26.184  1.00  0.00     0.016 A 
ATOM     26  C   UNL A   1      40.106  22.163  27.108  1.00  0.00     0.016 A 
ATOM     27  C   UNL A   1      39.185  24.709  26.488  1.00  0.00     0.010 A 
ATOM     28  C   UNL A   1      40.773  23.295  27.604  1.00  0.00     0.010 A 
ATOM     29  C   UNL A   1      40.360  24.592  27.245  1.00  0.00    -0.014 A 
BRANCH  29  30
ATOM     30  C   UNL A   1      41.126  25.816  27.650  1.00  0.00     0.031 A 
ATOM     31  C   UNL A   1      40.490  26.891  28.506  1.00  0.00     0.074 A 
ATOM     32  C   UNL A   1      42.409  25.976  27.258  1.00  0.00     0.049 A 
ATOM     33  N   UNL A   1      40.930  28.094  28.788  1.00  0.00    -0.248 NA
ATOM     34  C   UNL A   1      39.182  26.585  29.104  1.00  0.00     0.031 C 
ATOM     35  C   UNL A   1      43.181  25.021  26.458  1.00  0.00     0.029 A 
ATOM     36  N   UNL A   1      43.303  26.997  27.485  1.00  0.00    -0.354 N 
ATOM     37  C   UNL A   1      39.929  28.705  29.537  1.00  0.00     0.074 A 
ATOM     38  C   UNL A   1      38.853  27.745  29.654  1.00  0.00     0.031 C 
ATOM     39  C   UNL A   1      44.437  25.461  26.321  1.00  0.00     0.029 A 
ATOM     40  C   UNL A   1      44.531  26.791  26.902  1.00  0.00     0.049 A 
ATOM     41  H   UNL A   1      43.083  27.798  28.013  1.00  0.00     0.167 HD
ATOM     42  C   UNL A   1      39.909  29.949  30.078  1.00  0.00     0.037 A 
ATOM     43  C   UNL A   1      45.605  27.595  26.784  1.00  0.00     0.037 A 
ATOM     44  C   UNL A   1      41.008  30.882  30.011  1.00  0.00     0.049 A 
ATOM     45  C   UNL A   1      45.542  28.981  27.350  1.00  0.00     0.074 A 
ATOM     46  C   UNL A   1      41.095  32.154  30.552  1.00  0.00     0.029 A 
ATOM     47  N   UNL A   1      42.218  30.638  29.376  1.00  0.00    -0.354 N 
ATOM     48  N   UNL A   1      44.570  29.559  28.012  1.00  0.00    -0.248 NA
ATOM     49  C   UNL A   1      46.718  29.833  27.134  1.00  0.00     0.031 C 
ATOM     50  C   UNL A   1      42.334  32.700  30.198  1.00  0.00     0.029 A 
ATOM     51  C   UNL A   1      43.045  31.746  29.490  1.00  0.00     0.049 A 
ATOM     52  H   UNL A   1      42.454  29.803  28.914  1.00  0.00     0.167 HD
ATOM     53  C   UNL A   1      45.023  30.837  28.306  1.00  0.00     0.074 A 
ATOM     54  C   UNL A   1      46.367  30.939  27.773  1.00  0.00     0.031 C 
ATOM     55  C   UNL A   1      44.380  31.838  28.956  1.00  0.00     0.037 A 
BRANCH  42  56
ATOM     56  C   UNL A   1      38.646  30.399  30.762  1.00  0.00     0.057 A 
ATOM     57  C   UNL A   1      38.421  30.208  32.131  1.00  0.00     0.134 A 
ATOM     58  C   UNL A   1      37.651  31.074  30.040  1.00  0.00     0.134 A 
ATOM     59  F   UNL A   1      39.326  29.564  32.885  1.00  0.00    -0.206 F 
ATOM     60  C   UNL A   1      37.245  30.641  32.749  1.00  0.00     0.040 A 
ATOM     61  C   UNL A   1      36.485  31.541  30.651  1.00  0.00     0.040 A 
ATOM     62  F   UNL A   1      37.803  31.306  28.726  1.00  0.00    -0.206 F 
ATOM     63  C   UNL A   1      36.276  31.317  32.009  1.00  0.00     0.006 A 
ENDBRANCH  42  56
BRANCH  43  64
ATOM     64  C   UNL A   1      46.808  27.122  26.048  1.00  0.00     0.057 A 
ATOM     65  C   UNL A   1      46.964  27.370  24.680  1.00  0.00     0.134 A 
ATOM     66  C   UNL A   1      47.832  26.416  26.695  1.00  0.00     0.134 A 
ATOM     67  F   UNL A   1      46.009  28.018  23.999  1.00  0.00    -0.206 F 
ATOM     68  C   UNL A   1      48.086  26.923  23.980  1.00  0.00     0.040 A 
ATOM     69  C   UNL A   1      48.975  25.996  26.016  1.00  0.00     0.040 A 
ATOM     70  F   UNL A   1      47.748  26.149  28.006  1.00  0.00    -0.206 F 
ATOM     71  C   UNL A   1      49.100  26.242  24.650  1.00  0.00     0.006 A 
ENDBRANCH  43  64
BRANCH  55  72
ATOM     72  C   UNL A   1      45.143  33.115  29.156  1.00  0.00     0.057 A 
ATOM     73  C   UNL A   1      45.968  33.320  30.269  1.00  0.00     0.134 A 
ATOM     74  C   UNL A   1      45.053  34.151  28.218  1.00  0.00     0.134 A 
ATOM     75  F   UNL A   1      46.084  32.375  31.213  1.00  0.00    -0.206 F 
ATOM     76  C   UNL A   1      46.650  34.524  30.458  1.00  0.00     0.040 A 
ATOM     77  C   UNL A   1      45.755  35.346  28.380  1.00  0.00     0.040 A 
ATOM     78  F   UNL A   1      44.285  34.018  27.124  1.00  0.00    -0.206 F 
ATOM     79  C   UNL A   1      46.549  35.539  29.509  1.00  0.00     0.006 A 
ENDBRANCH  55  72
ENDBRANCH  29  30
ENDBRANCH  22  24
ENDBRANCH  21  22
ENDBRANCH  20  21
ENDBRANCH   1  20
TORSDOF 14
ENDMDL
MODEL 3
REMARK VINA RESULT:     -10.5      4.965      7.485
REMARK SMILES CC1(C)C[C@@H]1[NH2+]Cc1ccc(C(=O)OCCOC(=O)c2ccc(-c3c4nc(c(-c5c(F)cccc5F)c5ccc([nH]5)c(-c5c(F)cccc5F)c5nc(c(-c6c(F)cccc6F)c6ccc3[nH]6)C=C5)C=C4)cc2)cn1
REMARK SMILES IDX 15 1 14 2 12 3 13 4 11 5 8 6 9 7 75 8 10 9 74 10 7 11 6 12
REMARK SMILES IDX 5 15 1 16 2 17 3 18 4 19 16 20 17 21 18 22 19 23 20 24 21 25
REMARK SMILES IDX 73 26 22 27 72 28 23 29 24 30 25 31 66 32 26 33 71 34 65 35
REMARK SMILES IDX 67 36 27 37 70 38 64 39 63 40 28 42 54 43 37 44 53 45 38 46
REMARK SMILES IDX 41 47 52 48 68 49 39 50 40 51 51 53 69 54 42 55 29 56 30 57
REMARK SMILES IDX 35 58 31 59 32 60 34 61 36 62 33 63 55 64 56 65 61 66 57 67
REMARK SMILES IDX 58 68 60 69 62 70 59 71 43 72 44 73 49 74 45 75 46 76 48 77
REMARK SMILES IDX 50 78 47 79
REMARK H PARENT 6 13 6 14 67 41 41 52
REMARK Flexibility Score: inf
ROOT
ATOM      1  C   UNL A   1      34.178  35.619  28.588  1.00  0.00     0.275 C 
ENDROOT
BRANCH   1   2
ATOM      2  O   UNL A   1      34.083  34.262  28.103  1.00  0.00    -0.458 OA
BRANCH   2   3
ATOM      3  C   UNL A   1      34.938  33.391  28.691  1.00  0.00     0.339 C 
ATOM      4  O   UNL A   1      35.613  33.600  29.684  1.00  0.00    -0.246 OA
BRANCH   3   5
ATOM      5  C   UNL A   1      34.902  32.072  28.044  1.00  0.00     0.078 A 
ATOM      6  C   UNL A   1      34.476  29.523  27.103  1.00  0.00     0.094 A 
ATOM      7  C   UNL A   1      35.771  29.916  27.461  1.00  0.00     0.031 A 
ATOM      8  N   UNL A   1      33.433  30.372  27.143  1.00  0.00    -0.254 NA
ATOM      9  C   UNL A   1      35.989  31.215  27.938  1.00  0.00     0.019 A 
ATOM     10  C   UNL A   1      33.669  31.603  27.628  1.00  0.00     0.127 A 
BRANCH   6  11
ATOM     11  C   UNL A   1      34.131  28.112  26.691  1.00  0.00     0.318 C 
BRANCH  11  12
ATOM     12  N   UNL A   1      33.656  28.039  25.311  1.00  0.00    -0.338 N 
ATOM     13  H   UNL A   1      33.526  28.996  24.982  1.00  0.00     0.346 HD
ATOM     14  H   UNL A   1      34.369  27.500  24.820  1.00  0.00     0.346 HD
BRANCH  12  15
ATOM     15  C   UNL A   1      32.409  27.319  25.062  1.00  0.00     0.189 C 
ATOM     16  C   UNL A   1      30.306  27.388  23.558  1.00  0.00     0.017 C 
ATOM     17  C   UNL A   1      31.138  28.037  24.632  1.00  0.00     0.022 C 
ATOM     18  C   UNL A   1      31.047  29.546  24.648  1.00  0.00     0.017 C 
ATOM     19  C   UNL A   1      31.221  27.333  25.972  1.00  0.00     0.078 C 
ENDBRANCH  12  15
ENDBRANCH  11  12
ENDBRANCH   6  11
ENDBRANCH   3   5
ENDBRANCH   2   3
ENDBRANCH   1   2
BRANCH   1  20
ATOM     20  C   UNL A   1      32.903  36.050  29.319  1.00  0.00     0.275 C 
BRANCH  20  21
ATOM     21  O   UNL A   1      32.624  35.202  30.452  1.00  0.00    -0.458 OA
BRANCH  21  22
ATOM     22  C   UNL A   1      32.781  35.794  31.655  1.00  0.00     0.338 C 
ATOM     23  O   UNL A   1      32.147  36.739  32.100  1.00  0.00    -0.246 OA
BRANCH  22  24
ATOM     24  C   UNL A   1      33.790  35.102  32.472  1.00  0.00     0.060 A 
ATOM     25  C   UNL A   1      35.034  35.699  32.595  1.00  0.00     0.016 A 
ATOM     26  C   UNL A   1      33.623  33.773  32.847  1.00  0.00     0.016 A 
ATOM     27  C   UNL A   1      36.154  34.917  32.859  1.00  0.00     0.010 A 
ATOM     28  C   UNL A   1      34.726  33.044  33.323  1.00  0.00     0.010 A 
ATOM     29  C   UNL A   1      36.024  33.584  33.275  1.00  0.00    -0.014 A 
BRANCH  29  30
ATOM     30  C   UNL A   1      37.237  32.787  33.652  1.00  0.00     0.031 A 
ATOM     31  C   UNL A   1      37.943  33.013  34.972  1.00  0.00     0.074 A 
ATOM     32  C   UNL A   1      37.717  31.841  32.815  1.00  0.00     0.049 A 
ATOM     33  N   UNL A   1      39.105  32.559  35.379  1.00  0.00    -0.248 NA
ATOM     34  C   UNL A   1      37.271  33.877  35.954  1.00  0.00     0.031 C 
ATOM     35  C   UNL A   1      37.137  31.475  31.520  1.00  0.00     0.029 A 
ATOM     36  N   UNL A   1      38.801  31.001  32.927  1.00  0.00    -0.354 N 
ATOM     37  C   UNL A   1      39.328  33.133  36.627  1.00  0.00     0.074 A 
ATOM     38  C   UNL A   1      38.187  33.978  36.906  1.00  0.00     0.031 C 
ATOM     39  C   UNL A   1      37.819  30.451  30.995  1.00  0.00     0.029 A 
ATOM     40  C   UNL A   1      38.968  30.172  31.843  1.00  0.00     0.049 A 
ATOM     41  H   UNL A   1      39.400  30.996  33.708  1.00  0.00     0.167 HD
ATOM     42  C   UNL A   1      40.384  32.969  37.464  1.00  0.00     0.037 A 
ATOM     43  C   UNL A   1      39.959  29.321  31.519  1.00  0.00     0.037 A 
ATOM     44  C   UNL A   1      41.490  32.079  37.211  1.00  0.00     0.049 A 
ATOM     45  C   UNL A   1      41.136  29.191  32.437  1.00  0.00     0.074 A 
ATOM     46  C   UNL A   1      42.592  31.822  38.010  1.00  0.00     0.029 A 
ATOM     47  N   UNL A   1      41.630  31.288  36.079  1.00  0.00    -0.354 N 
ATOM     48  N   UNL A   1      41.354  29.777  33.589  1.00  0.00    -0.248 NA
ATOM     49  C   UNL A   1      42.216  28.298  32.000  1.00  0.00     0.031 C 
ATOM     50  C   UNL A   1      43.424  30.919  37.338  1.00  0.00     0.029 A 
ATOM     51  C   UNL A   1      42.811  30.564  36.148  1.00  0.00     0.049 A 
ATOM     52  H   UNL A   1      40.986  31.247  35.337  1.00  0.00     0.167 HD
ATOM     53  C   UNL A   1      42.586  29.311  34.023  1.00  0.00     0.074 A 
ATOM     54  C   UNL A   1      43.055  28.374  33.022  1.00  0.00     0.031 C 
ATOM     55  C   UNL A   1      43.269  29.635  35.147  1.00  0.00     0.037 A 
BRANCH  42  56
ATOM     56  C   UNL A   1      40.419  33.796  38.722  1.00  0.00     0.057 A 
ATOM     57  C   UNL A   1      39.787  33.395  39.905  1.00  0.00     0.134 A 
ATOM     58  C   UNL A   1      41.137  35.000  38.757  1.00  0.00     0.134 A 
ATOM     59  F   UNL A   1      39.075  32.257  39.945  1.00  0.00    -0.206 F 
ATOM     60  C   UNL A   1      39.840  34.173  41.065  1.00  0.00     0.040 A 
ATOM     61  C   UNL A   1      41.226  35.771  39.919  1.00  0.00     0.040 A 
ATOM     62  F   UNL A   1      41.781  35.441  37.665  1.00  0.00    -0.206 F 
ATOM     63  C   UNL A   1      40.567  35.362  41.075  1.00  0.00     0.006 A 
ENDBRANCH  42  56
BRANCH  43  64
ATOM     64  C   UNL A   1      39.903  28.570  30.236  1.00  0.00     0.057 A 
ATOM     65  C   UNL A   1      39.247  27.339  30.145  1.00  0.00     0.134 A 
ATOM     66  C   UNL A   1      40.501  29.068  29.070  1.00  0.00     0.134 A 
ATOM     67  F   UNL A   1      38.677  26.796  31.231  1.00  0.00    -0.206 F 
ATOM     68  C   UNL A   1      39.196  26.623  28.947  1.00  0.00     0.040 A 
ATOM     69  C   UNL A   1      40.426  28.382  27.857  1.00  0.00     0.040 A 
ATOM     70  F   UNL A   1      41.143  30.246  29.086  1.00  0.00    -0.206 F 
ATOM     71  C   UNL A   1      39.779  27.150  27.797  1.00  0.00     0.006 A 
ENDBRANCH  43  64
BRANCH  55  72
ATOM     72  C   UNL A   1      44.581  28.938  35.367  1.00  0.00     0.057 A 
ATOM     73  C   UNL A   1      45.792  29.474  34.912  1.00  0.00     0.134 A 
ATOM     74  C   UNL A   1      44.630  27.716  36.050  1.00  0.00     0.134 A 
ATOM     75  F   UNL A   1      45.812  30.632  34.236  1.00  0.00    -0.206 F 
ATOM     76  C   UNL A   1      47.002  28.802  35.098  1.00  0.00     0.040 A 
ATOM     77  C   UNL A   1      45.837  27.051  36.270  1.00  0.00     0.040 A 
ATOM     78  F   UNL A   1      43.508  27.149  36.519  1.00  0.00    -0.206 F 
ATOM     79  C   UNL A   1      47.027  27.589  35.784  1.00  0.00     0.006 A 
ENDBRANCH  55  72
ENDBRANCH  29  30
ENDBRANCH  22  24
ENDBRANCH  21  22
ENDBRANCH  20  21
ENDBRANCH   1  20
TORSDOF 14
ENDMDL
