MODEL 1
REMARK VINA RESULT:     -11.7      0.000      0.000
REMARK SMILES CC1(C)CN(C(=O)NC[C@H]2CC[C@H](C(=O)OCCOC(=O)c3ccc(-c4c5nc(c(-c6c(F)cccc6F)c6ccc([nH]6)c(-c6c(F)cccc6F)c6nc(c(-c7c(F)cccc7F)c7ccc4[nH]7)C=C6)C=C5)cc3)CC2)CCO1
REMARK SMILES IDX 17 1 16 2 14 3 15 4 13 5 10 6 11 7 77 8 12 9 76 10 9 11 8 12
REMARK SMILES IDX 6 13 7 14 5 16 1 17 2 18 3 19 4 20 80 21 79 22 78 23 18 24
REMARK SMILES IDX 19 25 20 26 21 27 22 28 23 29 75 30 24 31 74 32 25 33 26 34
REMARK SMILES IDX 27 35 68 36 28 37 73 38 67 39 69 40 29 41 72 42 66 43 65 44
REMARK SMILES IDX 30 46 56 47 39 48 55 49 40 50 43 51 54 52 70 53 41 54 42 55
REMARK SMILES IDX 53 57 71 58 44 59 31 60 32 61 37 62 33 63 34 64 36 65 38 66
REMARK SMILES IDX 35 67 57 68 58 69 63 70 59 71 60 72 62 73 64 74 61 75 45 76
REMARK SMILES IDX 46 77 51 78 47 79 48 80 50 81 52 82 49 83
REMARK H PARENT 8 15 69 45 43 56
REMARK Flexibility Score: inf
ROOT
ATOM      1  C   UNL A   1      42.841  20.761  26.125  1.00  0.00     0.274 C 
ENDROOT
BRANCH   1   2
ATOM      2  O   UNL A   1      41.501  20.778  25.601  1.00  0.00    -0.462 OA
BRANCH   2   3
ATOM      3  C   UNL A   1      40.513  21.093  26.477  1.00  0.00     0.309 C 
ATOM      4  O   UNL A   1      40.434  20.682  27.628  1.00  0.00    -0.252 OA
BRANCH   3   5
ATOM      5  C   UNL A   1      39.462  22.006  25.867  1.00  0.00     0.099 C 
ATOM      6  C   UNL A   1      36.803  23.290  25.882  1.00  0.00     0.008 C 
ATOM      7  C   UNL A   1      38.065  24.068  26.279  1.00  0.00     0.006 C 
ATOM      8  C   UNL A   1      37.157  22.226  24.837  1.00  0.00     0.006 C 
ATOM      9  C   UNL A   1      39.134  23.134  26.842  1.00  0.00     0.015 C 
ATOM     10  C   UNL A   1      38.207  21.265  25.389  1.00  0.00     0.015 C 
BRANCH   6  11
ATOM     11  C   UNL A   1      35.673  24.196  25.377  1.00  0.00     0.121 C 
BRANCH  11  12
ATOM     12  N   UNL A   1      35.235  23.791  24.054  1.00  0.00    -0.338 N 
ATOM     13  C   UNL A   1      34.308  24.137  23.153  1.00  0.00     0.317 C 
ATOM     14  O   UNL A   1      34.171  23.323  22.233  1.00  0.00    -0.249 OA
ATOM     15  H   UNL A   1      35.782  23.043  23.720  1.00  0.00     0.165 HD
BRANCH  13  16
ATOM     16  N   UNL A   1      33.583  25.286  23.197  1.00  0.00    -0.320 N 
ATOM     17  C   UNL A   1      30.955  23.721  23.502  1.00  0.00     0.044 C 
ATOM     18  C   UNL A   1      31.202  25.197  23.854  1.00  0.00     0.080 C 
ATOM     19  C   UNL A   1      30.234  25.601  24.970  1.00  0.00     0.044 C 
ATOM     20  C   UNL A   1      32.659  25.447  24.326  1.00  0.00     0.156 C 
ATOM     21  O   UNL A   1      30.881  26.046  22.722  1.00  0.00    -0.372 OA
ATOM     22  C   UNL A   1      31.833  25.969  21.646  1.00  0.00     0.182 C 
ATOM     23  C   UNL A   1      33.260  26.235  22.138  1.00  0.00     0.150 C 
ENDBRANCH  13  16
ENDBRANCH  11  12
ENDBRANCH   6  11
ENDBRANCH   3   5
ENDBRANCH   2   3
ENDBRANCH   1   2
BRANCH   1  24
ATOM     24  C   UNL A   1      43.743  21.745  25.379  1.00  0.00     0.275 C 
BRANCH  24  25
ATOM     25  O   UNL A   1      43.066  22.990  25.124  1.00  0.00    -0.458 OA
BRANCH  25  26
ATOM     26  C   UNL A   1      43.824  24.099  25.259  1.00  0.00     0.338 C 
ATOM     27  O   UNL A   1      44.814  24.412  24.609  1.00  0.00    -0.246 OA
BRANCH  26  28
ATOM     28  C   UNL A   1      43.218  24.993  26.253  1.00  0.00     0.060 A 
ATOM     29  C   UNL A   1      43.717  26.293  26.362  1.00  0.00     0.016 A 
ATOM     30  C   UNL A   1      42.237  24.535  27.133  1.00  0.00     0.016 A 
ATOM     31  C   UNL A   1      43.239  27.148  27.350  1.00  0.00     0.010 A 
ATOM     32  C   UNL A   1      41.757  25.393  28.128  1.00  0.00     0.010 A 
ATOM     33  C   UNL A   1      42.264  26.700  28.248  1.00  0.00    -0.014 A 
BRANCH  33  34
ATOM     34  C   UNL A   1      41.824  27.584  29.352  1.00  0.00     0.031 A 
ATOM     35  C   UNL A   1      42.561  27.563  30.659  1.00  0.00     0.074 A 
ATOM     36  C   UNL A   1      40.786  28.420  29.172  1.00  0.00     0.049 A 
ATOM     37  N   UNL A   1      42.279  28.181  31.777  1.00  0.00    -0.248 NA
ATOM     38  C   UNL A   1      43.777  26.738  30.714  1.00  0.00     0.031 C 
ATOM     39  C   UNL A   1      40.029  28.573  27.930  1.00  0.00     0.029 A 
ATOM     40  N   UNL A   1      40.189  29.298  30.041  1.00  0.00    -0.354 N 
ATOM     41  C   UNL A   1      43.266  27.801  32.677  1.00  0.00     0.074 A 
ATOM     42  C   UNL A   1      44.152  26.894  31.977  1.00  0.00     0.031 C 
ATOM     43  C   UNL A   1      39.065  29.490  28.117  1.00  0.00     0.029 A 
ATOM     44  C   UNL A   1      39.109  29.952  29.502  1.00  0.00     0.049 A 
ATOM     45  H   UNL A   1      40.505  29.445  30.961  1.00  0.00     0.167 HD
ATOM     46  C   UNL A   1      43.416  28.174  33.969  1.00  0.00     0.037 A 
ATOM     47  C   UNL A   1      38.234  30.802  30.072  1.00  0.00     0.037 A 
ATOM     48  C   UNL A   1      42.546  29.090  34.657  1.00  0.00     0.049 A 
ATOM     49  C   UNL A   1      38.391  31.156  31.524  1.00  0.00     0.074 A 
ATOM     50  C   UNL A   1      42.620  29.534  35.966  1.00  0.00     0.029 A 
ATOM     51  N   UNL A   1      41.443  29.706  34.087  1.00  0.00    -0.354 N 
ATOM     52  N   UNL A   1      39.312  30.772  32.374  1.00  0.00    -0.248 NA
ATOM     53  C   UNL A   1      37.379  32.054  32.100  1.00  0.00     0.031 C 
ATOM     54  C   UNL A   1      41.542  30.396  36.197  1.00  0.00     0.029 A 
ATOM     55  C   UNL A   1      40.818  30.515  35.022  1.00  0.00     0.049 A 
ATOM     56  H   UNL A   1      41.146  29.586  33.156  1.00  0.00     0.167 HD
ATOM     57  C   UNL A   1      39.001  31.390  33.578  1.00  0.00     0.074 A 
ATOM     58  C   UNL A   1      37.814  32.187  33.346  1.00  0.00     0.031 C 
ATOM     59  C   UNL A   1      39.640  31.304  34.770  1.00  0.00     0.037 A 
BRANCH  46  60
ATOM     60  C   UNL A   1      44.550  27.562  34.734  1.00  0.00     0.057 A 
ATOM     61  C   UNL A   1      45.803  28.180  34.819  1.00  0.00     0.134 A 
ATOM     62  C   UNL A   1      44.374  26.353  35.419  1.00  0.00     0.134 A 
ATOM     63  F   UNL A   1      46.040  29.330  34.171  1.00  0.00    -0.206 F 
ATOM     64  C   UNL A   1      46.848  27.606  35.546  1.00  0.00     0.040 A 
ATOM     65  C   UNL A   1      45.405  25.781  36.165  1.00  0.00     0.040 A 
ATOM     66  F   UNL A   1      43.195  25.713  35.378  1.00  0.00    -0.206 F 
ATOM     67  C   UNL A   1      46.648  26.407  36.227  1.00  0.00     0.006 A 
ENDBRANCH  46  60
BRANCH  47  68
ATOM     68  C   UNL A   1      37.113  31.355  29.276  1.00  0.00     0.057 A 
ATOM     69  C   UNL A   1      35.973  30.591  29.003  1.00  0.00     0.134 A 
ATOM     70  C   UNL A   1      37.158  32.656  28.762  1.00  0.00     0.134 A 
ATOM     71  F   UNL A   1      35.883  29.330  29.449  1.00  0.00    -0.206 F 
ATOM     72  C   UNL A   1      34.922  31.097  28.236  1.00  0.00     0.040 A 
ATOM     73  C   UNL A   1      36.105  33.183  28.013  1.00  0.00     0.040 A 
ATOM     74  F   UNL A   1      38.225  33.437  28.988  1.00  0.00    -0.206 F 
ATOM     75  C   UNL A   1      34.984  32.400  27.745  1.00  0.00     0.006 A 
ENDBRANCH  47  68
BRANCH  59  76
ATOM     76  C   UNL A   1      39.082  32.110  35.902  1.00  0.00     0.057 A 
ATOM     77  C   UNL A   1      39.432  33.452  36.091  1.00  0.00     0.134 A 
ATOM     78  C   UNL A   1      38.160  31.546  36.792  1.00  0.00     0.134 A 
ATOM     79  F   UNL A   1      40.322  34.043  35.279  1.00  0.00    -0.206 F 
ATOM     80  C   UNL A   1      38.896  34.203  37.138  1.00  0.00     0.040 A 
ATOM     81  C   UNL A   1      37.602  32.292  37.831  1.00  0.00     0.040 A 
ATOM     82  F   UNL A   1      37.780  30.266  36.660  1.00  0.00    -0.206 F 
ATOM     83  C   UNL A   1      37.974  33.624  38.009  1.00  0.00     0.006 A 
ENDBRANCH  59  76
ENDBRANCH  33  34
ENDBRANCH  26  28
ENDBRANCH  25  26
ENDBRANCH  24  25
ENDBRANCH   1  24
TORSDOF 14
ENDMDL
MODEL 2
REMARK VINA RESULT:     -11.6      0.223      1.325
REMARK SMILES CC1(C)CN(C(=O)NC[C@H]2CC[C@H](C(=O)OCCOC(=O)c3ccc(-c4c5nc(c(-c6c(F)cccc6F)c6ccc([nH]6)c(-c6c(F)cccc6F)c6nc(c(-c7c(F)cccc7F)c7ccc4[nH]7)C=C6)C=C5)cc3)CC2)CCO1
REMARK SMILES IDX 17 1 16 2 14 3 15 4 13 5 10 6 11 7 77 8 12 9 76 10 9 11 8 12
REMARK SMILES IDX 6 13 7 14 5 16 1 17 2 18 3 19 4 20 80 21 79 22 78 23 18 24
REMARK SMILES IDX 19 25 20 26 21 27 22 28 23 29 75 30 24 31 74 32 25 33 26 34
REMARK SMILES IDX 27 35 68 36 28 37 73 38 67 39 69 40 29 41 72 42 66 43 65 44
REMARK SMILES IDX 30 46 56 47 39 48 55 49 40 50 43 51 54 52 70 53 41 54 42 55
REMARK SMILES IDX 53 57 71 58 44 59 31 60 32 61 37 62 33 63 34 64 36 65 38 66
REMARK SMILES IDX 35 67 57 68 58 69 63 70 59 71 60 72 62 73 64 74 61 75 45 76
REMARK SMILES IDX 46 77 51 78 47 79 48 80 50 81 52 82 49 83
REMARK H PARENT 8 15 69 45 43 56
REMARK Flexibility Score: inf
ROOT
ATOM      1  C   UNL A   1      42.705  20.828  26.120  1.00  0.00     0.274 C 
ENDROOT
BRANCH   1   2
ATOM      2  O   UNL A   1      41.364  20.977  25.619  1.00  0.00    -0.462 OA
BRANCH   2   3
ATOM      3  C   UNL A   1      40.420  21.350  26.521  1.00  0.00     0.309 C 
ATOM      4  O   UNL A   1      40.415  21.038  27.705  1.00  0.00    -0.252 OA
BRANCH   3   5
ATOM      5  C   UNL A   1      39.318  22.190  25.897  1.00  0.00     0.099 C 
ATOM      6  C   UNL A   1      36.585  23.310  25.891  1.00  0.00     0.008 C 
ATOM      7  C   UNL A   1      37.797  24.168  26.280  1.00  0.00     0.006 C 
ATOM      8  C   UNL A   1      37.007  22.257  24.860  1.00  0.00     0.006 C 
ATOM      9  C   UNL A   1      38.919  23.308  26.857  1.00  0.00     0.015 C 
ATOM     10  C   UNL A   1      38.111  21.368  25.426  1.00  0.00     0.015 C 
BRANCH   6  11
ATOM     11  C   UNL A   1      35.404  24.139  25.372  1.00  0.00     0.121 C 
BRANCH  11  12
ATOM     12  N   UNL A   1      35.061  23.761  24.014  1.00  0.00    -0.338 N 
ATOM     13  C   UNL A   1      34.252  24.171  23.030  1.00  0.00     0.317 C 
ATOM     14  O   UNL A   1      34.137  23.364  22.101  1.00  0.00    -0.249 OA
ATOM     15  H   UNL A   1      35.575  22.969  23.732  1.00  0.00     0.165 HD
BRANCH  13  16
ATOM     16  N   UNL A   1      33.620  25.375  23.006  1.00  0.00    -0.320 N 
ATOM     17  C   UNL A   1      30.916  24.068  23.662  1.00  0.00     0.044 C 
ATOM     18  C   UNL A   1      31.299  25.546  23.839  1.00  0.00     0.080 C 
ATOM     19  C   UNL A   1      30.457  26.136  24.974  1.00  0.00     0.044 C 
ATOM     20  C   UNL A   1      32.804  25.721  24.176  1.00  0.00     0.156 C 
ATOM     21  O   UNL A   1      30.952  26.303  22.651  1.00  0.00    -0.372 OA
ATOM     22  C   UNL A   1      31.806  26.043  21.522  1.00  0.00     0.182 C 
ATOM     23  C   UNL A   1      33.283  26.239  21.880  1.00  0.00     0.150 C 
ENDBRANCH  13  16
ENDBRANCH  11  12
ENDBRANCH   6  11
ENDBRANCH   3   5
ENDBRANCH   2   3
ENDBRANCH   1   2
BRANCH   1  24
ATOM     24  C   UNL A   1      43.680  21.747  25.381  1.00  0.00     0.275 C 
BRANCH  24  25
ATOM     25  O   UNL A   1      43.043  22.973  24.975  1.00  0.00    -0.458 OA
BRANCH  25  26
ATOM     26  C   UNL A   1      43.796  24.086  25.103  1.00  0.00     0.338 C 
ATOM     27  O   UNL A   1      44.774  24.407  24.439  1.00  0.00    -0.246 OA
BRANCH  26  28
ATOM     28  C   UNL A   1      43.200  24.973  26.110  1.00  0.00     0.060 A 
ATOM     29  C   UNL A   1      43.636  26.299  26.160  1.00  0.00     0.016 A 
ATOM     30  C   UNL A   1      42.294  24.488  27.053  1.00  0.00     0.016 A 
ATOM     31  C   UNL A   1      43.169  27.153  27.154  1.00  0.00     0.010 A 
ATOM     32  C   UNL A   1      41.825  25.345  28.053  1.00  0.00     0.010 A 
ATOM     33  C   UNL A   1      42.269  26.679  28.115  1.00  0.00    -0.014 A 
BRANCH  33  34
ATOM     34  C   UNL A   1      41.845  27.567  29.222  1.00  0.00     0.031 A 
ATOM     35  C   UNL A   1      42.613  27.567  30.511  1.00  0.00     0.074 A 
ATOM     36  C   UNL A   1      40.792  28.389  29.060  1.00  0.00     0.049 A 
ATOM     37  N   UNL A   1      42.351  28.192  31.630  1.00  0.00    -0.248 NA
ATOM     38  C   UNL A   1      43.841  26.758  30.544  1.00  0.00     0.031 C 
ATOM     39  C   UNL A   1      40.003  28.521  27.836  1.00  0.00     0.029 A 
ATOM     40  N   UNL A   1      40.205  29.267  29.936  1.00  0.00    -0.354 N 
ATOM     41  C   UNL A   1      43.364  27.832  32.509  1.00  0.00     0.074 A 
ATOM     42  C   UNL A   1      44.244  26.931  31.795  1.00  0.00     0.031 C 
ATOM     43  C   UNL A   1      39.032  29.427  28.038  1.00  0.00     0.029 A 
ATOM     44  C   UNL A   1      39.104  29.902  29.418  1.00  0.00     0.049 A 
ATOM     45  H   UNL A   1      40.541  29.426  30.847  1.00  0.00     0.167 HD
ATOM     46  C   UNL A   1      43.541  28.219  33.794  1.00  0.00     0.037 A 
ATOM     47  C   UNL A   1      38.233  30.747  30.002  1.00  0.00     0.037 A 
ATOM     48  C   UNL A   1      42.676  29.130  34.494  1.00  0.00     0.049 A 
ATOM     49  C   UNL A   1      38.420  31.116  31.446  1.00  0.00     0.074 A 
ATOM     50  C   UNL A   1      42.776  29.587  35.798  1.00  0.00     0.029 A 
ATOM     51  N   UNL A   1      41.552  29.727  33.946  1.00  0.00    -0.354 N 
ATOM     52  N   UNL A   1      39.366  30.751  32.276  1.00  0.00    -0.248 NA
ATOM     53  C   UNL A   1      37.411  32.006  32.039  1.00  0.00     0.031 C 
ATOM     54  C   UNL A   1      41.694  30.438  36.047  1.00  0.00     0.029 A 
ATOM     55  C   UNL A   1      40.940  30.537  34.889  1.00  0.00     0.049 A 
ATOM     56  H   UNL A   1      41.234  29.595  33.024  1.00  0.00     0.167 HD
ATOM     57  C   UNL A   1      39.077  31.376  33.482  1.00  0.00     0.074 A 
ATOM     58  C   UNL A   1      37.875  32.155  33.272  1.00  0.00     0.031 C 
ATOM     59  C   UNL A   1      39.745  31.308  34.659  1.00  0.00     0.037 A 
BRANCH  46  60
ATOM     60  C   UNL A   1      44.701  27.628  34.535  1.00  0.00     0.057 A 
ATOM     61  C   UNL A   1      44.591  26.426  35.245  1.00  0.00     0.134 A 
ATOM     62  C   UNL A   1      45.952  28.257  34.512  1.00  0.00     0.134 A 
ATOM     63  F   UNL A   1      43.415  25.786  35.319  1.00  0.00    -0.206 F 
ATOM     64  C   UNL A   1      45.684  25.878  35.920  1.00  0.00     0.040 A 
ATOM     65  C   UNL A   1      47.056  27.708  35.166  1.00  0.00     0.040 A 
ATOM     66  F   UNL A   1      46.123  29.410  33.847  1.00  0.00    -0.206 F 
ATOM     67  C   UNL A   1      46.923  26.517  35.876  1.00  0.00     0.006 A 
ENDBRANCH  46  60
BRANCH  47  68
ATOM     68  C   UNL A   1      37.085  31.278  29.228  1.00  0.00     0.057 A 
ATOM     69  C   UNL A   1      35.945  30.501  28.998  1.00  0.00     0.134 A 
ATOM     70  C   UNL A   1      37.105  32.572  28.694  1.00  0.00     0.134 A 
ATOM     71  F   UNL A   1      35.878  29.246  29.465  1.00  0.00    -0.206 F 
ATOM     72  C   UNL A   1      34.869  30.987  28.253  1.00  0.00     0.040 A 
ATOM     73  C   UNL A   1      36.028  33.078  27.966  1.00  0.00     0.040 A 
ATOM     74  F   UNL A   1      38.171  33.364  28.879  1.00  0.00    -0.206 F 
ATOM     75  C   UNL A   1      34.907  32.282  27.741  1.00  0.00     0.006 A 
ENDBRANCH  47  68
BRANCH  59  76
ATOM     76  C   UNL A   1      39.205  32.118  35.798  1.00  0.00     0.057 A 
ATOM     77  C   UNL A   1      38.314  31.571  36.729  1.00  0.00     0.134 A 
ATOM     78  C   UNL A   1      39.605  33.447  35.981  1.00  0.00     0.134 A 
ATOM     79  F   UNL A   1      37.882  30.307  36.597  1.00  0.00    -0.206 F 
ATOM     80  C   UNL A   1      37.826  32.324  37.798  1.00  0.00     0.040 A 
ATOM     81  C   UNL A   1      39.140  34.204  37.057  1.00  0.00     0.040 A 
ATOM     82  F   UNL A   1      40.461  34.025  35.126  1.00  0.00    -0.206 F 
ATOM     83  C   UNL A   1      38.244  33.644  37.966  1.00  0.00     0.006 A 
ENDBRANCH  59  76
ENDBRANCH  33  34
ENDBRANCH  26  28
ENDBRANCH  25  26
ENDBRANCH  24  25
ENDBRANCH   1  24
TORSDOF 14
ENDMDL
MODEL 3
REMARK VINA RESULT:     -11.5      4.818      9.935
REMARK SMILES CC1(C)CN(C(=O)NC[C@H]2CC[C@H](C(=O)OCCOC(=O)c3ccc(-c4c5nc(c(-c6c(F)cccc6F)c6ccc([nH]6)c(-c6c(F)cccc6F)c6nc(c(-c7c(F)cccc7F)c7ccc4[nH]7)C=C6)C=C5)cc3)CC2)CCO1
REMARK SMILES IDX 17 1 16 2 14 3 15 4 13 5 10 6 11 7 77 8 12 9 76 10 9 11 8 12
REMARK SMILES IDX 6 13 7 14 5 16 1 17 2 18 3 19 4 20 80 21 79 22 78 23 18 24
REMARK SMILES IDX 19 25 20 26 21 27 22 28 23 29 75 30 24 31 74 32 25 33 26 34
REMARK SMILES IDX 27 35 68 36 28 37 73 38 67 39 69 40 29 41 72 42 66 43 65 44
REMARK SMILES IDX 30 46 56 47 39 48 55 49 40 50 43 51 54 52 70 53 41 54 42 55
REMARK SMILES IDX 53 57 71 58 44 59 31 60 32 61 37 62 33 63 34 64 36 65 38 66
REMARK SMILES IDX 35 67 57 68 58 69 63 70 59 71 60 72 62 73 64 74 61 75 45 76
REMARK SMILES IDX 46 77 51 78 47 79 48 80 50 81 52 82 49 83
REMARK H PARENT 8 15 69 45 43 56
REMARK Flexibility Score: inf
ROOT
ATOM      1  C   UNL A   1      34.553  34.011  30.459  1.00  0.00     0.274 C 
ENDROOT
BRANCH   1   2
ATOM      2  O   UNL A   1      33.779  33.462  29.376  1.00  0.00    -0.462 OA
BRANCH   2   3
ATOM      3  C   UNL A   1      34.480  32.922  28.346  1.00  0.00     0.309 C 
ATOM      4  O   UNL A   1      35.240  33.541  27.610  1.00  0.00    -0.252 OA
BRANCH   3   5
ATOM      5  C   UNL A   1      34.199  31.440  28.163  1.00  0.00     0.099 C 
ATOM      6  C   UNL A   1      34.074  28.999  26.506  1.00  0.00     0.008 C 
ATOM      7  C   UNL A   1      35.231  29.237  27.487  1.00  0.00     0.006 C 
ATOM      8  C   UNL A   1      32.796  29.651  27.044  1.00  0.00     0.006 C 
ATOM      9  C   UNL A   1      35.470  30.729  27.704  1.00  0.00     0.015 C 
ATOM     10  C   UNL A   1      33.005  31.150  27.245  1.00  0.00     0.015 C 
BRANCH   6  11
ATOM     11  C   UNL A   1      33.842  27.514  26.200  1.00  0.00     0.121 C 
BRANCH  11  12
ATOM     12  N   UNL A   1      32.467  27.136  26.474  1.00  0.00    -0.338 N 
ATOM     13  C   UNL A   1      31.692  26.048  26.404  1.00  0.00     0.317 C 
ATOM     14  O   UNL A   1      30.485  26.281  26.534  1.00  0.00    -0.249 OA
ATOM     15  H   UNL A   1      31.955  27.907  26.811  1.00  0.00     0.165 HD
BRANCH  13  16
ATOM     16  N   UNL A   1      32.156  24.782  26.236  1.00  0.00    -0.320 N 
ATOM     17  C   UNL A   1      30.572  24.452  23.623  1.00  0.00     0.044 C 
ATOM     18  C   UNL A   1      31.782  23.625  24.084  1.00  0.00     0.080 C 
ATOM     19  C   UNL A   1      32.514  23.098  22.845  1.00  0.00     0.044 C 
ATOM     20  C   UNL A   1      32.768  24.464  24.940  1.00  0.00     0.156 C 
ATOM     21  O   UNL A   1      31.343  22.452  24.816  1.00  0.00    -0.372 OA
ATOM     22  C   UNL A   1      30.828  22.741  26.128  1.00  0.00     0.182 C 
ATOM     23  C   UNL A   1      31.828  23.556  26.956  1.00  0.00     0.150 C 
ENDBRANCH  13  16
ENDBRANCH  11  12
ENDBRANCH   6  11
ENDBRANCH   3   5
ENDBRANCH   2   3
ENDBRANCH   1   2
BRANCH   1  24
ATOM     24  C   UNL A   1      34.222  33.322  31.784  1.00  0.00     0.275 C 
BRANCH  24  25
ATOM     25  O   UNL A   1      34.941  32.082  31.926  1.00  0.00    -0.458 OA
BRANCH  25  26
ATOM     26  C   UNL A   1      36.084  32.157  32.642  1.00  0.00     0.338 C 
ATOM     27  O   UNL A   1      36.228  32.587  33.779  1.00  0.00    -0.246 OA
BRANCH  26  28
ATOM     28  C   UNL A   1      37.175  31.515  31.897  1.00  0.00     0.060 A 
ATOM     29  C   UNL A   1      38.133  30.799  32.618  1.00  0.00     0.016 A 
ATOM     30  C   UNL A   1      37.309  31.691  30.520  1.00  0.00     0.016 A 
ATOM     31  C   UNL A   1      39.234  30.251  31.969  1.00  0.00     0.010 A 
ATOM     32  C   UNL A   1      38.418  31.142  29.867  1.00  0.00     0.010 A 
ATOM     33  C   UNL A   1      39.391  30.428  30.590  1.00  0.00    -0.014 A 
BRANCH  33  34
ATOM     34  C   UNL A   1      40.610  29.920  29.920  1.00  0.00     0.031 A 
ATOM     35  C   UNL A   1      41.789  30.829  29.732  1.00  0.00     0.074 A 
ATOM     36  C   UNL A   1      40.667  28.640  29.508  1.00  0.00     0.049 A 
ATOM     37  N   UNL A   1      42.906  30.611  29.087  1.00  0.00    -0.248 NA
ATOM     38  C   UNL A   1      41.698  32.159  30.353  1.00  0.00     0.031 C 
ATOM     39  C   UNL A   1      39.610  27.646  29.686  1.00  0.00     0.029 A 
ATOM     40  N   UNL A   1      41.662  27.961  28.850  1.00  0.00    -0.354 N 
ATOM     41  C   UNL A   1      43.642  31.783  29.202  1.00  0.00     0.074 A 
ATOM     42  C   UNL A   1      42.843  32.712  29.973  1.00  0.00     0.031 C 
ATOM     43  C   UNL A   1      40.011  26.482  29.149  1.00  0.00     0.029 A 
ATOM     44  C   UNL A   1      41.330  26.663  28.549  1.00  0.00     0.049 A 
ATOM     45  H   UNL A   1      42.528  28.365  28.616  1.00  0.00     0.167 HD
ATOM     46  C   UNL A   1      44.871  32.058  28.705  1.00  0.00     0.037 A 
ATOM     47  C   UNL A   1      42.002  25.736  27.841  1.00  0.00     0.037 A 
ATOM     48  C   UNL A   1      45.671  31.127  27.956  1.00  0.00     0.049 A 
ATOM     49  C   UNL A   1      43.341  26.085  27.254  1.00  0.00     0.074 A 
ATOM     50  C   UNL A   1      46.933  31.312  27.416  1.00  0.00     0.029 A 
ATOM     51  N   UNL A   1      45.287  29.833  27.643  1.00  0.00    -0.354 N 
ATOM     52  N   UNL A   1      44.017  27.204  27.346  1.00  0.00    -0.248 NA
ATOM     53  C   UNL A   1      44.005  25.046  26.454  1.00  0.00     0.031 C 
ATOM     54  C   UNL A   1      47.300  30.137  26.750  1.00  0.00     0.029 A 
ATOM     55  C   UNL A   1      46.281  29.211  26.905  1.00  0.00     0.049 A 
ATOM     56  H   UNL A   1      44.435  29.416  27.907  1.00  0.00     0.167 HD
ATOM     57  C   UNL A   1      45.190  27.001  26.630  1.00  0.00     0.074 A 
ATOM     58  C   UNL A   1      45.140  25.646  26.122  1.00  0.00     0.031 C 
ATOM     59  C   UNL A   1      46.215  27.859  26.412  1.00  0.00     0.037 A 
BRANCH  46  60
ATOM     60  C   UNL A   1      45.411  33.437  28.933  1.00  0.00     0.057 A 
ATOM     61  C   UNL A   1      46.215  33.744  30.037  1.00  0.00     0.134 A 
ATOM     62  C   UNL A   1      45.146  34.463  28.017  1.00  0.00     0.134 A 
ATOM     63  F   UNL A   1      46.490  32.809  30.958  1.00  0.00    -0.206 F 
ATOM     64  C   UNL A   1      46.724  35.030  30.230  1.00  0.00     0.040 A 
ATOM     65  C   UNL A   1      45.666  35.747  28.189  1.00  0.00     0.040 A 
ATOM     66  F   UNL A   1      44.384  34.232  26.937  1.00  0.00    -0.206 F 
ATOM     67  C   UNL A   1      46.455  36.034  29.301  1.00  0.00     0.006 A 
ENDBRANCH  46  60
BRANCH  47  68
ATOM     68  C   UNL A   1      41.407  24.396  27.622  1.00  0.00     0.057 A 
ATOM     69  C   UNL A   1      40.393  24.200  26.678  1.00  0.00     0.134 A 
ATOM     70  C   UNL A   1      41.832  23.283  28.357  1.00  0.00     0.134 A 
ATOM     71  F   UNL A   1      39.929  25.234  25.962  1.00  0.00    -0.206 F 
ATOM     72  C   UNL A   1      39.813  22.945  26.481  1.00  0.00     0.040 A 
ATOM     73  C   UNL A   1      41.276  22.019  28.154  1.00  0.00     0.040 A 
ATOM     74  F   UNL A   1      42.799  23.408  29.277  1.00  0.00    -0.206 F 
ATOM     75  C   UNL A   1      40.260  21.849  27.216  1.00  0.00     0.006 A 
ENDBRANCH  47  68
BRANCH  59  76
ATOM     76  C   UNL A   1      47.373  27.349  25.611  1.00  0.00     0.057 A 
ATOM     77  C   UNL A   1      47.439  27.522  24.223  1.00  0.00     0.134 A 
ATOM     78  C   UNL A   1      48.447  26.707  26.239  1.00  0.00     0.134 A 
ATOM     79  F   UNL A   1      46.433  28.116  23.563  1.00  0.00    -0.206 F 
ATOM     80  C   UNL A   1      48.529  27.059  23.484  1.00  0.00     0.040 A 
ATOM     81  C   UNL A   1      49.551  26.258  25.514  1.00  0.00     0.040 A 
ATOM     82  F   UNL A   1      48.445  26.517  27.567  1.00  0.00    -0.206 F 
ATOM     83  C   UNL A   1      49.591  26.429  24.130  1.00  0.00     0.006 A 
ENDBRANCH  59  76
ENDBRANCH  33  34
ENDBRANCH  26  28
ENDBRANCH  25  26
ENDBRANCH  24  25
ENDBRANCH   1  24
TORSDOF 14
ENDMDL
