MODEL 1
REMARK VINA RESULT:     -11.5      0.000      0.000
REMARK SMILES Cc1ccc(C(=O)N[C@@H]2C=C[C@H](C(=O)OCCOC(=O)c3ccc(-c4c5nc(c(-c6c(F)cccc6F)c6ccc([nH]6)c(-c6c(F)cccc6F)c6nc(c(-c7c(F)cccc7F)c7ccc4[nH]7)C=C6)C=C5)cc3)C2)c(F)c1
REMARK SMILES IDX 16 1 15 2 13 3 14 4 12 5 9 6 10 7 75 8 11 9 8 10 6 11 7 12
REMARK SMILES IDX 5 14 1 15 2 16 3 17 78 18 4 19 76 20 77 21 17 22 18 23 19 24
REMARK SMILES IDX 20 25 21 26 22 27 74 28 23 29 73 30 24 31 25 32 26 33 67 34
REMARK SMILES IDX 27 35 72 36 66 37 68 38 28 39 71 40 65 41 64 42 29 44 55 45
REMARK SMILES IDX 38 46 54 47 39 48 42 49 53 50 69 51 40 52 41 53 52 55 70 56
REMARK SMILES IDX 43 57 30 58 31 59 36 60 32 61 33 62 35 63 37 64 34 65 56 66
REMARK SMILES IDX 57 67 62 68 58 69 59 70 61 71 63 72 60 73 44 74 45 75 50 76
REMARK SMILES IDX 46 77 47 78 49 79 51 80 48 81
REMARK H PARENT 8 13 68 43 42 54
REMARK Flexibility Score: inf
ROOT
ATOM      1  C   UNL A   1      43.815  21.437  25.446  1.00  0.00     0.274 C 
ENDROOT
BRANCH   1   2
ATOM      2  O   UNL A   1      42.482  21.610  25.969  1.00  0.00    -0.462 OA
BRANCH   2   3
ATOM      3  C   UNL A   1      41.750  20.464  26.107  1.00  0.00     0.312 C 
ATOM      4  O   UNL A   1      42.133  19.345  25.791  1.00  0.00    -0.252 OA
BRANCH   3   5
ATOM      5  C   UNL A   1      40.362  20.789  26.648  1.00  0.00     0.124 C 
ATOM      6  C   UNL A   1      38.220  21.529  25.640  1.00  0.00     0.106 C 
ATOM      7  C   UNL A   1      38.980  22.659  26.258  1.00  0.00    -0.006 C 
ATOM      8  C   UNL A   1      39.235  20.372  25.691  1.00  0.00     0.048 C 
ATOM      9  C   UNL A   1      40.138  22.265  26.795  1.00  0.00    -0.014 C 
BRANCH   6  10
ATOM     10  N   UNL A   1      37.776  21.967  24.329  1.00  0.00    -0.346 N 
ATOM     11  C   UNL A   1      36.589  22.503  23.893  1.00  0.00     0.254 C 
ATOM     12  O   UNL A   1      36.506  22.944  22.750  1.00  0.00    -0.269 OA
ATOM     13  H   UNL A   1      38.452  21.861  23.621  1.00  0.00     0.164 HD
BRANCH  11  14
ATOM     14  C   UNL A   1      35.405  22.495  24.760  1.00  0.00     0.075 A 
ATOM     15  C   UNL A   1      31.684  22.956  26.849  1.00  0.00     0.044 C 
ATOM     16  C   UNL A   1      33.006  22.750  26.173  1.00  0.00    -0.048 A 
ATOM     17  C   UNL A   1      33.252  21.610  25.396  1.00  0.00     0.004 A 
ATOM     18  C   UNL A   1      34.019  23.706  26.323  1.00  0.00     0.043 A 
ATOM     19  C   UNL A   1      34.454  21.475  24.698  1.00  0.00     0.017 A 
ATOM     20  C   UNL A   1      35.212  23.573  25.621  1.00  0.00     0.136 A 
ATOM     21  F   UNL A   1      36.140  24.532  25.752  1.00  0.00    -0.206 F 
ENDBRANCH  11  14
ENDBRANCH   6  10
ENDBRANCH   3   5
ENDBRANCH   2   3
ENDBRANCH   1   2
BRANCH   1  22
ATOM     22  C   UNL A   1      44.149  22.546  24.454  1.00  0.00     0.275 C 
BRANCH  22  23
ATOM     23  O   UNL A   1      43.394  23.726  24.778  1.00  0.00    -0.458 OA
BRANCH  23  24
ATOM     24  C   UNL A   1      44.128  24.815  25.094  1.00  0.00     0.338 C 
ATOM     25  O   UNL A   1      45.212  25.133  24.626  1.00  0.00    -0.246 OA
BRANCH  24  26
ATOM     26  C   UNL A   1      43.439  25.606  26.130  1.00  0.00     0.060 A 
ATOM     27  C   UNL A   1      43.816  26.924  26.386  1.00  0.00     0.016 A 
ATOM     28  C   UNL A   1      42.493  24.979  26.941  1.00  0.00     0.016 A 
ATOM     29  C   UNL A   1      43.309  27.585  27.505  1.00  0.00     0.010 A 
ATOM     30  C   UNL A   1      41.925  25.674  28.015  1.00  0.00     0.010 A 
ATOM     31  C   UNL A   1      42.351  26.974  28.330  1.00  0.00    -0.014 A 
BRANCH  31  32
ATOM     32  C   UNL A   1      41.804  27.694  29.514  1.00  0.00     0.031 A 
ATOM     33  C   UNL A   1      40.570  28.551  29.397  1.00  0.00     0.074 A 
ATOM     34  C   UNL A   1      42.407  27.574  30.713  1.00  0.00     0.049 A 
ATOM     35  N   UNL A   1      40.050  29.374  30.278  1.00  0.00    -0.248 NA
ATOM     36  C   UNL A   1      39.830  28.488  28.129  1.00  0.00     0.031 C 
ATOM     37  C   UNL A   1      43.588  26.754  30.990  1.00  0.00     0.029 A 
ATOM     38  N   UNL A   1      42.106  28.140  31.928  1.00  0.00    -0.354 N 
ATOM     39  C   UNL A   1      38.946  29.946  29.659  1.00  0.00     0.074 A 
ATOM     40  C   UNL A   1      38.875  29.388  28.325  1.00  0.00     0.031 C 
ATOM     41  C   UNL A   1      43.888  26.840  32.293  1.00  0.00     0.029 A 
ATOM     42  C   UNL A   1      42.976  27.784  32.930  1.00  0.00     0.049 A 
ATOM     43  H   UNL A   1      41.341  28.742  32.068  1.00  0.00     0.167 HD
ATOM     44  C   UNL A   1      38.067  30.846  30.160  1.00  0.00     0.037 A 
ATOM     45  C   UNL A   1      43.064  28.197  34.208  1.00  0.00     0.037 A 
ATOM     46  C   UNL A   1      38.092  31.361  31.505  1.00  0.00     0.049 A 
ATOM     47  C   UNL A   1      42.110  29.232  34.724  1.00  0.00     0.074 A 
ATOM     48  C   UNL A   1      37.220  32.257  32.102  1.00  0.00     0.029 A 
ATOM     49  N   UNL A   1      39.025  31.013  32.467  1.00  0.00    -0.354 N 
ATOM     50  N   UNL A   1      41.109  29.810  34.108  1.00  0.00    -0.248 NA
ATOM     51  C   UNL A   1      42.318  29.696  36.103  1.00  0.00     0.031 C 
ATOM     52  C   UNL A   1      37.643  32.474  33.417  1.00  0.00     0.029 A 
ATOM     53  C   UNL A   1      38.762  31.691  33.647  1.00  0.00     0.049 A 
ATOM     54  H   UNL A   1      39.765  30.378  32.333  1.00  0.00     0.167 HD
ATOM     55  C   UNL A   1      40.573  30.709  35.017  1.00  0.00     0.074 A 
ATOM     56  C   UNL A   1      41.340  30.582  36.238  1.00  0.00     0.031 C 
ATOM     57  C   UNL A   1      39.543  31.572  34.849  1.00  0.00     0.037 A 
BRANCH  44  58
ATOM     58  C   UNL A   1      36.995  31.358  29.248  1.00  0.00     0.057 A 
ATOM     59  C   UNL A   1      35.872  30.589  28.922  1.00  0.00     0.134 A 
ATOM     60  C   UNL A   1      37.047  32.671  28.761  1.00  0.00     0.134 A 
ATOM     61  F   UNL A   1      35.763  29.325  29.360  1.00  0.00    -0.206 F 
ATOM     62  C   UNL A   1      34.838  31.106  28.139  1.00  0.00     0.040 A 
ATOM     63  C   UNL A   1      36.012  33.205  27.991  1.00  0.00     0.040 A 
ATOM     64  F   UNL A   1      38.091  33.462  29.047  1.00  0.00    -0.206 F 
ATOM     65  C   UNL A   1      34.903  32.421  27.679  1.00  0.00     0.006 A 
ENDBRANCH  44  58
BRANCH  45  66
ATOM     66  C   UNL A   1      44.144  27.666  35.074  1.00  0.00     0.057 A 
ATOM     67  C   UNL A   1      45.398  28.282  35.129  1.00  0.00     0.134 A 
ATOM     68  C   UNL A   1      43.939  26.540  35.880  1.00  0.00     0.134 A 
ATOM     69  F   UNL A   1      45.661  29.350  34.360  1.00  0.00    -0.206 F 
ATOM     70  C   UNL A   1      46.411  27.797  35.955  1.00  0.00     0.040 A 
ATOM     71  C   UNL A   1      44.934  26.059  36.729  1.00  0.00     0.040 A 
ATOM     72  F   UNL A   1      42.757  25.905  35.868  1.00  0.00    -0.206 F 
ATOM     73  C   UNL A   1      46.177  26.687  36.765  1.00  0.00     0.006 A 
ENDBRANCH  45  66
BRANCH  57  74
ATOM     74  C   UNL A   1      39.198  32.453  36.010  1.00  0.00     0.057 A 
ATOM     75  C   UNL A   1      38.327  32.019  37.017  1.00  0.00     0.134 A 
ATOM     76  C   UNL A   1      39.748  33.734  36.133  1.00  0.00     0.134 A 
ATOM     77  F   UNL A   1      37.756  30.807  36.947  1.00  0.00    -0.206 F 
ATOM     78  C   UNL A   1      38.002  32.836  38.100  1.00  0.00     0.040 A 
ATOM     79  C   UNL A   1      39.443  34.554  37.220  1.00  0.00     0.040 A 
ATOM     80  F   UNL A   1      40.591  34.205  35.203  1.00  0.00    -0.206 F 
ATOM     81  C   UNL A   1      38.565  34.107  38.205  1.00  0.00     0.006 A 
ENDBRANCH  57  74
ENDBRANCH  31  32
ENDBRANCH  24  26
ENDBRANCH  23  24
ENDBRANCH  22  23
ENDBRANCH   1  22
TORSDOF 13
ENDMDL
MODEL 2
REMARK VINA RESULT:     -11.3      0.979      6.433
REMARK SMILES Cc1ccc(C(=O)N[C@@H]2C=C[C@H](C(=O)OCCOC(=O)c3ccc(-c4c5nc(c(-c6c(F)cccc6F)c6ccc([nH]6)c(-c6c(F)cccc6F)c6nc(c(-c7c(F)cccc7F)c7ccc4[nH]7)C=C6)C=C5)cc3)C2)c(F)c1
REMARK SMILES IDX 16 1 15 2 13 3 14 4 12 5 9 6 10 7 75 8 11 9 8 10 6 11 7 12
REMARK SMILES IDX 5 14 1 15 2 16 3 17 78 18 4 19 76 20 77 21 17 22 18 23 19 24
REMARK SMILES IDX 20 25 21 26 22 27 74 28 23 29 73 30 24 31 25 32 26 33 67 34
REMARK SMILES IDX 27 35 72 36 66 37 68 38 28 39 71 40 65 41 64 42 29 44 55 45
REMARK SMILES IDX 38 46 54 47 39 48 42 49 53 50 69 51 40 52 41 53 52 55 70 56
REMARK SMILES IDX 43 57 30 58 31 59 36 60 32 61 33 62 35 63 37 64 34 65 56 66
REMARK SMILES IDX 57 67 62 68 58 69 59 70 61 71 63 72 60 73 44 74 45 75 50 76
REMARK SMILES IDX 46 77 47 78 49 79 51 80 48 81
REMARK H PARENT 8 13 68 43 42 54
REMARK Flexibility Score: inf
ROOT
ATOM      1  C   UNL A   1      44.365  20.666  24.956  1.00  0.00     0.274 C 
ENDROOT
BRANCH   1   2
ATOM      2  O   UNL A   1      42.961  20.344  25.018  1.00  0.00    -0.462 OA
BRANCH   2   3
ATOM      3  C   UNL A   1      42.646  19.212  25.717  1.00  0.00     0.312 C 
ATOM      4  O   UNL A   1      43.215  18.135  25.598  1.00  0.00    -0.252 OA
BRANCH   3   5
ATOM      5  C   UNL A   1      41.439  19.466  26.614  1.00  0.00     0.124 C 
ATOM      6  C   UNL A   1      39.504  21.014  26.546  1.00  0.00     0.106 C 
ATOM      7  C   UNL A   1      40.581  21.489  27.468  1.00  0.00    -0.006 C 
ATOM      8  C   UNL A   1      40.173  19.830  25.824  1.00  0.00     0.048 C 
ATOM      9  C   UNL A   1      41.629  20.661  27.500  1.00  0.00    -0.014 C 
BRANCH   6  10
ATOM     10  N   UNL A   1      39.095  22.145  25.732  1.00  0.00    -0.346 N 
ATOM     11  C   UNL A   1      37.863  22.564  25.294  1.00  0.00     0.254 C 
ATOM     12  O   UNL A   1      37.753  23.653  24.739  1.00  0.00    -0.269 OA
ATOM     13  H   UNL A   1      39.839  22.719  25.442  1.00  0.00     0.164 HD
BRANCH  11  14
ATOM     14  C   UNL A   1      36.689  21.692  25.428  1.00  0.00     0.075 A 
ATOM     15  C   UNL A   1      32.965  19.561  25.327  1.00  0.00     0.044 C 
ATOM     16  C   UNL A   1      34.287  20.262  25.418  1.00  0.00    -0.048 A 
ATOM     17  C   UNL A   1      35.434  19.722  24.820  1.00  0.00     0.004 A 
ATOM     18  C   UNL A   1      34.385  21.472  26.115  1.00  0.00     0.043 A 
ATOM     19  C   UNL A   1      36.638  20.430  24.833  1.00  0.00     0.017 A 
ATOM     20  C   UNL A   1      35.583  22.178  26.121  1.00  0.00     0.136 A 
ATOM     21  F   UNL A   1      35.626  23.356  26.759  1.00  0.00    -0.206 F 
ENDBRANCH  11  14
ENDBRANCH   6  10
ENDBRANCH   3   5
ENDBRANCH   2   3
ENDBRANCH   1   2
BRANCH   1  22
ATOM     22  C   UNL A   1      44.676  21.879  25.825  1.00  0.00     0.275 C 
BRANCH  22  23
ATOM     23  O   UNL A   1      43.569  22.797  25.784  1.00  0.00    -0.458 OA
BRANCH  23  24
ATOM     24  C   UNL A   1      43.875  24.057  25.403  1.00  0.00     0.338 C 
ATOM     25  O   UNL A   1      44.535  24.391  24.429  1.00  0.00    -0.246 OA
BRANCH  24  26
ATOM     26  C   UNL A   1      43.301  25.027  26.353  1.00  0.00     0.060 A 
ATOM     27  C   UNL A   1      43.762  26.342  26.393  1.00  0.00     0.016 A 
ATOM     28  C   UNL A   1      42.382  24.579  27.303  1.00  0.00     0.016 A 
ATOM     29  C   UNL A   1      43.369  27.184  27.433  1.00  0.00     0.010 A 
ATOM     30  C   UNL A   1      41.926  25.451  28.297  1.00  0.00     0.010 A 
ATOM     31  C   UNL A   1      42.440  26.755  28.394  1.00  0.00    -0.014 A 
BRANCH  31  32
ATOM     32  C   UNL A   1      42.014  27.666  29.493  1.00  0.00     0.031 A 
ATOM     33  C   UNL A   1      42.761  27.704  30.802  1.00  0.00     0.074 A 
ATOM     34  C   UNL A   1      40.953  28.479  29.320  1.00  0.00     0.049 A 
ATOM     35  N   UNL A   1      42.437  28.312  31.919  1.00  0.00    -0.248 NA
ATOM     36  C   UNL A   1      44.026  26.959  30.871  1.00  0.00     0.031 C 
ATOM     37  C   UNL A   1      40.152  28.580  28.099  1.00  0.00     0.029 A 
ATOM     38  N   UNL A   1      40.368  29.383  30.174  1.00  0.00    -0.354 N 
ATOM     39  C   UNL A   1      43.438  27.995  32.828  1.00  0.00     0.074 A 
ATOM     40  C   UNL A   1      44.376  27.134  32.139  1.00  0.00     0.031 C 
ATOM     41  C   UNL A   1      39.207  29.515  28.268  1.00  0.00     0.029 A 
ATOM     42  C   UNL A   1      39.280  30.023  29.634  1.00  0.00     0.049 A 
ATOM     43  H   UNL A   1      40.697  29.555  31.085  1.00  0.00     0.167 HD
ATOM     44  C   UNL A   1      43.570  28.394  34.116  1.00  0.00     0.037 A 
ATOM     45  C   UNL A   1      38.406  30.889  30.181  1.00  0.00     0.037 A 
ATOM     46  C   UNL A   1      42.678  29.300  34.792  1.00  0.00     0.049 A 
ATOM     47  C   UNL A   1      38.544  31.275  31.623  1.00  0.00     0.074 A 
ATOM     48  C   UNL A   1      42.755  29.777  36.091  1.00  0.00     0.029 A 
ATOM     49  N   UNL A   1      41.557  29.880  34.221  1.00  0.00    -0.354 N 
ATOM     50  N   UNL A   1      39.462  30.920  32.487  1.00  0.00    -0.248 NA
ATOM     51  C   UNL A   1      37.507  32.159  32.174  1.00  0.00     0.031 C 
ATOM     52  C   UNL A   1      41.664  30.624  36.314  1.00  0.00     0.029 A 
ATOM     53  C   UNL A   1      40.924  30.694  35.146  1.00  0.00     0.049 A 
ATOM     54  H   UNL A   1      41.256  29.734  33.295  1.00  0.00     0.167 HD
ATOM     55  C   UNL A   1      39.110  31.526  33.684  1.00  0.00     0.074 A 
ATOM     56  C   UNL A   1      37.912  32.298  33.430  1.00  0.00     0.031 C 
ATOM     57  C   UNL A   1      39.721  31.441  34.889  1.00  0.00     0.037 A 
BRANCH  44  58
ATOM     58  C   UNL A   1      44.720  27.845  34.903  1.00  0.00     0.057 A 
ATOM     59  C   UNL A   1      45.938  28.526  35.006  1.00  0.00     0.134 A 
ATOM     60  C   UNL A   1      44.573  26.662  35.640  1.00  0.00     0.134 A 
ATOM     61  F   UNL A   1      46.140  29.665  34.326  1.00  0.00    -0.206 F 
ATOM     62  C   UNL A   1      46.974  28.046  35.810  1.00  0.00     0.040 A 
ATOM     63  C   UNL A   1      45.595  26.182  36.460  1.00  0.00     0.040 A 
ATOM     64  F   UNL A   1      43.425  25.969  35.593  1.00  0.00    -0.206 F 
ATOM     65  C   UNL A   1      46.800  26.875  36.547  1.00  0.00     0.006 A 
ENDBRANCH  44  58
BRANCH  45  66
ATOM     66  C   UNL A   1      37.281  31.404  29.364  1.00  0.00     0.057 A 
ATOM     67  C   UNL A   1      36.137  30.633  29.139  1.00  0.00     0.134 A 
ATOM     68  C   UNL A   1      37.319  32.687  28.806  1.00  0.00     0.134 A 
ATOM     69  F   UNL A   1      36.054  29.386  29.628  1.00  0.00    -0.206 F 
ATOM     70  C   UNL A   1      35.068  31.120  28.386  1.00  0.00     0.040 A 
ATOM     71  C   UNL A   1      36.248  33.196  28.073  1.00  0.00     0.040 A 
ATOM     72  F   UNL A   1      38.391  33.473  28.987  1.00  0.00    -0.206 F 
ATOM     73  C   UNL A   1      35.119  32.410  27.859  1.00  0.00     0.006 A 
ENDBRANCH  45  66
BRANCH  57  74
ATOM     74  C   UNL A   1      39.095  32.191  36.023  1.00  0.00     0.057 A 
ATOM     75  C   UNL A   1      38.187  31.573  36.890  1.00  0.00     0.134 A 
ATOM     76  C   UNL A   1      39.412  33.534  36.262  1.00  0.00     0.134 A 
ATOM     77  F   UNL A   1      37.832  30.292  36.703  1.00  0.00    -0.206 F 
ATOM     78  C   UNL A   1      37.600  32.268  37.948  1.00  0.00     0.040 A 
ATOM     79  C   UNL A   1      38.845  34.236  37.327  1.00  0.00     0.040 A 
ATOM     80  F   UNL A   1      40.277  34.181  35.469  1.00  0.00    -0.206 F 
ATOM     81  C   UNL A   1      37.933  33.604  38.171  1.00  0.00     0.006 A 
ENDBRANCH  57  74
ENDBRANCH  31  32
ENDBRANCH  24  26
ENDBRANCH  23  24
ENDBRANCH  22  23
ENDBRANCH   1  22
TORSDOF 13
ENDMDL
MODEL 3
REMARK VINA RESULT:     -11.3      2.724      8.005
REMARK SMILES Cc1ccc(C(=O)N[C@@H]2C=C[C@H](C(=O)OCCOC(=O)c3ccc(-c4c5nc(c(-c6c(F)cccc6F)c6ccc([nH]6)c(-c6c(F)cccc6F)c6nc(c(-c7c(F)cccc7F)c7ccc4[nH]7)C=C6)C=C5)cc3)C2)c(F)c1
REMARK SMILES IDX 16 1 15 2 13 3 14 4 12 5 9 6 10 7 75 8 11 9 8 10 6 11 7 12
REMARK SMILES IDX 5 14 1 15 2 16 3 17 78 18 4 19 76 20 77 21 17 22 18 23 19 24
REMARK SMILES IDX 20 25 21 26 22 27 74 28 23 29 73 30 24 31 25 32 26 33 67 34
REMARK SMILES IDX 27 35 72 36 66 37 68 38 28 39 71 40 65 41 64 42 29 44 55 45
REMARK SMILES IDX 38 46 54 47 39 48 42 49 53 50 69 51 40 52 41 53 52 55 70 56
REMARK SMILES IDX 43 57 30 58 31 59 36 60 32 61 33 62 35 63 37 64 34 65 56 66
REMARK SMILES IDX 57 67 62 68 58 69 59 70 61 71 63 72 60 73 44 74 45 75 50 76
REMARK SMILES IDX 46 77 47 78 49 79 51 80 48 81
REMARK H PARENT 8 13 68 43 42 54
REMARK Flexibility Score: inf
ROOT
ATOM      1  C   UNL A   1      31.063  28.685  24.639  1.00  0.00     0.274 C 
ENDROOT
BRANCH   1   2
ATOM      2  O   UNL A   1      32.029  27.706  25.071  1.00  0.00    -0.462 OA
BRANCH   2   3
ATOM      3  C   UNL A   1      31.509  26.571  25.628  1.00  0.00     0.312 C 
ATOM      4  O   UNL A   1      30.323  26.267  25.622  1.00  0.00    -0.252 OA
BRANCH   3   5
ATOM      5  C   UNL A   1      32.610  25.772  26.318  1.00  0.00     0.124 C 
ATOM      6  C   UNL A   1      34.630  24.555  25.553  1.00  0.00     0.106 C 
ATOM      7  C   UNL A   1      33.479  23.638  25.819  1.00  0.00    -0.006 C 
ATOM      8  C   UNL A   1      33.983  25.949  25.652  1.00  0.00     0.048 C 
ATOM      9  C   UNL A   1      32.386  24.292  26.224  1.00  0.00    -0.014 C 
BRANCH   6  10
ATOM     10  N   UNL A   1      35.203  24.176  24.274  1.00  0.00    -0.346 N 
ATOM     11  C   UNL A   1      36.313  23.437  23.947  1.00  0.00     0.254 C 
ATOM     12  O   UNL A   1      36.508  23.119  22.778  1.00  0.00    -0.269 OA
ATOM     13  H   UNL A   1      34.702  24.511  23.496  1.00  0.00     0.164 HD
BRANCH  11  14
ATOM     14  C   UNL A   1      37.299  23.080  24.975  1.00  0.00     0.075 A 
ATOM     15  C   UNL A   1      40.642  22.007  27.444  1.00  0.00     0.044 C 
ATOM     16  C   UNL A   1      39.431  22.377  26.641  1.00  0.00    -0.048 A 
ATOM     17  C   UNL A   1      38.933  23.687  26.644  1.00  0.00     0.004 A 
ATOM     18  C   UNL A   1      38.778  21.400  25.878  1.00  0.00     0.043 A 
ATOM     19  C   UNL A   1      37.861  24.038  25.821  1.00  0.00     0.017 A 
ATOM     20  C   UNL A   1      37.716  21.753  25.055  1.00  0.00     0.136 A 
ATOM     21  F   UNL A   1      37.147  20.800  24.303  1.00  0.00    -0.206 F 
ENDBRANCH  11  14
ENDBRANCH   6  10
ENDBRANCH   3   5
ENDBRANCH   2   3
ENDBRANCH   1   2
BRANCH   1  22
ATOM     22  C   UNL A   1      31.405  30.059  25.204  1.00  0.00     0.275 C 
BRANCH  22  23
ATOM     23  O   UNL A   1      32.190  29.907  26.399  1.00  0.00    -0.458 OA
BRANCH  23  24
ATOM     24  C   UNL A   1      32.636  31.057  26.951  1.00  0.00     0.338 C 
ATOM     25  O   UNL A   1      32.044  32.126  27.001  1.00  0.00    -0.246 OA
BRANCH  24  26
ATOM     26  C   UNL A   1      33.990  30.864  27.500  1.00  0.00     0.060 A 
ATOM     27  C   UNL A   1      34.514  29.583  27.668  1.00  0.00     0.016 A 
ATOM     28  C   UNL A   1      34.692  31.975  27.972  1.00  0.00     0.016 A 
ATOM     29  C   UNL A   1      35.698  29.407  28.384  1.00  0.00     0.010 A 
ATOM     30  C   UNL A   1      35.921  31.799  28.617  1.00  0.00     0.010 A 
ATOM     31  C   UNL A   1      36.422  30.510  28.861  1.00  0.00    -0.014 A 
BRANCH  31  32
ATOM     32  C   UNL A   1      37.694  30.313  29.611  1.00  0.00     0.031 A 
ATOM     33  C   UNL A   1      38.841  29.547  29.003  1.00  0.00     0.074 A 
ATOM     34  C   UNL A   1      37.835  30.832  30.847  1.00  0.00     0.049 A 
ATOM     35  N   UNL A   1      39.953  29.140  29.568  1.00  0.00    -0.248 NA
ATOM     36  C   UNL A   1      38.723  29.180  27.584  1.00  0.00     0.031 C 
ATOM     37  C   UNL A   1      36.828  31.625  31.553  1.00  0.00     0.029 A 
ATOM     38  N   UNL A   1      38.887  30.774  31.728  1.00  0.00    -0.354 N 
ATOM     39  C   UNL A   1      40.647  28.445  28.586  1.00  0.00     0.074 A 
ATOM     40  C   UNL A   1      39.829  28.474  27.392  1.00  0.00     0.031 C 
ATOM     41  C   UNL A   1      37.321  32.010  32.738  1.00  0.00     0.029 A 
ATOM     42  C   UNL A   1      38.646  31.423  32.914  1.00  0.00     0.049 A 
ATOM     43  H   UNL A   1      39.732  30.311  31.530  1.00  0.00     0.167 HD
ATOM     44  C   UNL A   1      41.860  27.847  28.669  1.00  0.00     0.037 A 
ATOM     45  C   UNL A   1      39.381  31.507  34.038  1.00  0.00     0.037 A 
ATOM     46  C   UNL A   1      42.709  27.865  29.831  1.00  0.00     0.049 A 
ATOM     47  C   UNL A   1      40.697  30.793  34.122  1.00  0.00     0.074 A 
ATOM     48  C   UNL A   1      43.967  27.305  29.989  1.00  0.00     0.029 A 
ATOM     49  N   UNL A   1      42.398  28.489  31.028  1.00  0.00    -0.354 N 
ATOM     50  N   UNL A   1      41.313  30.089  33.206  1.00  0.00    -0.248 NA
ATOM     51  C   UNL A   1      41.407  30.860  35.408  1.00  0.00     0.031 C 
ATOM     52  C   UNL A   1      44.404  27.566  31.292  1.00  0.00     0.029 A 
ATOM     53  C   UNL A   1      43.431  28.312  31.935  1.00  0.00     0.049 A 
ATOM     54  H   UNL A   1      41.567  28.984  31.207  1.00  0.00     0.167 HD
ATOM     55  C   UNL A   1      42.474  29.622  33.803  1.00  0.00     0.074 A 
ATOM     56  C   UNL A   1      42.495  30.146  35.152  1.00  0.00     0.031 C 
ATOM     57  C   UNL A   1      43.432  28.820  33.281  1.00  0.00     0.037 A 
BRANCH  44  58
ATOM     58  C   UNL A   1      42.353  27.098  27.468  1.00  0.00     0.057 A 
ATOM     59  C   UNL A   1      42.110  25.730  27.299  1.00  0.00     0.134 A 
ATOM     60  C   UNL A   1      43.001  27.777  26.428  1.00  0.00     0.134 A 
ATOM     61  F   UNL A   1      41.492  25.025  28.259  1.00  0.00    -0.206 F 
ATOM     62  C   UNL A   1      42.501  25.060  26.138  1.00  0.00     0.040 A 
ATOM     63  C   UNL A   1      43.381  27.122  25.255  1.00  0.00     0.040 A 
ATOM     64  F   UNL A   1      43.252  29.091  26.524  1.00  0.00    -0.206 F 
ATOM     65  C   UNL A   1      43.130  25.759  25.108  1.00  0.00     0.006 A 
ENDBRANCH  44  58
BRANCH  45  66
ATOM     66  C   UNL A   1      38.852  32.256  35.204  1.00  0.00     0.057 A 
ATOM     67  C   UNL A   1      38.232  31.596  36.268  1.00  0.00     0.134 A 
ATOM     68  C   UNL A   1      38.971  33.649  35.284  1.00  0.00     0.134 A 
ATOM     69  F   UNL A   1      38.067  30.265  36.235  1.00  0.00    -0.206 F 
ATOM     70  C   UNL A   1      37.748  32.295  37.374  1.00  0.00     0.040 A 
ATOM     71  C   UNL A   1      38.514  34.357  36.394  1.00  0.00     0.040 A 
ATOM     72  F   UNL A   1      39.555  34.337  34.292  1.00  0.00    -0.206 F 
ATOM     73  C   UNL A   1      37.898  33.679  37.443  1.00  0.00     0.006 A 
ENDBRANCH  45  66
BRANCH  57  74
ATOM     74  C   UNL A   1      44.574  28.453  34.178  1.00  0.00     0.057 A 
ATOM     75  C   UNL A   1      45.717  29.255  34.264  1.00  0.00     0.134 A 
ATOM     76  C   UNL A   1      44.526  27.300  34.971  1.00  0.00     0.134 A 
ATOM     77  F   UNL A   1      45.827  30.364  33.516  1.00  0.00    -0.206 F 
ATOM     78  C   UNL A   1      46.783  28.917  35.097  1.00  0.00     0.040 A 
ATOM     79  C   UNL A   1      45.580  26.960  35.821  1.00  0.00     0.040 A 
ATOM     80  F   UNL A   1      43.457  26.492  34.935  1.00  0.00    -0.206 F 
ATOM     81  C   UNL A   1      46.714  27.767  35.882  1.00  0.00     0.006 A 
ENDBRANCH  57  74
ENDBRANCH  31  32
ENDBRANCH  24  26
ENDBRANCH  23  24
ENDBRANCH  22  23
ENDBRANCH   1  22
TORSDOF 13
ENDMDL
