MODEL 1
REMARK VINA RESULT:      -9.8      0.000      0.000
REMARK SMILES CC(C)[C@@H]([NH2+][C@@H]1CSCC(C)(C)C1)C(=O)OCCOC(=O)c1ccc(-c2c3nc(c(-c4c(F)cccc4F)c4ccc([nH]4)c(-c4c(F)cccc4F)c4nc(c(-c5c(F)cccc5F)c5ccc2[nH]5)C=C4)C=C3)cc1
REMARK SMILES IDX 17 1 16 2 14 3 15 4 4 5 2 6 1 7 3 8 5 9 6 12 7 13 13 14 8 15
REMARK SMILES IDX 10 16 9 17 11 18 12 19 18 20 19 21 20 22 21 23 22 24 23 25
REMARK SMILES IDX 75 26 24 27 74 28 25 29 26 30 27 31 68 32 28 33 73 34 67 35
REMARK SMILES IDX 69 36 29 37 72 38 66 39 65 40 30 42 56 43 39 44 55 45 40 46
REMARK SMILES IDX 43 47 54 48 70 49 41 50 42 51 53 53 71 54 44 55 31 56 32 57
REMARK SMILES IDX 37 58 33 59 34 60 36 61 38 62 35 63 57 64 58 65 63 66 59 67
REMARK SMILES IDX 60 68 62 69 64 70 61 71 45 72 46 73 51 74 47 75 48 76 50 77
REMARK SMILES IDX 52 78 49 79
REMARK H PARENT 5 10 5 11 69 41 43 52
REMARK Flexibility Score: inf
ROOT
ATOM      1  C   UNL A   1      40.817  19.562  26.199  1.00  0.00     0.274 C 
ENDROOT
BRANCH   1   2
ATOM      2  O   UNL A   1      41.941  19.719  25.310  1.00  0.00    -0.458 OA
BRANCH   2   3
ATOM      3  C   UNL A   1      43.054  19.018  25.657  1.00  0.00     0.365 C 
ATOM      4  O   UNL A   1      43.030  17.859  26.063  1.00  0.00    -0.245 OA
BRANCH   3   5
ATOM      5  C   UNL A   1      44.374  19.823  25.521  1.00  0.00     0.296 C 
BRANCH   5   6
ATOM      6  C   UNL A   1      45.399  19.220  24.511  1.00  0.00     0.053 C 
ATOM      7  C   UNL A   1      44.899  19.290  23.057  1.00  0.00     0.014 C 
ATOM      8  C   UNL A   1      46.748  19.959  24.557  1.00  0.00     0.014 C 
ENDBRANCH   5   6
BRANCH   5   9
ATOM      9  N   UNL A   1      44.077  21.246  25.222  1.00  0.00    -0.331 N 
ATOM     10  H   UNL A   1      43.109  21.301  24.904  1.00  0.00     0.347 HD
ATOM     11  H   UNL A   1      44.767  21.526  24.525  1.00  0.00     0.347 HD
BRANCH   9  12
ATOM     12  C   UNL A   1      44.237  22.200  26.341  1.00  0.00     0.193 C 
ATOM     13  C   UNL A   1      43.136  23.278  26.260  1.00  0.00     0.134 C 
ATOM     14  C   UNL A   1      45.631  22.853  26.526  1.00  0.00     0.073 C 
ATOM     15  S   UNL A   1      43.391  24.452  24.894  1.00  0.00    -0.155 SA
ATOM     16  C   UNL A   1      46.090  23.938  25.517  1.00  0.00    -0.021 C 
ATOM     17  C   UNL A   1      45.037  25.055  25.381  1.00  0.00     0.076 C 
ATOM     18  C   UNL A   1      46.447  23.352  24.138  1.00  0.00     0.012 C 
ATOM     19  C   UNL A   1      47.390  24.566  26.077  1.00  0.00     0.012 C 
ENDBRANCH   9  12
ENDBRANCH   5   9
ENDBRANCH   3   5
ENDBRANCH   2   3
ENDBRANCH   1   2
BRANCH   1  20
ATOM     20  C   UNL A   1      40.616  20.793  27.089  1.00  0.00     0.275 C 
BRANCH  20  21
ATOM     21  O   UNL A   1      40.498  21.985  26.288  1.00  0.00    -0.458 OA
BRANCH  21  22
ATOM     22  C   UNL A   1      39.294  22.597  26.305  1.00  0.00     0.338 C 
ATOM     23  O   UNL A   1      38.209  22.121  26.022  1.00  0.00    -0.246 OA
BRANCH  22  24
ATOM     24  C   UNL A   1      39.446  23.970  26.812  1.00  0.00     0.060 A 
ATOM     25  C   UNL A   1      39.880  24.964  25.931  1.00  0.00     0.016 A 
ATOM     26  C   UNL A   1      39.307  24.243  28.172  1.00  0.00     0.016 A 
ATOM     27  C   UNL A   1      40.204  26.231  26.409  1.00  0.00     0.010 A 
ATOM     28  C   UNL A   1      39.620  25.519  28.652  1.00  0.00     0.010 A 
ATOM     29  C   UNL A   1      40.098  26.511  27.778  1.00  0.00    -0.014 A 
BRANCH  29  30
ATOM     30  C   UNL A   1      40.581  27.815  28.292  1.00  0.00     0.031 A 
ATOM     31  C   UNL A   1      42.053  28.121  28.281  1.00  0.00     0.074 A 
ATOM     32  C   UNL A   1      39.705  28.742  28.718  1.00  0.00     0.049 A 
ATOM     33  N   UNL A   1      42.677  29.196  28.694  1.00  0.00    -0.248 NA
ATOM     34  C   UNL A   1      42.937  27.085  27.727  1.00  0.00     0.031 C 
ATOM     35  C   UNL A   1      38.251  28.583  28.741  1.00  0.00     0.029 A 
ATOM     36  N   UNL A   1      39.914  30.005  29.207  1.00  0.00    -0.354 N 
ATOM     37  C   UNL A   1      44.026  28.962  28.458  1.00  0.00     0.074 A 
ATOM     38  C   UNL A   1      44.132  27.638  27.881  1.00  0.00     0.031 C 
ATOM     39  C   UNL A   1      37.697  29.712  29.216  1.00  0.00     0.029 A 
ATOM     40  C   UNL A   1      38.758  30.658  29.555  1.00  0.00     0.049 A 
ATOM     41  H   UNL A   1      40.808  30.406  29.301  1.00  0.00     0.167 HD
ATOM     42  C   UNL A   1      45.081  29.777  28.696  1.00  0.00     0.037 A 
ATOM     43  C   UNL A   1      38.577  31.878  30.094  1.00  0.00     0.037 A 
ATOM     44  C   UNL A   1      44.984  31.095  29.264  1.00  0.00     0.049 A 
ATOM     45  C   UNL A   1      39.767  32.748  30.385  1.00  0.00     0.074 A 
ATOM     46  C   UNL A   1      46.002  31.989  29.554  1.00  0.00     0.029 A 
ATOM     47  N   UNL A   1      43.797  31.711  29.625  1.00  0.00    -0.354 N 
ATOM     48  N   UNL A   1      41.038  32.510  30.170  1.00  0.00    -0.248 NA
ATOM     49  C   UNL A   1      39.496  34.059  30.995  1.00  0.00     0.031 C 
ATOM     50  C   UNL A   1      45.430  33.139  30.109  1.00  0.00     0.029 A 
ATOM     51  C   UNL A   1      44.055  32.970  30.140  1.00  0.00     0.049 A 
ATOM     52  H   UNL A   1      42.902  31.312  29.529  1.00  0.00     0.167 HD
ATOM     53  C   UNL A   1      41.715  33.641  30.603  1.00  0.00     0.074 A 
ATOM     54  C   UNL A   1      40.715  34.574  31.081  1.00  0.00     0.031 C 
ATOM     55  C   UNL A   1      43.048  33.886  30.606  1.00  0.00     0.037 A 
BRANCH  42  56
ATOM     56  C   UNL A   1      46.441  29.249  28.357  1.00  0.00     0.057 A 
ATOM     57  C   UNL A   1      47.198  28.523  29.284  1.00  0.00     0.134 A 
ATOM     58  C   UNL A   1      46.987  29.449  27.084  1.00  0.00     0.134 A 
ATOM     59  F   UNL A   1      46.733  28.313  30.525  1.00  0.00    -0.206 F 
ATOM     60  C   UNL A   1      48.461  28.024  28.961  1.00  0.00     0.040 A 
ATOM     61  C   UNL A   1      48.242  28.942  26.744  1.00  0.00     0.040 A 
ATOM     62  F   UNL A   1      46.310  30.137  26.153  1.00  0.00    -0.206 F 
ATOM     63  C   UNL A   1      48.983  28.230  27.685  1.00  0.00     0.006 A 
ENDBRANCH  42  56
BRANCH  43  64
ATOM     64  C   UNL A   1      37.207  32.352  30.401  1.00  0.00     0.057 A 
ATOM     65  C   UNL A   1      36.592  32.043  31.618  1.00  0.00     0.134 A 
ATOM     66  C   UNL A   1      36.480  33.113  29.479  1.00  0.00     0.134 A 
ATOM     67  F   UNL A   1      37.234  31.297  32.530  1.00  0.00    -0.206 F 
ATOM     68  C   UNL A   1      35.294  32.467  31.905  1.00  0.00     0.040 A 
ATOM     69  C   UNL A   1      35.189  33.559  29.761  1.00  0.00     0.040 A 
ATOM     70  F   UNL A   1      37.018  33.437  28.294  1.00  0.00    -0.206 F 
ATOM     71  C   UNL A   1      34.591  33.233  30.976  1.00  0.00     0.006 A 
ENDBRANCH  43  64
BRANCH  55  72
ATOM     72  C   UNL A   1      43.493  35.220  31.122  1.00  0.00     0.057 A 
ATOM     73  C   UNL A   1      43.779  35.425  32.477  1.00  0.00     0.134 A 
ATOM     74  C   UNL A   1      43.660  36.303  30.251  1.00  0.00     0.134 A 
ATOM     75  F   UNL A   1      43.625  34.428  33.362  1.00  0.00    -0.206 F 
ATOM     76  C   UNL A   1      44.198  36.669  32.952  1.00  0.00     0.040 A 
ATOM     77  C   UNL A   1      44.093  37.547  30.711  1.00  0.00     0.040 A 
ATOM     78  F   UNL A   1      43.406  36.168  28.940  1.00  0.00    -0.206 F 
ATOM     79  C   UNL A   1      44.359  37.733  32.066  1.00  0.00     0.006 A 
ENDBRANCH  55  72
ENDBRANCH  29  30
ENDBRANCH  22  24
ENDBRANCH  21  22
ENDBRANCH  20  21
ENDBRANCH   1  20
TORSDOF 14
ENDMDL
MODEL 2
REMARK VINA RESULT:      -9.7      5.583     10.611
REMARK SMILES CC(C)[C@@H]([NH2+][C@@H]1CSCC(C)(C)C1)C(=O)OCCOC(=O)c1ccc(-c2c3nc(c(-c4c(F)cccc4F)c4ccc([nH]4)c(-c4c(F)cccc4F)c4nc(c(-c5c(F)cccc5F)c5ccc2[nH]5)C=C4)C=C3)cc1
REMARK SMILES IDX 17 1 16 2 14 3 15 4 4 5 2 6 1 7 3 8 5 9 6 12 7 13 13 14 8 15
REMARK SMILES IDX 10 16 9 17 11 18 12 19 18 20 19 21 20 22 21 23 22 24 23 25
REMARK SMILES IDX 75 26 24 27 74 28 25 29 26 30 27 31 68 32 28 33 73 34 67 35
REMARK SMILES IDX 69 36 29 37 72 38 66 39 65 40 30 42 56 43 39 44 55 45 40 46
REMARK SMILES IDX 43 47 54 48 70 49 41 50 42 51 53 53 71 54 44 55 31 56 32 57
REMARK SMILES IDX 37 58 33 59 34 60 36 61 38 62 35 63 57 64 58 65 63 66 59 67
REMARK SMILES IDX 60 68 62 69 64 70 61 71 45 72 46 73 51 74 47 75 48 76 50 77
REMARK SMILES IDX 52 78 49 79
REMARK H PARENT 5 10 5 11 69 41 43 52
REMARK Flexibility Score: inf
ROOT
ATOM      1  C   UNL A   1      31.113  31.502  25.909  1.00  0.00     0.274 C 
ENDROOT
BRANCH   1   2
ATOM      2  O   UNL A   1      32.175  30.567  25.633  1.00  0.00    -0.458 OA
BRANCH   2   3
ATOM      3  C   UNL A   1      31.790  29.427  24.999  1.00  0.00     0.365 C 
ATOM      4  O   UNL A   1      30.719  29.305  24.408  1.00  0.00    -0.245 OA
BRANCH   3   5
ATOM      5  C   UNL A   1      32.816  28.267  25.104  1.00  0.00     0.296 C 
BRANCH   5   6
ATOM      6  C   UNL A   1      33.231  27.900  26.562  1.00  0.00     0.053 C 
ATOM      7  C   UNL A   1      34.493  28.652  27.019  1.00  0.00     0.014 C 
ATOM      8  C   UNL A   1      32.120  28.233  27.573  1.00  0.00     0.014 C 
ENDBRANCH   5   6
BRANCH   5   9
ATOM      9  N   UNL A   1      32.328  27.083  24.354  1.00  0.00    -0.331 N 
ATOM     10  H   UNL A   1      31.864  27.420  23.510  1.00  0.00     0.347 HD
ATOM     11  H   UNL A   1      31.717  26.585  25.001  1.00  0.00     0.347 HD
BRANCH   9  12
ATOM     12  C   UNL A   1      33.351  26.098  23.941  1.00  0.00     0.193 C 
ATOM     13  C   UNL A   1      32.816  25.265  22.757  1.00  0.00     0.134 C 
ATOM     14  C   UNL A   1      33.938  25.176  25.040  1.00  0.00     0.073 C 
ATOM     15  S   UNL A   1      31.522  24.085  23.249  1.00  0.00    -0.155 SA
ATOM     16  C   UNL A   1      33.054  24.038  25.613  1.00  0.00    -0.021 C 
ATOM     17  C   UNL A   1      32.480  23.157  24.487  1.00  0.00     0.076 C 
ATOM     18  C   UNL A   1      31.929  24.562  26.524  1.00  0.00     0.012 C 
ATOM     19  C   UNL A   1      33.963  23.153  26.501  1.00  0.00     0.012 C 
ENDBRANCH   9  12
ENDBRANCH   5   9
ENDBRANCH   3   5
ENDBRANCH   2   3
ENDBRANCH   1   2
BRANCH   1  20
ATOM     20  C   UNL A   1      31.422  32.374  27.130  1.00  0.00     0.275 C 
BRANCH  20  21
ATOM     21  O   UNL A   1      32.529  33.254  26.859  1.00  0.00    -0.458 OA
BRANCH  21  22
ATOM     22  C   UNL A   1      33.093  33.849  27.934  1.00  0.00     0.338 C 
ATOM     23  O   UNL A   1      32.658  34.780  28.587  1.00  0.00    -0.246 OA
BRANCH  22  24
ATOM     24  C   UNL A   1      34.335  33.146  28.291  1.00  0.00     0.060 A 
ATOM     25  C   UNL A   1      34.252  31.823  28.732  1.00  0.00     0.016 A 
ATOM     26  C   UNL A   1      35.550  33.830  28.332  1.00  0.00     0.016 A 
ATOM     27  C   UNL A   1      35.378  31.182  29.244  1.00  0.00     0.010 A 
ATOM     28  C   UNL A   1      36.684  33.184  28.835  1.00  0.00     0.010 A 
ATOM     29  C   UNL A   1      36.598  31.867  29.320  1.00  0.00    -0.014 A 
BRANCH  29  30
ATOM     30  C   UNL A   1      37.750  31.225  29.997  1.00  0.00     0.031 A 
ATOM     31  C   UNL A   1      38.027  31.527  31.443  1.00  0.00     0.074 A 
ATOM     32  C   UNL A   1      38.513  30.335  29.338  1.00  0.00     0.049 A 
ATOM     33  N   UNL A   1      38.987  31.078  32.213  1.00  0.00    -0.248 NA
ATOM     34  C   UNL A   1      37.099  32.451  32.113  1.00  0.00     0.031 C 
ATOM     35  C   UNL A   1      38.323  29.925  27.948  1.00  0.00     0.029 A 
ATOM     36  N   UNL A   1      39.599  29.611  29.758  1.00  0.00    -0.354 N 
ATOM     37  C   UNL A   1      38.785  31.670  33.453  1.00  0.00     0.074 A 
ATOM     38  C   UNL A   1      37.620  32.523  33.330  1.00  0.00     0.031 C 
ATOM     39  C   UNL A   1      39.260  29.016  27.630  1.00  0.00     0.029 A 
ATOM     40  C   UNL A   1      40.130  28.802  28.785  1.00  0.00     0.049 A 
ATOM     41  H   UNL A   1      39.963  29.666  30.671  1.00  0.00     0.167 HD
ATOM     42  C   UNL A   1      39.500  31.516  34.593  1.00  0.00     0.037 A 
ATOM     43  C   UNL A   1      41.201  27.988  28.819  1.00  0.00     0.037 A 
ATOM     44  C   UNL A   1      40.653  30.667  34.725  1.00  0.00     0.049 A 
ATOM     45  C   UNL A   1      42.001  27.864  30.085  1.00  0.00     0.074 A 
ATOM     46  C   UNL A   1      41.450  30.458  35.839  1.00  0.00     0.029 A 
ATOM     47  N   UNL A   1      41.174  29.882  33.709  1.00  0.00    -0.354 N 
ATOM     48  N   UNL A   1      41.807  28.440  31.247  1.00  0.00    -0.248 NA
ATOM     49  C   UNL A   1      43.172  26.974  30.044  1.00  0.00     0.031 C 
ATOM     50  C   UNL A   1      42.465  29.561  35.489  1.00  0.00     0.029 A 
ATOM     51  C   UNL A   1      42.283  29.193  34.166  1.00  0.00     0.049 A 
ATOM     52  H   UNL A   1      40.808  29.824  32.797  1.00  0.00     0.167 HD
ATOM     53  C   UNL A   1      42.818  27.973  32.076  1.00  0.00     0.074 A 
ATOM     54  C   UNL A   1      43.617  27.056  31.290  1.00  0.00     0.031 C 
ATOM     55  C   UNL A   1      43.064  28.280  33.372  1.00  0.00     0.037 A 
BRANCH  42  56
ATOM     56  C   UNL A   1      39.058  32.304  35.787  1.00  0.00     0.057 A 
ATOM     57  C   UNL A   1      38.239  31.743  36.774  1.00  0.00     0.134 A 
ATOM     58  C   UNL A   1      39.476  33.628  35.963  1.00  0.00     0.134 A 
ATOM     59  F   UNL A   1      37.794  30.484  36.653  1.00  0.00    -0.206 F 
ATOM     60  C   UNL A   1      37.837  32.479  37.890  1.00  0.00     0.040 A 
ATOM     61  C   UNL A   1      39.094  34.369  37.082  1.00  0.00     0.040 A 
ATOM     62  F   UNL A   1      40.262  34.221  35.051  1.00  0.00    -0.206 F 
ATOM     63  C   UNL A   1      38.271  33.795  38.048  1.00  0.00     0.006 A 
ENDBRANCH  42  56
BRANCH  43  64
ATOM     64  C   UNL A   1      41.586  27.226  27.609  1.00  0.00     0.057 A 
ATOM     65  C   UNL A   1      42.390  27.799  26.619  1.00  0.00     0.134 A 
ATOM     66  C   UNL A   1      41.148  25.911  27.410  1.00  0.00     0.134 A 
ATOM     67  F   UNL A   1      42.820  29.064  26.747  1.00  0.00    -0.206 F 
ATOM     68  C   UNL A   1      42.739  27.095  25.467  1.00  0.00     0.040 A 
ATOM     69  C   UNL A   1      41.505  25.189  26.272  1.00  0.00     0.040 A 
ATOM     70  F   UNL A   1      40.372  25.311  28.325  1.00  0.00    -0.206 F 
ATOM     71  C   UNL A   1      42.300  25.783  25.293  1.00  0.00     0.006 A 
ENDBRANCH  43  64
BRANCH  55  72
ATOM     72  C   UNL A   1      44.228  27.599  34.022  1.00  0.00     0.057 A 
ATOM     73  C   UNL A   1      45.503  28.178  34.035  1.00  0.00     0.134 A 
ATOM     74  C   UNL A   1      44.068  26.365  34.663  1.00  0.00     0.134 A 
ATOM     75  F   UNL A   1      45.722  29.354  33.426  1.00  0.00    -0.206 F 
ATOM     76  C   UNL A   1      46.585  27.542  34.646  1.00  0.00     0.040 A 
ATOM     77  C   UNL A   1      45.138  25.727  35.291  1.00  0.00     0.040 A 
ATOM     78  F   UNL A   1      42.870  25.762  34.689  1.00  0.00    -0.206 F 
ATOM     79  C   UNL A   1      46.402  26.314  35.280  1.00  0.00     0.006 A 
ENDBRANCH  55  72
ENDBRANCH  29  30
ENDBRANCH  22  24
ENDBRANCH  21  22
ENDBRANCH  20  21
ENDBRANCH   1  20
TORSDOF 14
ENDMDL
MODEL 3
REMARK VINA RESULT:      -9.6      5.825     10.889
REMARK SMILES CC(C)[C@@H]([NH2+][C@@H]1CSCC(C)(C)C1)C(=O)OCCOC(=O)c1ccc(-c2c3nc(c(-c4c(F)cccc4F)c4ccc([nH]4)c(-c4c(F)cccc4F)c4nc(c(-c5c(F)cccc5F)c5ccc2[nH]5)C=C4)C=C3)cc1
REMARK SMILES IDX 17 1 16 2 14 3 15 4 4 5 2 6 1 7 3 8 5 9 6 12 7 13 13 14 8 15
REMARK SMILES IDX 10 16 9 17 11 18 12 19 18 20 19 21 20 22 21 23 22 24 23 25
REMARK SMILES IDX 75 26 24 27 74 28 25 29 26 30 27 31 68 32 28 33 73 34 67 35
REMARK SMILES IDX 69 36 29 37 72 38 66 39 65 40 30 42 56 43 39 44 55 45 40 46
REMARK SMILES IDX 43 47 54 48 70 49 41 50 42 51 53 53 71 54 44 55 31 56 32 57
REMARK SMILES IDX 37 58 33 59 34 60 36 61 38 62 35 63 57 64 58 65 63 66 59 67
REMARK SMILES IDX 60 68 62 69 64 70 61 71 45 72 46 73 51 74 47 75 48 76 50 77
REMARK SMILES IDX 52 78 49 79
REMARK H PARENT 5 10 5 11 69 41 43 52
REMARK Flexibility Score: inf
ROOT
ATOM      1  C   UNL A   1      31.736  30.649  26.493  1.00  0.00     0.274 C 
ENDROOT
BRANCH   1   2
ATOM      2  O   UNL A   1      31.055  30.243  25.289  1.00  0.00    -0.458 OA
BRANCH   2   3
ATOM      3  C   UNL A   1      31.719  29.329  24.531  1.00  0.00     0.365 C 
ATOM      4  O   UNL A   1      32.897  29.443  24.202  1.00  0.00    -0.245 OA
BRANCH   3   5
ATOM      5  C   UNL A   1      30.847  28.123  24.088  1.00  0.00     0.296 C 
BRANCH   5   6
ATOM      6  C   UNL A   1      29.981  28.382  22.816  1.00  0.00     0.053 C 
ATOM      7  C   UNL A   1      28.478  28.458  23.137  1.00  0.00     0.014 C 
ATOM      8  C   UNL A   1      30.360  29.705  22.127  1.00  0.00     0.014 C 
ENDBRANCH   5   6
BRANCH   5   9
ATOM      9  N   UNL A   1      31.688  26.909  23.945  1.00  0.00    -0.331 N 
ATOM     10  H   UNL A   1      32.520  27.168  23.413  1.00  0.00     0.347 HD
ATOM     11  H   UNL A   1      31.093  26.219  23.487  1.00  0.00     0.347 HD
BRANCH   9  12
ATOM     12  C   UNL A   1      32.139  26.269  25.200  1.00  0.00     0.193 C 
ATOM     13  C   UNL A   1      33.653  25.984  25.118  1.00  0.00     0.134 C 
ATOM     14  C   UNL A   1      31.369  25.010  25.674  1.00  0.00     0.073 C 
ATOM     15  S   UNL A   1      34.058  24.620  23.986  1.00  0.00    -0.155 SA
ATOM     16  C   UNL A   1      31.567  23.677  24.908  1.00  0.00    -0.021 C 
ATOM     17  C   UNL A   1      33.062  23.323  24.784  1.00  0.00     0.076 C 
ATOM     18  C   UNL A   1      30.891  23.682  23.524  1.00  0.00     0.012 C 
ATOM     19  C   UNL A   1      30.875  22.565  25.732  1.00  0.00     0.012 C 
ENDBRANCH   9  12
ENDBRANCH   5   9
ENDBRANCH   3   5
ENDBRANCH   2   3
ENDBRANCH   1   2
BRANCH   1  20
ATOM     20  C   UNL A   1      31.462  32.116  26.838  1.00  0.00     0.275 C 
BRANCH  20  21
ATOM     21  O   UNL A   1      32.650  32.911  26.656  1.00  0.00    -0.458 OA
BRANCH  21  22
ATOM     22  C   UNL A   1      33.145  33.503  27.765  1.00  0.00     0.338 C 
ATOM     23  O   UNL A   1      32.639  34.392  28.427  1.00  0.00    -0.246 OA
BRANCH  22  24
ATOM     24  C   UNL A   1      34.409  32.855  28.148  1.00  0.00     0.060 A 
ATOM     25  C   UNL A   1      34.392  31.497  28.475  1.00  0.00     0.016 A 
ATOM     26  C   UNL A   1      35.567  33.611  28.327  1.00  0.00     0.016 A 
ATOM     27  C   UNL A   1      35.526  30.890  29.009  1.00  0.00     0.010 A 
ATOM     28  C   UNL A   1      36.711  32.999  28.851  1.00  0.00     0.010 A 
ATOM     29  C   UNL A   1      36.688  31.644  29.222  1.00  0.00    -0.014 A 
BRANCH  29  30
ATOM     30  C   UNL A   1      37.838  31.023  29.922  1.00  0.00     0.031 A 
ATOM     31  C   UNL A   1      38.091  31.344  31.369  1.00  0.00     0.074 A 
ATOM     32  C   UNL A   1      38.620  30.135  29.284  1.00  0.00     0.049 A 
ATOM     33  N   UNL A   1      39.046  30.915  32.156  1.00  0.00    -0.248 NA
ATOM     34  C   UNL A   1      37.143  32.263  32.015  1.00  0.00     0.031 C 
ATOM     35  C   UNL A   1      38.455  29.708  27.895  1.00  0.00     0.029 A 
ATOM     36  N   UNL A   1      39.709  29.428  29.726  1.00  0.00    -0.354 N 
ATOM     37  C   UNL A   1      38.819  31.518  33.386  1.00  0.00     0.074 A 
ATOM     38  C   UNL A   1      37.647  32.355  33.238  1.00  0.00     0.031 C 
ATOM     39  C   UNL A   1      39.407  28.806  27.600  1.00  0.00     0.029 A 
ATOM     40  C   UNL A   1      40.262  28.615  28.769  1.00  0.00     0.049 A 
ATOM     41  H   UNL A   1      40.060  29.498  30.643  1.00  0.00     0.167 HD
ATOM     42  C   UNL A   1      39.520  31.384  34.537  1.00  0.00     0.037 A 
ATOM     43  C   UNL A   1      41.343  27.815  28.827  1.00  0.00     0.037 A 
ATOM     44  C   UNL A   1      40.682  30.551  34.695  1.00  0.00     0.049 A 
ATOM     45  C   UNL A   1      42.127  27.714  30.105  1.00  0.00     0.074 A 
ATOM     46  C   UNL A   1      41.465  30.363  35.822  1.00  0.00     0.029 A 
ATOM     47  N   UNL A   1      41.226  29.761  33.694  1.00  0.00    -0.354 N 
ATOM     48  N   UNL A   1      41.910  28.300  31.257  1.00  0.00    -0.248 NA
ATOM     49  C   UNL A   1      43.308  26.838  30.090  1.00  0.00     0.031 C 
ATOM     50  C   UNL A   1      42.496  29.474  35.496  1.00  0.00     0.029 A 
ATOM     51  C   UNL A   1      42.337  29.090  34.174  1.00  0.00     0.049 A 
ATOM     52  H   UNL A   1      40.873  29.689  32.778  1.00  0.00     0.167 HD
ATOM     53  C   UNL A   1      42.914  27.855  32.105  1.00  0.00     0.074 A 
ATOM     54  C   UNL A   1      43.735  26.938  31.340  1.00  0.00     0.031 C 
ATOM     55  C   UNL A   1      43.139  28.178  33.401  1.00  0.00     0.037 A 
BRANCH  42  56
ATOM     56  C   UNL A   1      39.053  32.180  35.717  1.00  0.00     0.057 A 
ATOM     57  C   UNL A   1      39.435  33.515  35.899  1.00  0.00     0.134 A 
ATOM     58  C   UNL A   1      38.195  31.613  36.666  1.00  0.00     0.134 A 
ATOM     59  F   UNL A   1      40.268  34.107  35.030  1.00  0.00    -0.206 F 
ATOM     60  C   UNL A   1      38.989  34.255  36.995  1.00  0.00     0.040 A 
ATOM     61  C   UNL A   1      37.730  32.348  37.757  1.00  0.00     0.040 A 
ATOM     62  F   UNL A   1      37.794  30.338  36.546  1.00  0.00    -0.206 F 
ATOM     63  C   UNL A   1      38.130  33.673  37.924  1.00  0.00     0.006 A 
ENDBRANCH  42  56
BRANCH  43  64
ATOM     64  C   UNL A   1      41.753  27.044  27.630  1.00  0.00     0.057 A 
ATOM     65  C   UNL A   1      42.568  27.615  26.648  1.00  0.00     0.134 A 
ATOM     66  C   UNL A   1      41.330  25.724  27.438  1.00  0.00     0.134 A 
ATOM     67  F   UNL A   1      42.985  28.885  26.770  1.00  0.00    -0.206 F 
ATOM     68  C   UNL A   1      42.942  26.902  25.508  1.00  0.00     0.040 A 
ATOM     69  C   UNL A   1      41.711  24.994  26.312  1.00  0.00     0.040 A 
ATOM     70  F   UNL A   1      40.545  25.126  28.346  1.00  0.00    -0.206 F 
ATOM     71  C   UNL A   1      42.516  25.585  25.340  1.00  0.00     0.006 A 
ENDBRANCH  43  64
BRANCH  55  72
ATOM     72  C   UNL A   1      44.303  27.519  34.075  1.00  0.00     0.057 A 
ATOM     73  C   UNL A   1      44.178  26.275  34.706  1.00  0.00     0.134 A 
ATOM     74  C   UNL A   1      45.566  28.122  34.071  1.00  0.00     0.134 A 
ATOM     75  F   UNL A   1      42.989  25.654  34.753  1.00  0.00    -0.206 F 
ATOM     76  C   UNL A   1      45.266  25.662  35.328  1.00  0.00     0.040 A 
ATOM     77  C   UNL A   1      46.665  27.512  34.676  1.00  0.00     0.040 A 
ATOM     78  F   UNL A   1      45.751  29.311  33.479  1.00  0.00    -0.206 F 
ATOM     79  C   UNL A   1      46.515  26.280  35.310  1.00  0.00     0.006 A 
ENDBRANCH  55  72
ENDBRANCH  29  30
ENDBRANCH  22  24
ENDBRANCH  21  22
ENDBRANCH  20  21
ENDBRANCH   1  20
TORSDOF 14
ENDMDL
