MODEL 1
REMARK VINA RESULT:     -10.8      0.000      0.000
REMARK SMILES C[C@@H](NC(=O)CCCNC(=O)c1ccco1)C(=O)OCCOC(=O)c1ccc(-c2c3nc(c(-c4c(F)cccc4F)c4ccc([nH]4)c(-c4c(F)cccc4F)c4nc(c(-c5c(F)cccc5F)c5ccc2[nH]5)C=C4)C=C3)cc1
REMARK SMILES IDX 17 1 18 2 2 3 1 4 3 5 4 6 5 8 6 9 7 10 8 11 9 12 10 13 11 15
REMARK SMILES IDX 12 16 13 17 16 18 14 19 15 20 19 21 20 22 21 23 22 24 23 25
REMARK SMILES IDX 24 26 25 27 26 28 78 29 27 30 77 31 28 32 29 33 30 34 71 35
REMARK SMILES IDX 31 36 76 37 70 38 72 39 32 40 75 41 69 42 68 43 33 45 59 46
REMARK SMILES IDX 42 47 58 48 43 49 46 50 57 51 73 52 44 53 45 54 56 56 74 57
REMARK SMILES IDX 47 58 34 59 35 60 40 61 36 62 37 63 39 64 41 65 38 66 60 67
REMARK SMILES IDX 61 68 66 69 62 70 63 71 65 72 67 73 64 74 48 75 49 76 54 77
REMARK SMILES IDX 50 78 51 79 53 80 55 81 52 82
REMARK H PARENT 3 7 9 14 72 44 46 55
REMARK Flexibility Score: inf
ROOT
ATOM      1  C   UNL A   1      32.959  29.283  25.335  1.00  0.00     0.328 C 
ATOM      2  O   UNL A   1      33.358  28.348  26.021  1.00  0.00    -0.250 OA
ENDROOT
BRANCH   1   3
ATOM      3  C   UNL A   1      33.004  29.256  23.787  1.00  0.00     0.189 C 
ATOM      4  C   UNL A   1      34.022  28.373  23.072  1.00  0.00     0.043 C 
BRANCH   3   5
ATOM      5  N   UNL A   1      31.719  29.199  23.083  1.00  0.00    -0.343 N 
ATOM      6  C   UNL A   1      30.862  28.143  22.961  1.00  0.00     0.220 C 
ATOM      7  H   UNL A   1      31.437  30.032  22.640  1.00  0.00     0.164 HD
ATOM      8  O   UNL A   1      30.232  28.023  21.912  1.00  0.00    -0.275 OA
BRANCH   6   9
ATOM      9  C   UNL A   1      30.578  27.247  24.147  1.00  0.00     0.102 C 
BRANCH   9  10
ATOM     10  C   UNL A   1      29.968  25.856  23.935  1.00  0.00     0.031 C 
BRANCH  10  11
ATOM     11  C   UNL A   1      30.754  24.673  23.343  1.00  0.00     0.117 C 
BRANCH  11  12
ATOM     12  N   UNL A   1      31.464  24.954  22.106  1.00  0.00    -0.349 N 
ATOM     13  C   UNL A   1      32.824  25.036  21.851  1.00  0.00     0.286 C 
ATOM     14  H   UNL A   1      30.886  25.110  21.324  1.00  0.00     0.163 HD
ATOM     15  O   UNL A   1      33.198  25.530  20.786  1.00  0.00    -0.266 OA
BRANCH  13  16
ATOM     16  C   UNL A   1      33.798  24.567  22.803  1.00  0.00     0.191 A 
ATOM     17  C   UNL A   1      34.166  24.941  24.081  1.00  0.00     0.056 A 
ATOM     18  O   UNL A   1      34.467  23.419  22.464  1.00  0.00    -0.459 OA
ATOM     19  C   UNL A   1      35.110  23.980  24.529  1.00  0.00     0.043 A 
ATOM     20  C   UNL A   1      35.255  23.077  23.506  1.00  0.00     0.196 A 
ENDBRANCH  13  16
ENDBRANCH  11  12
ENDBRANCH  10  11
ENDBRANCH   9  10
ENDBRANCH   6   9
ENDBRANCH   3   5
ENDBRANCH   1   3
BRANCH   1  21
ATOM     21  O   UNL A   1      32.541  30.471  25.844  1.00  0.00    -0.461 OA
BRANCH  21  22
ATOM     22  C   UNL A   1      32.785  30.732  27.248  1.00  0.00     0.274 C 
BRANCH  22  23
ATOM     23  C   UNL A   1      33.560  32.035  27.464  1.00  0.00     0.275 C 
BRANCH  23  24
ATOM     24  O   UNL A   1      32.691  33.169  27.603  1.00  0.00    -0.458 OA
BRANCH  24  25
ATOM     25  C   UNL A   1      33.176  34.136  28.410  1.00  0.00     0.338 C 
ATOM     26  O   UNL A   1      32.618  35.136  28.819  1.00  0.00    -0.246 OA
BRANCH  25  27
ATOM     27  C   UNL A   1      34.436  33.745  29.005  1.00  0.00     0.060 A 
ATOM     28  C   UNL A   1      34.352  32.887  30.109  1.00  0.00     0.016 A 
ATOM     29  C   UNL A   1      35.641  34.272  28.558  1.00  0.00     0.016 A 
ATOM     30  C   UNL A   1      35.491  32.546  30.793  1.00  0.00     0.010 A 
ATOM     31  C   UNL A   1      36.798  33.890  29.216  1.00  0.00     0.010 A 
ATOM     32  C   UNL A   1      36.715  33.015  30.313  1.00  0.00    -0.014 A 
BRANCH  32  33
ATOM     33  C   UNL A   1      37.936  32.452  30.882  1.00  0.00     0.031 A 
ATOM     34  C   UNL A   1      38.597  31.307  30.208  1.00  0.00     0.074 A 
ATOM     35  C   UNL A   1      38.368  33.010  32.025  1.00  0.00     0.049 A 
ATOM     36  N   UNL A   1      39.594  30.583  30.626  1.00  0.00    -0.248 NA
ATOM     37  C   UNL A   1      38.055  30.908  28.899  1.00  0.00     0.031 C 
ATOM     38  C   UNL A   1      37.737  34.159  32.691  1.00  0.00     0.029 A 
ATOM     39  N   UNL A   1      39.414  32.691  32.836  1.00  0.00    -0.354 N 
ATOM     40  C   UNL A   1      39.784  29.616  29.651  1.00  0.00     0.074 A 
ATOM     41  C   UNL A   1      38.795  29.843  28.619  1.00  0.00     0.031 C 
ATOM     42  C   UNL A   1      38.413  34.445  33.811  1.00  0.00     0.029 A 
ATOM     43  C   UNL A   1      39.476  33.466  33.968  1.00  0.00     0.049 A 
ATOM     44  H   UNL A   1      40.060  31.977  32.632  1.00  0.00     0.167 HD
ATOM     45  C   UNL A   1      40.704  28.626  29.651  1.00  0.00     0.037 A 
ATOM     46  C   UNL A   1      40.284  33.354  35.033  1.00  0.00     0.037 A 
ATOM     47  C   UNL A   1      41.647  28.450  30.726  1.00  0.00     0.049 A 
ATOM     48  C   UNL A   1      41.287  32.242  35.006  1.00  0.00     0.074 A 
ATOM     49  C   UNL A   1      42.633  27.494  30.870  1.00  0.00     0.029 A 
ATOM     50  N   UNL A   1      41.708  29.267  31.854  1.00  0.00    -0.354 N 
ATOM     51  N   UNL A   1      41.468  31.323  34.085  1.00  0.00    -0.248 NA
ATOM     52  C   UNL A   1      42.192  32.143  36.152  1.00  0.00     0.031 C 
ATOM     53  C   UNL A   1      43.266  27.710  32.101  1.00  0.00     0.029 A 
ATOM     54  C   UNL A   1      42.708  28.830  32.704  1.00  0.00     0.049 A 
ATOM     55  H   UNL A   1      41.125  30.042  32.020  1.00  0.00     0.167 HD
ATOM     56  C   UNL A   1      42.516  30.537  34.530  1.00  0.00     0.074 A 
ATOM     57  C   UNL A   1      42.942  31.109  35.797  1.00  0.00     0.031 C 
ATOM     58  C   UNL A   1      43.078  29.444  33.958  1.00  0.00     0.037 A 
BRANCH  45  59
ATOM     59  C   UNL A   1      40.681  27.663  28.502  1.00  0.00     0.057 A 
ATOM     60  C   UNL A   1      41.443  27.867  27.343  1.00  0.00     0.134 A 
ATOM     61  C   UNL A   1      39.865  26.526  28.541  1.00  0.00     0.134 A 
ATOM     62  F   UNL A   1      42.228  28.949  27.228  1.00  0.00    -0.206 F 
ATOM     63  C   UNL A   1      41.373  26.991  26.256  1.00  0.00     0.040 A 
ATOM     64  C   UNL A   1      39.805  25.630  27.470  1.00  0.00     0.040 A 
ATOM     65  F   UNL A   1      39.101  26.271  29.614  1.00  0.00    -0.206 F 
ATOM     66  C   UNL A   1      40.555  25.866  26.320  1.00  0.00     0.006 A 
ENDBRANCH  45  59
BRANCH  46  67
ATOM     67  C   UNL A   1      40.157  34.306  36.161  1.00  0.00     0.057 A 
ATOM     68  C   UNL A   1      40.804  35.545  36.135  1.00  0.00     0.134 A 
ATOM     69  C   UNL A   1      39.325  34.039  37.257  1.00  0.00     0.134 A 
ATOM     70  F   UNL A   1      41.613  35.862  35.113  1.00  0.00    -0.206 F 
ATOM     71  C   UNL A   1      40.639  36.479  37.160  1.00  0.00     0.040 A 
ATOM     72  C   UNL A   1      39.130  34.972  38.276  1.00  0.00     0.040 A 
ATOM     73  F   UNL A   1      38.656  32.878  37.333  1.00  0.00    -0.206 F 
ATOM     74  C   UNL A   1      39.793  36.196  38.231  1.00  0.00     0.006 A 
ENDBRANCH  46  67
BRANCH  58  75
ATOM     75  C   UNL A   1      44.221  28.833  34.704  1.00  0.00     0.057 A 
ATOM     76  C   UNL A   1      45.543  29.236  34.480  1.00  0.00     0.134 A 
ATOM     77  C   UNL A   1      43.987  27.848  35.670  1.00  0.00     0.134 A 
ATOM     78  F   UNL A   1      45.824  30.163  33.551  1.00  0.00    -0.206 F 
ATOM     79  C   UNL A   1      46.601  28.658  35.178  1.00  0.00     0.040 A 
ATOM     80  C   UNL A   1      45.036  27.282  36.393  1.00  0.00     0.040 A 
ATOM     81  F   UNL A   1      42.741  27.428  35.929  1.00  0.00    -0.206 F 
ATOM     82  C   UNL A   1      46.347  27.683  36.142  1.00  0.00     0.006 A 
ENDBRANCH  58  75
ENDBRANCH  32  33
ENDBRANCH  25  27
ENDBRANCH  24  25
ENDBRANCH  23  24
ENDBRANCH  22  23
ENDBRANCH  21  22
ENDBRANCH   1  21
TORSDOF 17
ENDMDL
MODEL 2
REMARK VINA RESULT:     -10.7      1.679      3.372
REMARK SMILES C[C@@H](NC(=O)CCCNC(=O)c1ccco1)C(=O)OCCOC(=O)c1ccc(-c2c3nc(c(-c4c(F)cccc4F)c4ccc([nH]4)c(-c4c(F)cccc4F)c4nc(c(-c5c(F)cccc5F)c5ccc2[nH]5)C=C4)C=C3)cc1
REMARK SMILES IDX 17 1 18 2 2 3 1 4 3 5 4 6 5 8 6 9 7 10 8 11 9 12 10 13 11 15
REMARK SMILES IDX 12 16 13 17 16 18 14 19 15 20 19 21 20 22 21 23 22 24 23 25
REMARK SMILES IDX 24 26 25 27 26 28 78 29 27 30 77 31 28 32 29 33 30 34 71 35
REMARK SMILES IDX 31 36 76 37 70 38 72 39 32 40 75 41 69 42 68 43 33 45 59 46
REMARK SMILES IDX 42 47 58 48 43 49 46 50 57 51 73 52 44 53 45 54 56 56 74 57
REMARK SMILES IDX 47 58 34 59 35 60 40 61 36 62 37 63 39 64 41 65 38 66 60 67
REMARK SMILES IDX 61 68 66 69 62 70 63 71 65 72 67 73 64 74 48 75 49 76 54 77
REMARK SMILES IDX 50 78 51 79 53 80 55 81 52 82
REMARK H PARENT 3 7 9 14 72 44 46 55
REMARK Flexibility Score: inf
ROOT
ATOM      1  C   UNL A   1      31.753  28.682  27.002  1.00  0.00     0.328 C 
ATOM      2  O   UNL A   1      31.258  28.111  27.969  1.00  0.00    -0.250 OA
ENDROOT
BRANCH   1   3
ATOM      3  C   UNL A   1      32.777  27.994  26.067  1.00  0.00     0.189 C 
ATOM      4  C   UNL A   1      34.271  28.222  26.277  1.00  0.00     0.043 C 
BRANCH   3   5
ATOM      5  N   UNL A   1      32.534  26.587  25.730  1.00  0.00    -0.343 N 
ATOM      6  C   UNL A   1      31.876  26.074  24.650  1.00  0.00     0.220 C 
ATOM      7  H   UNL A   1      32.892  25.927  26.366  1.00  0.00     0.164 HD
ATOM      8  O   UNL A   1      31.221  25.044  24.803  1.00  0.00    -0.275 OA
BRANCH   6   9
ATOM      9  C   UNL A   1      32.086  26.665  23.273  1.00  0.00     0.102 C 
BRANCH   9  10
ATOM     10  C   UNL A   1      30.952  27.431  22.580  1.00  0.00     0.031 C 
BRANCH  10  11
ATOM     11  C   UNL A   1      30.054  28.446  23.307  1.00  0.00     0.117 C 
BRANCH  11  12
ATOM     12  N   UNL A   1      28.627  28.171  23.246  1.00  0.00    -0.349 N 
ATOM     13  C   UNL A   1      27.559  29.021  23.006  1.00  0.00     0.286 C 
ATOM     14  H   UNL A   1      28.381  27.230  23.399  1.00  0.00     0.163 HD
ATOM     15  O   UNL A   1      26.419  28.622  23.246  1.00  0.00    -0.266 OA
BRANCH  13  16
ATOM     16  C   UNL A   1      27.758  30.353  22.494  1.00  0.00     0.191 A 
ATOM     17  C   UNL A   1      27.869  31.607  23.065  1.00  0.00     0.056 A 
ATOM     18  O   UNL A   1      28.013  30.450  21.150  1.00  0.00    -0.459 OA
ATOM     19  C   UNL A   1      28.196  32.503  22.013  1.00  0.00     0.043 A 
ATOM     20  C   UNL A   1      28.270  31.746  20.870  1.00  0.00     0.196 A 
ENDBRANCH  13  16
ENDBRANCH  11  12
ENDBRANCH  10  11
ENDBRANCH   9  10
ENDBRANCH   6   9
ENDBRANCH   3   5
ENDBRANCH   1   3
BRANCH   1  21
ATOM     21  O   UNL A   1      31.548  29.992  26.709  1.00  0.00    -0.461 OA
BRANCH  21  22
ATOM     22  C   UNL A   1      32.577  30.942  27.084  1.00  0.00     0.274 C 
BRANCH  22  23
ATOM     23  C   UNL A   1      32.014  32.354  27.269  1.00  0.00     0.275 C 
BRANCH  23  24
ATOM     24  O   UNL A   1      33.039  33.358  27.227  1.00  0.00    -0.458 OA
BRANCH  24  25
ATOM     25  C   UNL A   1      33.246  33.980  28.406  1.00  0.00     0.338 C 
ATOM     26  O   UNL A   1      32.471  34.653  29.058  1.00  0.00    -0.246 OA
BRANCH  25  27
ATOM     27  C   UNL A   1      34.488  33.556  29.016  1.00  0.00     0.060 A 
ATOM     28  C   UNL A   1      34.394  32.493  29.923  1.00  0.00     0.016 A 
ATOM     29  C   UNL A   1      35.679  34.232  28.779  1.00  0.00     0.016 A 
ATOM     30  C   UNL A   1      35.505  32.092  30.620  1.00  0.00     0.010 A 
ATOM     31  C   UNL A   1      36.813  33.797  29.443  1.00  0.00     0.010 A 
ATOM     32  C   UNL A   1      36.721  32.719  30.341  1.00  0.00    -0.014 A 
BRANCH  32  33
ATOM     33  C   UNL A   1      37.939  32.129  30.888  1.00  0.00     0.031 A 
ATOM     34  C   UNL A   1      38.638  31.061  30.131  1.00  0.00     0.074 A 
ATOM     35  C   UNL A   1      38.331  32.589  32.088  1.00  0.00     0.049 A 
ATOM     36  N   UNL A   1      39.639  30.320  30.509  1.00  0.00    -0.248 NA
ATOM     37  C   UNL A   1      38.137  30.772  28.778  1.00  0.00     0.031 C 
ATOM     38  C   UNL A   1      37.661  33.661  32.837  1.00  0.00     0.029 A 
ATOM     39  N   UNL A   1      39.363  32.216  32.894  1.00  0.00    -0.354 N 
ATOM     40  C   UNL A   1      39.872  29.449  29.456  1.00  0.00     0.074 A 
ATOM     41  C   UNL A   1      38.905  29.751  28.424  1.00  0.00     0.031 C 
ATOM     42  C   UNL A   1      38.304  33.858  33.995  1.00  0.00     0.029 A 
ATOM     43  C   UNL A   1      39.382  32.887  34.092  1.00  0.00     0.049 A 
ATOM     44  H   UNL A   1      40.028  31.535  32.644  1.00  0.00     0.167 HD
ATOM     45  C   UNL A   1      40.812  28.479  29.392  1.00  0.00     0.037 A 
ATOM     46  C   UNL A   1      40.166  32.694  35.163  1.00  0.00     0.037 A 
ATOM     47  C   UNL A   1      41.732  28.224  30.470  1.00  0.00     0.049 A 
ATOM     48  C   UNL A   1      41.191  31.607  35.063  1.00  0.00     0.074 A 
ATOM     49  C   UNL A   1      42.732  27.276  30.554  1.00  0.00     0.029 A 
ATOM     50  N   UNL A   1      41.749  28.936  31.668  1.00  0.00    -0.354 N 
ATOM     51  N   UNL A   1      41.413  30.778  34.068  1.00  0.00    -0.248 NA
ATOM     52  C   UNL A   1      42.070  31.421  36.219  1.00  0.00     0.031 C 
ATOM     53  C   UNL A   1      43.331  27.392  31.815  1.00  0.00     0.029 A 
ATOM     54  C   UNL A   1      42.736  28.443  32.502  1.00  0.00     0.049 A 
ATOM     55  H   UNL A   1      41.146  29.682  31.888  1.00  0.00     0.167 HD
ATOM     56  C   UNL A   1      42.465  29.974  34.468  1.00  0.00     0.074 A 
ATOM     57  C   UNL A   1      42.849  30.437  35.793  1.00  0.00     0.031 C 
ATOM     58  C   UNL A   1      43.063  28.947  33.815  1.00  0.00     0.037 A 
BRANCH  45  59
ATOM     59  C   UNL A   1      40.836  27.623  28.160  1.00  0.00     0.057 A 
ATOM     60  C   UNL A   1      40.143  26.408  28.083  1.00  0.00     0.134 A 
ATOM     61  C   UNL A   1      41.586  28.006  27.042  1.00  0.00     0.134 A 
ATOM     62  F   UNL A   1      39.425  25.967  29.127  1.00  0.00    -0.206 F 
ATOM     63  C   UNL A   1      40.217  25.593  26.950  1.00  0.00     0.040 A 
ATOM     64  C   UNL A   1      41.648  27.212  25.893  1.00  0.00     0.040 A 
ATOM     65  F   UNL A   1      42.283  29.154  27.047  1.00  0.00    -0.206 F 
ATOM     66  C   UNL A   1      40.968  25.997  25.849  1.00  0.00     0.006 A 
ENDBRANCH  45  59
BRANCH  46  67
ATOM     67  C   UNL A   1      39.992  33.538  36.369  1.00  0.00     0.057 A 
ATOM     68  C   UNL A   1      39.135  33.150  37.402  1.00  0.00     0.134 A 
ATOM     69  C   UNL A   1      40.734  34.712  36.556  1.00  0.00     0.134 A 
ATOM     70  F   UNL A   1      38.398  32.036  37.285  1.00  0.00    -0.206 F 
ATOM     71  C   UNL A   1      39.012  33.902  38.573  1.00  0.00     0.040 A 
ATOM     72  C   UNL A   1      40.642  35.460  37.730  1.00  0.00     0.040 A 
ATOM     73  F   UNL A   1      41.593  35.128  35.613  1.00  0.00    -0.206 F 
ATOM     74  C   UNL A   1      39.774  35.056  38.743  1.00  0.00     0.006 A 
ENDBRANCH  46  67
BRANCH  58  75
ATOM     75  C   UNL A   1      44.199  28.292  34.533  1.00  0.00     0.057 A 
ATOM     76  C   UNL A   1      45.501  28.800  34.465  1.00  0.00     0.134 A 
ATOM     77  C   UNL A   1      43.977  27.153  35.315  1.00  0.00     0.134 A 
ATOM     78  F   UNL A   1      45.773  29.879  33.714  1.00  0.00    -0.206 F 
ATOM     79  C   UNL A   1      46.554  28.181  35.135  1.00  0.00     0.040 A 
ATOM     80  C   UNL A   1      45.018  26.541  36.011  1.00  0.00     0.040 A 
ATOM     81  F   UNL A   1      42.749  26.626  35.420  1.00  0.00    -0.206 F 
ATOM     82  C   UNL A   1      46.311  27.051  35.916  1.00  0.00     0.006 A 
ENDBRANCH  58  75
ENDBRANCH  32  33
ENDBRANCH  25  27
ENDBRANCH  24  25
ENDBRANCH  23  24
ENDBRANCH  22  23
ENDBRANCH  21  22
ENDBRANCH   1  21
TORSDOF 17
ENDMDL
MODEL 3
REMARK VINA RESULT:     -10.7      1.813      7.095
REMARK SMILES C[C@@H](NC(=O)CCCNC(=O)c1ccco1)C(=O)OCCOC(=O)c1ccc(-c2c3nc(c(-c4c(F)cccc4F)c4ccc([nH]4)c(-c4c(F)cccc4F)c4nc(c(-c5c(F)cccc5F)c5ccc2[nH]5)C=C4)C=C3)cc1
REMARK SMILES IDX 17 1 18 2 2 3 1 4 3 5 4 6 5 8 6 9 7 10 8 11 9 12 10 13 11 15
REMARK SMILES IDX 12 16 13 17 16 18 14 19 15 20 19 21 20 22 21 23 22 24 23 25
REMARK SMILES IDX 24 26 25 27 26 28 78 29 27 30 77 31 28 32 29 33 30 34 71 35
REMARK SMILES IDX 31 36 76 37 70 38 72 39 32 40 75 41 69 42 68 43 33 45 59 46
REMARK SMILES IDX 42 47 58 48 43 49 46 50 57 51 73 52 44 53 45 54 56 56 74 57
REMARK SMILES IDX 47 58 34 59 35 60 40 61 36 62 37 63 39 64 41 65 38 66 60 67
REMARK SMILES IDX 61 68 66 69 62 70 63 71 65 72 67 73 64 74 48 75 49 76 54 77
REMARK SMILES IDX 50 78 51 79 53 80 55 81 52 82
REMARK H PARENT 3 7 9 14 72 44 46 55
REMARK Flexibility Score: inf
ROOT
ATOM      1  C   UNL A   1      32.153  29.715  26.928  1.00  0.00     0.328 C 
ATOM      2  O   UNL A   1      31.408  28.928  27.504  1.00  0.00    -0.250 OA
ENDROOT
BRANCH   1   3
ATOM      3  C   UNL A   1      33.461  29.264  26.235  1.00  0.00     0.189 C 
ATOM      4  C   UNL A   1      34.031  27.877  26.515  1.00  0.00     0.043 C 
BRANCH   3   5
ATOM      5  N   UNL A   1      33.604  29.578  24.809  1.00  0.00    -0.343 N 
ATOM      6  C   UNL A   1      32.774  29.242  23.778  1.00  0.00     0.220 C 
ATOM      7  H   UNL A   1      34.402  30.099  24.564  1.00  0.00     0.164 HD
ATOM      8  O   UNL A   1      33.278  28.998  22.683  1.00  0.00    -0.275 OA
BRANCH   6   9
ATOM      9  C   UNL A   1      31.273  29.333  23.941  1.00  0.00     0.102 C 
BRANCH   9  10
ATOM     10  C   UNL A   1      30.432  28.058  24.076  1.00  0.00     0.031 C 
BRANCH  10  11
ATOM     11  C   UNL A   1      29.570  27.493  22.933  1.00  0.00     0.117 C 
BRANCH  11  12
ATOM     12  N   UNL A   1      28.133  27.590  23.131  1.00  0.00    -0.349 N 
ATOM     13  C   UNL A   1      27.300  28.698  23.124  1.00  0.00     0.286 C 
ATOM     14  H   UNL A   1      27.679  26.731  23.295  1.00  0.00     0.163 HD
ATOM     15  O   UNL A   1      26.153  28.579  23.560  1.00  0.00    -0.266 OA
BRANCH  13  16
ATOM     16  C   UNL A   1      27.748  29.975  22.631  1.00  0.00     0.191 A 
ATOM     17  C   UNL A   1      28.087  31.179  23.218  1.00  0.00     0.056 A 
ATOM     18  O   UNL A   1      28.029  30.036  21.289  1.00  0.00    -0.459 OA
ATOM     19  C   UNL A   1      28.585  32.010  22.179  1.00  0.00     0.043 A 
ATOM     20  C   UNL A   1      28.527  31.264  21.028  1.00  0.00     0.196 A 
ENDBRANCH  13  16
ENDBRANCH  11  12
ENDBRANCH  10  11
ENDBRANCH   9  10
ENDBRANCH   6   9
ENDBRANCH   3   5
ENDBRANCH   1   3
BRANCH   1  21
ATOM     21  O   UNL A   1      31.974  31.062  26.925  1.00  0.00    -0.461 OA
BRANCH  21  22
ATOM     22  C   UNL A   1      32.988  31.883  27.557  1.00  0.00     0.274 C 
BRANCH  22  23
ATOM     23  C   UNL A   1      32.801  33.369  27.243  1.00  0.00     0.275 C 
BRANCH  23  24
ATOM     24  O   UNL A   1      32.383  34.121  28.391  1.00  0.00    -0.458 OA
BRANCH  24  25
ATOM     25  C   UNL A   1      33.281  35.040  28.804  1.00  0.00     0.338 C 
ATOM     26  O   UNL A   1      33.166  36.250  28.849  1.00  0.00    -0.246 OA
BRANCH  25  27
ATOM     27  C   UNL A   1      34.401  34.418  29.477  1.00  0.00     0.060 A 
ATOM     28  C   UNL A   1      34.106  33.757  30.676  1.00  0.00     0.016 A 
ATOM     29  C   UNL A   1      35.699  34.558  29.000  1.00  0.00     0.016 A 
ATOM     30  C   UNL A   1      35.123  33.225  31.427  1.00  0.00     0.010 A 
ATOM     31  C   UNL A   1      36.722  33.979  29.732  1.00  0.00     0.010 A 
ATOM     32  C   UNL A   1      36.423  33.300  30.926  1.00  0.00    -0.014 A 
BRANCH  32  33
ATOM     33  C   UNL A   1      37.462  32.521  31.593  1.00  0.00     0.031 A 
ATOM     34  C   UNL A   1      37.940  32.937  32.936  1.00  0.00     0.074 A 
ATOM     35  C   UNL A   1      37.946  31.472  30.908  1.00  0.00     0.049 A 
ATOM     36  N   UNL A   1      38.942  32.469  33.622  1.00  0.00    -0.248 NA
ATOM     37  C   UNL A   1      37.209  34.035  33.587  1.00  0.00     0.031 C 
ATOM     38  C   UNL A   1      37.466  31.036  29.589  1.00  0.00     0.029 A 
ATOM     39  N   UNL A   1      38.944  30.594  31.204  1.00  0.00    -0.354 N 
ATOM     40  C   UNL A   1      38.989  33.236  34.776  1.00  0.00     0.074 A 
ATOM     41  C   UNL A   1      37.917  34.203  34.696  1.00  0.00     0.031 C 
ATOM     42  C   UNL A   1      38.174  29.970  29.192  1.00  0.00     0.029 A 
ATOM     43  C   UNL A   1      39.190  29.696  30.195  1.00  0.00     0.049 A 
ATOM     44  H   UNL A   1      39.439  30.603  32.055  1.00  0.00     0.167 HD
ATOM     45  C   UNL A   1      39.875  33.129  35.791  1.00  0.00     0.037 A 
ATOM     46  C   UNL A   1      40.167  28.783  30.089  1.00  0.00     0.037 A 
ATOM     47  C   UNL A   1      40.931  32.150  35.793  1.00  0.00     0.049 A 
ATOM     48  C   UNL A   1      41.136  28.694  31.227  1.00  0.00     0.074 A 
ATOM     49  C   UNL A   1      41.906  31.923  36.745  1.00  0.00     0.029 A 
ATOM     50  N   UNL A   1      41.146  31.229  34.768  1.00  0.00    -0.354 N 
ATOM     51  N   UNL A   1      41.186  29.421  32.320  1.00  0.00    -0.248 NA
ATOM     52  C   UNL A   1      42.180  27.673  31.126  1.00  0.00     0.031 C 
ATOM     53  C   UNL A   1      42.730  30.890  36.280  1.00  0.00     0.029 A 
ATOM     54  C   UNL A   1      42.243  30.440  35.060  1.00  0.00     0.049 A 
ATOM     55  H   UNL A   1      40.596  31.153  33.956  1.00  0.00     0.167 HD
ATOM     56  C   UNL A   1      42.260  28.942  33.049  1.00  0.00     0.074 A 
ATOM     57  C   UNL A   1      42.818  27.844  32.276  1.00  0.00     0.031 C 
ATOM     58  C   UNL A   1      42.751  29.363  34.241  1.00  0.00     0.037 A 
BRANCH  45  59
ATOM     59  C   UNL A   1      39.756  34.113  36.917  1.00  0.00     0.057 A 
ATOM     60  C   UNL A   1      39.052  33.819  38.093  1.00  0.00     0.134 A 
ATOM     61  C   UNL A   1      40.331  35.385  36.815  1.00  0.00     0.134 A 
ATOM     62  F   UNL A   1      38.455  32.628  38.248  1.00  0.00    -0.206 F 
ATOM     63  C   UNL A   1      38.903  34.762  39.112  1.00  0.00     0.040 A 
ATOM     64  C   UNL A   1      40.209  36.330  37.837  1.00  0.00     0.040 A 
ATOM     65  F   UNL A   1      41.012  35.740  35.714  1.00  0.00    -0.206 F 
ATOM     66  C   UNL A   1      39.486  36.022  38.988  1.00  0.00     0.006 A 
ENDBRANCH  45  59
BRANCH  46  67
ATOM     67  C   UNL A   1      40.248  27.923  28.885  1.00  0.00     0.057 A 
ATOM     68  C   UNL A   1      41.010  28.304  27.777  1.00  0.00     0.134 A 
ATOM     69  C   UNL A   1      39.630  26.665  28.838  1.00  0.00     0.134 A 
ATOM     70  F   UNL A   1      41.628  29.494  27.760  1.00  0.00    -0.206 F 
ATOM     71  C   UNL A   1      41.149  27.472  26.663  1.00  0.00     0.040 A 
ATOM     72  C   UNL A   1      39.780  25.813  27.743  1.00  0.00     0.040 A 
ATOM     73  F   UNL A   1      38.903  26.229  29.878  1.00  0.00    -0.206 F 
ATOM     74  C   UNL A   1      40.540  26.219  26.648  1.00  0.00     0.006 A 
ENDBRANCH  46  67
BRANCH  58  75
ATOM     75  C   UNL A   1      43.928  28.606  34.765  1.00  0.00     0.057 A 
ATOM     76  C   UNL A   1      43.772  27.463  35.558  1.00  0.00     0.134 A 
ATOM     77  C   UNL A   1      45.229  29.018  34.453  1.00  0.00     0.134 A 
ATOM     78  F   UNL A   1      42.548  27.035  35.903  1.00  0.00    -0.206 F 
ATOM     79  C   UNL A   1      44.876  26.765  36.044  1.00  0.00     0.040 A 
ATOM     80  C   UNL A   1      46.339  28.313  34.911  1.00  0.00     0.040 A 
ATOM     81  F   UNL A   1      45.436  30.103  33.693  1.00  0.00    -0.206 F 
ATOM     82  C   UNL A   1      46.164  27.187  35.715  1.00  0.00     0.006 A 
ENDBRANCH  58  75
ENDBRANCH  32  33
ENDBRANCH  25  27
ENDBRANCH  24  25
ENDBRANCH  23  24
ENDBRANCH  22  23
ENDBRANCH  21  22
ENDBRANCH   1  21
TORSDOF 17
ENDMDL
