MODEL 1
REMARK VINA RESULT:      -9.9      0.000      0.000
REMARK SMILES C[C@H](CCC(=O)OCCOC(=O)c1ccc(-c2c3nc(c(-c4c(F)cccc4F)c4ccc([nH]4)c(-c4c(F)cccc4F)c4nc(c(-c5c(F)cccc5F)c5ccc2[nH]5)C=C4)C=C3)cc1)NC(=O)N(C)CCc1cccs1
REMARK SMILES IDX 5 1 6 2 4 3 3 4 2 5 1 6 67 7 68 8 69 10 70 11 71 12 72 13
REMARK SMILES IDX 73 14 74 15 75 16 78 17 76 18 77 19 7 20 8 21 9 22 10 23
REMARK SMILES IDX 11 24 12 25 13 26 14 27 66 28 15 29 65 30 16 31 17 32 18 33
REMARK SMILES IDX 59 34 19 35 64 36 58 37 60 38 20 39 63 40 57 41 56 42 21 44
REMARK SMILES IDX 47 45 30 46 46 47 31 48 34 49 45 50 61 51 32 52 33 53 44 55
REMARK SMILES IDX 62 56 35 57 22 58 23 59 28 60 24 61 25 62 27 63 29 64 26 65
REMARK SMILES IDX 48 66 49 67 54 68 50 69 51 70 53 71 55 72 52 73 36 74 37 75
REMARK SMILES IDX 42 76 38 77 39 78 41 79 43 80 40 81
REMARK H PARENT 67 9 60 43 34 54
REMARK Flexibility Score: inf
ROOT
ATOM      1  C   UNL A   1      34.640  33.586  29.138  1.00  0.00     0.305 C 
ATOM      2  O   UNL A   1      35.740  34.122  29.125  1.00  0.00    -0.252 OA
ENDROOT
BRANCH   1   3
ATOM      3  C   UNL A   1      34.451  32.088  29.033  1.00  0.00     0.125 C 
BRANCH   3   4
ATOM      4  C   UNL A   1      33.807  31.604  27.736  1.00  0.00     0.036 C 
BRANCH   4   5
ATOM      5  C   UNL A   1      34.078  30.161  27.236  1.00  0.00     0.081 C 
ATOM      6  C   UNL A   1      35.383  29.489  27.656  1.00  0.00     0.031 C 
BRANCH   5   7
ATOM      7  N   UNL A   1      32.938  29.328  27.624  1.00  0.00    -0.336 N 
ATOM      8  C   UNL A   1      32.214  28.325  27.102  1.00  0.00     0.317 C 
ATOM      9  H   UNL A   1      32.610  29.571  28.520  1.00  0.00     0.165 HD
ATOM     10  O   UNL A   1      31.425  27.806  27.900  1.00  0.00    -0.249 OA
BRANCH   8  11
ATOM     11  N   UNL A   1      32.359  27.859  25.828  1.00  0.00    -0.328 N 
ATOM     12  C   UNL A   1      33.502  27.183  25.239  1.00  0.00     0.148 C 
BRANCH  11  13
ATOM     13  C   UNL A   1      31.290  28.199  24.872  1.00  0.00     0.126 C 
BRANCH  13  14
ATOM     14  C   UNL A   1      30.999  29.709  24.795  1.00  0.00     0.068 C 
BRANCH  14  15
ATOM     15  C   UNL A   1      29.940  30.052  23.784  1.00  0.00     0.006 A 
ATOM     16  C   UNL A   1      29.118  31.161  23.750  1.00  0.00     0.015 A 
ATOM     17  S   UNL A   1      29.650  29.019  22.447  1.00  0.00    -0.149 S 
ATOM     18  C   UNL A   1      28.321  31.212  22.572  1.00  0.00     0.012 A 
ATOM     19  C   UNL A   1      28.511  30.106  21.776  1.00  0.00     0.065 A 
ENDBRANCH  14  15
ENDBRANCH  13  14
ENDBRANCH  11  13
ENDBRANCH   8  11
ENDBRANCH   5   7
ENDBRANCH   4   5
ENDBRANCH   3   4
ENDBRANCH   1   3
BRANCH   1  20
ATOM     20  O   UNL A   1      33.457  34.238  29.208  1.00  0.00    -0.462 OA
BRANCH  20  21
ATOM     21  C   UNL A   1      33.403  35.606  28.766  1.00  0.00     0.274 C 
BRANCH  21  22
ATOM     22  C   UNL A   1      32.921  36.497  29.910  1.00  0.00     0.275 C 
BRANCH  22  23
ATOM     23  O   UNL A   1      32.345  35.685  30.949  1.00  0.00    -0.458 OA
BRANCH  23  24
ATOM     24  C   UNL A   1      32.753  35.972  32.206  1.00  0.00     0.338 C 
ATOM     25  O   UNL A   1      32.230  36.725  33.010  1.00  0.00    -0.246 OA
BRANCH  24  26
ATOM     26  C   UNL A   1      33.887  35.095  32.521  1.00  0.00     0.060 A 
ATOM     27  C   UNL A   1      35.178  35.632  32.524  1.00  0.00     0.016 A 
ATOM     28  C   UNL A   1      33.674  33.751  32.822  1.00  0.00     0.016 A 
ATOM     29  C   UNL A   1      36.267  34.830  32.851  1.00  0.00     0.010 A 
ATOM     30  C   UNL A   1      34.766  32.950  33.161  1.00  0.00     0.010 A 
ATOM     31  C   UNL A   1      36.066  33.487  33.186  1.00  0.00    -0.014 A 
BRANCH  31  32
ATOM     32  C   UNL A   1      37.204  32.632  33.591  1.00  0.00     0.031 A 
ATOM     33  C   UNL A   1      37.947  32.935  34.857  1.00  0.00     0.074 A 
ATOM     34  C   UNL A   1      37.598  31.628  32.784  1.00  0.00     0.049 A 
ATOM     35  N   UNL A   1      39.081  32.445  35.285  1.00  0.00    -0.248 NA
ATOM     36  C   UNL A   1      37.340  33.930  35.754  1.00  0.00     0.031 C 
ATOM     37  C   UNL A   1      36.925  31.224  31.548  1.00  0.00     0.029 A 
ATOM     38  N   UNL A   1      38.680  30.790  32.865  1.00  0.00    -0.354 N 
ATOM     39  C   UNL A   1      39.342  33.095  36.484  1.00  0.00     0.074 A 
ATOM     40  C   UNL A   1      38.249  34.015  36.717  1.00  0.00     0.031 C 
ATOM     41  C   UNL A   1      37.625  30.233  30.973  1.00  0.00     0.029 A 
ATOM     42  C   UNL A   1      38.825  29.979  31.763  1.00  0.00     0.049 A 
ATOM     43  H   UNL A   1      39.294  30.769  33.635  1.00  0.00     0.167 HD
ATOM     44  C   UNL A   1      40.405  32.936  37.305  1.00  0.00     0.037 A 
ATOM     45  C   UNL A   1      39.838  29.169  31.405  1.00  0.00     0.037 A 
ATOM     46  C   UNL A   1      41.472  31.998  37.068  1.00  0.00     0.049 A 
ATOM     47  C   UNL A   1      41.040  29.064  32.307  1.00  0.00     0.074 A 
ATOM     48  C   UNL A   1      42.565  31.719  37.869  1.00  0.00     0.029 A 
ATOM     49  N   UNL A   1      41.585  31.197  35.941  1.00  0.00    -0.354 N 
ATOM     50  N   UNL A   1      41.263  29.652  33.458  1.00  0.00    -0.248 NA
ATOM     51  C   UNL A   1      42.135  28.194  31.857  1.00  0.00     0.031 C 
ATOM     52  C   UNL A   1      43.373  30.799  37.197  1.00  0.00     0.029 A 
ATOM     53  C   UNL A   1      42.754  30.459  36.005  1.00  0.00     0.049 A 
ATOM     54  H   UNL A   1      40.931  31.160  35.206  1.00  0.00     0.167 HD
ATOM     55  C   UNL A   1      42.510  29.208  33.876  1.00  0.00     0.074 A 
ATOM     56  C   UNL A   1      42.986  28.285  32.868  1.00  0.00     0.031 C 
ATOM     57  C   UNL A   1      43.204  29.539  34.992  1.00  0.00     0.037 A 
BRANCH  44  58
ATOM     58  C   UNL A   1      40.501  33.812  38.518  1.00  0.00     0.057 A 
ATOM     59  C   UNL A   1      39.920  33.462  39.742  1.00  0.00     0.134 A 
ATOM     60  C   UNL A   1      41.258  34.992  38.475  1.00  0.00     0.134 A 
ATOM     61  F   UNL A   1      39.174  32.352  39.848  1.00  0.00    -0.206 F 
ATOM     62  C   UNL A   1      40.083  34.255  40.880  1.00  0.00     0.040 A 
ATOM     63  C   UNL A   1      41.448  35.780  39.609  1.00  0.00     0.040 A 
ATOM     64  F   UNL A   1      41.843  35.383  37.333  1.00  0.00    -0.206 F 
ATOM     65  C   UNL A   1      40.859  35.412  40.817  1.00  0.00     0.006 A 
ENDBRANCH  44  58
BRANCH  45  66
ATOM     66  C   UNL A   1      39.803  28.447  30.106  1.00  0.00     0.057 A 
ATOM     67  C   UNL A   1      39.203  27.188  29.988  1.00  0.00     0.134 A 
ATOM     68  C   UNL A   1      40.408  28.979  28.960  1.00  0.00     0.134 A 
ATOM     69  F   UNL A   1      38.627  26.613  31.054  1.00  0.00    -0.206 F 
ATOM     70  C   UNL A   1      39.231  26.473  28.789  1.00  0.00     0.040 A 
ATOM     71  C   UNL A   1      40.416  28.290  27.746  1.00  0.00     0.040 A 
ATOM     72  F   UNL A   1      41.002  30.182  29.001  1.00  0.00    -0.206 F 
ATOM     73  C   UNL A   1      39.837  27.026  27.662  1.00  0.00     0.006 A 
ENDBRANCH  45  66
BRANCH  57  74
ATOM     74  C   UNL A   1      44.538  28.880  35.194  1.00  0.00     0.057 A 
ATOM     75  C   UNL A   1      44.659  27.651  35.853  1.00  0.00     0.134 A 
ATOM     76  C   UNL A   1      45.704  29.456  34.674  1.00  0.00     0.134 A 
ATOM     77  F   UNL A   1      43.583  27.054  36.387  1.00  0.00    -0.206 F 
ATOM     78  C   UNL A   1      45.899  27.025  36.001  1.00  0.00     0.040 A 
ATOM     79  C   UNL A   1      46.942  28.825  34.790  1.00  0.00     0.040 A 
ATOM     80  F   UNL A   1      45.653  30.628  34.023  1.00  0.00    -0.206 F 
ATOM     81  C   UNL A   1      47.043  27.608  35.460  1.00  0.00     0.006 A 
ENDBRANCH  57  74
ENDBRANCH  31  32
ENDBRANCH  24  26
ENDBRANCH  23  24
ENDBRANCH  22  23
ENDBRANCH  21  22
ENDBRANCH  20  21
ENDBRANCH   1  20
TORSDOF 18
ENDMDL
MODEL 2
REMARK VINA RESULT:      -9.8      4.717      9.528
REMARK SMILES C[C@H](CCC(=O)OCCOC(=O)c1ccc(-c2c3nc(c(-c4c(F)cccc4F)c4ccc([nH]4)c(-c4c(F)cccc4F)c4nc(c(-c5c(F)cccc5F)c5ccc2[nH]5)C=C4)C=C3)cc1)NC(=O)N(C)CCc1cccs1
REMARK SMILES IDX 5 1 6 2 4 3 3 4 2 5 1 6 67 7 68 8 69 10 70 11 71 12 72 13
REMARK SMILES IDX 73 14 74 15 75 16 78 17 76 18 77 19 7 20 8 21 9 22 10 23
REMARK SMILES IDX 11 24 12 25 13 26 14 27 66 28 15 29 65 30 16 31 17 32 18 33
REMARK SMILES IDX 59 34 19 35 64 36 58 37 60 38 20 39 63 40 57 41 56 42 21 44
REMARK SMILES IDX 47 45 30 46 46 47 31 48 34 49 45 50 61 51 32 52 33 53 44 55
REMARK SMILES IDX 62 56 35 57 22 58 23 59 28 60 24 61 25 62 27 63 29 64 26 65
REMARK SMILES IDX 48 66 49 67 54 68 50 69 51 70 53 71 55 72 52 73 36 74 37 75
REMARK SMILES IDX 42 76 38 77 39 78 41 79 43 80 40 81
REMARK H PARENT 67 9 60 43 34 54
REMARK Flexibility Score: inf
ROOT
ATOM      1  C   UNL A   1      38.466  21.902  25.751  1.00  0.00     0.305 C 
ATOM      2  O   UNL A   1      38.513  22.990  26.309  1.00  0.00    -0.252 OA
ENDROOT
BRANCH   1   3
ATOM      3  C   UNL A   1      37.216  21.371  25.080  1.00  0.00     0.125 C 
BRANCH   3   4
ATOM      4  C   UNL A   1      36.577  22.311  24.060  1.00  0.00     0.036 C 
BRANCH   4   5
ATOM      5  C   UNL A   1      35.313  23.121  24.449  1.00  0.00     0.081 C 
ATOM      6  C   UNL A   1      35.474  24.276  25.434  1.00  0.00     0.031 C 
BRANCH   5   7
ATOM      7  N   UNL A   1      34.686  23.597  23.215  1.00  0.00    -0.336 N 
ATOM      8  C   UNL A   1      33.477  23.555  22.631  1.00  0.00     0.317 C 
ATOM      9  H   UNL A   1      35.331  24.088  22.656  1.00  0.00     0.165 HD
ATOM     10  O   UNL A   1      33.378  24.271  21.629  1.00  0.00    -0.249 OA
BRANCH   8  11
ATOM     11  N   UNL A   1      32.419  22.841  23.113  1.00  0.00    -0.328 N 
ATOM     12  C   UNL A   1      31.298  23.315  23.906  1.00  0.00     0.148 C 
BRANCH  11  13
ATOM     13  C   UNL A   1      32.472  21.378  22.941  1.00  0.00     0.126 C 
BRANCH  13  14
ATOM     14  C   UNL A   1      32.706  20.618  24.259  1.00  0.00     0.068 C 
BRANCH  14  15
ATOM     15  C   UNL A   1      33.293  19.249  24.052  1.00  0.00     0.006 A 
ATOM     16  C   UNL A   1      34.436  18.715  24.614  1.00  0.00     0.015 A 
ATOM     17  S   UNL A   1      32.513  18.116  23.029  1.00  0.00    -0.149 S 
ATOM     18  C   UNL A   1      34.614  17.342  24.282  1.00  0.00     0.012 A 
ATOM     19  C   UNL A   1      33.638  16.891  23.424  1.00  0.00     0.065 A 
ENDBRANCH  14  15
ENDBRANCH  13  14
ENDBRANCH  11  13
ENDBRANCH   8  11
ENDBRANCH   5   7
ENDBRANCH   4   5
ENDBRANCH   3   4
ENDBRANCH   1   3
BRANCH   1  20
ATOM     20  O   UNL A   1      39.485  21.014  25.686  1.00  0.00    -0.462 OA
BRANCH  20  21
ATOM     21  C   UNL A   1      40.522  21.091  26.681  1.00  0.00     0.274 C 
BRANCH  21  22
ATOM     22  C   UNL A   1      41.890  21.023  26.005  1.00  0.00     0.275 C 
BRANCH  22  23
ATOM     23  O   UNL A   1      42.751  22.039  26.547  1.00  0.00    -0.458 OA
BRANCH  23  24
ATOM     24  C   UNL A   1      42.821  23.186  25.835  1.00  0.00     0.338 C 
ATOM     25  O   UNL A   1      42.987  23.314  24.633  1.00  0.00    -0.246 OA
BRANCH  24  26
ATOM     26  C   UNL A   1      42.513  24.298  26.743  1.00  0.00     0.060 A 
ATOM     27  C   UNL A   1      41.578  24.100  27.763  1.00  0.00     0.016 A 
ATOM     28  C   UNL A   1      43.154  25.527  26.592  1.00  0.00     0.016 A 
ATOM     29  C   UNL A   1      41.291  25.128  28.656  1.00  0.00     0.010 A 
ATOM     30  C   UNL A   1      42.875  26.553  27.496  1.00  0.00     0.010 A 
ATOM     31  C   UNL A   1      41.950  26.356  28.538  1.00  0.00    -0.014 A 
BRANCH  31  32
ATOM     32  C   UNL A   1      41.701  27.442  29.512  1.00  0.00     0.031 A 
ATOM     33  C   UNL A   1      42.470  27.477  30.798  1.00  0.00     0.074 A 
ATOM     34  C   UNL A   1      40.741  28.352  29.258  1.00  0.00     0.049 A 
ATOM     35  N   UNL A   1      42.267  28.212  31.860  1.00  0.00    -0.248 NA
ATOM     36  C   UNL A   1      43.611  26.555  30.907  1.00  0.00     0.031 C 
ATOM     37  C   UNL A   1      39.958  28.432  28.023  1.00  0.00     0.029 A 
ATOM     38  N   UNL A   1      40.237  29.360  30.039  1.00  0.00    -0.354 N 
ATOM     39  C   UNL A   1      43.232  27.818  32.778  1.00  0.00     0.074 A 
ATOM     40  C   UNL A   1      44.021  26.780  32.149  1.00  0.00     0.031 C 
ATOM     41  C   UNL A   1      39.054  29.418  28.142  1.00  0.00     0.029 A 
ATOM     42  C   UNL A   1      39.152  29.993  29.479  1.00  0.00     0.049 A 
ATOM     43  H   UNL A   1      40.614  29.607  30.914  1.00  0.00     0.167 HD
ATOM     44  C   UNL A   1      43.429  28.283  34.033  1.00  0.00     0.037 A 
ATOM     45  C   UNL A   1      38.299  30.890  30.007  1.00  0.00     0.037 A 
ATOM     46  C   UNL A   1      42.648  29.333  34.633  1.00  0.00     0.049 A 
ATOM     47  C   UNL A   1      38.503  31.339  31.430  1.00  0.00     0.074 A 
ATOM     48  C   UNL A   1      42.805  29.916  35.879  1.00  0.00     0.029 A 
ATOM     49  N   UNL A   1      41.557  29.947  34.037  1.00  0.00    -0.354 N 
ATOM     50  N   UNL A   1      39.440  30.991  32.280  1.00  0.00    -0.248 NA
ATOM     51  C   UNL A   1      37.526  32.293  31.973  1.00  0.00     0.031 C 
ATOM     52  C   UNL A   1      41.769  30.836  36.062  1.00  0.00     0.029 A 
ATOM     53  C   UNL A   1      41.002  30.869  34.907  1.00  0.00     0.049 A 
ATOM     54  H   UNL A   1      41.226  29.755  33.129  1.00  0.00     0.167 HD
ATOM     55  C   UNL A   1      39.177  31.698  33.446  1.00  0.00     0.074 A 
ATOM     56  C   UNL A   1      38.007  32.511  33.188  1.00  0.00     0.031 C 
ATOM     57  C   UNL A   1      39.840  31.674  34.627  1.00  0.00     0.037 A 
BRANCH  44  58
ATOM     58  C   UNL A   1      44.500  27.644  34.865  1.00  0.00     0.057 A 
ATOM     59  C   UNL A   1      45.798  28.161  34.940  1.00  0.00     0.134 A 
ATOM     60  C   UNL A   1      44.198  26.535  35.668  1.00  0.00     0.134 A 
ATOM     61  F   UNL A   1      46.155  29.214  34.189  1.00  0.00    -0.206 F 
ATOM     62  C   UNL A   1      46.761  27.596  35.779  1.00  0.00     0.040 A 
ATOM     63  C   UNL A   1      45.144  25.975  36.527  1.00  0.00     0.040 A 
ATOM     64  F   UNL A   1      42.972  25.992  35.646  1.00  0.00    -0.206 F 
ATOM     65  C   UNL A   1      46.431  26.507  36.584  1.00  0.00     0.006 A 
ENDBRANCH  44  58
BRANCH  45  66
ATOM     66  C   UNL A   1      37.133  31.375  29.222  1.00  0.00     0.057 A 
ATOM     67  C   UNL A   1      37.116  32.655  28.657  1.00  0.00     0.134 A 
ATOM     68  C   UNL A   1      35.988  30.585  29.054  1.00  0.00     0.134 A 
ATOM     69  F   UNL A   1      38.172  33.470  28.802  1.00  0.00    -0.206 F 
ATOM     70  C   UNL A   1      35.997  33.143  27.982  1.00  0.00     0.040 A 
ATOM     71  C   UNL A   1      34.874  31.047  28.353  1.00  0.00     0.040 A 
ATOM     72  F   UNL A   1      35.936  29.347  29.568  1.00  0.00    -0.206 F 
ATOM     73  C   UNL A   1      34.871  32.336  27.826  1.00  0.00     0.006 A 
ENDBRANCH  45  66
BRANCH  57  74
ATOM     74  C   UNL A   1      39.333  32.568  35.720  1.00  0.00     0.057 A 
ATOM     75  C   UNL A   1      38.399  32.123  36.663  1.00  0.00     0.134 A 
ATOM     76  C   UNL A   1      39.829  33.871  35.863  1.00  0.00     0.134 A 
ATOM     77  F   UNL A   1      37.874  30.891  36.572  1.00  0.00    -0.206 F 
ATOM     78  C   UNL A   1      37.963  32.948  37.701  1.00  0.00     0.040 A 
ATOM     79  C   UNL A   1      39.423  34.693  36.914  1.00  0.00     0.040 A 
ATOM     80  F   UNL A   1      40.734  34.354  34.999  1.00  0.00    -0.206 F 
ATOM     81  C   UNL A   1      38.483  34.234  37.834  1.00  0.00     0.006 A 
ENDBRANCH  57  74
ENDBRANCH  31  32
ENDBRANCH  24  26
ENDBRANCH  23  24
ENDBRANCH  22  23
ENDBRANCH  21  22
ENDBRANCH  20  21
ENDBRANCH   1  20
TORSDOF 18
ENDMDL
MODEL 3
REMARK VINA RESULT:      -9.7      1.284      2.825
REMARK SMILES C[C@H](CCC(=O)OCCOC(=O)c1ccc(-c2c3nc(c(-c4c(F)cccc4F)c4ccc([nH]4)c(-c4c(F)cccc4F)c4nc(c(-c5c(F)cccc5F)c5ccc2[nH]5)C=C4)C=C3)cc1)NC(=O)N(C)CCc1cccs1
REMARK SMILES IDX 5 1 6 2 4 3 3 4 2 5 1 6 67 7 68 8 69 10 70 11 71 12 72 13
REMARK SMILES IDX 73 14 74 15 75 16 78 17 76 18 77 19 7 20 8 21 9 22 10 23
REMARK SMILES IDX 11 24 12 25 13 26 14 27 66 28 15 29 65 30 16 31 17 32 18 33
REMARK SMILES IDX 59 34 19 35 64 36 58 37 60 38 20 39 63 40 57 41 56 42 21 44
REMARK SMILES IDX 47 45 30 46 46 47 31 48 34 49 45 50 61 51 32 52 33 53 44 55
REMARK SMILES IDX 62 56 35 57 22 58 23 59 28 60 24 61 25 62 27 63 29 64 26 65
REMARK SMILES IDX 48 66 49 67 54 68 50 69 51 70 53 71 55 72 52 73 36 74 37 75
REMARK SMILES IDX 42 76 38 77 39 78 41 79 43 80 40 81
REMARK H PARENT 67 9 60 43 34 54
REMARK Flexibility Score: inf
ROOT
ATOM      1  C   UNL A   1      34.823  33.446  29.377  1.00  0.00     0.305 C 
ATOM      2  O   UNL A   1      35.876  34.066  29.443  1.00  0.00    -0.252 OA
ENDROOT
BRANCH   1   3
ATOM      3  C   UNL A   1      34.759  31.948  29.165  1.00  0.00     0.125 C 
BRANCH   3   4
ATOM      4  C   UNL A   1      34.217  31.506  27.807  1.00  0.00     0.036 C 
BRANCH   4   5
ATOM      5  C   UNL A   1      34.426  30.043  27.338  1.00  0.00     0.081 C 
ATOM      6  C   UNL A   1      35.700  29.324  27.772  1.00  0.00     0.031 C 
BRANCH   5   7
ATOM      7  N   UNL A   1      33.250  29.269  27.741  1.00  0.00    -0.336 N 
ATOM      8  C   UNL A   1      32.444  28.334  27.213  1.00  0.00     0.317 C 
ATOM      9  H   UNL A   1      32.973  29.497  28.658  1.00  0.00     0.165 HD
ATOM     10  O   UNL A   1      31.654  27.836  28.023  1.00  0.00    -0.249 OA
BRANCH   8  11
ATOM     11  N   UNL A   1      32.510  27.910  25.918  1.00  0.00    -0.328 N 
ATOM     12  C   UNL A   1      31.479  27.969  24.896  1.00  0.00     0.148 C 
BRANCH  11  13
ATOM     13  C   UNL A   1      33.721  27.169  25.522  1.00  0.00     0.126 C 
BRANCH  13  14
ATOM     14  C   UNL A   1      33.597  26.492  24.146  1.00  0.00     0.068 C 
BRANCH  14  15
ATOM     15  C   UNL A   1      33.649  24.991  24.223  1.00  0.00     0.006 A 
ATOM     16  C   UNL A   1      34.167  24.104  23.300  1.00  0.00     0.015 A 
ATOM     17  S   UNL A   1      33.037  24.172  25.599  1.00  0.00    -0.149 S 
ATOM     18  C   UNL A   1      34.154  22.760  23.769  1.00  0.00     0.012 A 
ATOM     19  C   UNL A   1      33.564  22.656  25.007  1.00  0.00     0.065 A 
ENDBRANCH  14  15
ENDBRANCH  13  14
ENDBRANCH  11  13
ENDBRANCH   8  11
ENDBRANCH   5   7
ENDBRANCH   4   5
ENDBRANCH   3   4
ENDBRANCH   1   3
BRANCH   1  20
ATOM     20  O   UNL A   1      33.589  33.997  29.442  1.00  0.00    -0.462 OA
BRANCH  20  21
ATOM     21  C   UNL A   1      33.394  35.304  28.873  1.00  0.00     0.274 C 
BRANCH  21  22
ATOM     22  C   UNL A   1      32.868  36.258  29.944  1.00  0.00     0.275 C 
BRANCH  22  23
ATOM     23  O   UNL A   1      32.380  35.505  31.068  1.00  0.00    -0.458 OA
BRANCH  23  24
ATOM     24  C   UNL A   1      32.760  35.959  32.284  1.00  0.00     0.338 C 
ATOM     25  O   UNL A   1      32.205  36.796  32.978  1.00  0.00    -0.246 OA
BRANCH  24  26
ATOM     26  C   UNL A   1      33.909  35.158  32.724  1.00  0.00     0.060 A 
ATOM     27  C   UNL A   1      33.685  33.873  33.226  1.00  0.00     0.016 A 
ATOM     28  C   UNL A   1      35.201  35.673  32.631  1.00  0.00     0.016 A 
ATOM     29  C   UNL A   1      34.760  33.081  33.621  1.00  0.00     0.010 A 
ATOM     30  C   UNL A   1      36.278  34.874  33.016  1.00  0.00     0.010 A 
ATOM     31  C   UNL A   1      36.064  33.571  33.503  1.00  0.00    -0.014 A 
BRANCH  31  32
ATOM     32  C   UNL A   1      37.223  32.725  33.864  1.00  0.00     0.031 A 
ATOM     33  C   UNL A   1      37.977  32.998  35.130  1.00  0.00     0.074 A 
ATOM     34  C   UNL A   1      37.626  31.757  33.018  1.00  0.00     0.049 A 
ATOM     35  N   UNL A   1      39.125  32.515  35.528  1.00  0.00    -0.248 NA
ATOM     36  C   UNL A   1      37.362  33.949  36.069  1.00  0.00     0.031 C 
ATOM     37  C   UNL A   1      36.946  31.383  31.777  1.00  0.00     0.029 A 
ATOM     38  N   UNL A   1      38.725  30.938  33.056  1.00  0.00    -0.354 N 
ATOM     39  C   UNL A   1      39.389  33.128  36.745  1.00  0.00     0.074 A 
ATOM     40  C   UNL A   1      38.282  34.018  37.023  1.00  0.00     0.031 C 
ATOM     41  C   UNL A   1      37.657  30.427  31.159  1.00  0.00     0.029 A 
ATOM     42  C   UNL A   1      38.871  30.169  31.925  1.00  0.00     0.049 A 
ATOM     43  H   UNL A   1      39.349  30.903  33.817  1.00  0.00     0.167 HD
ATOM     44  C   UNL A   1      40.465  32.961  37.548  1.00  0.00     0.037 A 
ATOM     45  C   UNL A   1      39.896  29.391  31.527  1.00  0.00     0.037 A 
ATOM     46  C   UNL A   1      41.546  32.053  37.265  1.00  0.00     0.049 A 
ATOM     47  C   UNL A   1      41.110  29.279  32.410  1.00  0.00     0.074 A 
ATOM     48  C   UNL A   1      42.655  31.768  38.044  1.00  0.00     0.029 A 
ATOM     49  N   UNL A   1      41.660  31.295  36.110  1.00  0.00    -0.354 N 
ATOM     50  N   UNL A   1      41.336  29.831  33.578  1.00  0.00    -0.248 NA
ATOM     51  C   UNL A   1      42.216  28.446  31.917  1.00  0.00     0.031 C 
ATOM     52  C   UNL A   1      43.472  30.887  37.330  1.00  0.00     0.029 A 
ATOM     53  C   UNL A   1      42.843  30.577  36.134  1.00  0.00     0.049 A 
ATOM     54  H   UNL A   1      40.998  31.270  35.382  1.00  0.00     0.167 HD
ATOM     55  C   UNL A   1      42.597  29.397  33.966  1.00  0.00     0.074 A 
ATOM     56  C   UNL A   1      43.078  28.518  32.921  1.00  0.00     0.031 C 
ATOM     57  C   UNL A   1      43.298  29.702  35.084  1.00  0.00     0.037 A 
BRANCH  44  58
ATOM     58  C   UNL A   1      40.559  33.797  38.789  1.00  0.00     0.057 A 
ATOM     59  C   UNL A   1      41.248  35.015  38.822  1.00  0.00     0.134 A 
ATOM     60  C   UNL A   1      39.877  33.408  39.952  1.00  0.00     0.134 A 
ATOM     61  F   UNL A   1      41.930  35.438  37.747  1.00  0.00    -0.206 F 
ATOM     62  C   UNL A   1      41.260  35.815  39.966  1.00  0.00     0.040 A 
ATOM     63  C   UNL A   1      39.863  34.209  41.093  1.00  0.00     0.040 A 
ATOM     64  F   UNL A   1      39.196  32.254  39.986  1.00  0.00    -0.206 F 
ATOM     65  C   UNL A   1      40.557  35.418  41.102  1.00  0.00     0.006 A 
ENDBRANCH  44  58
BRANCH  45  66
ATOM     66  C   UNL A   1      39.858  28.714  30.204  1.00  0.00     0.057 A 
ATOM     67  C   UNL A   1      40.419  29.305  29.066  1.00  0.00     0.134 A 
ATOM     68  C   UNL A   1      39.220  27.478  30.036  1.00  0.00     0.134 A 
ATOM     69  F   UNL A   1      41.023  30.500  29.156  1.00  0.00    -0.206 F 
ATOM     70  C   UNL A   1      40.322  28.709  27.808  1.00  0.00     0.040 A 
ATOM     71  C   UNL A   1      39.144  26.854  28.790  1.00  0.00     0.040 A 
ATOM     72  F   UNL A   1      38.661  26.854  31.084  1.00  0.00    -0.206 F 
ATOM     73  C   UNL A   1      39.686  27.477  27.668  1.00  0.00     0.006 A 
ENDBRANCH  45  66
BRANCH  57  74
ATOM     74  C   UNL A   1      44.647  29.062  35.247  1.00  0.00     0.057 A 
ATOM     75  C   UNL A   1      45.818  29.691  34.808  1.00  0.00     0.134 A 
ATOM     76  C   UNL A   1      44.777  27.830  35.901  1.00  0.00     0.134 A 
ATOM     77  F   UNL A   1      45.760  30.865  34.162  1.00  0.00    -0.206 F 
ATOM     78  C   UNL A   1      47.072  29.108  35.000  1.00  0.00     0.040 A 
ATOM     79  C   UNL A   1      46.027  27.254  36.125  1.00  0.00     0.040 A 
ATOM     80  F   UNL A   1      43.694  27.182  36.355  1.00  0.00    -0.206 F 
ATOM     81  C   UNL A   1      47.179  27.891  35.670  1.00  0.00     0.006 A 
ENDBRANCH  57  74
ENDBRANCH  31  32
ENDBRANCH  24  26
ENDBRANCH  23  24
ENDBRANCH  22  23
ENDBRANCH  21  22
ENDBRANCH  20  21
ENDBRANCH   1  20
TORSDOF 18
ENDMDL
