MODEL 1
REMARK VINA RESULT:     -10.9      0.000      0.000
REMARK SMILES CN(Cc1ccncc1)C(=O)c1cccn1CC(=O)OCCOC(=O)c1ccc(-c2c3nc(c(-c4c(F)cccc4F)c4ccc([nH]4)c(-c4c(F)cccc4F)c4nc(c(-c5c(F)cccc5F)c5ccc2[nH]5)C=C4)C=C3)cc1
REMARK SMILES IDX 20 1 18 2 19 3 17 4 16 5 12 6 13 7 14 8 15 9 10 10 11 11
REMARK SMILES IDX 2 12 1 13 3 14 4 15 5 16 9 17 6 18 8 19 7 20 21 21 22 22
REMARK SMILES IDX 23 23 24 24 25 25 26 26 27 27 79 28 28 29 78 30 29 31 30 32
REMARK SMILES IDX 31 33 72 34 32 35 77 36 71 37 73 38 33 39 76 40 70 41 69 42
REMARK SMILES IDX 34 44 60 45 43 46 59 47 44 48 47 49 58 50 74 51 45 52 46 53
REMARK SMILES IDX 57 55 75 56 48 57 35 58 36 59 41 60 37 61 38 62 40 63 42 64
REMARK SMILES IDX 39 65 61 66 62 67 67 68 63 69 64 70 66 71 68 72 65 73 49 74
REMARK SMILES IDX 50 75 55 76 51 77 52 78 54 79 56 80 53 81
REMARK H PARENT 73 43 47 54
REMARK Flexibility Score: inf
ROOT
ATOM      1  O   UNL A   1      31.749  29.330  27.209  1.00  0.00    -0.461 OA
ENDROOT
BRANCH   1   2
ATOM      2  C   UNL A   1      31.905  28.317  26.312  1.00  0.00     0.326 C 
ATOM      3  O   UNL A   1      32.035  27.138  26.635  1.00  0.00    -0.250 OA
BRANCH   2   4
ATOM      4  C   UNL A   1      32.037  28.758  24.877  1.00  0.00     0.244 C 
BRANCH   4   5
ATOM      5  N   UNL A   1      32.122  27.722  23.852  1.00  0.00    -0.332 N 
ATOM      6  C   UNL A   1      31.065  27.100  23.204  1.00  0.00     0.107 A 
ATOM      7  C   UNL A   1      31.630  26.411  22.137  1.00  0.00     0.033 A 
ATOM      8  C   UNL A   1      33.025  26.532  22.177  1.00  0.00     0.020 A 
ATOM      9  C   UNL A   1      33.278  27.410  23.188  1.00  0.00     0.087 A 
BRANCH   6  10
ATOM     10  C   UNL A   1      29.664  27.329  23.514  1.00  0.00     0.270 C 
ATOM     11  O   UNL A   1      29.060  26.560  24.251  1.00  0.00    -0.267 OA
BRANCH  10  12
ATOM     12  N   UNL A   1      28.999  28.421  22.941  1.00  0.00    -0.336 N 
ATOM     13  C   UNL A   1      27.557  28.444  23.117  1.00  0.00     0.147 C 
BRANCH  12  14
ATOM     14  C   UNL A   1      29.588  29.407  22.031  1.00  0.00     0.155 C 
BRANCH  14  15
ATOM     15  C   UNL A   1      28.940  30.772  22.085  1.00  0.00    -0.026 A 
ATOM     16  C   UNL A   1      28.254  31.247  20.958  1.00  0.00     0.025 A 
ATOM     17  C   UNL A   1      29.089  31.634  23.178  1.00  0.00     0.025 A 
ATOM     18  C   UNL A   1      27.844  32.571  20.936  1.00  0.00     0.111 A 
ATOM     19  C   UNL A   1      28.650  32.944  23.056  1.00  0.00     0.111 A 
ATOM     20  N   UNL A   1      28.038  33.433  21.956  1.00  0.00    -0.265 NA
ENDBRANCH  14  15
ENDBRANCH  12  14
ENDBRANCH  10  12
ENDBRANCH   6  10
ENDBRANCH   4   5
ENDBRANCH   2   4
ENDBRANCH   1   2
BRANCH   1  21
ATOM     21  C   UNL A   1      32.302  30.606  26.812  1.00  0.00     0.274 C 
BRANCH  21  22
ATOM     22  C   UNL A   1      33.604  31.006  27.518  1.00  0.00     0.275 C 
BRANCH  22  23
ATOM     23  O   UNL A   1      34.065  32.323  27.191  1.00  0.00    -0.458 OA
BRANCH  23  24
ATOM     24  C   UNL A   1      33.626  33.217  28.088  1.00  0.00     0.338 C 
ATOM     25  O   UNL A   1      32.618  33.925  27.979  1.00  0.00    -0.246 OA
BRANCH  24  26
ATOM     26  C   UNL A   1      34.575  33.499  29.152  1.00  0.00     0.060 A 
ATOM     27  C   UNL A   1      35.817  34.003  28.755  1.00  0.00     0.016 A 
ATOM     28  C   UNL A   1      34.445  32.637  30.243  1.00  0.00     0.016 A 
ATOM     29  C   UNL A   1      36.962  33.428  29.263  1.00  0.00     0.010 A 
ATOM     30  C   UNL A   1      35.590  32.109  30.806  1.00  0.00     0.010 A 
ATOM     31  C   UNL A   1      36.841  32.472  30.280  1.00  0.00    -0.014 A 
BRANCH  31  32
ATOM     32  C   UNL A   1      38.057  32.166  31.043  1.00  0.00     0.031 A 
ATOM     33  C   UNL A   1      38.756  30.948  30.375  1.00  0.00     0.074 A 
ATOM     34  C   UNL A   1      38.330  32.960  32.126  1.00  0.00     0.049 A 
ATOM     35  N   UNL A   1      39.661  30.142  30.831  1.00  0.00    -0.248 NA
ATOM     36  C   UNL A   1      38.340  30.527  28.995  1.00  0.00     0.031 C 
ATOM     37  C   UNL A   1      37.498  34.098  32.594  1.00  0.00     0.029 A 
ATOM     38  N   UNL A   1      39.349  32.985  33.056  1.00  0.00    -0.354 N 
ATOM     39  C   UNL A   1      40.089  29.335  29.749  1.00  0.00     0.074 A 
ATOM     40  C   UNL A   1      39.146  29.511  28.699  1.00  0.00     0.031 C 
ATOM     41  C   UNL A   1      37.997  34.631  33.736  1.00  0.00     0.029 A 
ATOM     42  C   UNL A   1      39.210  33.931  34.114  1.00  0.00     0.049 A 
ATOM     43  H   UNL A   1      40.127  32.384  32.993  1.00  0.00     0.167 HD
ATOM     44  C   UNL A   1      41.304  28.713  29.727  1.00  0.00     0.037 A 
ATOM     45  C   UNL A   1      40.006  34.101  35.222  1.00  0.00     0.037 A 
ATOM     46  C   UNL A   1      41.940  28.881  30.987  1.00  0.00     0.049 A 
ATOM     47  C   UNL A   1      41.173  33.258  34.954  1.00  0.00     0.074 A 
ATOM     48  C   UNL A   1      41.645  28.376  32.225  1.00  0.00     0.029 A 
ATOM     49  N   UNL A   1      42.750  29.981  31.117  1.00  0.00    -0.354 N 
ATOM     50  N   UNL A   1      42.104  33.547  34.096  1.00  0.00    -0.248 NA
ATOM     51  C   UNL A   1      41.271  31.957  35.626  1.00  0.00     0.031 C 
ATOM     52  C   UNL A   1      41.865  29.481  33.069  1.00  0.00     0.029 A 
ATOM     53  C   UNL A   1      42.535  30.492  32.369  1.00  0.00     0.049 A 
ATOM     54  H   UNL A   1      43.369  30.336  30.438  1.00  0.00     0.167 HD
ATOM     55  C   UNL A   1      42.673  32.320  33.875  1.00  0.00     0.074 A 
ATOM     56  C   UNL A   1      42.376  31.508  35.036  1.00  0.00     0.031 C 
ATOM     57  C   UNL A   1      42.832  31.884  32.600  1.00  0.00     0.037 A 
BRANCH  44  58
ATOM     58  C   UNL A   1      42.142  28.194  28.595  1.00  0.00     0.057 A 
ATOM     59  C   UNL A   1      42.653  29.137  27.672  1.00  0.00     0.134 A 
ATOM     60  C   UNL A   1      42.133  26.864  28.161  1.00  0.00     0.134 A 
ATOM     61  F   UNL A   1      42.770  30.434  28.002  1.00  0.00    -0.206 F 
ATOM     62  C   UNL A   1      42.959  28.807  26.352  1.00  0.00     0.040 A 
ATOM     63  C   UNL A   1      42.492  26.513  26.853  1.00  0.00     0.040 A 
ATOM     64  F   UNL A   1      41.687  25.870  28.940  1.00  0.00    -0.206 F 
ATOM     65  C   UNL A   1      42.853  27.491  25.931  1.00  0.00     0.006 A 
ENDBRANCH  44  58
BRANCH  45  66
ATOM     66  C   UNL A   1      40.030  34.810  36.565  1.00  0.00     0.057 A 
ATOM     67  C   UNL A   1      40.665  36.015  36.860  1.00  0.00     0.134 A 
ATOM     68  C   UNL A   1      39.256  34.297  37.653  1.00  0.00     0.134 A 
ATOM     69  F   UNL A   1      41.526  36.573  36.001  1.00  0.00    -0.206 F 
ATOM     70  C   UNL A   1      40.446  36.708  38.075  1.00  0.00     0.040 A 
ATOM     71  C   UNL A   1      38.984  34.996  38.834  1.00  0.00     0.040 A 
ATOM     72  F   UNL A   1      38.707  33.075  37.625  1.00  0.00    -0.206 F 
ATOM     73  C   UNL A   1      39.567  36.225  39.042  1.00  0.00     0.006 A 
ENDBRANCH  45  66
BRANCH  57  74
ATOM     74  C   UNL A   1      42.917  32.987  31.557  1.00  0.00     0.057 A 
ATOM     75  C   UNL A   1      43.955  33.926  31.618  1.00  0.00     0.134 A 
ATOM     76  C   UNL A   1      41.950  33.232  30.570  1.00  0.00     0.134 A 
ATOM     77  F   UNL A   1      44.950  33.770  32.507  1.00  0.00    -0.206 F 
ATOM     78  C   UNL A   1      44.007  35.049  30.780  1.00  0.00     0.040 A 
ATOM     79  C   UNL A   1      41.982  34.349  29.722  1.00  0.00     0.040 A 
ATOM     80  F   UNL A   1      40.932  32.394  30.387  1.00  0.00    -0.206 F 
ATOM     81  C   UNL A   1      43.014  35.271  29.832  1.00  0.00     0.006 A 
ENDBRANCH  57  74
ENDBRANCH  31  32
ENDBRANCH  24  26
ENDBRANCH  23  24
ENDBRANCH  22  23
ENDBRANCH  21  22
ENDBRANCH   1  21
TORSDOF 16
ENDMDL
MODEL 2
REMARK VINA RESULT:     -10.8      6.501     11.195
REMARK SMILES CN(Cc1ccncc1)C(=O)c1cccn1CC(=O)OCCOC(=O)c1ccc(-c2c3nc(c(-c4c(F)cccc4F)c4ccc([nH]4)c(-c4c(F)cccc4F)c4nc(c(-c5c(F)cccc5F)c5ccc2[nH]5)C=C4)C=C3)cc1
REMARK SMILES IDX 20 1 18 2 19 3 17 4 16 5 12 6 13 7 14 8 15 9 10 10 11 11
REMARK SMILES IDX 2 12 1 13 3 14 4 15 5 16 9 17 6 18 8 19 7 20 21 21 22 22
REMARK SMILES IDX 23 23 24 24 25 25 26 26 27 27 79 28 28 29 78 30 29 31 30 32
REMARK SMILES IDX 31 33 72 34 32 35 77 36 71 37 73 38 33 39 76 40 70 41 69 42
REMARK SMILES IDX 34 44 60 45 43 46 59 47 44 48 47 49 58 50 74 51 45 52 46 53
REMARK SMILES IDX 57 55 75 56 48 57 35 58 36 59 41 60 37 61 38 62 40 63 42 64
REMARK SMILES IDX 39 65 61 66 62 67 67 68 63 69 64 70 66 71 68 72 65 73 49 74
REMARK SMILES IDX 50 75 55 76 51 77 52 78 54 79 56 80 53 81
REMARK H PARENT 73 43 47 54
REMARK Flexibility Score: inf
ROOT
ATOM      1  O   UNL A   1      38.253  21.293  25.600  1.00  0.00    -0.461 OA
ENDROOT
BRANCH   1   2
ATOM      2  C   UNL A   1      37.090  21.994  25.502  1.00  0.00     0.326 C 
ATOM      3  O   UNL A   1      37.039  23.221  25.444  1.00  0.00    -0.250 OA
BRANCH   2   4
ATOM      4  C   UNL A   1      35.839  21.159  25.598  1.00  0.00     0.244 C 
BRANCH   4   5
ATOM      5  N   UNL A   1      34.626  21.806  26.090  1.00  0.00    -0.332 N 
ATOM      6  C   UNL A   1      33.375  21.799  25.491  1.00  0.00     0.107 A 
ATOM      7  C   UNL A   1      32.496  22.291  26.448  1.00  0.00     0.033 A 
ATOM      8  C   UNL A   1      33.205  22.680  27.591  1.00  0.00     0.020 A 
ATOM      9  C   UNL A   1      34.491  22.287  27.365  1.00  0.00     0.087 A 
BRANCH   6  10
ATOM     10  C   UNL A   1      33.089  21.201  24.198  1.00  0.00     0.270 C 
ATOM     11  O   UNL A   1      33.177  21.868  23.175  1.00  0.00    -0.267 OA
BRANCH  10  12
ATOM     12  N   UNL A   1      32.683  19.862  24.130  1.00  0.00    -0.336 N 
ATOM     13  C   UNL A   1      32.205  19.413  22.834  1.00  0.00     0.147 C 
BRANCH  12  14
ATOM     14  C   UNL A   1      32.510  18.956  25.269  1.00  0.00     0.155 C 
BRANCH  14  15
ATOM     15  C   UNL A   1      33.162  17.603  25.095  1.00  0.00    -0.026 A 
ATOM     16  C   UNL A   1      32.435  16.449  25.419  1.00  0.00     0.025 A 
ATOM     17  C   UNL A   1      34.505  17.456  24.727  1.00  0.00     0.025 A 
ATOM     18  C   UNL A   1      33.098  15.232  25.457  1.00  0.00     0.111 A 
ATOM     19  C   UNL A   1      35.080  16.196  24.805  1.00  0.00     0.111 A 
ATOM     20  N   UNL A   1      34.408  15.083  25.169  1.00  0.00    -0.265 NA
ENDBRANCH  14  15
ENDBRANCH  12  14
ENDBRANCH  10  12
ENDBRANCH   6  10
ENDBRANCH   4   5
ENDBRANCH   2   4
ENDBRANCH   1   2
BRANCH   1  21
ATOM     21  C   UNL A   1      38.222  19.953  25.059  1.00  0.00     0.274 C 
BRANCH  21  22
ATOM     22  C   UNL A   1      39.413  19.063  25.440  1.00  0.00     0.275 C 
BRANCH  22  23
ATOM     23  O   UNL A   1      40.292  19.647  26.408  1.00  0.00    -0.458 OA
BRANCH  23  24
ATOM     24  C   UNL A   1      41.566  19.315  26.157  1.00  0.00     0.338 C 
ATOM     25  O   UNL A   1      41.978  18.191  25.845  1.00  0.00    -0.246 OA
BRANCH  24  26
ATOM     26  C   UNL A   1      42.526  20.345  26.516  1.00  0.00     0.060 A 
ATOM     27  C   UNL A   1      42.339  20.958  27.758  1.00  0.00     0.016 A 
ATOM     28  C   UNL A   1      43.009  21.051  25.412  1.00  0.00     0.016 A 
ATOM     29  C   UNL A   1      42.361  22.335  27.831  1.00  0.00     0.010 A 
ATOM     30  C   UNL A   1      43.103  22.426  25.497  1.00  0.00     0.010 A 
ATOM     31  C   UNL A   1      42.731  23.063  26.693  1.00  0.00    -0.014 A 
BRANCH  31  32
ATOM     32  C   UNL A   1      43.103  24.467  26.903  1.00  0.00     0.031 A 
ATOM     33  C   UNL A   1      41.799  25.298  27.061  1.00  0.00     0.074 A 
ATOM     34  C   UNL A   1      44.443  24.761  26.922  1.00  0.00     0.049 A 
ATOM     35  N   UNL A   1      41.595  26.573  26.967  1.00  0.00    -0.248 NA
ATOM     36  C   UNL A   1      40.500  24.587  27.311  1.00  0.00     0.031 C 
ATOM     37  C   UNL A   1      45.544  23.782  26.743  1.00  0.00     0.029 A 
ATOM     38  N   UNL A   1      45.159  25.928  27.093  1.00  0.00    -0.354 N 
ATOM     39  C   UNL A   1      40.268  26.820  27.395  1.00  0.00     0.074 A 
ATOM     40  C   UNL A   1      39.606  25.562  27.446  1.00  0.00     0.031 C 
ATOM     41  C   UNL A   1      46.751  24.399  26.736  1.00  0.00     0.029 A 
ATOM     42  C   UNL A   1      46.573  25.824  26.941  1.00  0.00     0.049 A 
ATOM     43  H   UNL A   1      44.720  26.783  27.307  1.00  0.00     0.167 HD
ATOM     44  C   UNL A   1      39.856  28.035  27.859  1.00  0.00     0.037 A 
ATOM     45  C   UNL A   1      47.512  26.828  26.949  1.00  0.00     0.037 A 
ATOM     46  C   UNL A   1      40.898  28.984  27.680  1.00  0.00     0.049 A 
ATOM     47  C   UNL A   1      46.768  28.007  27.395  1.00  0.00     0.074 A 
ATOM     48  C   UNL A   1      41.435  29.539  26.549  1.00  0.00     0.029 A 
ATOM     49  N   UNL A   1      41.776  29.127  28.726  1.00  0.00    -0.354 N 
ATOM     50  N   UNL A   1      46.374  28.205  28.617  1.00  0.00    -0.248 NA
ATOM     51  C   UNL A   1      46.356  29.000  26.396  1.00  0.00     0.031 C 
ATOM     52  C   UNL A   1      42.814  29.539  26.829  1.00  0.00     0.029 A 
ATOM     53  C   UNL A   1      43.026  29.259  28.185  1.00  0.00     0.049 A 
ATOM     54  H   UNL A   1      41.548  29.134  29.684  1.00  0.00     0.167 HD
ATOM     55  C   UNL A   1      45.381  29.135  28.445  1.00  0.00     0.074 A 
ATOM     56  C   UNL A   1      45.650  29.803  27.188  1.00  0.00     0.031 C 
ATOM     57  C   UNL A   1      44.164  28.915  29.001  1.00  0.00     0.037 A 
BRANCH  44  58
ATOM     58  C   UNL A   1      38.702  28.434  28.733  1.00  0.00     0.057 A 
ATOM     59  C   UNL A   1      37.921  29.540  28.321  1.00  0.00     0.134 A 
ATOM     60  C   UNL A   1      38.578  28.071  30.079  1.00  0.00     0.134 A 
ATOM     61  F   UNL A   1      37.910  29.939  27.039  1.00  0.00    -0.206 F 
ATOM     62  C   UNL A   1      37.211  30.335  29.221  1.00  0.00     0.040 A 
ATOM     63  C   UNL A   1      37.823  28.831  30.981  1.00  0.00     0.040 A 
ATOM     64  F   UNL A   1      39.253  27.036  30.595  1.00  0.00    -0.206 F 
ATOM     65  C   UNL A   1      37.183  29.995  30.564  1.00  0.00     0.006 A 
ENDBRANCH  44  58
BRANCH  45  66
ATOM     66  C   UNL A   1      48.972  27.086  26.620  1.00  0.00     0.057 A 
ATOM     67  C   UNL A   1      50.022  27.208  27.529  1.00  0.00     0.134 A 
ATOM     68  C   UNL A   1      49.400  27.112  25.255  1.00  0.00     0.134 A 
ATOM     69  F   UNL A   1      49.792  27.325  28.842  1.00  0.00    -0.206 F 
ATOM     70  C   UNL A   1      51.378  27.225  27.121  1.00  0.00     0.040 A 
ATOM     71  C   UNL A   1      50.734  27.070  24.839  1.00  0.00     0.040 A 
ATOM     72  F   UNL A   1      48.532  27.175  24.236  1.00  0.00    -0.206 F 
ATOM     73  C   UNL A   1      51.738  27.105  25.781  1.00  0.00     0.006 A 
ENDBRANCH  45  66
BRANCH  57  74
ATOM     74  C   UNL A   1      44.177  27.996  30.213  1.00  0.00     0.057 A 
ATOM     75  C   UNL A   1      44.860  28.382  31.374  1.00  0.00     0.134 A 
ATOM     76  C   UNL A   1      43.647  26.697  30.238  1.00  0.00     0.134 A 
ATOM     77  F   UNL A   1      45.380  29.617  31.467  1.00  0.00    -0.206 F 
ATOM     78  C   UNL A   1      45.034  27.523  32.468  1.00  0.00     0.040 A 
ATOM     79  C   UNL A   1      43.810  25.821  31.322  1.00  0.00     0.040 A 
ATOM     80  F   UNL A   1      42.946  26.224  29.211  1.00  0.00    -0.206 F 
ATOM     81  C   UNL A   1      44.516  26.232  32.443  1.00  0.00     0.006 A 
ENDBRANCH  57  74
ENDBRANCH  31  32
ENDBRANCH  24  26
ENDBRANCH  23  24
ENDBRANCH  22  23
ENDBRANCH  21  22
ENDBRANCH   1  21
TORSDOF 16
ENDMDL
MODEL 3
REMARK VINA RESULT:     -10.7      5.635     10.210
REMARK SMILES CN(Cc1ccncc1)C(=O)c1cccn1CC(=O)OCCOC(=O)c1ccc(-c2c3nc(c(-c4c(F)cccc4F)c4ccc([nH]4)c(-c4c(F)cccc4F)c4nc(c(-c5c(F)cccc5F)c5ccc2[nH]5)C=C4)C=C3)cc1
REMARK SMILES IDX 20 1 18 2 19 3 17 4 16 5 12 6 13 7 14 8 15 9 10 10 11 11
REMARK SMILES IDX 2 12 1 13 3 14 4 15 5 16 9 17 6 18 8 19 7 20 21 21 22 22
REMARK SMILES IDX 23 23 24 24 25 25 26 26 27 27 79 28 28 29 78 30 29 31 30 32
REMARK SMILES IDX 31 33 72 34 32 35 77 36 71 37 73 38 33 39 76 40 70 41 69 42
REMARK SMILES IDX 34 44 60 45 43 46 59 47 44 48 47 49 58 50 74 51 45 52 46 53
REMARK SMILES IDX 57 55 75 56 48 57 35 58 36 59 41 60 37 61 38 62 40 63 42 64
REMARK SMILES IDX 39 65 61 66 62 67 67 68 63 69 64 70 66 71 68 72 65 73 49 74
REMARK SMILES IDX 50 75 55 76 51 77 52 78 54 79 56 80 53 81
REMARK H PARENT 73 43 47 54
REMARK Flexibility Score: inf
ROOT
ATOM      1  O   UNL A   1      37.506  21.501  25.745  1.00  0.00    -0.461 OA
ENDROOT
BRANCH   1   2
ATOM      2  C   UNL A   1      37.004  22.762  25.628  1.00  0.00     0.326 C 
ATOM      3  O   UNL A   1      37.660  23.718  25.221  1.00  0.00    -0.250 OA
BRANCH   2   4
ATOM      4  C   UNL A   1      35.604  22.936  26.158  1.00  0.00     0.244 C 
BRANCH   4   5
ATOM      5  N   UNL A   1      34.531  22.196  25.500  1.00  0.00    -0.332 N 
ATOM      6  C   UNL A   1      34.076  22.363  24.201  1.00  0.00     0.107 A 
ATOM      7  C   UNL A   1      33.261  21.267  23.943  1.00  0.00     0.033 A 
ATOM      8  C   UNL A   1      33.142  20.480  25.095  1.00  0.00     0.020 A 
ATOM      9  C   UNL A   1      34.001  21.035  25.997  1.00  0.00     0.087 A 
BRANCH   6  10
ATOM     10  C   UNL A   1      34.554  23.390  23.291  1.00  0.00     0.270 C 
ATOM     11  O   UNL A   1      35.557  23.200  22.616  1.00  0.00    -0.267 OA
BRANCH  10  12
ATOM     12  N   UNL A   1      33.874  24.613  23.210  1.00  0.00    -0.336 N 
ATOM     13  C   UNL A   1      32.960  24.754  22.091  1.00  0.00     0.147 C 
BRANCH  12  14
ATOM     14  C   UNL A   1      34.150  25.806  24.017  1.00  0.00     0.155 C 
BRANCH  14  15
ATOM     15  C   UNL A   1      33.173  26.033  25.148  1.00  0.00    -0.026 A 
ATOM     16  C   UNL A   1      32.106  25.139  25.319  1.00  0.00     0.025 A 
ATOM     17  C   UNL A   1      33.223  27.165  25.971  1.00  0.00     0.025 A 
ATOM     18  C   UNL A   1      31.102  25.463  26.218  1.00  0.00     0.111 A 
ATOM     19  C   UNL A   1      32.165  27.404  26.836  1.00  0.00     0.111 A 
ATOM     20  N   UNL A   1      31.103  26.583  26.971  1.00  0.00    -0.265 NA
ENDBRANCH  14  15
ENDBRANCH  12  14
ENDBRANCH  10  12
ENDBRANCH   6  10
ENDBRANCH   4   5
ENDBRANCH   2   4
ENDBRANCH   1   2
BRANCH   1  21
ATOM     21  C   UNL A   1      38.948  21.404  25.791  1.00  0.00     0.274 C 
BRANCH  21  22
ATOM     22  C   UNL A   1      39.519  19.998  25.566  1.00  0.00     0.275 C 
BRANCH  22  23
ATOM     23  O   UNL A   1      40.351  19.528  26.633  1.00  0.00    -0.458 OA
BRANCH  23  24
ATOM     24  C   UNL A   1      41.591  19.271  26.193  1.00  0.00     0.338 C 
ATOM     25  O   UNL A   1      41.994  18.194  25.739  1.00  0.00    -0.246 OA
BRANCH  24  26
ATOM     26  C   UNL A   1      42.557  20.310  26.511  1.00  0.00     0.060 A 
ATOM     27  C   UNL A   1      42.413  20.926  27.758  1.00  0.00     0.016 A 
ATOM     28  C   UNL A   1      42.991  21.015  25.387  1.00  0.00     0.016 A 
ATOM     29  C   UNL A   1      42.427  22.304  27.825  1.00  0.00     0.010 A 
ATOM     30  C   UNL A   1      43.078  22.390  25.464  1.00  0.00     0.010 A 
ATOM     31  C   UNL A   1      42.748  23.029  26.671  1.00  0.00    -0.014 A 
BRANCH  31  32
ATOM     32  C   UNL A   1      43.117  24.437  26.861  1.00  0.00     0.031 A 
ATOM     33  C   UNL A   1      41.811  25.266  27.019  1.00  0.00     0.074 A 
ATOM     34  C   UNL A   1      44.456  24.736  26.867  1.00  0.00     0.049 A 
ATOM     35  N   UNL A   1      41.603  26.539  26.911  1.00  0.00    -0.248 NA
ATOM     36  C   UNL A   1      40.516  24.554  27.287  1.00  0.00     0.031 C 
ATOM     37  C   UNL A   1      45.559  23.757  26.692  1.00  0.00     0.029 A 
ATOM     38  N   UNL A   1      45.170  25.907  27.018  1.00  0.00    -0.354 N 
ATOM     39  C   UNL A   1      40.279  26.788  27.345  1.00  0.00     0.074 A 
ATOM     40  C   UNL A   1      39.621  25.528  27.417  1.00  0.00     0.031 C 
ATOM     41  C   UNL A   1      46.763  24.378  26.668  1.00  0.00     0.029 A 
ATOM     42  C   UNL A   1      46.583  25.805  26.857  1.00  0.00     0.049 A 
ATOM     43  H   UNL A   1      44.729  26.763  27.225  1.00  0.00     0.167 HD
ATOM     44  C   UNL A   1      39.866  28.007  27.798  1.00  0.00     0.037 A 
ATOM     45  C   UNL A   1      47.519  26.811  26.846  1.00  0.00     0.037 A 
ATOM     46  C   UNL A   1      40.904  28.957  27.600  1.00  0.00     0.049 A 
ATOM     47  C   UNL A   1      46.775  27.994  27.283  1.00  0.00     0.074 A 
ATOM     48  C   UNL A   1      41.431  29.500  26.458  1.00  0.00     0.029 A 
ATOM     49  N   UNL A   1      41.789  29.115  28.637  1.00  0.00    -0.354 N 
ATOM     50  N   UNL A   1      46.389  28.205  28.505  1.00  0.00    -0.248 NA
ATOM     51  C   UNL A   1      46.352  28.973  26.276  1.00  0.00     0.031 C 
ATOM     52  C   UNL A   1      42.812  29.507  26.728  1.00  0.00     0.029 A 
ATOM     53  C   UNL A   1      43.035  29.244  28.086  1.00  0.00     0.049 A 
ATOM     54  H   UNL A   1      41.568  29.133  29.597  1.00  0.00     0.167 HD
ATOM     55  C   UNL A   1      45.392  29.130  28.329  1.00  0.00     0.074 A 
ATOM     56  C   UNL A   1      45.650  29.784  27.063  1.00  0.00     0.031 C 
ATOM     57  C   UNL A   1      44.180  28.913  28.898  1.00  0.00     0.037 A 
BRANCH  44  58
ATOM     58  C   UNL A   1      38.718  28.414  28.676  1.00  0.00     0.057 A 
ATOM     59  C   UNL A   1      37.929  29.511  28.255  1.00  0.00     0.134 A 
ATOM     60  C   UNL A   1      38.605  28.067  30.027  1.00  0.00     0.134 A 
ATOM     61  F   UNL A   1      37.907  29.893  26.968  1.00  0.00    -0.206 F 
ATOM     62  C   UNL A   1      37.223  30.315  29.150  1.00  0.00     0.040 A 
ATOM     63  C   UNL A   1      37.854  28.836  30.925  1.00  0.00     0.040 A 
ATOM     64  F   UNL A   1      39.288  27.042  30.552  1.00  0.00    -0.206 F 
ATOM     65  C   UNL A   1      37.206  29.993  30.498  1.00  0.00     0.006 A 
ENDBRANCH  44  58
BRANCH  45  66
ATOM     66  C   UNL A   1      48.976  27.070  26.503  1.00  0.00     0.057 A 
ATOM     67  C   UNL A   1      49.551  27.040  25.233  1.00  0.00     0.134 A 
ATOM     68  C   UNL A   1      49.882  27.496  27.525  1.00  0.00     0.134 A 
ATOM     69  F   UNL A   1      48.885  26.550  24.182  1.00  0.00    -0.206 F 
ATOM     70  C   UNL A   1      50.863  27.512  24.986  1.00  0.00     0.040 A 
ATOM     71  C   UNL A   1      51.157  28.019  27.289  1.00  0.00     0.040 A 
ATOM     72  F   UNL A   1      49.570  27.434  28.827  1.00  0.00    -0.206 F 
ATOM     73  C   UNL A   1      51.649  28.049  26.003  1.00  0.00     0.006 A 
ENDBRANCH  45  66
BRANCH  57  74
ATOM     74  C   UNL A   1      44.204  28.009  30.120  1.00  0.00     0.057 A 
ATOM     75  C   UNL A   1      44.894  28.412  31.272  1.00  0.00     0.134 A 
ATOM     76  C   UNL A   1      43.679  26.708  30.165  1.00  0.00     0.134 A 
ATOM     77  F   UNL A   1      45.410  29.649  31.347  1.00  0.00    -0.206 F 
ATOM     78  C   UNL A   1      45.078  27.566  32.375  1.00  0.00     0.040 A 
ATOM     79  C   UNL A   1      43.853  25.846  31.258  1.00  0.00     0.040 A 
ATOM     80  F   UNL A   1      42.973  26.221  29.148  1.00  0.00    -0.206 F 
ATOM     81  C   UNL A   1      44.565  26.273  32.369  1.00  0.00     0.006 A 
ENDBRANCH  57  74
ENDBRANCH  31  32
ENDBRANCH  24  26
ENDBRANCH  23  24
ENDBRANCH  22  23
ENDBRANCH  21  22
ENDBRANCH   1  21
TORSDOF 16
ENDMDL
