MODEL 1
REMARK VINA RESULT:     -11.6      0.000      0.000
REMARK SMILES C#Cc1ccc2c(c1)C=C(C(=O)OCCOC(=O)c1ccc(-c3c4nc(c(-c5c(F)cccc5F)c5ccc([nH]5)c(-c5c(F)cccc5F)c5nc(c(-c6c(F)cccc6F)c6ccc3[nH]6)C=C5)C=C4)cc1)[C@@H](C(F)(F)F)O2
REMARK SMILES IDX 15 1 14 2 13 3 11 4 12 5 10 6 3 7 4 8 8 9 5 10 7 11 6 12
REMARK SMILES IDX 9 13 78 14 73 15 2 16 1 17 74 18 75 19 76 20 77 21 16 22
REMARK SMILES IDX 17 23 18 24 19 25 20 26 72 27 21 28 71 29 22 30 23 31 24 32
REMARK SMILES IDX 65 33 25 34 70 35 64 36 66 37 26 38 69 39 63 40 62 41 27 43
REMARK SMILES IDX 53 44 36 45 52 46 37 47 40 48 51 49 67 50 38 51 39 52 50 54
REMARK SMILES IDX 68 55 41 56 28 57 29 58 34 59 30 60 31 61 33 62 35 63 32 64
REMARK SMILES IDX 54 65 55 66 60 67 56 68 57 69 59 70 61 71 58 72 42 73 43 74
REMARK SMILES IDX 48 75 44 76 45 77 47 78 49 79 46 80
REMARK H PARENT 66 42 40 53
REMARK Flexibility Score: inf
ROOT
ATOM      1  C   UNL A   1      36.351  20.781  25.210  1.00  0.00     0.275 C 
ENDROOT
BRANCH   1   2
ATOM      2  C   UNL A   1      35.229  21.469  25.994  1.00  0.00     0.275 C 
BRANCH   2   3
ATOM      3  O   UNL A   1      35.076  22.854  25.603  1.00  0.00    -0.459 OA
BRANCH   3   4
ATOM      4  C   UNL A   1      34.049  23.118  24.762  1.00  0.00     0.338 C 
ATOM      5  O   UNL A   1      33.737  22.469  23.775  1.00  0.00    -0.246 OA
BRANCH   4   6
ATOM      6  C   UNL A   1      33.297  24.313  25.200  1.00  0.00     0.087 C 
ATOM      7  C   UNL A   1      33.408  28.804  26.943  1.00  0.00     0.025 A 
ATOM      8  C   UNL A   1      32.050  28.718  27.255  1.00  0.00     0.021 A 
ATOM      9  C   UNL A   1      34.032  27.735  26.304  1.00  0.00     0.029 A 
ATOM     10  C   UNL A   1      31.321  27.565  26.923  1.00  0.00     0.048 A 
ATOM     11  C   UNL A   1      33.303  26.578  26.001  1.00  0.00     0.018 A 
ATOM     12  C   UNL A   1      31.949  26.489  26.300  1.00  0.00     0.128 A 
ATOM     13  C   UNL A   1      33.978  25.442  25.419  1.00  0.00     0.027 C 
ATOM     14  O   UNL A   1      31.186  25.391  26.010  1.00  0.00    -0.475 OA
ATOM     15  C   UNL A   1      31.843  24.171  25.547  1.00  0.00     0.316 C 
BRANCH   7  16
ATOM     16  C   UNL A   1      34.177  29.959  27.291  1.00  0.00    -0.070 C 
ATOM     17  C   UNL A   1      34.822  30.917  27.627  1.00  0.00     0.010 C 
ENDBRANCH   7  16
BRANCH  15  18
ATOM     18  C   UNL A   1      31.646  23.070  26.602  1.00  0.00     0.430 C 
ATOM     19  F   UNL A   1      30.466  23.210  27.250  1.00  0.00    -0.167 F 
ATOM     20  F   UNL A   1      31.634  21.836  26.041  1.00  0.00    -0.167 F 
ATOM     21  F   UNL A   1      32.628  23.076  27.533  1.00  0.00    -0.167 F 
ENDBRANCH  15  18
ENDBRANCH   4   6
ENDBRANCH   3   4
ENDBRANCH   2   3
ENDBRANCH   1   2
BRANCH   1  22
ATOM     22  O   UNL A   1      37.497  21.641  25.081  1.00  0.00    -0.458 OA
BRANCH  22  23
ATOM     23  C   UNL A   1      38.589  21.227  25.758  1.00  0.00     0.338 C 
ATOM     24  O   UNL A   1      39.095  20.118  25.754  1.00  0.00    -0.246 OA
BRANCH  23  25
ATOM     25  C   UNL A   1      39.218  22.372  26.422  1.00  0.00     0.060 A 
ATOM     26  C   UNL A   1      40.372  22.249  27.178  1.00  0.00     0.016 A 
ATOM     27  C   UNL A   1      38.720  23.630  26.118  1.00  0.00     0.016 A 
ATOM     28  C   UNL A   1      41.002  23.413  27.634  1.00  0.00     0.010 A 
ATOM     29  C   UNL A   1      39.458  24.771  26.383  1.00  0.00     0.010 A 
ATOM     30  C   UNL A   1      40.577  24.691  27.206  1.00  0.00    -0.014 A 
BRANCH  30  31
ATOM     31  C   UNL A   1      41.264  25.936  27.645  1.00  0.00     0.031 A 
ATOM     32  C   UNL A   1      42.685  26.234  27.212  1.00  0.00     0.074 A 
ATOM     33  C   UNL A   1      40.613  26.801  28.448  1.00  0.00     0.049 A 
ATOM     34  N   UNL A   1      43.415  27.297  27.450  1.00  0.00    -0.248 NA
ATOM     35  C   UNL A   1      43.399  25.197  26.448  1.00  0.00     0.031 C 
ATOM     36  C   UNL A   1      39.280  26.588  29.021  1.00  0.00     0.029 A 
ATOM     37  N   UNL A   1      40.968  28.047  28.900  1.00  0.00    -0.354 N 
ATOM     38  C   UNL A   1      44.655  27.045  26.872  1.00  0.00     0.074 A 
ATOM     39  C   UNL A   1      44.621  25.695  26.368  1.00  0.00     0.031 C 
ATOM     40  C   UNL A   1      38.894  27.700  29.663  1.00  0.00     0.029 A 
ATOM     41  C   UNL A   1      39.972  28.679  29.604  1.00  0.00     0.049 A 
ATOM     42  H   UNL A   1      41.852  28.448  28.735  1.00  0.00     0.167 HD
ATOM     43  C   UNL A   1      45.714  27.877  26.720  1.00  0.00     0.037 A 
ATOM     44  C   UNL A   1      39.931  29.915  30.136  1.00  0.00     0.037 A 
ATOM     45  C   UNL A   1      45.741  29.229  27.203  1.00  0.00     0.049 A 
ATOM     46  C   UNL A   1      41.127  30.812  29.972  1.00  0.00     0.074 A 
ATOM     47  C   UNL A   1      46.739  30.177  27.063  1.00  0.00     0.029 A 
ATOM     48  N   UNL A   1      44.720  29.822  27.929  1.00  0.00    -0.354 N 
ATOM     49  N   UNL A   1      42.252  30.589  29.339  1.00  0.00    -0.248 NA
ATOM     50  C   UNL A   1      41.042  32.137  30.600  1.00  0.00     0.031 C 
ATOM     51  C   UNL A   1      46.346  31.324  27.759  1.00  0.00     0.029 A 
ATOM     52  C   UNL A   1      45.076  31.116  28.272  1.00  0.00     0.049 A 
ATOM     53  H   UNL A   1      43.868  29.389  28.166  1.00  0.00     0.167 HD
ATOM     54  C   UNL A   1      42.998  31.754  29.467  1.00  0.00     0.074 A 
ATOM     55  C   UNL A   1      42.182  32.689  30.213  1.00  0.00     0.031 C 
ATOM     56  C   UNL A   1      44.247  32.028  29.016  1.00  0.00     0.037 A 
BRANCH  43  57
ATOM     57  C   UNL A   1      46.916  27.345  25.986  1.00  0.00     0.057 A 
ATOM     58  C   UNL A   1      47.009  27.444  24.592  1.00  0.00     0.134 A 
ATOM     59  C   UNL A   1      47.979  26.721  26.657  1.00  0.00     0.134 A 
ATOM     60  F   UNL A   1      46.027  28.019  23.882  1.00  0.00    -0.206 F 
ATOM     61  C   UNL A   1      48.114  26.949  23.896  1.00  0.00     0.040 A 
ATOM     62  C   UNL A   1      49.105  26.255  25.976  1.00  0.00     0.040 A 
ATOM     63  F   UNL A   1      47.962  26.600  27.994  1.00  0.00    -0.206 F 
ATOM     64  C   UNL A   1      49.171  26.363  24.589  1.00  0.00     0.006 A 
ENDBRANCH  43  57
BRANCH  44  65
ATOM     65  C   UNL A   1      38.719  30.389  30.854  1.00  0.00     0.057 A 
ATOM     66  C   UNL A   1      37.709  31.098  30.193  1.00  0.00     0.134 A 
ATOM     67  C   UNL A   1      38.522  30.106  32.212  1.00  0.00     0.134 A 
ATOM     68  F   UNL A   1      37.840  31.415  28.896  1.00  0.00    -0.206 F 
ATOM     69  C   UNL A   1      36.546  31.501  30.852  1.00  0.00     0.040 A 
ATOM     70  C   UNL A   1      37.347  30.470  32.873  1.00  0.00     0.040 A 
ATOM     71  F   UNL A   1      39.447  29.422  32.901  1.00  0.00    -0.206 F 
ATOM     72  C   UNL A   1      36.355  31.171  32.191  1.00  0.00     0.006 A 
ENDBRANCH  44  65
BRANCH  56  73
ATOM     73  C   UNL A   1      44.782  33.404  29.288  1.00  0.00     0.057 A 
ATOM     74  C   UNL A   1      44.534  34.453  28.392  1.00  0.00     0.134 A 
ATOM     75  C   UNL A   1      45.551  33.692  30.422  1.00  0.00     0.134 A 
ATOM     76  F   UNL A   1      43.818  34.243  27.277  1.00  0.00    -0.206 F 
ATOM     77  C   UNL A   1      45.025  35.738  28.619  1.00  0.00     0.040 A 
ATOM     78  C   UNL A   1      46.014  34.983  30.681  1.00  0.00     0.040 A 
ATOM     79  F   UNL A   1      45.817  32.735  31.325  1.00  0.00    -0.206 F 
ATOM     80  C   UNL A   1      45.756  36.009  29.774  1.00  0.00     0.006 A 
ENDBRANCH  56  73
ENDBRANCH  30  31
ENDBRANCH  23  25
ENDBRANCH  22  23
ENDBRANCH   1  22
TORSDOF 13
ENDMDL
MODEL 2
REMARK VINA RESULT:     -11.5      3.917      8.844
REMARK SMILES C#Cc1ccc2c(c1)C=C(C(=O)OCCOC(=O)c1ccc(-c3c4nc(c(-c5c(F)cccc5F)c5ccc([nH]5)c(-c5c(F)cccc5F)c5nc(c(-c6c(F)cccc6F)c6ccc3[nH]6)C=C5)C=C4)cc1)[C@@H](C(F)(F)F)O2
REMARK SMILES IDX 15 1 14 2 13 3 11 4 12 5 10 6 3 7 4 8 8 9 5 10 7 11 6 12
REMARK SMILES IDX 9 13 78 14 73 15 2 16 1 17 74 18 75 19 76 20 77 21 16 22
REMARK SMILES IDX 17 23 18 24 19 25 20 26 72 27 21 28 71 29 22 30 23 31 24 32
REMARK SMILES IDX 65 33 25 34 70 35 64 36 66 37 26 38 69 39 63 40 62 41 27 43
REMARK SMILES IDX 53 44 36 45 52 46 37 47 40 48 51 49 67 50 38 51 39 52 50 54
REMARK SMILES IDX 68 55 41 56 28 57 29 58 34 59 30 60 31 61 33 62 35 63 32 64
REMARK SMILES IDX 54 65 55 66 60 67 56 68 57 69 59 70 61 71 58 72 42 73 43 74
REMARK SMILES IDX 48 75 44 76 45 77 47 78 49 79 46 80
REMARK H PARENT 66 42 40 53
REMARK Flexibility Score: inf
ROOT
ATOM      1  C   UNL A   1      31.780  30.198  25.697  1.00  0.00     0.275 C 
ENDROOT
BRANCH   1   2
ATOM      2  C   UNL A   1      32.618  29.334  24.749  1.00  0.00     0.275 C 
BRANCH   2   3
ATOM      3  O   UNL A   1      33.012  28.087  25.370  1.00  0.00    -0.459 OA
BRANCH   3   4
ATOM      4  C   UNL A   1      32.213  27.025  25.113  1.00  0.00     0.338 C 
ATOM      5  O   UNL A   1      30.997  26.991  25.219  1.00  0.00    -0.246 OA
BRANCH   4   6
ATOM      6  C   UNL A   1      33.005  25.867  24.644  1.00  0.00     0.087 C 
ATOM      7  C   UNL A   1      36.976  23.174  25.093  1.00  0.00     0.025 A 
ATOM      8  C   UNL A   1      36.729  22.601  23.844  1.00  0.00     0.021 A 
ATOM      9  C   UNL A   1      36.068  24.094  25.614  1.00  0.00     0.029 A 
ATOM     10  C   UNL A   1      35.576  22.946  23.123  1.00  0.00     0.048 A 
ATOM     11  C   UNL A   1      34.933  24.454  24.876  1.00  0.00     0.018 A 
ATOM     12  C   UNL A   1      34.677  23.880  23.636  1.00  0.00     0.128 A 
ATOM     13  C   UNL A   1      34.045  25.472  25.384  1.00  0.00     0.027 C 
ATOM     14  O   UNL A   1      33.577  24.180  22.882  1.00  0.00    -0.475 OA
ATOM     15  C   UNL A   1      32.722  25.295  23.284  1.00  0.00     0.316 C 
BRANCH   7  16
ATOM     16  C   UNL A   1      38.155  22.854  25.837  1.00  0.00    -0.070 C 
ATOM     17  C   UNL A   1      39.124  22.598  26.500  1.00  0.00     0.010 C 
ENDBRANCH   7  16
BRANCH  15  18
ATOM     18  C   UNL A   1      32.801  26.394  22.211  1.00  0.00     0.430 C 
ATOM     19  F   UNL A   1      32.937  25.867  20.972  1.00  0.00    -0.167 F 
ATOM     20  F   UNL A   1      31.676  27.151  22.187  1.00  0.00    -0.167 F 
ATOM     21  F   UNL A   1      33.843  27.232  22.416  1.00  0.00    -0.167 F 
ENDBRANCH  15  18
ENDBRANCH   4   6
ENDBRANCH   3   4
ENDBRANCH   2   3
ENDBRANCH   1   2
BRANCH   1  22
ATOM     22  O   UNL A   1      32.410  30.316  26.985  1.00  0.00    -0.458 OA
BRANCH  22  23
ATOM     23  C   UNL A   1      33.050  31.487  27.192  1.00  0.00     0.338 C 
ATOM     24  O   UNL A   1      32.589  32.613  27.119  1.00  0.00    -0.246 OA
BRANCH  23  25
ATOM     25  C   UNL A   1      34.404  31.225  27.688  1.00  0.00     0.060 A 
ATOM     26  C   UNL A   1      35.290  32.244  27.995  1.00  0.00     0.016 A 
ATOM     27  C   UNL A   1      34.714  29.914  28.016  1.00  0.00     0.016 A 
ATOM     28  C   UNL A   1      36.498  31.915  28.623  1.00  0.00     0.010 A 
ATOM     29  C   UNL A   1      35.798  29.620  28.824  1.00  0.00     0.010 A 
ATOM     30  C   UNL A   1      36.749  30.603  29.085  1.00  0.00    -0.014 A 
BRANCH  30  31
ATOM     31  C   UNL A   1      38.007  30.246  29.795  1.00  0.00     0.031 A 
ATOM     32  C   UNL A   1      38.259  30.713  31.214  1.00  0.00     0.074 A 
ATOM     33  C   UNL A   1      38.938  29.508  29.157  1.00  0.00     0.049 A 
ATOM     34  N   UNL A   1      39.270  30.446  32.004  1.00  0.00    -0.248 NA
ATOM     35  C   UNL A   1      37.274  31.628  31.817  1.00  0.00     0.031 C 
ATOM     36  C   UNL A   1      38.868  29.079  27.757  1.00  0.00     0.029 A 
ATOM     37  N   UNL A   1      40.112  28.961  29.609  1.00  0.00    -0.354 N 
ATOM     38  C   UNL A   1      39.038  31.158  33.176  1.00  0.00     0.074 A 
ATOM     39  C   UNL A   1      37.854  31.954  32.960  1.00  0.00     0.031 C 
ATOM     40  C   UNL A   1      39.896  28.260  27.494  1.00  0.00     0.029 A 
ATOM     41  C   UNL A   1      40.733  28.156  28.683  1.00  0.00     0.049 A 
ATOM     42  H   UNL A   1      40.474  29.129  30.508  1.00  0.00     0.167 HD
ATOM     43  C   UNL A   1      39.712  31.119  34.350  1.00  0.00     0.037 A 
ATOM     44  C   UNL A   1      41.849  27.411  28.787  1.00  0.00     0.037 A 
ATOM     45  C   UNL A   1      40.879  30.312  34.573  1.00  0.00     0.049 A 
ATOM     46  C   UNL A   1      42.592  27.400  30.095  1.00  0.00     0.074 A 
ATOM     47  C   UNL A   1      41.612  30.155  35.735  1.00  0.00     0.029 A 
ATOM     48  N   UNL A   1      41.486  29.529  33.603  1.00  0.00    -0.354 N 
ATOM     49  N   UNL A   1      42.301  28.005  31.221  1.00  0.00    -0.248 NA
ATOM     50  C   UNL A   1      43.820  26.597  30.144  1.00  0.00     0.031 C 
ATOM     51  C   UNL A   1      42.701  29.326  35.450  1.00  0.00     0.029 A 
ATOM     52  C   UNL A   1      42.606  28.909  34.132  1.00  0.00     0.049 A 
ATOM     53  H   UNL A   1      41.169  29.428  32.677  1.00  0.00     0.167 HD
ATOM     54  C   UNL A   1      43.294  27.635  32.119  1.00  0.00     0.074 A 
ATOM     55  C   UNL A   1      44.175  26.728  31.412  1.00  0.00     0.031 C 
ATOM     56  C   UNL A   1      43.469  28.011  33.410  1.00  0.00     0.037 A 
BRANCH  43  57
ATOM     57  C   UNL A   1      39.186  31.961  35.482  1.00  0.00     0.057 A 
ATOM     58  C   UNL A   1      39.591  33.293  35.636  1.00  0.00     0.134 A 
ATOM     59  C   UNL A   1      38.288  31.450  36.431  1.00  0.00     0.134 A 
ATOM     60  F   UNL A   1      40.455  33.847  34.773  1.00  0.00    -0.206 F 
ATOM     61  C   UNL A   1      39.119  34.084  36.686  1.00  0.00     0.040 A 
ATOM     62  C   UNL A   1      37.781  32.242  37.463  1.00  0.00     0.040 A 
ATOM     63  F   UNL A   1      37.850  30.185  36.341  1.00  0.00    -0.206 F 
ATOM     64  C   UNL A   1      38.203  33.562  37.596  1.00  0.00     0.006 A 
ENDBRANCH  43  57
BRANCH  44  65
ATOM     65  C   UNL A   1      42.326  26.600  27.636  1.00  0.00     0.057 A 
ATOM     66  C   UNL A   1      41.933  25.267  27.469  1.00  0.00     0.134 A 
ATOM     67  C   UNL A   1      43.154  27.153  26.651  1.00  0.00     0.134 A 
ATOM     68  F   UNL A   1      41.153  24.670  28.383  1.00  0.00    -0.206 F 
ATOM     69  C   UNL A   1      42.338  24.517  26.363  1.00  0.00     0.040 A 
ATOM     70  C   UNL A   1      43.535  26.428  25.521  1.00  0.00     0.040 A 
ATOM     71  F   UNL A   1      43.558  28.429  26.746  1.00  0.00    -0.206 F 
ATOM     72  C   UNL A   1      43.127  25.103  25.377  1.00  0.00     0.006 A 
ENDBRANCH  44  65
BRANCH  56  73
ATOM     73  C   UNL A   1      44.634  27.412  34.142  1.00  0.00     0.057 A 
ATOM     74  C   UNL A   1      44.498  26.190  34.814  1.00  0.00     0.134 A 
ATOM     75  C   UNL A   1      45.883  28.044  34.196  1.00  0.00     0.134 A 
ATOM     76  F   UNL A   1      43.326  25.539  34.817  1.00  0.00    -0.206 F 
ATOM     77  C   UNL A   1      45.564  25.616  35.506  1.00  0.00     0.040 A 
ATOM     78  C   UNL A   1      46.967  27.460  34.851  1.00  0.00     0.040 A 
ATOM     79  F   UNL A   1      46.082  29.212  33.565  1.00  0.00    -0.206 F 
ATOM     80  C   UNL A   1      46.807  26.245  35.514  1.00  0.00     0.006 A 
ENDBRANCH  56  73
ENDBRANCH  30  31
ENDBRANCH  23  25
ENDBRANCH  22  23
ENDBRANCH   1  22
TORSDOF 13
ENDMDL
MODEL 3
REMARK VINA RESULT:     -11.3      3.985      8.795
REMARK SMILES C#Cc1ccc2c(c1)C=C(C(=O)OCCOC(=O)c1ccc(-c3c4nc(c(-c5c(F)cccc5F)c5ccc([nH]5)c(-c5c(F)cccc5F)c5nc(c(-c6c(F)cccc6F)c6ccc3[nH]6)C=C5)C=C4)cc1)[C@@H](C(F)(F)F)O2
REMARK SMILES IDX 15 1 14 2 13 3 11 4 12 5 10 6 3 7 4 8 8 9 5 10 7 11 6 12
REMARK SMILES IDX 9 13 78 14 73 15 2 16 1 17 74 18 75 19 76 20 77 21 16 22
REMARK SMILES IDX 17 23 18 24 19 25 20 26 72 27 21 28 71 29 22 30 23 31 24 32
REMARK SMILES IDX 65 33 25 34 70 35 64 36 66 37 26 38 69 39 63 40 62 41 27 43
REMARK SMILES IDX 53 44 36 45 52 46 37 47 40 48 51 49 67 50 38 51 39 52 50 54
REMARK SMILES IDX 68 55 41 56 28 57 29 58 34 59 30 60 31 61 33 62 35 63 32 64
REMARK SMILES IDX 54 65 55 66 60 67 56 68 57 69 59 70 61 71 58 72 42 73 43 74
REMARK SMILES IDX 48 75 44 76 45 77 47 78 49 79 46 80
REMARK H PARENT 66 42 40 53
REMARK Flexibility Score: inf
ROOT
ATOM      1  C   UNL A   1      31.716  29.997  25.766  1.00  0.00     0.275 C 
ENDROOT
BRANCH   1   2
ATOM      2  C   UNL A   1      31.519  29.058  24.572  1.00  0.00     0.275 C 
BRANCH   2   3
ATOM      3  O   UNL A   1      32.362  27.885  24.669  1.00  0.00    -0.459 OA
BRANCH   3   4
ATOM      4  C   UNL A   1      31.734  26.696  24.518  1.00  0.00     0.338 C 
ATOM      5  O   UNL A   1      30.531  26.498  24.595  1.00  0.00    -0.246 OA
BRANCH   4   6
ATOM      6  C   UNL A   1      32.701  25.620  24.210  1.00  0.00     0.087 C 
ATOM      7  C   UNL A   1      36.939  23.533  25.161  1.00  0.00     0.025 A 
ATOM      8  C   UNL A   1      36.863  22.830  23.958  1.00  0.00     0.021 A 
ATOM      9  C   UNL A   1      35.884  24.363  25.535  1.00  0.00     0.029 A 
ATOM     10  C   UNL A   1      35.733  22.956  23.136  1.00  0.00     0.048 A 
ATOM     11  C   UNL A   1      34.771  24.504  24.696  1.00  0.00     0.018 A 
ATOM     12  C   UNL A   1      34.686  23.799  23.501  1.00  0.00     0.128 A 
ATOM     13  C   UNL A   1      33.723  25.432  25.049  1.00  0.00     0.027 C 
ATOM     14  O   UNL A   1      33.616  23.885  22.653  1.00  0.00    -0.475 OA
ATOM     15  C   UNL A   1      32.598  24.904  22.894  1.00  0.00     0.316 C 
BRANCH   7  16
ATOM     16  C   UNL A   1      38.089  23.438  26.006  1.00  0.00    -0.070 C 
ATOM     17  C   UNL A   1      39.056  23.313  26.709  1.00  0.00     0.010 C 
ENDBRANCH   7  16
BRANCH  15  18
ATOM     18  C   UNL A   1      32.616  25.910  21.731  1.00  0.00     0.430 C 
ATOM     19  F   UNL A   1      31.422  26.533  21.597  1.00  0.00    -0.167 F 
ATOM     20  F   UNL A   1      33.540  26.883  21.925  1.00  0.00    -0.167 F 
ATOM     21  F   UNL A   1      32.902  25.316  20.549  1.00  0.00    -0.167 F 
ENDBRANCH  15  18
ENDBRANCH   4   6
ENDBRANCH   3   4
ENDBRANCH   2   3
ENDBRANCH   1   2
BRANCH   1  22
ATOM     22  O   UNL A   1      33.110  30.133  26.095  1.00  0.00    -0.458 OA
BRANCH  22  23
ATOM     23  C   UNL A   1      33.387  31.126  26.966  1.00  0.00     0.338 C 
ATOM     24  O   UNL A   1      32.641  32.008  27.354  1.00  0.00    -0.246 OA
BRANCH  23  25
ATOM     25  C   UNL A   1      34.722  30.921  27.535  1.00  0.00     0.060 A 
ATOM     26  C   UNL A   1      35.498  31.970  28.000  1.00  0.00     0.016 A 
ATOM     27  C   UNL A   1      35.117  29.612  27.764  1.00  0.00     0.016 A 
ATOM     28  C   UNL A   1      36.684  31.674  28.684  1.00  0.00     0.010 A 
ATOM     29  C   UNL A   1      36.166  29.324  28.620  1.00  0.00     0.010 A 
ATOM     30  C   UNL A   1      37.012  30.346  29.040  1.00  0.00    -0.014 A 
BRANCH  30  31
ATOM     31  C   UNL A   1      38.245  30.019  29.806  1.00  0.00     0.031 A 
ATOM     32  C   UNL A   1      38.448  30.542  31.213  1.00  0.00     0.074 A 
ATOM     33  C   UNL A   1      39.197  29.256  29.231  1.00  0.00     0.049 A 
ATOM     34  N   UNL A   1      39.433  30.307  32.047  1.00  0.00    -0.248 NA
ATOM     35  C   UNL A   1      37.445  31.479  31.746  1.00  0.00     0.031 C 
ATOM     36  C   UNL A   1      39.174  28.773  27.846  1.00  0.00     0.029 A 
ATOM     37  N   UNL A   1      40.354  28.729  29.743  1.00  0.00    -0.354 N 
ATOM     38  C   UNL A   1      39.160  31.065  33.182  1.00  0.00     0.074 A 
ATOM     39  C   UNL A   1      37.985  31.850  32.895  1.00  0.00     0.031 C 
ATOM     40  C   UNL A   1      40.211  27.945  27.652  1.00  0.00     0.029 A 
ATOM     41  C   UNL A   1      41.006  27.889  28.872  1.00  0.00     0.049 A 
ATOM     42  H   UNL A   1      40.686  28.933  30.647  1.00  0.00     0.167 HD
ATOM     43  C   UNL A   1      39.794  31.073  34.379  1.00  0.00     0.037 A 
ATOM     44  C   UNL A   1      42.117  27.149  29.043  1.00  0.00     0.037 A 
ATOM     45  C   UNL A   1      40.952  30.276  34.673  1.00  0.00     0.049 A 
ATOM     46  C   UNL A   1      42.815  27.190  30.375  1.00  0.00     0.074 A 
ATOM     47  C   UNL A   1      41.646  30.165  35.865  1.00  0.00     0.029 A 
ATOM     48  N   UNL A   1      41.592  29.455  33.756  1.00  0.00    -0.354 N 
ATOM     49  N   UNL A   1      42.487  27.839  31.465  1.00  0.00    -0.248 NA
ATOM     50  C   UNL A   1      44.041  26.391  30.497  1.00  0.00     0.031 C 
ATOM     51  C   UNL A   1      42.744  29.326  35.650  1.00  0.00     0.029 A 
ATOM     52  C   UNL A   1      42.693  28.858  34.347  1.00  0.00     0.049 A 
ATOM     53  H   UNL A   1      41.307  29.317  32.825  1.00  0.00     0.167 HD
ATOM     54  C   UNL A   1      43.448  27.506  32.410  1.00  0.00     0.074 A 
ATOM     55  C   UNL A   1      44.353  26.572  31.770  1.00  0.00     0.031 C 
ATOM     56  C   UNL A   1      43.579  27.933  33.691  1.00  0.00     0.037 A 
BRANCH  43  57
ATOM     57  C   UNL A   1      39.231  31.958  35.458  1.00  0.00     0.057 A 
ATOM     58  C   UNL A   1      38.311  31.460  36.390  1.00  0.00     0.134 A 
ATOM     59  C   UNL A   1      39.588  33.310  35.570  1.00  0.00     0.134 A 
ATOM     60  F   UNL A   1      37.915  30.179  36.340  1.00  0.00    -0.206 F 
ATOM     61  C   UNL A   1      37.773  32.271  37.392  1.00  0.00     0.040 A 
ATOM     62  C   UNL A   1      39.085  34.121  36.590  1.00  0.00     0.040 A 
ATOM     63  F   UNL A   1      40.471  33.853  34.718  1.00  0.00    -0.206 F 
ATOM     64  C   UNL A   1      38.169  33.601  37.501  1.00  0.00     0.006 A 
ENDBRANCH  43  57
BRANCH  44  65
ATOM     65  C   UNL A   1      42.633  26.293  27.942  1.00  0.00     0.057 A 
ATOM     66  C   UNL A   1      43.517  26.796  26.979  1.00  0.00     0.134 A 
ATOM     67  C   UNL A   1      42.289  24.939  27.853  1.00  0.00     0.134 A 
ATOM     68  F   UNL A   1      43.876  28.088  26.997  1.00  0.00    -0.206 F 
ATOM     69  C   UNL A   1      44.044  25.983  25.974  1.00  0.00     0.040 A 
ATOM     70  C   UNL A   1      42.837  24.105  26.876  1.00  0.00     0.040 A 
ATOM     71  F   UNL A   1      41.455  24.392  28.751  1.00  0.00    -0.206 F 
ATOM     72  C   UNL A   1      43.718  24.629  25.932  1.00  0.00     0.006 A 
ENDBRANCH  44  65
BRANCH  56  73
ATOM     73  C   UNL A   1      44.718  27.364  34.485  1.00  0.00     0.057 A 
ATOM     74  C   UNL A   1      45.961  28.012  34.509  1.00  0.00     0.134 A 
ATOM     75  C   UNL A   1      44.596  26.175  35.215  1.00  0.00     0.134 A 
ATOM     76  F   UNL A   1      46.153  29.147  33.819  1.00  0.00    -0.206 F 
ATOM     77  C   UNL A   1      47.037  27.501  35.234  1.00  0.00     0.040 A 
ATOM     78  C   UNL A   1      45.653  25.675  35.976  1.00  0.00     0.040 A 
ATOM     79  F   UNL A   1      43.430  25.511  35.242  1.00  0.00    -0.206 F 
ATOM     80  C   UNL A   1      46.879  26.336  35.982  1.00  0.00     0.006 A 
ENDBRANCH  56  73
ENDBRANCH  30  31
ENDBRANCH  23  25
ENDBRANCH  22  23
ENDBRANCH   1  22
TORSDOF 13
ENDMDL
