MODEL 1
REMARK VINA RESULT:     -12.1      0.000      0.000
REMARK SMILES Cc1cc2c(c(C)c1Cl)C=C(C(=O)OCCOC(=O)c1ccc(-c3c4nc(c(-c5c(F)cccc5F)c5ccc([nH]5)c(-c5c(F)cccc5F)c5nc(c(-c6c(F)cccc6F)c6ccc3[nH]6)C=C5)C=C4)cc1)[C@@H](C(F)(F)F)O2
REMARK SMILES IDX 16 1 15 2 14 3 12 4 13 5 11 6 1 7 2 8 3 9 8 10 4 11 6 12
REMARK SMILES IDX 9 13 5 14 79 15 7 16 10 17 74 18 75 19 76 20 77 21 78 22
REMARK SMILES IDX 17 23 18 24 19 25 20 26 21 27 73 28 22 29 72 30 23 31 24 32
REMARK SMILES IDX 25 33 66 34 26 35 71 36 65 37 67 38 27 39 70 40 64 41 63 42
REMARK SMILES IDX 28 44 54 45 37 46 53 47 38 48 41 49 52 50 68 51 39 52 40 53
REMARK SMILES IDX 51 55 69 56 42 57 29 58 30 59 35 60 31 61 32 62 34 63 36 64
REMARK SMILES IDX 33 65 55 66 56 67 61 68 57 69 58 70 60 71 62 72 59 73 43 74
REMARK SMILES IDX 44 75 49 76 45 77 46 78 48 79 50 80 47 81
REMARK H PARENT 67 43 41 54
REMARK Flexibility Score: inf
ROOT
ATOM      1  C   UNL A   1      35.971  20.759  25.012  1.00  0.00     0.275 C 
ENDROOT
BRANCH   1   2
ATOM      2  C   UNL A   1      34.742  21.580  24.624  1.00  0.00     0.275 C 
BRANCH   2   3
ATOM      3  O   UNL A   1      34.949  22.987  24.871  1.00  0.00    -0.459 OA
BRANCH   3   4
ATOM      4  C   UNL A   1      34.093  23.556  25.750  1.00  0.00     0.338 C 
ATOM      5  O   UNL A   1      33.891  23.205  26.902  1.00  0.00    -0.246 OA
BRANCH   4   6
ATOM      6  C   UNL A   1      33.408  24.710  25.137  1.00  0.00     0.087 C 
ATOM      7  C   UNL A   1      30.040  30.095  23.858  1.00  0.00     0.046 C 
ATOM      8  C   UNL A   1      31.038  29.084  24.356  1.00  0.00    -0.028 A 
ATOM      9  C   UNL A   1      31.085  27.842  23.704  1.00  0.00     0.052 A 
ATOM     10  C   UNL A   1      31.865  29.297  25.476  1.00  0.00     0.047 A 
ATOM     11  C   UNL A   1      31.919  26.823  24.156  1.00  0.00     0.128 A 
ATOM     12  C   UNL A   1      32.739  28.285  25.934  1.00  0.00    -0.021 A 
ATOM     13  Cl  UNL A   1      31.778  30.821  26.308  1.00  0.00    -0.084 Cl
ATOM     14  C   UNL A   1      32.736  27.028  25.272  1.00  0.00     0.022 A 
ATOM     15  O   UNL A   1      31.876  25.663  23.432  1.00  0.00    -0.475 OA
ATOM     16  C   UNL A   1      33.666  28.512  27.107  1.00  0.00     0.047 C 
ATOM     17  C   UNL A   1      33.530  25.897  25.740  1.00  0.00     0.027 C 
ATOM     18  C   UNL A   1      32.498  24.469  23.972  1.00  0.00     0.316 C 
BRANCH  18  19
ATOM     19  C   UNL A   1      31.404  23.445  24.313  1.00  0.00     0.430 C 
ATOM     20  F   UNL A   1      31.044  23.520  25.616  1.00  0.00    -0.167 F 
ATOM     21  F   UNL A   1      30.278  23.660  23.590  1.00  0.00    -0.167 F 
ATOM     22  F   UNL A   1      31.800  22.174  24.073  1.00  0.00    -0.167 F 
ENDBRANCH  18  19
ENDBRANCH   4   6
ENDBRANCH   3   4
ENDBRANCH   2   3
ENDBRANCH   1   2
BRANCH   1  23
ATOM     23  O   UNL A   1      37.173  21.508  24.747  1.00  0.00    -0.458 OA
BRANCH  23  24
ATOM     24  C   UNL A   1      38.277  21.086  25.403  1.00  0.00     0.338 C 
ATOM     25  O   UNL A   1      38.779  19.974  25.376  1.00  0.00    -0.246 OA
BRANCH  24  26
ATOM     26  C   UNL A   1      38.882  22.203  26.144  1.00  0.00     0.060 A 
ATOM     27  C   UNL A   1      38.343  23.474  25.995  1.00  0.00     0.016 A 
ATOM     28  C   UNL A   1      40.088  22.035  26.821  1.00  0.00     0.016 A 
ATOM     29  C   UNL A   1      39.079  24.591  26.378  1.00  0.00     0.010 A 
ATOM     30  C   UNL A   1      40.757  23.156  27.333  1.00  0.00     0.010 A 
ATOM     31  C   UNL A   1      40.293  24.457  27.068  1.00  0.00    -0.014 A 
BRANCH  31  32
ATOM     32  C   UNL A   1      41.084  25.666  27.457  1.00  0.00     0.031 A 
ATOM     33  C   UNL A   1      40.480  26.721  28.356  1.00  0.00     0.074 A 
ATOM     34  C   UNL A   1      42.363  25.817  27.051  1.00  0.00     0.049 A 
ATOM     35  N   UNL A   1      40.919  27.924  28.632  1.00  0.00    -0.248 NA
ATOM     36  C   UNL A   1      39.212  26.385  29.023  1.00  0.00     0.031 C 
ATOM     37  C   UNL A   1      43.118  24.861  26.239  1.00  0.00     0.029 A 
ATOM     38  N   UNL A   1      43.269  26.825  27.288  1.00  0.00    -0.354 N 
ATOM     39  C   UNL A   1      39.951  28.509  29.443  1.00  0.00     0.074 A 
ATOM     40  C   UNL A   1      38.902  27.530  29.617  1.00  0.00     0.031 C 
ATOM     41  C   UNL A   1      44.383  25.283  26.116  1.00  0.00     0.029 A 
ATOM     42  C   UNL A   1      44.501  26.604  26.719  1.00  0.00     0.049 A 
ATOM     43  H   UNL A   1      43.055  27.629  27.815  1.00  0.00     0.167 HD
ATOM     44  C   UNL A   1      39.942  29.749  29.990  1.00  0.00     0.037 A 
ATOM     45  C   UNL A   1      45.592  27.388  26.636  1.00  0.00     0.037 A 
ATOM     46  C   UNL A   1      41.023  30.695  29.876  1.00  0.00     0.049 A 
ATOM     47  C   UNL A   1      45.541  28.776  27.204  1.00  0.00     0.074 A 
ATOM     48  C   UNL A   1      41.101  31.981  30.385  1.00  0.00     0.029 A 
ATOM     49  N   UNL A   1      42.227  30.447  29.235  1.00  0.00    -0.354 N 
ATOM     50  N   UNL A   1      44.573  29.360  27.865  1.00  0.00    -0.248 NA
ATOM     51  C   UNL A   1      46.719  29.626  26.984  1.00  0.00     0.031 C 
ATOM     52  C   UNL A   1      42.337  32.522  30.023  1.00  0.00     0.029 A 
ATOM     53  C   UNL A   1      43.049  31.559  29.329  1.00  0.00     0.049 A 
ATOM     54  H   UNL A   1      42.462  29.606  28.780  1.00  0.00     0.167 HD
ATOM     55  C   UNL A   1      45.025  30.642  28.147  1.00  0.00     0.074 A 
ATOM     56  C   UNL A   1      46.364  30.743  27.604  1.00  0.00     0.031 C 
ATOM     57  C   UNL A   1      44.382  31.646  28.791  1.00  0.00     0.037 A 
BRANCH  44  58
ATOM     58  C   UNL A   1      38.715  30.178  30.744  1.00  0.00     0.057 A 
ATOM     59  C   UNL A   1      37.648  30.839  30.122  1.00  0.00     0.134 A 
ATOM     60  C   UNL A   1      38.571  29.859  32.101  1.00  0.00     0.134 A 
ATOM     61  F   UNL A   1      37.725  31.186  28.829  1.00  0.00    -0.206 F 
ATOM     62  C   UNL A   1      36.489  31.177  30.826  1.00  0.00     0.040 A 
ATOM     63  C   UNL A   1      37.408  30.167  32.808  1.00  0.00     0.040 A 
ATOM     64  F   UNL A   1      39.551  29.218  32.756  1.00  0.00    -0.206 F 
ATOM     65  C   UNL A   1      36.363  30.831  32.170  1.00  0.00     0.006 A 
ENDBRANCH  44  58
BRANCH  45  66
ATOM     66  C   UNL A   1      46.807  26.890  25.940  1.00  0.00     0.057 A 
ATOM     67  C   UNL A   1      47.025  27.162  24.586  1.00  0.00     0.134 A 
ATOM     68  C   UNL A   1      47.795  26.161  26.617  1.00  0.00     0.134 A 
ATOM     69  F   UNL A   1      46.106  27.831  23.875  1.00  0.00    -0.206 F 
ATOM     70  C   UNL A   1      48.183  26.736  23.931  1.00  0.00     0.040 A 
ATOM     71  C   UNL A   1      48.971  25.757  25.985  1.00  0.00     0.040 A 
ATOM     72  F   UNL A   1      47.646  25.865  27.916  1.00  0.00    -0.206 F 
ATOM     73  C   UNL A   1      49.166  26.043  24.636  1.00  0.00     0.006 A 
ENDBRANCH  45  66
BRANCH  57  74
ATOM     74  C   UNL A   1      45.127  32.934  28.973  1.00  0.00     0.057 A 
ATOM     75  C   UNL A   1      45.012  33.987  28.058  1.00  0.00     0.134 A 
ATOM     76  C   UNL A   1      45.925  33.141  30.105  1.00  0.00     0.134 A 
ATOM     77  F   UNL A   1      44.271  33.846  26.948  1.00  0.00    -0.206 F 
ATOM     78  C   UNL A   1      45.678  35.197  28.255  1.00  0.00     0.040 A 
ATOM     79  C   UNL A   1      46.577  34.355  30.325  1.00  0.00     0.040 A 
ATOM     80  F   UNL A   1      46.070  32.174  31.024  1.00  0.00    -0.206 F 
ATOM     81  C   UNL A   1      46.457  35.386  29.396  1.00  0.00     0.006 A 
ENDBRANCH  57  74
ENDBRANCH  31  32
ENDBRANCH  24  26
ENDBRANCH  23  24
ENDBRANCH   1  23
TORSDOF 12
ENDMDL
MODEL 2
REMARK VINA RESULT:     -12.1      3.951      8.791
REMARK SMILES Cc1cc2c(c(C)c1Cl)C=C(C(=O)OCCOC(=O)c1ccc(-c3c4nc(c(-c5c(F)cccc5F)c5ccc([nH]5)c(-c5c(F)cccc5F)c5nc(c(-c6c(F)cccc6F)c6ccc3[nH]6)C=C5)C=C4)cc1)[C@@H](C(F)(F)F)O2
REMARK SMILES IDX 16 1 15 2 14 3 12 4 13 5 11 6 1 7 2 8 3 9 8 10 4 11 6 12
REMARK SMILES IDX 9 13 5 14 79 15 7 16 10 17 74 18 75 19 76 20 77 21 78 22
REMARK SMILES IDX 17 23 18 24 19 25 20 26 21 27 73 28 22 29 72 30 23 31 24 32
REMARK SMILES IDX 25 33 66 34 26 35 71 36 65 37 67 38 27 39 70 40 64 41 63 42
REMARK SMILES IDX 28 44 54 45 37 46 53 47 38 48 41 49 52 50 68 51 39 52 40 53
REMARK SMILES IDX 51 55 69 56 42 57 29 58 30 59 35 60 31 61 32 62 34 63 36 64
REMARK SMILES IDX 33 65 55 66 56 67 61 68 57 69 58 70 60 71 62 72 59 73 43 74
REMARK SMILES IDX 44 75 49 76 45 77 46 78 48 79 50 80 47 81
REMARK H PARENT 67 43 41 54
REMARK Flexibility Score: inf
ROOT
ATOM      1  C   UNL A   1      31.777  30.253  25.511  1.00  0.00     0.275 C 
ENDROOT
BRANCH   1   2
ATOM      2  C   UNL A   1      31.507  28.802  25.116  1.00  0.00     0.275 C 
BRANCH   2   3
ATOM      3  O   UNL A   1      32.561  27.928  25.574  1.00  0.00    -0.459 OA
BRANCH   3   4
ATOM      4  C   UNL A   1      33.260  27.299  24.601  1.00  0.00     0.338 C 
ATOM      5  O   UNL A   1      33.877  27.828  23.689  1.00  0.00    -0.246 OA
BRANCH   4   6
ATOM      6  C   UNL A   1      33.204  25.837  24.783  1.00  0.00     0.087 C 
ATOM      7  C   UNL A   1      34.142  19.427  24.669  1.00  0.00     0.046 C 
ATOM      8  C   UNL A   1      34.275  20.916  24.843  1.00  0.00    -0.028 A 
ATOM      9  C   UNL A   1      33.101  21.683  24.792  1.00  0.00     0.052 A 
ATOM     10  C   UNL A   1      35.513  21.573  24.978  1.00  0.00     0.047 A 
ATOM     11  C   UNL A   1      33.146  23.073  24.857  1.00  0.00     0.128 A 
ATOM     12  C   UNL A   1      35.578  22.982  25.075  1.00  0.00    -0.021 A 
ATOM     13  Cl  UNL A   1      36.971  20.626  25.001  1.00  0.00    -0.084 Cl
ATOM     14  C   UNL A   1      34.373  23.730  24.985  1.00  0.00     0.022 A 
ATOM     15  O   UNL A   1      31.933  23.704  24.802  1.00  0.00    -0.475 OA
ATOM     16  C   UNL A   1      36.894  23.702  25.266  1.00  0.00     0.047 C 
ATOM     17  C   UNL A   1      34.359  25.189  24.973  1.00  0.00     0.027 C 
ATOM     18  C   UNL A   1      31.892  25.140  24.596  1.00  0.00     0.316 C 
BRANCH  18  19
ATOM     19  C   UNL A   1      31.291  25.429  23.211  1.00  0.00     0.430 C 
ATOM     20  F   UNL A   1      32.257  25.667  22.292  1.00  0.00    -0.167 F 
ATOM     21  F   UNL A   1      30.571  24.377  22.751  1.00  0.00    -0.167 F 
ATOM     22  F   UNL A   1      30.470  26.505  23.225  1.00  0.00    -0.167 F 
ENDBRANCH  18  19
ENDBRANCH   4   6
ENDBRANCH   3   4
ENDBRANCH   2   3
ENDBRANCH   1   2
BRANCH   1  23
ATOM     23  O   UNL A   1      32.249  30.320  26.869  1.00  0.00    -0.458 OA
BRANCH  23  24
ATOM     24  C   UNL A   1      32.887  31.462  27.207  1.00  0.00     0.338 C 
ATOM     25  O   UNL A   1      32.426  32.591  27.238  1.00  0.00    -0.246 OA
BRANCH  24  26
ATOM     26  C   UNL A   1      34.266  31.166  27.626  1.00  0.00     0.060 A 
ATOM     27  C   UNL A   1      34.634  29.842  27.828  1.00  0.00     0.016 A 
ATOM     28  C   UNL A   1      35.129  32.192  28.006  1.00  0.00     0.016 A 
ATOM     29  C   UNL A   1      35.784  29.542  28.551  1.00  0.00     0.010 A 
ATOM     30  C   UNL A   1      36.356  31.878  28.607  1.00  0.00     0.010 A 
ATOM     31  C   UNL A   1      36.677  30.550  28.944  1.00  0.00    -0.014 A 
BRANCH  31  32
ATOM     32  C   UNL A   1      37.900  30.215  29.738  1.00  0.00     0.031 A 
ATOM     33  C   UNL A   1      39.016  29.403  29.122  1.00  0.00     0.074 A 
ATOM     34  C   UNL A   1      38.051  30.668  31.001  1.00  0.00     0.049 A 
ATOM     35  N   UNL A   1      40.046  28.837  29.701  1.00  0.00    -0.248 NA
ATOM     36  C   UNL A   1      38.961  29.187  27.667  1.00  0.00     0.031 C 
ATOM     37  C   UNL A   1      37.102  31.521  31.719  1.00  0.00     0.029 A 
ATOM     38  N   UNL A   1      39.076  30.495  31.902  1.00  0.00    -0.354 N 
ATOM     39  C   UNL A   1      40.718  28.146  28.698  1.00  0.00     0.074 A 
ATOM     40  C   UNL A   1      39.982  28.362  27.472  1.00  0.00     0.031 C 
ATOM     41  C   UNL A   1      37.621  31.862  32.907  1.00  0.00     0.029 A 
ATOM     42  C   UNL A   1      38.875  31.145  33.097  1.00  0.00     0.049 A 
ATOM     43  H   UNL A   1      39.878  29.957  31.709  1.00  0.00     0.167 HD
ATOM     44  C   UNL A   1      41.846  27.400  28.794  1.00  0.00     0.037 A 
ATOM     45  C   UNL A   1      39.581  31.131  34.243  1.00  0.00     0.037 A 
ATOM     46  C   UNL A   1      42.618  27.247  30.001  1.00  0.00     0.049 A 
ATOM     47  C   UNL A   1      40.797  30.257  34.343  1.00  0.00     0.074 A 
ATOM     48  C   UNL A   1      43.768  26.501  30.199  1.00  0.00     0.029 A 
ATOM     49  N   UNL A   1      42.338  27.875  31.204  1.00  0.00    -0.354 N 
ATOM     50  N   UNL A   1      41.354  29.513  33.420  1.00  0.00    -0.248 NA
ATOM     51  C   UNL A   1      41.462  30.193  35.652  1.00  0.00     0.031 C 
ATOM     52  C   UNL A   1      44.164  26.651  31.531  1.00  0.00     0.029 A 
ATOM     53  C   UNL A   1      43.289  27.528  32.150  1.00  0.00     0.049 A 
ATOM     54  H   UNL A   1      41.577  28.479  31.363  1.00  0.00     0.167 HD
ATOM     55  C   UNL A   1      42.438  28.898  34.031  1.00  0.00     0.074 A 
ATOM     56  C   UNL A   1      42.473  29.373  35.399  1.00  0.00     0.031 C 
ATOM     57  C   UNL A   1      43.318  28.012  33.506  1.00  0.00     0.037 A 
BRANCH  44  58
ATOM     58  C   UNL A   1      42.309  26.661  27.570  1.00  0.00     0.057 A 
ATOM     59  C   UNL A   1      43.185  27.231  26.638  1.00  0.00     0.134 A 
ATOM     60  C   UNL A   1      41.926  25.328  27.361  1.00  0.00     0.134 A 
ATOM     61  F   UNL A   1      43.581  28.505  26.770  1.00  0.00    -0.206 F 
ATOM     62  C   UNL A   1      43.652  26.507  25.538  1.00  0.00     0.040 A 
ATOM     63  C   UNL A   1      42.407  24.587  26.282  1.00  0.00     0.040 A 
ATOM     64  F   UNL A   1      41.096  24.717  28.221  1.00  0.00    -0.206 F 
ATOM     65  C   UNL A   1      43.272  25.178  25.364  1.00  0.00     0.006 A 
ENDBRANCH  44  58
BRANCH  45  66
ATOM     66  C   UNL A   1      39.119  31.935  35.404  1.00  0.00     0.057 A 
ATOM     67  C   UNL A   1      39.482  33.279  35.541  1.00  0.00     0.134 A 
ATOM     68  C   UNL A   1      38.277  31.393  36.385  1.00  0.00     0.134 A 
ATOM     69  F   UNL A   1      40.308  33.849  34.652  1.00  0.00    -0.206 F 
ATOM     70  C   UNL A   1      39.020  34.057  36.605  1.00  0.00     0.040 A 
ATOM     71  C   UNL A   1      37.780  32.166  37.434  1.00  0.00     0.040 A 
ATOM     72  F   UNL A   1      37.892  30.110  36.313  1.00  0.00    -0.206 F 
ATOM     73  C   UNL A   1      38.154  33.503  37.548  1.00  0.00     0.006 A 
ENDBRANCH  45  66
BRANCH  57  74
ATOM     74  C   UNL A   1      44.415  27.519  34.401  1.00  0.00     0.057 A 
ATOM     75  C   UNL A   1      44.286  26.339  35.144  1.00  0.00     0.134 A 
ATOM     76  C   UNL A   1      45.633  28.206  34.478  1.00  0.00     0.134 A 
ATOM     77  F   UNL A   1      43.139  25.644  35.121  1.00  0.00    -0.206 F 
ATOM     78  C   UNL A   1      45.326  25.867  35.945  1.00  0.00     0.040 A 
ATOM     79  C   UNL A   1      46.689  27.730  35.258  1.00  0.00     0.040 A 
ATOM     80  F   UNL A   1      45.824  29.338  33.785  1.00  0.00    -0.206 F 
ATOM     81  C   UNL A   1      46.535  26.559  35.996  1.00  0.00     0.006 A 
ENDBRANCH  57  74
ENDBRANCH  31  32
ENDBRANCH  24  26
ENDBRANCH  23  24
ENDBRANCH   1  23
TORSDOF 12
ENDMDL
MODEL 3
REMARK VINA RESULT:     -12.0      4.038      8.794
REMARK SMILES Cc1cc2c(c(C)c1Cl)C=C(C(=O)OCCOC(=O)c1ccc(-c3c4nc(c(-c5c(F)cccc5F)c5ccc([nH]5)c(-c5c(F)cccc5F)c5nc(c(-c6c(F)cccc6F)c6ccc3[nH]6)C=C5)C=C4)cc1)[C@@H](C(F)(F)F)O2
REMARK SMILES IDX 16 1 15 2 14 3 12 4 13 5 11 6 1 7 2 8 3 9 8 10 4 11 6 12
REMARK SMILES IDX 9 13 5 14 79 15 7 16 10 17 74 18 75 19 76 20 77 21 78 22
REMARK SMILES IDX 17 23 18 24 19 25 20 26 21 27 73 28 22 29 72 30 23 31 24 32
REMARK SMILES IDX 25 33 66 34 26 35 71 36 65 37 67 38 27 39 70 40 64 41 63 42
REMARK SMILES IDX 28 44 54 45 37 46 53 47 38 48 41 49 52 50 68 51 39 52 40 53
REMARK SMILES IDX 51 55 69 56 42 57 29 58 30 59 35 60 31 61 32 62 34 63 36 64
REMARK SMILES IDX 33 65 55 66 56 67 61 68 57 69 58 70 60 71 62 72 59 73 43 74
REMARK SMILES IDX 44 75 49 76 45 77 46 78 48 79 50 80 47 81
REMARK H PARENT 67 43 41 54
REMARK Flexibility Score: inf
ROOT
ATOM      1  C   UNL A   1      31.590  29.655  25.930  1.00  0.00     0.275 C 
ENDROOT
BRANCH   1   2
ATOM      2  C   UNL A   1      30.936  29.540  24.555  1.00  0.00     0.275 C 
BRANCH   2   3
ATOM      3  O   UNL A   1      30.532  28.182  24.277  1.00  0.00    -0.459 OA
BRANCH   3   4
ATOM      4  C   UNL A   1      30.725  27.766  23.004  1.00  0.00     0.338 C 
ATOM      5  O   UNL A   1      30.196  28.218  22.001  1.00  0.00    -0.246 OA
BRANCH   4   6
ATOM      6  C   UNL A   1      31.703  26.662  22.961  1.00  0.00     0.087 C 
ATOM      7  C   UNL A   1      35.820  21.828  24.251  1.00  0.00     0.046 C 
ATOM      8  C   UNL A   1      34.611  22.715  24.112  1.00  0.00    -0.028 A 
ATOM      9  C   UNL A   1      34.697  23.792  23.217  1.00  0.00     0.052 A 
ATOM     10  C   UNL A   1      33.443  22.561  24.882  1.00  0.00     0.047 A 
ATOM     11  C   UNL A   1      33.657  24.710  23.093  1.00  0.00     0.128 A 
ATOM     12  C   UNL A   1      32.364  23.465  24.751  1.00  0.00    -0.021 A 
ATOM     13  Cl  UNL A   1      33.353  21.250  26.021  1.00  0.00    -0.084 Cl
ATOM     14  C   UNL A   1      32.498  24.563  23.861  1.00  0.00     0.022 A 
ATOM     15  O   UNL A   1      33.860  25.710  22.183  1.00  0.00    -0.475 OA
ATOM     16  C   UNL A   1      31.084  23.288  25.536  1.00  0.00     0.047 C 
ATOM     17  C   UNL A   1      31.477  25.599  23.739  1.00  0.00     0.027 C 
ATOM     18  C   UNL A   1      32.963  26.851  22.173  1.00  0.00     0.316 C 
BRANCH  18  19
ATOM     19  C   UNL A   1      33.735  28.098  22.633  1.00  0.00     0.430 C 
ATOM     20  F   UNL A   1      34.928  28.203  22.002  1.00  0.00    -0.167 F 
ATOM     21  F   UNL A   1      33.052  29.236  22.357  1.00  0.00    -0.167 F 
ATOM     22  F   UNL A   1      33.978  28.087  23.963  1.00  0.00    -0.167 F 
ENDBRANCH  18  19
ENDBRANCH   4   6
ENDBRANCH   3   4
ENDBRANCH   2   3
ENDBRANCH   1   2
BRANCH   1  23
ATOM     23  O   UNL A   1      32.849  30.347  25.827  1.00  0.00    -0.458 OA
BRANCH  23  24
ATOM     24  C   UNL A   1      33.149  31.165  26.860  1.00  0.00     0.338 C 
ATOM     25  O   UNL A   1      32.420  31.979  27.401  1.00  0.00    -0.246 OA
BRANCH  24  26
ATOM     26  C   UNL A   1      34.517  30.899  27.334  1.00  0.00     0.060 A 
ATOM     27  C   UNL A   1      34.898  29.585  27.574  1.00  0.00     0.016 A 
ATOM     28  C   UNL A   1      35.348  31.946  27.726  1.00  0.00     0.016 A 
ATOM     29  C   UNL A   1      36.025  29.318  28.344  1.00  0.00     0.010 A 
ATOM     30  C   UNL A   1      36.558  31.663  28.376  1.00  0.00     0.010 A 
ATOM     31  C   UNL A   1      36.887  30.347  28.749  1.00  0.00    -0.014 A 
BRANCH  31  32
ATOM     32  C   UNL A   1      38.085  30.047  29.593  1.00  0.00     0.031 A 
ATOM     33  C   UNL A   1      39.224  29.220  29.042  1.00  0.00     0.074 A 
ATOM     34  C   UNL A   1      38.194  30.546  30.844  1.00  0.00     0.049 A 
ATOM     35  N   UNL A   1      40.238  28.681  29.673  1.00  0.00    -0.248 NA
ATOM     36  C   UNL A   1      39.217  28.953  27.595  1.00  0.00     0.031 C 
ATOM     37  C   UNL A   1      37.219  31.418  31.501  1.00  0.00     0.029 A 
ATOM     38  N   UNL A   1      39.191  30.410  31.782  1.00  0.00    -0.354 N 
ATOM     39  C   UNL A   1      40.945  27.958  28.718  1.00  0.00     0.074 A 
ATOM     40  C   UNL A   1      40.247  28.127  27.462  1.00  0.00     0.031 C 
ATOM     41  C   UNL A   1      37.698  31.803  32.692  1.00  0.00     0.029 A 
ATOM     42  C   UNL A   1      38.948  31.101  32.947  1.00  0.00     0.049 A 
ATOM     43  H   UNL A   1      40.000  29.870  31.635  1.00  0.00     0.167 HD
ATOM     44  C   UNL A   1      42.072  27.222  28.876  1.00  0.00     0.037 A 
ATOM     45  C   UNL A   1      39.618  31.131  34.115  1.00  0.00     0.037 A 
ATOM     46  C   UNL A   1      42.806  27.116  30.111  1.00  0.00     0.049 A 
ATOM     47  C   UNL A   1      40.834  30.268  34.284  1.00  0.00     0.074 A 
ATOM     48  C   UNL A   1      43.952  26.384  30.373  1.00  0.00     0.029 A 
ATOM     49  N   UNL A   1      42.485  27.785  31.282  1.00  0.00    -0.354 N 
ATOM     50  N   UNL A   1      41.423  29.494  33.406  1.00  0.00    -0.248 NA
ATOM     51  C   UNL A   1      41.456  30.254  35.615  1.00  0.00     0.031 C 
ATOM     52  C   UNL A   1      44.305  26.583  31.710  1.00  0.00     0.029 A 
ATOM     53  C   UNL A   1      43.406  27.476  32.270  1.00  0.00     0.049 A 
ATOM     54  H   UNL A   1      41.716  28.390  31.395  1.00  0.00     0.167 HD
ATOM     55  C   UNL A   1      42.489  28.907  34.073  1.00  0.00     0.074 A 
ATOM     56  C   UNL A   1      42.478  29.431  35.424  1.00  0.00     0.031 C 
ATOM     57  C   UNL A   1      43.390  28.009  33.608  1.00  0.00     0.037 A 
BRANCH  44  58
ATOM     58  C   UNL A   1      42.577  26.443  27.694  1.00  0.00     0.057 A 
ATOM     59  C   UNL A   1      42.152  25.136  27.422  1.00  0.00     0.134 A 
ATOM     60  C   UNL A   1      43.450  27.041  26.775  1.00  0.00     0.134 A 
ATOM     61  F   UNL A   1      41.328  24.501  28.267  1.00  0.00    -0.206 F 
ATOM     62  C   UNL A   1      42.587  24.450  26.285  1.00  0.00     0.040 A 
ATOM     63  C   UNL A   1      43.870  26.376  25.622  1.00  0.00     0.040 A 
ATOM     64  F   UNL A   1      43.890  28.294  26.969  1.00  0.00    -0.206 F 
ATOM     65  C   UNL A   1      43.440  25.074  25.376  1.00  0.00     0.006 A 
ENDBRANCH  44  58
BRANCH  45  66
ATOM     66  C   UNL A   1      39.115  31.973  35.231  1.00  0.00     0.057 A 
ATOM     67  C   UNL A   1      39.397  33.342  35.286  1.00  0.00     0.134 A 
ATOM     68  C   UNL A   1      38.313  31.440  36.250  1.00  0.00     0.134 A 
ATOM     69  F   UNL A   1      40.181  33.908  34.356  1.00  0.00    -0.206 F 
ATOM     70  C   UNL A   1      38.895  34.153  36.306  1.00  0.00     0.040 A 
ATOM     71  C   UNL A   1      37.778  32.243  37.258  1.00  0.00     0.040 A 
ATOM     72  F   UNL A   1      38.007  30.135  36.258  1.00  0.00    -0.206 F 
ATOM     73  C   UNL A   1      38.071  33.604  37.289  1.00  0.00     0.006 A 
ENDBRANCH  45  66
BRANCH  57  74
ATOM     74  C   UNL A   1      44.459  27.554  34.555  1.00  0.00     0.057 A 
ATOM     75  C   UNL A   1      44.311  26.400  35.335  1.00  0.00     0.134 A 
ATOM     76  C   UNL A   1      45.672  28.249  34.646  1.00  0.00     0.134 A 
ATOM     77  F   UNL A   1      43.169  25.698  35.300  1.00  0.00    -0.206 F 
ATOM     78  C   UNL A   1      45.327  25.962  36.185  1.00  0.00     0.040 A 
ATOM     79  C   UNL A   1      46.704  27.807  35.475  1.00  0.00     0.040 A 
ATOM     80  F   UNL A   1      45.880  29.356  33.918  1.00  0.00    -0.206 F 
ATOM     81  C   UNL A   1      46.531  26.662  36.249  1.00  0.00     0.006 A 
ENDBRANCH  57  74
ENDBRANCH  31  32
ENDBRANCH  24  26
ENDBRANCH  23  24
ENDBRANCH   1  23
TORSDOF 12
ENDMDL
