MODEL 1
REMARK VINA RESULT:     -11.9      0.000      0.000
REMARK SMILES CCOc1ccccc1-c1cc(C(=O)OCCOC(=O)c2ccc(-c3c4nc(c(-c5c(F)cccc5F)c5ccc([nH]5)c(-c5c(F)cccc5F)c5nc(c(-c6c(F)cccc6F)c6ccc3[nH]6)C=C5)C=C4)cc2)c2cc(C)cc(C)c2n1
REMARK SMILES IDX 16 1 15 2 13 3 14 4 12 5 10 6 11 7 83 8 82 9 75 10 80 11
REMARK SMILES IDX 76 12 79 13 81 14 77 15 78 16 9 17 4 18 5 19 6 20 8 21 7 22
REMARK SMILES IDX 3 23 2 24 1 25 17 26 18 27 19 28 20 29 21 30 22 31 74 32
REMARK SMILES IDX 23 33 73 34 24 35 25 36 26 37 67 38 27 39 72 40 66 41 68 42
REMARK SMILES IDX 28 43 71 44 65 45 64 46 29 48 55 49 38 50 54 51 39 52 42 53
REMARK SMILES IDX 53 54 69 55 40 56 41 57 52 59 70 60 43 61 30 62 31 63 36 64
REMARK SMILES IDX 32 65 33 66 35 67 37 68 34 69 56 70 57 71 62 72 58 73 59 74
REMARK SMILES IDX 61 75 63 76 60 77 44 78 45 79 50 80 46 81 47 82 49 83 51 84
REMARK SMILES IDX 48 85
REMARK H PARENT 68 47 42 58
REMARK Flexibility Score: inf
ROOT
ATOM      1  C   UNL A   1      35.605  20.895  24.990  1.00  0.00     0.275 C 
ENDROOT
BRANCH   1   2
ATOM      2  O   UNL A   1      35.749  22.289  25.350  1.00  0.00    -0.458 OA
BRANCH   2   3
ATOM      3  C   UNL A   1      35.552  23.173  24.342  1.00  0.00     0.339 C 
ATOM      4  O   UNL A   1      36.114  23.172  23.257  1.00  0.00    -0.246 OA
BRANCH   3   5
ATOM      5  C   UNL A   1      34.578  24.213  24.706  1.00  0.00     0.071 A 
ATOM      6  C   UNL A   1      33.176  25.323  26.170  1.00  0.00     0.076 A 
ATOM      7  C   UNL A   1      33.937  24.212  25.933  1.00  0.00     0.045 A 
ATOM      8  N   UNL A   1      33.706  26.489  25.717  1.00  0.00    -0.247 NA
ATOM      9  C   UNL A   1      33.977  26.490  24.409  1.00  0.00     0.075 A 
ATOM     10  C   UNL A   1      34.272  25.265  23.825  1.00  0.00     0.015 A 
ATOM     11  C   UNL A   1      33.693  27.598  23.606  1.00  0.00    -0.024 A 
ATOM     12  C   UNL A   1      33.842  25.056  22.510  1.00  0.00     0.014 A 
ATOM     13  C   UNL A   1      33.321  27.389  22.274  1.00  0.00     0.009 A 
ATOM     14  C   UNL A   1      33.564  28.979  24.175  1.00  0.00     0.047 C 
ATOM     15  C   UNL A   1      33.259  26.092  21.774  1.00  0.00    -0.050 A 
ATOM     16  C   UNL A   1      32.389  25.792  20.594  1.00  0.00     0.044 C 
BRANCH   6  17
ATOM     17  C   UNL A   1      31.675  25.363  25.931  1.00  0.00     0.042 A 
ATOM     18  C   UNL A   1      30.977  24.429  25.112  1.00  0.00     0.128 A 
ATOM     19  C   UNL A   1      29.990  24.916  24.226  1.00  0.00     0.047 A 
ATOM     20  C   UNL A   1      29.617  26.259  24.207  1.00  0.00     0.004 A 
ATOM     21  C   UNL A   1      31.129  26.668  26.033  1.00  0.00     0.014 A 
ATOM     22  C   UNL A   1      30.146  27.124  25.151  1.00  0.00     0.001 A 
BRANCH  18  23
ATOM     23  O   UNL A   1      31.396  23.185  24.736  1.00  0.00    -0.493 OA
BRANCH  23  24
ATOM     24  C   UNL A   1      31.409  22.655  23.414  1.00  0.00     0.226 C 
ATOM     25  C   UNL A   1      32.438  21.634  22.981  1.00  0.00     0.049 C 
ENDBRANCH  23  24
ENDBRANCH  18  23
ENDBRANCH   6  17
ENDBRANCH   3   5
ENDBRANCH   2   3
ENDBRANCH   1   2
BRANCH   1  26
ATOM     26  C   UNL A   1      36.956  20.175  25.010  1.00  0.00     0.275 C 
BRANCH  26  27
ATOM     27  O   UNL A   1      38.016  21.146  25.061  1.00  0.00    -0.458 OA
BRANCH  27  28
ATOM     28  C   UNL A   1      39.092  20.842  25.831  1.00  0.00     0.338 C 
ATOM     29  O   UNL A   1      39.684  19.781  25.871  1.00  0.00    -0.246 OA
BRANCH  28  30
ATOM     30  C   UNL A   1      39.541  22.051  26.571  1.00  0.00     0.060 A 
ATOM     31  C   UNL A   1      39.045  23.291  26.205  1.00  0.00     0.016 A 
ATOM     32  C   UNL A   1      40.594  21.995  27.485  1.00  0.00     0.016 A 
ATOM     33  C   UNL A   1      39.725  24.446  26.581  1.00  0.00     0.010 A 
ATOM     34  C   UNL A   1      41.156  23.184  28.000  1.00  0.00     0.010 A 
ATOM     35  C   UNL A   1      40.779  24.443  27.506  1.00  0.00    -0.014 A 
BRANCH  35  36
ATOM     36  C   UNL A   1      41.479  25.731  27.871  1.00  0.00     0.031 A 
ATOM     37  C   UNL A   1      40.792  26.818  28.689  1.00  0.00     0.074 A 
ATOM     38  C   UNL A   1      42.780  25.928  27.546  1.00  0.00     0.049 A 
ATOM     39  N   UNL A   1      41.190  28.046  28.936  1.00  0.00    -0.248 NA
ATOM     40  C   UNL A   1      39.509  26.489  29.334  1.00  0.00     0.031 C 
ATOM     41  C   UNL A   1      43.645  24.977  26.838  1.00  0.00     0.029 A 
ATOM     42  N   UNL A   1      43.620  26.999  27.774  1.00  0.00    -0.354 N 
ATOM     43  C   UNL A   1      40.202  28.631  29.723  1.00  0.00     0.074 A 
ATOM     44  C   UNL A   1      39.188  27.625  29.939  1.00  0.00     0.031 C 
ATOM     45  C   UNL A   1      44.888  25.459  26.768  1.00  0.00     0.029 A 
ATOM     46  C   UNL A   1      44.869  26.839  27.218  1.00  0.00     0.049 A 
ATOM     47  H   UNL A   1      43.352  27.798  28.285  1.00  0.00     0.167 HD
ATOM     48  C   UNL A   1      40.131  29.896  30.208  1.00  0.00     0.037 A 
ATOM     49  C   UNL A   1      45.859  27.714  26.956  1.00  0.00     0.037 A 
ATOM     50  C   UNL A   1      41.136  30.908  30.001  1.00  0.00     0.049 A 
ATOM     51  C   UNL A   1      45.677  29.152  27.322  1.00  0.00     0.074 A 
ATOM     52  C   UNL A   1      41.133  32.226  30.430  1.00  0.00     0.029 A 
ATOM     53  N   UNL A   1      42.314  30.720  29.300  1.00  0.00    -0.354 N 
ATOM     54  N   UNL A   1      44.693  29.715  27.975  1.00  0.00    -0.248 NA
ATOM     55  C   UNL A   1      46.722  30.082  26.876  1.00  0.00     0.031 C 
ATOM     56  C   UNL A   1      42.278  32.854  29.926  1.00  0.00     0.029 A 
ATOM     57  C   UNL A   1      43.022  31.910  29.239  1.00  0.00     0.049 A 
ATOM     58  H   UNL A   1      42.607  29.869  28.903  1.00  0.00     0.167 HD
ATOM     59  C   UNL A   1      44.999  31.067  28.019  1.00  0.00     0.074 A 
ATOM     60  C   UNL A   1      46.272  31.234  27.351  1.00  0.00     0.031 C 
ATOM     61  C   UNL A   1      44.279  32.079  28.561  1.00  0.00     0.037 A 
BRANCH  48  62
ATOM     62  C   UNL A   1      38.893  30.305  30.956  1.00  0.00     0.057 A 
ATOM     63  C   UNL A   1      37.768  30.837  30.316  1.00  0.00     0.134 A 
ATOM     64  C   UNL A   1      38.795  30.057  32.333  1.00  0.00     0.134 A 
ATOM     65  F   UNL A   1      37.795  31.107  29.003  1.00  0.00    -0.206 F 
ATOM     66  C   UNL A   1      36.589  31.106  31.019  1.00  0.00     0.040 A 
ATOM     67  C   UNL A   1      37.618  30.303  33.042  1.00  0.00     0.040 A 
ATOM     68  F   UNL A   1      39.835  29.541  33.005  1.00  0.00    -0.206 F 
ATOM     69  C   UNL A   1      36.508  30.828  32.384  1.00  0.00     0.006 A 
ENDBRANCH  48  62
BRANCH  49  70
ATOM     70  C   UNL A   1      47.029  27.272  26.148  1.00  0.00     0.057 A 
ATOM     71  C   UNL A   1      47.048  27.374  24.755  1.00  0.00     0.134 A 
ATOM     72  C   UNL A   1      48.173  26.744  26.770  1.00  0.00     0.134 A 
ATOM     73  F   UNL A   1      45.972  27.833  24.097  1.00  0.00    -0.206 F 
ATOM     74  C   UNL A   1      48.161  26.976  24.011  1.00  0.00     0.040 A 
ATOM     75  C   UNL A   1      49.306  26.385  26.044  1.00  0.00     0.040 A 
ATOM     76  F   UNL A   1      48.218  26.606  28.104  1.00  0.00    -0.206 F 
ATOM     77  C   UNL A   1      49.300  26.496  24.657  1.00  0.00     0.006 A 
ENDBRANCH  49  70
BRANCH  61  78
ATOM     78  C   UNL A   1      44.870  33.451  28.472  1.00  0.00     0.057 A 
ATOM     79  C   UNL A   1      44.545  34.326  27.427  1.00  0.00     0.134 A 
ATOM     80  C   UNL A   1      45.777  33.902  29.439  1.00  0.00     0.134 A 
ATOM     81  F   UNL A   1      43.697  33.945  26.460  1.00  0.00    -0.206 F 
ATOM     82  C   UNL A   1      45.125  35.591  27.332  1.00  0.00     0.040 A 
ATOM     83  C   UNL A   1      46.342  35.175  29.368  1.00  0.00     0.040 A 
ATOM     84  F   UNL A   1      46.126  33.114  30.466  1.00  0.00    -0.206 F 
ATOM     85  C   UNL A   1      46.024  36.019  28.307  1.00  0.00     0.006 A 
ENDBRANCH  61  78
ENDBRANCH  35  36
ENDBRANCH  28  30
ENDBRANCH  27  28
ENDBRANCH  26  27
ENDBRANCH   1  26
TORSDOF 14
ENDMDL
MODEL 2
REMARK VINA RESULT:     -11.8      0.795      1.898
REMARK SMILES CCOc1ccccc1-c1cc(C(=O)OCCOC(=O)c2ccc(-c3c4nc(c(-c5c(F)cccc5F)c5ccc([nH]5)c(-c5c(F)cccc5F)c5nc(c(-c6c(F)cccc6F)c6ccc3[nH]6)C=C5)C=C4)cc2)c2cc(C)cc(C)c2n1
REMARK SMILES IDX 16 1 15 2 13 3 14 4 12 5 10 6 11 7 83 8 82 9 75 10 80 11
REMARK SMILES IDX 76 12 79 13 81 14 77 15 78 16 9 17 4 18 5 19 6 20 8 21 7 22
REMARK SMILES IDX 3 23 2 24 1 25 17 26 18 27 19 28 20 29 21 30 22 31 74 32
REMARK SMILES IDX 23 33 73 34 24 35 25 36 26 37 67 38 27 39 72 40 66 41 68 42
REMARK SMILES IDX 28 43 71 44 65 45 64 46 29 48 55 49 38 50 54 51 39 52 42 53
REMARK SMILES IDX 53 54 69 55 40 56 41 57 52 59 70 60 43 61 30 62 31 63 36 64
REMARK SMILES IDX 32 65 33 66 35 67 37 68 34 69 56 70 57 71 62 72 58 73 59 74
REMARK SMILES IDX 61 75 63 76 60 77 44 78 45 79 50 80 46 81 47 82 49 83 51 84
REMARK SMILES IDX 48 85
REMARK H PARENT 68 47 42 58
REMARK Flexibility Score: inf
ROOT
ATOM      1  C   UNL A   1      35.513  21.522  24.754  1.00  0.00     0.275 C 
ENDROOT
BRANCH   1   2
ATOM      2  O   UNL A   1      34.942  22.083  25.959  1.00  0.00    -0.458 OA
BRANCH   2   3
ATOM      3  C   UNL A   1      35.112  23.418  26.115  1.00  0.00     0.339 C 
ATOM      4  O   UNL A   1      36.176  24.001  26.263  1.00  0.00    -0.246 OA
BRANCH   3   5
ATOM      5  C   UNL A   1      33.830  24.137  26.135  1.00  0.00     0.071 A 
ATOM      6  C   UNL A   1      31.607  24.401  26.710  1.00  0.00     0.076 A 
ATOM      7  C   UNL A   1      32.676  23.553  26.630  1.00  0.00     0.045 A 
ATOM      8  N   UNL A   1      31.909  25.670  27.094  1.00  0.00    -0.247 NA
ATOM      9  C   UNL A   1      32.811  26.273  26.315  1.00  0.00     0.075 A 
ATOM     10  C   UNL A   1      33.727  25.457  25.664  1.00  0.00     0.015 A 
ATOM     11  C   UNL A   1      32.668  27.609  25.933  1.00  0.00    -0.024 A 
ATOM     12  C   UNL A   1      34.141  25.844  24.384  1.00  0.00     0.014 A 
ATOM     13  C   UNL A   1      33.136  28.006  24.676  1.00  0.00     0.009 A 
ATOM     14  C   UNL A   1      31.843  28.578  26.726  1.00  0.00     0.047 C 
ATOM     15  C   UNL A   1      33.747  27.073  23.845  1.00  0.00    -0.050 A 
ATOM     16  C   UNL A   1      33.769  27.297  22.366  1.00  0.00     0.044 C 
BRANCH   6  17
ATOM     17  C   UNL A   1      30.530  24.476  25.641  1.00  0.00     0.042 A 
ATOM     18  C   UNL A   1      30.662  23.911  24.340  1.00  0.00     0.128 A 
ATOM     19  C   UNL A   1      30.229  24.668  23.229  1.00  0.00     0.047 A 
ATOM     20  C   UNL A   1      29.589  25.898  23.380  1.00  0.00     0.004 A 
ATOM     21  C   UNL A   1      29.696  25.617  25.768  1.00  0.00     0.014 A 
ATOM     22  C   UNL A   1      29.271  26.344  24.653  1.00  0.00     0.001 A 
BRANCH  18  23
ATOM     23  O   UNL A   1      31.528  22.929  23.950  1.00  0.00    -0.493 OA
BRANCH  23  24
ATOM     24  C   UNL A   1      32.002  22.688  22.629  1.00  0.00     0.226 C 
ATOM     25  C   UNL A   1      33.401  23.080  22.206  1.00  0.00     0.049 C 
ENDBRANCH  23  24
ENDBRANCH  18  23
ENDBRANCH   6  17
ENDBRANCH   3   5
ENDBRANCH   2   3
ENDBRANCH   1   2
BRANCH   1  26
ATOM     26  C   UNL A   1      36.690  20.597  25.077  1.00  0.00     0.275 C 
BRANCH  26  27
ATOM     27  O   UNL A   1      37.925  21.315  24.906  1.00  0.00    -0.458 OA
BRANCH  27  28
ATOM     28  C   UNL A   1      38.959  20.959  25.710  1.00  0.00     0.338 C 
ATOM     29  O   UNL A   1      39.505  19.874  25.759  1.00  0.00    -0.246 OA
BRANCH  28  30
ATOM     30  C   UNL A   1      39.431  22.142  26.478  1.00  0.00     0.060 A 
ATOM     31  C   UNL A   1      38.943  23.396  26.155  1.00  0.00     0.016 A 
ATOM     32  C   UNL A   1      40.497  22.048  27.374  1.00  0.00     0.016 A 
ATOM     33  C   UNL A   1      39.641  24.533  26.555  1.00  0.00     0.010 A 
ATOM     34  C   UNL A   1      41.079  23.215  27.916  1.00  0.00     0.010 A 
ATOM     35  C   UNL A   1      40.708  24.492  27.464  1.00  0.00    -0.014 A 
BRANCH  35  36
ATOM     36  C   UNL A   1      41.426  25.761  27.857  1.00  0.00     0.031 A 
ATOM     37  C   UNL A   1      40.751  26.845  28.689  1.00  0.00     0.074 A 
ATOM     38  C   UNL A   1      42.733  25.942  27.544  1.00  0.00     0.049 A 
ATOM     39  N   UNL A   1      41.168  28.062  28.959  1.00  0.00    -0.248 NA
ATOM     40  C   UNL A   1      39.458  26.528  29.318  1.00  0.00     0.031 C 
ATOM     41  C   UNL A   1      43.587  24.989  26.827  1.00  0.00     0.029 A 
ATOM     42  N   UNL A   1      43.589  26.995  27.798  1.00  0.00    -0.354 N 
ATOM     43  C   UNL A   1      40.184  28.651  29.749  1.00  0.00     0.074 A 
ATOM     44  C   UNL A   1      39.152  27.658  29.940  1.00  0.00     0.031 C 
ATOM     45  C   UNL A   1      44.839  25.452  26.774  1.00  0.00     0.029 A 
ATOM     46  C   UNL A   1      44.839  26.824  27.248  1.00  0.00     0.049 A 
ATOM     47  H   UNL A   1      43.331  27.789  28.320  1.00  0.00     0.167 HD
ATOM     48  C   UNL A   1      40.130  29.908  30.255  1.00  0.00     0.037 A 
ATOM     49  C   UNL A   1      45.846  27.686  27.008  1.00  0.00     0.037 A 
ATOM     50  C   UNL A   1      41.154  30.906  30.073  1.00  0.00     0.049 A 
ATOM     51  C   UNL A   1      45.685  29.120  27.397  1.00  0.00     0.074 A 
ATOM     52  C   UNL A   1      41.169  32.217  30.525  1.00  0.00     0.029 A 
ATOM     53  N   UNL A   1      42.334  30.711  29.378  1.00  0.00    -0.354 N 
ATOM     54  N   UNL A   1      44.706  29.689  28.053  1.00  0.00    -0.248 NA
ATOM     55  C   UNL A   1      46.749  30.040  26.975  1.00  0.00     0.031 C 
ATOM     56  C   UNL A   1      42.328  32.834  30.040  1.00  0.00     0.029 A 
ATOM     57  C   UNL A   1      43.062  31.890  29.343  1.00  0.00     0.049 A 
ATOM     58  H   UNL A   1      42.615  29.861  28.968  1.00  0.00     0.167 HD
ATOM     59  C   UNL A   1      45.033  31.034  28.122  1.00  0.00     0.074 A 
ATOM     60  C   UNL A   1      46.315  31.191  27.467  1.00  0.00     0.031 C 
ATOM     61  C   UNL A   1      44.327  32.048  28.676  1.00  0.00     0.037 A 
BRANCH  48  62
ATOM     62  C   UNL A   1      38.893  30.325  31.001  1.00  0.00     0.057 A 
ATOM     63  C   UNL A   1      38.759  30.167  32.384  1.00  0.00     0.134 A 
ATOM     64  C   UNL A   1      37.863  30.996  30.325  1.00  0.00     0.134 A 
ATOM     65  F   UNL A   1      39.701  29.527  33.092  1.00  0.00    -0.206 F 
ATOM     66  C   UNL A   1      37.645  30.664  33.069  1.00  0.00     0.040 A 
ATOM     67  C   UNL A   1      36.757  31.514  30.999  1.00  0.00     0.040 A 
ATOM     68  F   UNL A   1      37.935  31.188  28.999  1.00  0.00    -0.206 F 
ATOM     69  C   UNL A   1      36.646  31.350  32.378  1.00  0.00     0.006 A 
ENDBRANCH  48  62
BRANCH  49  70
ATOM     70  C   UNL A   1      47.014  27.238  26.201  1.00  0.00     0.057 A 
ATOM     71  C   UNL A   1      48.152  26.682  26.791  1.00  0.00     0.134 A 
ATOM     72  C   UNL A   1      47.004  27.347  24.801  1.00  0.00     0.134 A 
ATOM     73  F   UNL A   1      48.242  26.584  28.126  1.00  0.00    -0.206 F 
ATOM     74  C   UNL A   1      49.231  26.244  26.020  1.00  0.00     0.040 A 
ATOM     75  C   UNL A   1      48.054  26.875  24.017  1.00  0.00     0.040 A 
ATOM     76  F   UNL A   1      45.947  27.883  24.169  1.00  0.00    -0.206 F 
ATOM     77  C   UNL A   1      49.177  26.325  24.628  1.00  0.00     0.006 A 
ENDBRANCH  49  70
BRANCH  61  78
ATOM     78  C   UNL A   1      44.941  33.412  28.615  1.00  0.00     0.057 A 
ATOM     79  C   UNL A   1      45.854  33.852  29.581  1.00  0.00     0.134 A 
ATOM     80  C   UNL A   1      44.614  34.297  27.580  1.00  0.00     0.134 A 
ATOM     81  F   UNL A   1      46.194  33.057  30.608  1.00  0.00    -0.206 F 
ATOM     82  C   UNL A   1      46.398  35.136  29.537  1.00  0.00     0.040 A 
ATOM     83  C   UNL A   1      45.172  35.573  27.510  1.00  0.00     0.040 A 
ATOM     84  F   UNL A   1      43.749  33.934  26.621  1.00  0.00    -0.206 F 
ATOM     85  C   UNL A   1      46.059  35.999  28.496  1.00  0.00     0.006 A 
ENDBRANCH  61  78
ENDBRANCH  35  36
ENDBRANCH  28  30
ENDBRANCH  27  28
ENDBRANCH  26  27
ENDBRANCH   1  26
TORSDOF 14
ENDMDL
MODEL 3
REMARK VINA RESULT:     -11.6      3.927      8.636
REMARK SMILES CCOc1ccccc1-c1cc(C(=O)OCCOC(=O)c2ccc(-c3c4nc(c(-c5c(F)cccc5F)c5ccc([nH]5)c(-c5c(F)cccc5F)c5nc(c(-c6c(F)cccc6F)c6ccc3[nH]6)C=C5)C=C4)cc2)c2cc(C)cc(C)c2n1
REMARK SMILES IDX 16 1 15 2 13 3 14 4 12 5 10 6 11 7 83 8 82 9 75 10 80 11
REMARK SMILES IDX 76 12 79 13 81 14 77 15 78 16 9 17 4 18 5 19 6 20 8 21 7 22
REMARK SMILES IDX 3 23 2 24 1 25 17 26 18 27 19 28 20 29 21 30 22 31 74 32
REMARK SMILES IDX 23 33 73 34 24 35 25 36 26 37 67 38 27 39 72 40 66 41 68 42
REMARK SMILES IDX 28 43 71 44 65 45 64 46 29 48 55 49 38 50 54 51 39 52 42 53
REMARK SMILES IDX 53 54 69 55 40 56 41 57 52 59 70 60 43 61 30 62 31 63 36 64
REMARK SMILES IDX 32 65 33 66 35 67 37 68 34 69 56 70 57 71 62 72 58 73 59 74
REMARK SMILES IDX 61 75 63 76 60 77 44 78 45 79 50 80 46 81 47 82 49 83 51 84
REMARK SMILES IDX 48 85
REMARK H PARENT 68 47 42 58
REMARK Flexibility Score: inf
ROOT
ATOM      1  C   UNL A   1      31.404  28.487  25.605  1.00  0.00     0.275 C 
ENDROOT
BRANCH   1   2
ATOM      2  O   UNL A   1      32.566  27.651  25.809  1.00  0.00    -0.458 OA
BRANCH   2   3
ATOM      3  C   UNL A   1      33.452  27.627  24.784  1.00  0.00     0.339 C 
ATOM      4  O   UNL A   1      34.119  28.568  24.381  1.00  0.00    -0.246 OA
BRANCH   3   5
ATOM      5  C   UNL A   1      33.513  26.306  24.140  1.00  0.00     0.071 A 
ATOM      6  C   UNL A   1      33.072  24.804  22.440  1.00  0.00     0.076 A 
ATOM      7  C   UNL A   1      32.795  26.023  22.991  1.00  0.00     0.045 A 
ATOM      8  N   UNL A   1      34.379  24.433  22.497  1.00  0.00    -0.247 NA
ATOM      9  C   UNL A   1      34.885  24.413  23.732  1.00  0.00     0.075 A 
ATOM     10  C   UNL A   1      34.319  25.278  24.659  1.00  0.00     0.015 A 
ATOM     11  C   UNL A   1      35.727  23.383  24.159  1.00  0.00    -0.024 A 
ATOM     12  C   UNL A   1      34.234  24.838  25.985  1.00  0.00     0.014 A 
ATOM     13  C   UNL A   1      35.681  22.985  25.499  1.00  0.00     0.009 A 
ATOM     14  C   UNL A   1      36.516  22.550  23.194  1.00  0.00     0.047 C 
ATOM     15  C   UNL A   1      34.818  23.630  26.378  1.00  0.00    -0.050 A 
ATOM     16  C   UNL A   1      34.354  22.927  27.615  1.00  0.00     0.044 C 
BRANCH   6  17
ATOM     17  C   UNL A   1      32.221  23.570  22.693  1.00  0.00     0.042 A 
ATOM     18  C   UNL A   1      31.243  23.478  23.725  1.00  0.00     0.128 A 
ATOM     19  C   UNL A   1      31.179  22.292  24.489  1.00  0.00     0.047 A 
ATOM     20  C   UNL A   1      31.972  21.183  24.195  1.00  0.00     0.004 A 
ATOM     21  C   UNL A   1      32.855  22.364  22.294  1.00  0.00     0.014 A 
ATOM     22  C   UNL A   1      32.768  21.200  23.062  1.00  0.00     0.001 A 
BRANCH  18  23
ATOM     23  O   UNL A   1      30.633  24.510  24.379  1.00  0.00    -0.493 OA
BRANCH  23  24
ATOM     24  C   UNL A   1      30.578  24.711  25.788  1.00  0.00     0.226 C 
ATOM     25  C   UNL A   1      29.470  25.518  26.429  1.00  0.00     0.049 C 
ENDBRANCH  23  24
ENDBRANCH  18  23
ENDBRANCH   6  17
ENDBRANCH   3   5
ENDBRANCH   2   3
ENDBRANCH   1   2
BRANCH   1  26
ATOM     26  C   UNL A   1      31.761  29.971  25.722  1.00  0.00     0.275 C 
BRANCH  26  27
ATOM     27  O   UNL A   1      32.312  30.229  27.025  1.00  0.00    -0.458 OA
BRANCH  27  28
ATOM     28  C   UNL A   1      32.949  31.416  27.200  1.00  0.00     0.338 C 
ATOM     29  O   UNL A   1      32.448  32.523  27.173  1.00  0.00    -0.246 OA
BRANCH  28  30
ATOM     30  C   UNL A   1      34.374  31.177  27.549  1.00  0.00     0.060 A 
ATOM     31  C   UNL A   1      34.817  29.878  27.729  1.00  0.00     0.016 A 
ATOM     32  C   UNL A   1      35.223  32.229  27.896  1.00  0.00     0.016 A 
ATOM     33  C   UNL A   1      35.995  29.641  28.434  1.00  0.00     0.010 A 
ATOM     34  C   UNL A   1      36.498  31.965  28.445  1.00  0.00     0.010 A 
ATOM     35  C   UNL A   1      36.887  30.662  28.792  1.00  0.00    -0.014 A 
BRANCH  35  36
ATOM     36  C   UNL A   1      38.147  30.340  29.560  1.00  0.00     0.031 A 
ATOM     37  C   UNL A   1      39.240  29.450  28.979  1.00  0.00     0.074 A 
ATOM     38  C   UNL A   1      38.384  30.903  30.770  1.00  0.00     0.049 A 
ATOM     39  N   UNL A   1      40.294  28.937  29.573  1.00  0.00    -0.248 NA
ATOM     40  C   UNL A   1      39.161  29.103  27.549  1.00  0.00     0.031 C 
ATOM     41  C   UNL A   1      37.505  31.850  31.466  1.00  0.00     0.029 A 
ATOM     42  N   UNL A   1      39.447  30.770  31.641  1.00  0.00    -0.354 N 
ATOM     43  C   UNL A   1      40.970  28.194  28.608  1.00  0.00     0.074 A 
ATOM     44  C   UNL A   1      40.226  28.332  27.378  1.00  0.00     0.031 C 
ATOM     45  C   UNL A   1      38.091  32.270  32.590  1.00  0.00     0.029 A 
ATOM     46  C   UNL A   1      39.277  31.464  32.817  1.00  0.00     0.049 A 
ATOM     47  H   UNL A   1      40.247  30.232  31.439  1.00  0.00     0.167 HD
ATOM     48  C   UNL A   1      42.095  27.448  28.735  1.00  0.00     0.037 A 
ATOM     49  C   UNL A   1      39.899  31.386  34.009  1.00  0.00     0.037 A 
ATOM     50  C   UNL A   1      42.847  27.304  29.956  1.00  0.00     0.049 A 
ATOM     51  C   UNL A   1      41.015  30.408  34.187  1.00  0.00     0.074 A 
ATOM     52  C   UNL A   1      43.983  26.543  30.185  1.00  0.00     0.029 A 
ATOM     53  N   UNL A   1      42.534  27.921  31.154  1.00  0.00    -0.354 N 
ATOM     54  N   UNL A   1      41.579  29.634  33.294  1.00  0.00    -0.248 NA
ATOM     55  C   UNL A   1      41.550  30.259  35.545  1.00  0.00     0.031 C 
ATOM     56  C   UNL A   1      44.315  26.646  31.540  1.00  0.00     0.029 A 
ATOM     57  C   UNL A   1      43.424  27.520  32.139  1.00  0.00     0.049 A 
ATOM     58  H   UNL A   1      41.791  28.552  31.289  1.00  0.00     0.167 HD
ATOM     59  C   UNL A   1      42.537  28.906  33.983  1.00  0.00     0.074 A 
ATOM     60  C   UNL A   1      42.496  29.350  35.360  1.00  0.00     0.031 C 
ATOM     61  C   UNL A   1      43.371  27.948  33.511  1.00  0.00     0.037 A 
BRANCH  48  62
ATOM     62  C   UNL A   1      42.564  26.656  27.546  1.00  0.00     0.057 A 
ATOM     63  C   UNL A   1      42.101  25.365  27.272  1.00  0.00     0.134 A 
ATOM     64  C   UNL A   1      43.417  27.250  26.603  1.00  0.00     0.134 A 
ATOM     65  F   UNL A   1      41.291  24.734  28.134  1.00  0.00    -0.206 F 
ATOM     66  C   UNL A   1      42.468  24.693  26.101  1.00  0.00     0.040 A 
ATOM     67  C   UNL A   1      43.773  26.598  25.423  1.00  0.00     0.040 A 
ATOM     68  F   UNL A   1      43.889  28.490  26.803  1.00  0.00    -0.206 F 
ATOM     69  C   UNL A   1      43.297  25.314  25.167  1.00  0.00     0.006 A 
ENDBRANCH  48  62
BRANCH  49  70
ATOM     70  C   UNL A   1      39.346  32.136  35.170  1.00  0.00     0.057 A 
ATOM     71  C   UNL A   1      38.393  31.579  36.027  1.00  0.00     0.134 A 
ATOM     72  C   UNL A   1      39.782  33.441  35.456  1.00  0.00     0.134 A 
ATOM     73  F   UNL A   1      37.907  30.352  35.788  1.00  0.00    -0.206 F 
ATOM     74  C   UNL A   1      37.901  32.286  37.126  1.00  0.00     0.040 A 
ATOM     75  C   UNL A   1      39.332  34.140  36.573  1.00  0.00     0.040 A 
ATOM     76  F   UNL A   1      40.687  34.042  34.667  1.00  0.00    -0.206 F 
ATOM     77  C   UNL A   1      38.383  33.563  37.411  1.00  0.00     0.006 A 
ENDBRANCH  49  70
BRANCH  61  78
ATOM     78  C   UNL A   1      44.322  27.337  34.492  1.00  0.00     0.057 A 
ATOM     79  C   UNL A   1      44.012  26.156  35.179  1.00  0.00     0.134 A 
ATOM     80  C   UNL A   1      45.558  27.938  34.757  1.00  0.00     0.134 A 
ATOM     81  F   UNL A   1      42.835  25.544  34.983  1.00  0.00    -0.206 F 
ATOM     82  C   UNL A   1      44.888  25.611  36.117  1.00  0.00     0.040 A 
ATOM     83  C   UNL A   1      46.454  27.386  35.672  1.00  0.00     0.040 A 
ATOM     84  F   UNL A   1      45.916  29.068  34.128  1.00  0.00    -0.206 F 
ATOM     85  C   UNL A   1      46.116  26.224  36.362  1.00  0.00     0.006 A 
ENDBRANCH  61  78
ENDBRANCH  35  36
ENDBRANCH  28  30
ENDBRANCH  27  28
ENDBRANCH  26  27
ENDBRANCH   1  26
TORSDOF 14
ENDMDL
