MODEL 1
REMARK VINA RESULT:     -12.1      0.000      0.000
REMARK SMILES O=C(OCCOC(=O)[C@@H](Cc1ccncc1)c1ccc(Cl)cc1)c1ccc(-c2c3nc(c(-c4c(F)cccc4F)c4ccc([nH]4)c(-c4c(F)cccc4F)c4nc(c(-c5c(F)cccc5F)c5ccc2[nH]5)C=C4)C=C3)cc1
REMARK SMILES IDX 4 1 3 2 2 3 1 4 24 5 25 6 77 7 26 8 76 9 27 10 28 11 29 12
REMARK SMILES IDX 70 13 30 14 75 15 69 16 71 17 31 18 74 19 68 20 67 21 32 23
REMARK SMILES IDX 58 24 41 25 57 26 42 27 45 28 56 29 72 30 43 31 44 32 55 34
REMARK SMILES IDX 73 35 46 36 33 37 34 38 39 39 35 40 36 41 38 42 40 43 37 44
REMARK SMILES IDX 59 45 60 46 65 47 61 48 62 49 64 50 66 51 63 52 47 53 48 54
REMARK SMILES IDX 53 55 49 56 50 57 52 58 54 59 51 60 5 61 6 62 7 63 8 64 9 65
REMARK SMILES IDX 10 66 11 67 12 68 16 69 13 70 15 71 14 72 17 73 18 74 23 75
REMARK SMILES IDX 19 76 22 77 20 78 21 79
REMARK H PARENT 71 22 45 33
REMARK Flexibility Score: inf
ROOT
ATOM      1  C   UNL A   1      35.438  22.239  24.321  1.00  0.00     0.275 C 
ENDROOT
BRANCH   1   2
ATOM      2  O   UNL A   1      36.796  21.795  24.083  1.00  0.00    -0.458 OA
BRANCH   2   3
ATOM      3  C   UNL A   1      37.699  21.219  24.920  1.00  0.00     0.338 C 
ATOM      4  O   UNL A   1      37.721  19.998  25.053  1.00  0.00    -0.246 OA
BRANCH   3   5
ATOM      5  C   UNL A   1      38.484  22.008  25.909  1.00  0.00     0.060 A 
ATOM      6  C   UNL A   1      39.918  21.346  26.620  1.00  0.00     0.016 A 
ATOM      7  C   UNL A   1      38.091  23.760  25.936  1.00  0.00     0.016 A 
ATOM      8  C   UNL A   1      41.117  22.459  27.303  1.00  0.00     0.010 A 
ATOM      9  C   UNL A   1      39.213  24.999  26.543  1.00  0.00     0.010 A 
ATOM     10  C   UNL A   1      40.797  24.464  27.262  1.00  0.00    -0.014 A 
BRANCH  10  11
ATOM     11  C   UNL A   1      41.417  25.814  27.842  1.00  0.00     0.031 A 
ATOM     12  C   UNL A   1      42.884  26.079  27.578  1.00  0.00     0.074 A 
ATOM     13  C   UNL A   1      40.767  26.709  28.629  1.00  0.00     0.049 A 
ATOM     14  N   UNL A   1      43.520  27.221  27.542  1.00  0.00    -0.248 NA
ATOM     15  C   UNL A   1      43.762  24.925  27.301  1.00  0.00     0.031 C 
ATOM     16  C   UNL A   1      39.431  26.547  29.169  1.00  0.00     0.029 A 
ATOM     17  N   UNL A   1      41.104  27.970  29.072  1.00  0.00    -0.354 N 
ATOM     18  C   UNL A   1      44.789  26.925  27.064  1.00  0.00     0.074 A 
ATOM     19  C   UNL A   1      44.893  25.497  26.938  1.00  0.00     0.031 C 
ATOM     20  C   UNL A   1      38.982  27.682  29.709  1.00  0.00     0.029 A 
ATOM     21  C   UNL A   1      40.065  28.635  29.698  1.00  0.00     0.049 A 
ATOM     22  H   UNL A   1      42.000  28.361  28.954  1.00  0.00     0.167 HD
ATOM     23  C   UNL A   1      45.784  27.777  26.741  1.00  0.00     0.037 A 
ATOM     24  C   UNL A   1      39.962  29.871  30.216  1.00  0.00     0.037 A 
ATOM     25  C   UNL A   1      45.759  29.156  27.122  1.00  0.00     0.049 A 
ATOM     26  C   UNL A   1      41.130  30.773  30.014  1.00  0.00     0.074 A 
ATOM     27  C   UNL A   1      46.737  30.117  26.973  1.00  0.00     0.029 A 
ATOM     28  N   UNL A   1      44.711  29.741  27.825  1.00  0.00    -0.354 N 
ATOM     29  N   UNL A   1      42.253  30.517  29.387  1.00  0.00    -0.248 NA
ATOM     30  C   UNL A   1      41.020  32.133  30.547  1.00  0.00     0.031 C 
ATOM     31  C   UNL A   1      46.323  31.253  27.675  1.00  0.00     0.029 A 
ATOM     32  C   UNL A   1      45.048  31.033  28.179  1.00  0.00     0.049 A 
ATOM     33  H   UNL A   1      43.858  29.301  28.039  1.00  0.00     0.167 HD
ATOM     34  C   UNL A   1      42.976  31.692  29.415  1.00  0.00     0.074 A 
ATOM     35  C   UNL A   1      42.151  32.666  30.109  1.00  0.00     0.031 C 
ATOM     36  C   UNL A   1      44.205  31.949  28.905  1.00  0.00     0.037 A 
BRANCH  23  37
ATOM     37  C   UNL A   1      46.965  27.185  26.029  1.00  0.00     0.057 A 
ATOM     38  C   UNL A   1      48.026  26.601  26.743  1.00  0.00     0.134 A 
ATOM     39  C   UNL A   1      47.093  27.266  24.640  1.00  0.00     0.134 A 
ATOM     40  F   UNL A   1      47.990  26.531  28.082  1.00  0.00    -0.206 F 
ATOM     41  C   UNL A   1      49.174  26.136  26.099  1.00  0.00     0.040 A 
ATOM     42  C   UNL A   1      48.229  26.787  23.983  1.00  0.00     0.040 A 
ATOM     43  F   UNL A   1      46.134  27.841  23.901  1.00  0.00    -0.206 F 
ATOM     44  C   UNL A   1      49.276  26.227  24.713  1.00  0.00     0.006 A 
ENDBRANCH  23  37
BRANCH  24  45
ATOM     45  C   UNL A   1      38.719  30.301  30.923  1.00  0.00     0.057 A 
ATOM     46  C   UNL A   1      38.520  30.065  32.289  1.00  0.00     0.134 A 
ATOM     47  C   UNL A   1      37.710  31.010  30.251  1.00  0.00     0.134 A 
ATOM     48  F   UNL A   1      39.439  29.397  33.000  1.00  0.00    -0.206 F 
ATOM     49  C   UNL A   1      37.366  30.498  32.953  1.00  0.00     0.040 A 
ATOM     50  C   UNL A   1      36.564  31.470  30.906  1.00  0.00     0.040 A 
ATOM     51  F   UNL A   1      37.842  31.304  28.948  1.00  0.00    -0.206 F 
ATOM     52  C   UNL A   1      36.386  31.209  32.262  1.00  0.00     0.006 A 
ENDBRANCH  24  45
BRANCH  36  53
ATOM     53  C   UNL A   1      44.705  33.343  29.083  1.00  0.00     0.057 A 
ATOM     54  C   UNL A   1      44.430  34.351  28.153  1.00  0.00     0.134 A 
ATOM     55  C   UNL A   1      45.458  33.675  30.215  1.00  0.00     0.134 A 
ATOM     56  F   UNL A   1      43.727  34.081  27.042  1.00  0.00    -0.206 F 
ATOM     57  C   UNL A   1      44.921  35.642  28.326  1.00  0.00     0.040 A 
ATOM     58  C   UNL A   1      45.919  34.971  30.418  1.00  0.00     0.040 A 
ATOM     59  F   UNL A   1      45.744  32.748  31.141  1.00  0.00    -0.206 F 
ATOM     60  C   UNL A   1      45.661  35.955  29.466  1.00  0.00     0.006 A 
ENDBRANCH  36  53
ENDBRANCH  10  11
ENDBRANCH   3   5
ENDBRANCH   2   3
ENDBRANCH   1   2
BRANCH   1  61
ATOM     61  C   UNL A   1      34.925  23.356  23.395  1.00  0.00     0.274 C 
BRANCH  61  62
ATOM     62  O   UNL A   1      34.551  24.545  24.094  1.00  0.00    -0.462 OA
BRANCH  62  63
ATOM     63  C   UNL A   1      33.777  25.435  23.426  1.00  0.00     0.313 C 
ATOM     64  O   UNL A   1      33.781  25.584  22.210  1.00  0.00    -0.252 OA
BRANCH  63  65
ATOM     65  C   UNL A   1      32.889  26.230  24.366  1.00  0.00     0.133 C 
BRANCH  65  66
ATOM     66  C   UNL A   1      33.762  26.926  25.434  1.00  0.00     0.055 C 
BRANCH  66  67
ATOM     67  C   UNL A   1      33.348  28.265  26.327  1.00  0.00    -0.044 A 
ATOM     68  C   UNL A   1      31.776  29.553  26.325  1.00  0.00     0.024 A 
ATOM     69  C   UNL A   1      34.875  28.867  27.067  1.00  0.00     0.024 A 
ATOM     70  C   UNL A   1      32.041  31.198  26.984  1.00  0.00     0.111 A 
ATOM     71  C   UNL A   1      34.913  30.528  27.617  1.00  0.00     0.111 A 
ATOM     72  N   UNL A   1      33.582  31.642  27.579  1.00  0.00    -0.265 NA
ENDBRANCH  66  67
ENDBRANCH  65  66
BRANCH  65  73
ATOM     73  C   UNL A   1      31.714  26.991  23.772  1.00  0.00    -0.033 A 
ATOM     74  C   UNL A   1      30.387  26.561  23.977  1.00  0.00     0.006 A 
ATOM     75  C   UNL A   1      31.911  28.091  22.928  1.00  0.00     0.006 A 
ATOM     76  C   UNL A   1      29.300  27.294  23.488  1.00  0.00     0.021 A 
ATOM     77  C   UNL A   1      30.827  28.821  22.432  1.00  0.00     0.021 A 
ATOM     78  C   UNL A   1      29.526  28.444  22.748  1.00  0.00     0.041 A 
ATOM     79  Cl  UNL A   1      28.202  29.416  22.243  1.00  0.00    -0.084 Cl
ENDBRANCH  65  73
ENDBRANCH  63  65
ENDBRANCH  62  63
ENDBRANCH  61  62
ENDBRANCH   1  61
TORSDOF 14
ENDMDL
MODEL 2
REMARK VINA RESULT:     -12.1      1.631      2.985
REMARK SMILES O=C(OCCOC(=O)[C@@H](Cc1ccncc1)c1ccc(Cl)cc1)c1ccc(-c2c3nc(c(-c4c(F)cccc4F)c4ccc([nH]4)c(-c4c(F)cccc4F)c4nc(c(-c5c(F)cccc5F)c5ccc2[nH]5)C=C4)C=C3)cc1
REMARK SMILES IDX 4 1 3 2 2 3 1 4 24 5 25 6 77 7 26 8 76 9 27 10 28 11 29 12
REMARK SMILES IDX 70 13 30 14 75 15 69 16 71 17 31 18 74 19 68 20 67 21 32 23
REMARK SMILES IDX 58 24 41 25 57 26 42 27 45 28 56 29 72 30 43 31 44 32 55 34
REMARK SMILES IDX 73 35 46 36 33 37 34 38 39 39 35 40 36 41 38 42 40 43 37 44
REMARK SMILES IDX 59 45 60 46 65 47 61 48 62 49 64 50 66 51 63 52 47 53 48 54
REMARK SMILES IDX 53 55 49 56 50 57 52 58 54 59 51 60 5 61 6 62 7 63 8 64 9 65
REMARK SMILES IDX 10 66 11 67 12 68 16 69 13 70 15 71 14 72 17 73 18 74 23 75
REMARK SMILES IDX 19 76 22 77 20 78 21 79
REMARK H PARENT 71 22 45 33
REMARK Flexibility Score: inf
ROOT
ATOM      1  C   UNL A   1      34.636  22.079  24.930  1.00  0.00     0.275 C 
ENDROOT
BRANCH   1   2
ATOM      2  O   UNL A   1      35.792  21.403  25.481  1.00  0.00    -0.458 OA
BRANCH   2   3
ATOM      3  C   UNL A   1      37.117  21.556  25.217  1.00  0.00     0.338 C 
ATOM      4  O   UNL A   1      37.647  20.892  24.330  1.00  0.00    -0.246 OA
BRANCH   3   5
ATOM      5  C   UNL A   1      38.034  22.284  26.137  1.00  0.00     0.060 A 
ATOM      6  C   UNL A   1      39.557  21.593  26.585  1.00  0.00     0.016 A 
ATOM      7  C   UNL A   1      37.642  24.024  26.346  1.00  0.00     0.016 A 
ATOM      8  C   UNL A   1      40.838  22.672  27.168  1.00  0.00     0.010 A 
ATOM      9  C   UNL A   1      38.836  25.232  26.874  1.00  0.00     0.010 A 
ATOM     10  C   UNL A   1      40.508  24.670  27.318  1.00  0.00    -0.014 A 
BRANCH  10  11
ATOM     11  C   UNL A   1      41.201  25.984  27.898  1.00  0.00     0.031 A 
ATOM     12  C   UNL A   1      42.677  26.178  27.619  1.00  0.00     0.074 A 
ATOM     13  C   UNL A   1      40.604  26.905  28.697  1.00  0.00     0.049 A 
ATOM     14  N   UNL A   1      43.368  27.287  27.583  1.00  0.00    -0.248 NA
ATOM     15  C   UNL A   1      43.493  24.983  27.327  1.00  0.00     0.031 C 
ATOM     16  C   UNL A   1      39.267  26.807  29.251  1.00  0.00     0.029 A 
ATOM     17  N   UNL A   1      41.007  28.145  29.143  1.00  0.00    -0.354 N 
ATOM     18  C   UNL A   1      44.615  26.932  27.090  1.00  0.00     0.074 A 
ATOM     19  C   UNL A   1      44.648  25.501  26.955  1.00  0.00     0.031 C 
ATOM     20  C   UNL A   1      38.881  27.959  29.802  1.00  0.00     0.029 A 
ATOM     21  C   UNL A   1      40.009  28.857  29.784  1.00  0.00     0.049 A 
ATOM     22  H   UNL A   1      41.920  28.492  29.018  1.00  0.00     0.167 HD
ATOM     23  C   UNL A   1      45.648  27.735  26.761  1.00  0.00     0.037 A 
ATOM     24  C   UNL A   1      39.974  30.094  30.310  1.00  0.00     0.037 A 
ATOM     25  C   UNL A   1      45.696  29.111  27.150  1.00  0.00     0.049 A 
ATOM     26  C   UNL A   1      41.183  30.938  30.100  1.00  0.00     0.074 A 
ATOM     27  C   UNL A   1      46.718  30.023  26.995  1.00  0.00     0.029 A 
ATOM     28  N   UNL A   1      44.685  29.744  27.867  1.00  0.00    -0.354 N 
ATOM     29  N   UNL A   1      42.285  30.630  29.460  1.00  0.00    -0.248 NA
ATOM     30  C   UNL A   1      41.146  32.298  30.641  1.00  0.00     0.031 C 
ATOM     31  C   UNL A   1      46.368  31.175  27.708  1.00  0.00     0.029 A 
ATOM     32  C   UNL A   1      45.090  31.014  28.225  1.00  0.00     0.049 A 
ATOM     33  H   UNL A   1      43.813  29.345  28.088  1.00  0.00     0.167 HD
ATOM     34  C   UNL A   1      43.066  31.768  29.487  1.00  0.00     0.074 A 
ATOM     35  C   UNL A   1      42.298  32.777  30.195  1.00  0.00     0.031 C 
ATOM     36  C   UNL A   1      44.300  31.967  28.964  1.00  0.00     0.037 A 
BRANCH  23  37
ATOM     37  C   UNL A   1      46.791  27.090  26.033  1.00  0.00     0.057 A 
ATOM     38  C   UNL A   1      47.817  26.430  26.731  1.00  0.00     0.134 A 
ATOM     39  C   UNL A   1      46.920  27.191  24.646  1.00  0.00     0.134 A 
ATOM     40  F   UNL A   1      47.780  26.335  28.069  1.00  0.00    -0.206 F 
ATOM     41  C   UNL A   1      48.934  25.912  26.074  1.00  0.00     0.040 A 
ATOM     42  C   UNL A   1      48.025  26.661  23.975  1.00  0.00     0.040 A 
ATOM     43  F   UNL A   1      45.994  27.837  23.921  1.00  0.00    -0.206 F 
ATOM     44  C   UNL A   1      49.039  26.025  24.690  1.00  0.00     0.006 A 
ENDBRANCH  23  37
BRANCH  24  45
ATOM     45  C   UNL A   1      38.761  30.580  31.033  1.00  0.00     0.057 A 
ATOM     46  C   UNL A   1      37.726  31.260  30.379  1.00  0.00     0.134 A 
ATOM     47  C   UNL A   1      38.585  30.330  32.404  1.00  0.00     0.134 A 
ATOM     48  F   UNL A   1      37.820  31.534  29.070  1.00  0.00    -0.206 F 
ATOM     49  C   UNL A   1      36.577  31.685  31.057  1.00  0.00     0.040 A 
ATOM     50  C   UNL A   1      37.433  30.726  33.088  1.00  0.00     0.040 A 
ATOM     51  F   UNL A   1      39.517  29.655  33.094  1.00  0.00    -0.206 F 
ATOM     52  C   UNL A   1      36.426  31.412  32.415  1.00  0.00     0.006 A 
ENDBRANCH  24  45
BRANCH  36  53
ATOM     53  C   UNL A   1      44.871  33.333  29.145  1.00  0.00     0.057 A 
ATOM     54  C   UNL A   1      45.679  33.657  30.240  1.00  0.00     0.134 A 
ATOM     55  C   UNL A   1      44.617  34.328  28.194  1.00  0.00     0.134 A 
ATOM     56  F   UNL A   1      45.939  32.745  31.190  1.00  0.00    -0.206 F 
ATOM     57  C   UNL A   1      46.188  34.942  30.403  1.00  0.00     0.040 A 
ATOM     58  C   UNL A   1      45.154  35.604  28.326  1.00  0.00     0.040 A 
ATOM     59  F   UNL A   1      43.855  34.068  27.121  1.00  0.00    -0.206 F 
ATOM     60  C   UNL A   1      45.932  35.916  29.439  1.00  0.00     0.006 A 
ENDBRANCH  36  53
ENDBRANCH  10  11
ENDBRANCH   3   5
ENDBRANCH   2   3
ENDBRANCH   1   2
BRANCH   1  61
ATOM     61  C   UNL A   1      33.819  22.927  25.921  1.00  0.00     0.274 C 
BRANCH  61  62
ATOM     62  O   UNL A   1      32.570  23.373  25.390  1.00  0.00    -0.462 OA
BRANCH  62  63
ATOM     63  C   UNL A   1      31.878  24.281  26.121  1.00  0.00     0.313 C 
ATOM     64  O   UNL A   1      31.429  24.074  27.242  1.00  0.00    -0.252 OA
BRANCH  63  65
ATOM     65  C   UNL A   1      31.726  25.601  25.387  1.00  0.00     0.133 C 
BRANCH  65  66
ATOM     66  C   UNL A   1      30.318  25.681  24.755  1.00  0.00     0.055 C 
BRANCH  66  67
ATOM     67  C   UNL A   1      29.678  26.976  23.934  1.00  0.00    -0.044 A 
ATOM     68  C   UNL A   1      30.317  28.858  23.514  1.00  0.00     0.024 A 
ATOM     69  C   UNL A   1      27.899  26.703  23.876  1.00  0.00     0.024 A 
ATOM     70  C   UNL A   1      29.078  30.111  23.192  1.00  0.00     0.111 A 
ATOM     71  C   UNL A   1      26.873  28.088  23.573  1.00  0.00     0.111 A 
ATOM     72  N   UNL A   1      27.417  29.706  23.254  1.00  0.00    -0.265 NA
ENDBRANCH  66  67
ENDBRANCH  65  66
BRANCH  65  73
ATOM     73  C   UNL A   1      32.313  26.850  26.027  1.00  0.00    -0.033 A 
ATOM     74  C   UNL A   1      33.671  27.188  25.857  1.00  0.00     0.006 A 
ATOM     75  C   UNL A   1      31.550  27.658  26.879  1.00  0.00     0.006 A 
ATOM     76  C   UNL A   1      34.199  28.369  26.389  1.00  0.00     0.021 A 
ATOM     77  C   UNL A   1      32.078  28.835  27.418  1.00  0.00     0.021 A 
ATOM     78  C   UNL A   1      33.388  29.208  27.137  1.00  0.00     0.041 A 
ATOM     79  Cl  UNL A   1      33.991  30.717  27.695  1.00  0.00    -0.084 Cl
ENDBRANCH  65  73
ENDBRANCH  63  65
ENDBRANCH  62  63
ENDBRANCH  61  62
ENDBRANCH   1  61
TORSDOF 14
ENDMDL
MODEL 3
REMARK VINA RESULT:     -12.0      9.514     13.650
REMARK SMILES O=C(OCCOC(=O)[C@@H](Cc1ccncc1)c1ccc(Cl)cc1)c1ccc(-c2c3nc(c(-c4c(F)cccc4F)c4ccc([nH]4)c(-c4c(F)cccc4F)c4nc(c(-c5c(F)cccc5F)c5ccc2[nH]5)C=C4)C=C3)cc1
REMARK SMILES IDX 4 1 3 2 2 3 1 4 24 5 25 6 77 7 26 8 76 9 27 10 28 11 29 12
REMARK SMILES IDX 70 13 30 14 75 15 69 16 71 17 31 18 74 19 68 20 67 21 32 23
REMARK SMILES IDX 58 24 41 25 57 26 42 27 45 28 56 29 72 30 43 31 44 32 55 34
REMARK SMILES IDX 73 35 46 36 33 37 34 38 39 39 35 40 36 41 38 42 40 43 37 44
REMARK SMILES IDX 59 45 60 46 65 47 61 48 62 49 64 50 66 51 63 52 47 53 48 54
REMARK SMILES IDX 53 55 49 56 50 57 52 58 54 59 51 60 5 61 6 62 7 63 8 64 9 65
REMARK SMILES IDX 10 66 11 67 12 68 16 69 13 70 15 71 14 72 17 73 18 74 23 75
REMARK SMILES IDX 19 76 22 77 20 78 21 79
REMARK H PARENT 71 22 45 33
REMARK Flexibility Score: inf
ROOT
ATOM      1  C   UNL A   1      46.262  20.077  36.269  1.00  0.00     0.275 C 
ENDROOT
BRANCH   1   2
ATOM      2  O   UNL A   1      45.633  21.372  36.114  1.00  0.00    -0.458 OA
BRANCH   2   3
ATOM      3  C   UNL A   1      45.648  22.467  36.922  1.00  0.00     0.338 C 
ATOM      4  O   UNL A   1      45.732  22.329  38.139  1.00  0.00    -0.246 OA
BRANCH   3   5
ATOM      5  C   UNL A   1      45.283  23.824  36.431  1.00  0.00     0.060 A 
ATOM      6  C   UNL A   1      46.505  24.906  35.853  1.00  0.00     0.016 A 
ATOM      7  C   UNL A   1      43.534  24.037  36.081  1.00  0.00     0.016 A 
ATOM      8  C   UNL A   1      46.027  26.222  34.766  1.00  0.00     0.010 A 
ATOM      9  C   UNL A   1      42.909  25.279  34.973  1.00  0.00     0.010 A 
ATOM     10  C   UNL A   1      44.082  26.455  34.229  1.00  0.00    -0.014 A 
BRANCH  10  11
ATOM     11  C   UNL A   1      43.138  27.492  33.469  1.00  0.00     0.031 A 
ATOM     12  C   UNL A   1      43.074  27.401  31.959  1.00  0.00     0.074 A 
ATOM     13  C   UNL A   1      42.452  28.509  34.049  1.00  0.00     0.049 A 
ATOM     14  N   UNL A   1      42.121  27.789  31.152  1.00  0.00    -0.248 NA
ATOM     15  C   UNL A   1      44.211  26.783  31.249  1.00  0.00     0.031 C 
ATOM     16  C   UNL A   1      42.536  28.900  35.444  1.00  0.00     0.029 A 
ATOM     17  N   UNL A   1      41.494  29.374  33.568  1.00  0.00    -0.354 N 
ATOM     18  C   UNL A   1      42.469  27.296  29.902  1.00  0.00     0.074 A 
ATOM     19  C   UNL A   1      43.768  26.691  30.010  1.00  0.00     0.031 C 
ATOM     20  C   UNL A   1      41.583  29.778  35.763  1.00  0.00     0.029 A 
ATOM     21  C   UNL A   1      40.896  30.144  34.549  1.00  0.00     0.049 A 
ATOM     22  H   UNL A   1      41.257  29.439  32.614  1.00  0.00     0.167 HD
ATOM     23  C   UNL A   1      41.756  27.331  28.758  1.00  0.00     0.037 A 
ATOM     24  C   UNL A   1      39.904  31.051  34.510  1.00  0.00     0.037 A 
ATOM     25  C   UNL A   1      40.601  28.163  28.606  1.00  0.00     0.049 A 
ATOM     26  C   UNL A   1      39.216  31.226  33.200  1.00  0.00     0.074 A 
ATOM     27  C   UNL A   1      39.841  28.398  27.479  1.00  0.00     0.029 A 
ATOM     28  N   UNL A   1      40.101  28.977  29.617  1.00  0.00    -0.354 N 
ATOM     29  N   UNL A   1      39.451  30.599  32.072  1.00  0.00    -0.248 NA
ATOM     30  C   UNL A   1      38.114  32.188  33.151  1.00  0.00     0.031 C 
ATOM     31  C   UNL A   1      38.946  29.430  27.781  1.00  0.00     0.029 A 
ATOM     32  C   UNL A   1      39.085  29.769  29.120  1.00  0.00     0.049 A 
ATOM     33  H   UNL A   1      40.423  28.988  30.546  1.00  0.00     0.167 HD
ATOM     34  C   UNL A   1      38.505  31.063  31.181  1.00  0.00     0.074 A 
ATOM     35  C   UNL A   1      37.683  32.013  31.911  1.00  0.00     0.031 C 
ATOM     36  C   UNL A   1      38.323  30.728  29.881  1.00  0.00     0.037 A 
BRANCH  23  37
ATOM     37  C   UNL A   1      42.284  26.513  27.616  1.00  0.00     0.057 A 
ATOM     38  C   UNL A   1      43.101  27.086  26.627  1.00  0.00     0.134 A 
ATOM     39  C   UNL A   1      41.916  25.175  27.450  1.00  0.00     0.134 A 
ATOM     40  F   UNL A   1      43.455  28.379  26.700  1.00  0.00    -0.206 F 
ATOM     41  C   UNL A   1      43.517  26.362  25.509  1.00  0.00     0.040 A 
ATOM     42  C   UNL A   1      42.342  24.434  26.344  1.00  0.00     0.040 A 
ATOM     43  F   UNL A   1      41.111  24.574  28.338  1.00  0.00    -0.206 F 
ATOM     44  C   UNL A   1      43.139  25.029  25.367  1.00  0.00     0.006 A 
ENDBRANCH  23  37
BRANCH  24  45
ATOM     45  C   UNL A   1      39.514  31.807  35.737  1.00  0.00     0.057 A 
ATOM     46  C   UNL A   1      38.454  31.401  36.557  1.00  0.00     0.134 A 
ATOM     47  C   UNL A   1      40.233  32.941  36.151  1.00  0.00     0.134 A 
ATOM     48  F   UNL A   1      37.721  30.327  36.231  1.00  0.00    -0.206 F 
ATOM     49  C   UNL A   1      38.114  32.097  37.723  1.00  0.00     0.040 A 
ATOM     50  C   UNL A   1      39.920  33.630  37.325  1.00  0.00     0.040 A 
ATOM     51  F   UNL A   1      41.284  33.374  35.436  1.00  0.00    -0.206 F 
ATOM     52  C   UNL A   1      38.853  33.212  38.114  1.00  0.00     0.006 A 
ENDBRANCH  24  45
BRANCH  36  53
ATOM     53  C   UNL A   1      37.184  31.398  29.189  1.00  0.00     0.057 A 
ATOM     54  C   UNL A   1      35.964  30.748  28.976  1.00  0.00     0.134 A 
ATOM     55  C   UNL A   1      37.313  32.721  28.750  1.00  0.00     0.134 A 
ATOM     56  F   UNL A   1      35.793  29.474  29.362  1.00  0.00    -0.206 F 
ATOM     57  C   UNL A   1      34.917  31.382  28.312  1.00  0.00     0.040 A 
ATOM     58  C   UNL A   1      36.261  33.377  28.122  1.00  0.00     0.040 A 
ATOM     59  F   UNL A   1      38.459  33.393  28.937  1.00  0.00    -0.206 F 
ATOM     60  C   UNL A   1      35.063  32.703  27.891  1.00  0.00     0.006 A 
ENDBRANCH  36  53
ENDBRANCH  10  11
ENDBRANCH   3   5
ENDBRANCH   2   3
ENDBRANCH   1   2
BRANCH   1  61
ATOM     61  C   UNL A   1      45.305  18.877  36.389  1.00  0.00     0.274 C 
BRANCH  61  62
ATOM     62  O   UNL A   1      45.106  18.443  37.736  1.00  0.00    -0.462 OA
BRANCH  62  63
ATOM     63  C   UNL A   1      44.538  17.225  37.913  1.00  0.00     0.313 C 
ATOM     64  O   UNL A   1      44.336  16.415  37.017  1.00  0.00    -0.252 OA
BRANCH  63  65
ATOM     65  C   UNL A   1      44.182  16.974  39.368  1.00  0.00     0.133 C 
BRANCH  65  66
ATOM     66  C   UNL A   1      43.341  15.681  39.476  1.00  0.00     0.055 C 
BRANCH  66  67
ATOM     67  C   UNL A   1      42.498  15.164  40.812  1.00  0.00    -0.044 A 
ATOM     68  C   UNL A   1      42.661  15.473  42.813  1.00  0.00     0.024 A 
ATOM     69  C   UNL A   1      41.610  13.682  40.300  1.00  0.00     0.024 A 
ATOM     70  C   UNL A   1      41.983  14.230  43.911  1.00  0.00     0.111 A 
ATOM     71  C   UNL A   1      41.063  12.589  41.553  1.00  0.00     0.111 A 
ATOM     72  N   UNL A   1      41.237  12.834  43.263  1.00  0.00    -0.265 NA
ENDBRANCH  66  67
ENDBRANCH  65  66
BRANCH  65  73
ATOM     73  C   UNL A   1      45.241  17.250  40.424  1.00  0.00    -0.033 A 
ATOM     74  C   UNL A   1      46.484  16.587  40.403  1.00  0.00     0.006 A 
ATOM     75  C   UNL A   1      44.984  18.103  41.505  1.00  0.00     0.006 A 
ATOM     76  C   UNL A   1      47.485  16.885  41.334  1.00  0.00     0.021 A 
ATOM     77  C   UNL A   1      45.980  18.398  42.441  1.00  0.00     0.021 A 
ATOM     78  C   UNL A   1      47.240  17.820  42.328  1.00  0.00     0.041 A 
ATOM     79  Cl  UNL A   1      48.497  18.282  43.404  1.00  0.00    -0.084 Cl
ENDBRANCH  65  73
ENDBRANCH  63  65
ENDBRANCH  62  63
ENDBRANCH  61  62
ENDBRANCH   1  61
TORSDOF 14
ENDMDL
