MODEL 1
REMARK VINA RESULT:     -10.8      0.000      0.000
REMARK SMILES C[C@H](NC(=O)c1ccc(N)cc1)C(=O)OCCOC(=O)c1ccc(-c2c3nc(c(-c4c(F)cccc4F)c4ccc([nH]4)c(-c4c(F)cccc4F)c4nc(c(-c5c(F)cccc5F)c5ccc2[nH]5)C=C4)C=C3)cc1
REMARK SMILES IDX 16 1 15 2 13 3 14 4 2 5 1 6 3 7 4 8 5 10 6 11 7 12 12 13
REMARK SMILES IDX 8 14 11 15 9 16 10 17 17 20 18 21 19 22 20 23 21 24 22 25
REMARK SMILES IDX 74 26 23 27 73 28 24 29 25 30 26 31 67 32 27 33 72 34 66 35
REMARK SMILES IDX 68 36 28 37 71 38 65 39 64 40 29 42 55 43 38 44 54 45 39 46
REMARK SMILES IDX 42 47 53 48 69 49 40 50 41 51 52 53 70 54 43 55 30 56 31 57
REMARK SMILES IDX 36 58 32 59 33 60 35 61 37 62 34 63 56 64 57 65 62 66 58 67
REMARK SMILES IDX 59 68 61 69 63 70 60 71 44 72 45 73 50 74 46 75 47 76 49 77
REMARK SMILES IDX 51 78 48 79
REMARK H PARENT 3 9 10 18 10 19 68 41 42 52
REMARK Flexibility Score: inf
ROOT
ATOM      1  C   UNL A   1      32.413  28.676  25.113  1.00  0.00     0.274 C 
ENDROOT
BRANCH   1   2
ATOM      2  O   UNL A   1      31.318  27.761  24.906  1.00  0.00    -0.461 OA
BRANCH   2   3
ATOM      3  C   UNL A   1      31.136  26.828  25.880  1.00  0.00     0.328 C 
ATOM      4  O   UNL A   1      31.562  26.922  27.027  1.00  0.00    -0.250 OA
BRANCH   3   5
ATOM      5  C   UNL A   1      30.428  25.566  25.371  1.00  0.00     0.189 C 
ATOM      6  C   UNL A   1      29.462  25.997  24.271  1.00  0.00     0.043 C 
BRANCH   5   7
ATOM      7  N   UNL A   1      29.724  24.779  26.392  1.00  0.00    -0.339 N 
ATOM      8  C   UNL A   1      30.077  23.536  26.876  1.00  0.00     0.251 C 
ATOM      9  H   UNL A   1      28.912  25.183  26.773  1.00  0.00     0.164 HD
ATOM     10  O   UNL A   1      29.367  22.907  27.647  1.00  0.00    -0.269 OA
BRANCH   8  11
ATOM     11  C   UNL A   1      31.376  22.983  26.444  1.00  0.00     0.039 A 
ATOM     12  C   UNL A   1      31.409  22.128  25.343  1.00  0.00     0.016 A 
ATOM     13  C   UNL A   1      32.515  23.185  27.220  1.00  0.00     0.016 A 
ATOM     14  C   UNL A   1      32.554  21.368  25.097  1.00  0.00     0.026 A 
ATOM     15  C   UNL A   1      33.662  22.431  26.954  1.00  0.00     0.026 A 
ATOM     16  C   UNL A   1      33.683  21.501  25.909  1.00  0.00     0.031 A 
BRANCH  16  17
ATOM     17  N   UNL A   1      34.753  20.636  25.760  1.00  0.00    -0.399 N 
ATOM     18  H   UNL A   1      34.711  19.912  25.095  1.00  0.00     0.156 HD
ATOM     19  H   UNL A   1      35.556  20.746  26.319  1.00  0.00     0.156 HD
ENDBRANCH  16  17
ENDBRANCH   8  11
ENDBRANCH   5   7
ENDBRANCH   3   5
ENDBRANCH   2   3
ENDBRANCH   1   2
BRANCH   1  20
ATOM     20  C   UNL A   1      31.910  30.069  25.493  1.00  0.00     0.275 C 
BRANCH  20  21
ATOM     21  O   UNL A   1      32.140  30.348  26.886  1.00  0.00    -0.458 OA
BRANCH  21  22
ATOM     22  C   UNL A   1      32.755  31.531  27.122  1.00  0.00     0.338 C 
ATOM     23  O   UNL A   1      32.296  32.650  26.992  1.00  0.00    -0.246 OA
BRANCH  22  24
ATOM     24  C   UNL A   1      34.085  31.281  27.691  1.00  0.00     0.060 A 
ATOM     25  C   UNL A   1      34.421  29.970  28.019  1.00  0.00     0.016 A 
ATOM     26  C   UNL A   1      34.946  32.335  27.999  1.00  0.00     0.016 A 
ATOM     27  C   UNL A   1      35.610  29.704  28.693  1.00  0.00     0.010 A 
ATOM     28  C   UNL A   1      36.156  32.062  28.648  1.00  0.00     0.010 A 
ATOM     29  C   UNL A   1      36.490  30.746  29.016  1.00  0.00    -0.014 A 
BRANCH  29  30
ATOM     30  C   UNL A   1      37.752  30.460  29.745  1.00  0.00     0.031 A 
ATOM     31  C   UNL A   1      38.812  29.596  29.120  1.00  0.00     0.074 A 
ATOM     32  C   UNL A   1      37.946  30.971  30.976  1.00  0.00     0.049 A 
ATOM     33  N   UNL A   1      39.899  29.103  29.660  1.00  0.00    -0.248 NA
ATOM     34  C   UNL A   1      38.628  29.240  27.705  1.00  0.00     0.031 C 
ATOM     35  C   UNL A   1      37.019  31.860  31.678  1.00  0.00     0.029 A 
ATOM     36  N   UNL A   1      38.984  30.804  31.860  1.00  0.00    -0.354 N 
ATOM     37  C   UNL A   1      40.505  28.345  28.666  1.00  0.00     0.074 A 
ATOM     38  C   UNL A   1      39.670  28.448  27.488  1.00  0.00     0.031 C 
ATOM     39  C   UNL A   1      37.526  32.156  32.884  1.00  0.00     0.029 A 
ATOM     40  C   UNL A   1      38.777  31.427  33.067  1.00  0.00     0.049 A 
ATOM     41  H   UNL A   1      39.795  30.290  31.649  1.00  0.00     0.167 HD
ATOM     42  C   UNL A   1      41.651  27.627  28.736  1.00  0.00     0.037 A 
ATOM     43  C   UNL A   1      39.485  31.374  34.212  1.00  0.00     0.037 A 
ATOM     44  C   UNL A   1      42.505  27.562  29.892  1.00  0.00     0.049 A 
ATOM     45  C   UNL A   1      40.719  30.523  34.280  1.00  0.00     0.074 A 
ATOM     46  C   UNL A   1      43.716  26.905  30.034  1.00  0.00     0.029 A 
ATOM     47  N   UNL A   1      42.238  28.177  31.106  1.00  0.00    -0.354 N 
ATOM     48  N   UNL A   1      41.278  29.802  33.338  1.00  0.00    -0.248 NA
ATOM     49  C   UNL A   1      41.409  30.457  35.577  1.00  0.00     0.031 C 
ATOM     50  C   UNL A   1      44.163  27.090  31.347  1.00  0.00     0.029 A 
ATOM     51  C   UNL A   1      43.246  27.888  32.011  1.00  0.00     0.049 A 
ATOM     52  H   UNL A   1      41.450  28.735  31.295  1.00  0.00     0.167 HD
ATOM     53  C   UNL A   1      42.383  29.202  33.925  1.00  0.00     0.074 A 
ATOM     54  C   UNL A   1      42.430  29.659  35.299  1.00  0.00     0.031 C 
ATOM     55  C   UNL A   1      43.275  28.344  33.376  1.00  0.00     0.037 A 
BRANCH  42  56
ATOM     56  C   UNL A   1      42.043  26.820  27.535  1.00  0.00     0.057 A 
ATOM     57  C   UNL A   1      42.805  27.357  26.494  1.00  0.00     0.134 A 
ATOM     58  C   UNL A   1      41.707  25.461  27.459  1.00  0.00     0.134 A 
ATOM     59  F   UNL A   1      43.152  28.653  26.505  1.00  0.00    -0.206 F 
ATOM     60  C   UNL A   1      43.212  26.575  25.411  1.00  0.00     0.040 A 
ATOM     61  C   UNL A   1      42.123  24.664  26.392  1.00  0.00     0.040 A 
ATOM     62  F   UNL A   1      40.983  24.884  28.431  1.00  0.00    -0.206 F 
ATOM     63  C   UNL A   1      42.878  25.223  25.363  1.00  0.00     0.006 A 
ENDBRANCH  42  56
BRANCH  43  64
ATOM     64  C   UNL A   1      38.999  32.100  35.411  1.00  0.00     0.057 A 
ATOM     65  C   UNL A   1      39.283  33.455  35.605  1.00  0.00     0.134 A 
ATOM     66  C   UNL A   1      38.246  31.448  36.396  1.00  0.00     0.134 A 
ATOM     67  F   UNL A   1      40.021  34.125  34.708  1.00  0.00    -0.206 F 
ATOM     68  C   UNL A   1      38.842  34.136  36.741  1.00  0.00     0.040 A 
ATOM     69  C   UNL A   1      37.777  32.122  37.524  1.00  0.00     0.040 A 
ATOM     70  F   UNL A   1      37.943  30.147  36.268  1.00  0.00    -0.206 F 
ATOM     71  C   UNL A   1      38.080  33.471  37.700  1.00  0.00     0.006 A 
ENDBRANCH  43  64
BRANCH  55  72
ATOM     72  C   UNL A   1      44.378  27.847  34.259  1.00  0.00     0.057 A 
ATOM     73  C   UNL A   1      45.571  28.563  34.411  1.00  0.00     0.134 A 
ATOM     74  C   UNL A   1      44.232  26.663  34.993  1.00  0.00     0.134 A 
ATOM     75  F   UNL A   1      45.775  29.696  33.722  1.00  0.00    -0.206 F 
ATOM     76  C   UNL A   1      46.587  28.114  35.256  1.00  0.00     0.040 A 
ATOM     77  C   UNL A   1      45.232  26.214  35.855  1.00  0.00     0.040 A 
ATOM     78  F   UNL A   1      43.110  25.934  34.894  1.00  0.00    -0.206 F 
ATOM     79  C   UNL A   1      46.415  26.938  35.986  1.00  0.00     0.006 A 
ENDBRANCH  55  72
ENDBRANCH  29  30
ENDBRANCH  22  24
ENDBRANCH  21  22
ENDBRANCH  20  21
ENDBRANCH   1  20
TORSDOF 14
ENDMDL
MODEL 2
REMARK VINA RESULT:     -10.8      0.196      1.675
REMARK SMILES C[C@H](NC(=O)c1ccc(N)cc1)C(=O)OCCOC(=O)c1ccc(-c2c3nc(c(-c4c(F)cccc4F)c4ccc([nH]4)c(-c4c(F)cccc4F)c4nc(c(-c5c(F)cccc5F)c5ccc2[nH]5)C=C4)C=C3)cc1
REMARK SMILES IDX 16 1 15 2 13 3 14 4 2 5 1 6 3 7 4 8 5 10 6 11 7 12 12 13
REMARK SMILES IDX 8 14 11 15 9 16 10 17 17 20 18 21 19 22 20 23 21 24 22 25
REMARK SMILES IDX 74 26 23 27 73 28 24 29 25 30 26 31 67 32 27 33 72 34 66 35
REMARK SMILES IDX 68 36 28 37 71 38 65 39 64 40 29 42 55 43 38 44 54 45 39 46
REMARK SMILES IDX 42 47 53 48 69 49 40 50 41 51 52 53 70 54 43 55 30 56 31 57
REMARK SMILES IDX 36 58 32 59 33 60 35 61 37 62 34 63 56 64 57 65 62 66 58 67
REMARK SMILES IDX 59 68 61 69 63 70 60 71 44 72 45 73 50 74 46 75 47 76 49 77
REMARK SMILES IDX 51 78 48 79
REMARK H PARENT 3 9 10 18 10 19 68 41 42 52
REMARK Flexibility Score: inf
ROOT
ATOM      1  C   UNL A   1      32.114  28.650  25.001  1.00  0.00     0.274 C 
ENDROOT
BRANCH   1   2
ATOM      2  O   UNL A   1      30.963  27.787  25.106  1.00  0.00    -0.461 OA
BRANCH   2   3
ATOM      3  C   UNL A   1      31.025  26.836  26.078  1.00  0.00     0.328 C 
ATOM      4  O   UNL A   1      31.403  27.035  27.229  1.00  0.00    -0.250 OA
BRANCH   3   5
ATOM      5  C   UNL A   1      30.680  25.433  25.561  1.00  0.00     0.189 C 
ATOM      6  C   UNL A   1      29.934  25.605  24.240  1.00  0.00     0.043 C 
BRANCH   5   7
ATOM      7  N   UNL A   1      29.904  24.593  26.483  1.00  0.00    -0.339 N 
ATOM      8  C   UNL A   1      30.196  23.305  26.882  1.00  0.00     0.251 C 
ATOM      9  H   UNL A   1      29.086  24.993  26.857  1.00  0.00     0.164 HD
ATOM     10  O   UNL A   1      29.431  22.641  27.567  1.00  0.00    -0.269 OA
BRANCH   8  11
ATOM     11  C   UNL A   1      31.497  22.745  26.468  1.00  0.00     0.039 A 
ATOM     12  C   UNL A   1      31.574  22.038  25.268  1.00  0.00     0.016 A 
ATOM     13  C   UNL A   1      32.585  22.785  27.337  1.00  0.00     0.016 A 
ATOM     14  C   UNL A   1      32.699  21.257  25.000  1.00  0.00     0.026 A 
ATOM     15  C   UNL A   1      33.714  22.012  27.050  1.00  0.00     0.026 A 
ATOM     16  C   UNL A   1      33.770  21.224  25.895  1.00  0.00     0.031 A 
BRANCH  16  17
ATOM     17  N   UNL A   1      34.810  20.331  25.705  1.00  0.00    -0.399 N 
ATOM     18  H   UNL A   1      34.698  19.569  25.092  1.00  0.00     0.156 HD
ATOM     19  H   UNL A   1      35.662  20.458  26.182  1.00  0.00     0.156 HD
ENDBRANCH  16  17
ENDBRANCH   8  11
ENDBRANCH   5   7
ENDBRANCH   3   5
ENDBRANCH   2   3
ENDBRANCH   1   2
BRANCH   1  20
ATOM     20  C   UNL A   1      31.778  30.079  25.427  1.00  0.00     0.275 C 
BRANCH  20  21
ATOM     21  O   UNL A   1      32.125  30.311  26.804  1.00  0.00    -0.458 OA
BRANCH  21  22
ATOM     22  C   UNL A   1      32.721  31.505  27.034  1.00  0.00     0.338 C 
ATOM     23  O   UNL A   1      32.248  32.616  26.886  1.00  0.00    -0.246 OA
BRANCH  22  24
ATOM     24  C   UNL A   1      34.047  31.280  27.622  1.00  0.00     0.060 A 
ATOM     25  C   UNL A   1      34.439  29.966  27.868  1.00  0.00     0.016 A 
ATOM     26  C   UNL A   1      34.846  32.349  28.027  1.00  0.00     0.016 A 
ATOM     27  C   UNL A   1      35.623  29.711  28.556  1.00  0.00     0.010 A 
ATOM     28  C   UNL A   1      36.051  32.089  28.689  1.00  0.00     0.010 A 
ATOM     29  C   UNL A   1      36.442  30.769  28.975  1.00  0.00    -0.014 A 
BRANCH  29  30
ATOM     30  C   UNL A   1      37.698  30.492  29.718  1.00  0.00     0.031 A 
ATOM     31  C   UNL A   1      38.773  29.639  29.104  1.00  0.00     0.074 A 
ATOM     32  C   UNL A   1      37.873  31.004  30.952  1.00  0.00     0.049 A 
ATOM     33  N   UNL A   1      39.858  29.155  29.655  1.00  0.00    -0.248 NA
ATOM     34  C   UNL A   1      38.608  29.283  27.687  1.00  0.00     0.031 C 
ATOM     35  C   UNL A   1      36.931  31.883  31.644  1.00  0.00     0.029 A 
ATOM     36  N   UNL A   1      38.902  30.845  31.847  1.00  0.00    -0.354 N 
ATOM     37  C   UNL A   1      40.482  28.403  28.668  1.00  0.00     0.074 A 
ATOM     38  C   UNL A   1      39.659  28.500  27.480  1.00  0.00     0.031 C 
ATOM     39  C   UNL A   1      37.421  32.183  32.857  1.00  0.00     0.029 A 
ATOM     40  C   UNL A   1      38.676  31.464  33.053  1.00  0.00     0.049 A 
ATOM     41  H   UNL A   1      39.721  30.337  31.645  1.00  0.00     0.167 HD
ATOM     42  C   UNL A   1      41.633  27.695  28.750  1.00  0.00     0.037 A 
ATOM     43  C   UNL A   1      39.371  31.416  34.205  1.00  0.00     0.037 A 
ATOM     44  C   UNL A   1      42.474  27.637  29.915  1.00  0.00     0.049 A 
ATOM     45  C   UNL A   1      40.613  30.575  34.287  1.00  0.00     0.074 A 
ATOM     46  C   UNL A   1      43.689  26.990  30.070  1.00  0.00     0.029 A 
ATOM     47  N   UNL A   1      42.188  28.247  31.127  1.00  0.00    -0.354 N 
ATOM     48  N   UNL A   1      41.188  29.861  33.350  1.00  0.00    -0.248 NA
ATOM     49  C   UNL A   1      41.289  30.514  35.591  1.00  0.00     0.031 C 
ATOM     50  C   UNL A   1      44.119  27.177  31.389  1.00  0.00     0.029 A 
ATOM     51  C   UNL A   1      43.188  27.966  32.043  1.00  0.00     0.049 A 
ATOM     52  H   UNL A   1      41.393  28.799  31.308  1.00  0.00     0.167 HD
ATOM     53  C   UNL A   1      42.292  29.270  33.949  1.00  0.00     0.074 A 
ATOM     54  C   UNL A   1      42.319  29.725  35.324  1.00  0.00     0.031 C 
ATOM     55  C   UNL A   1      43.197  28.420  33.409  1.00  0.00     0.037 A 
BRANCH  42  56
ATOM     56  C   UNL A   1      42.046  26.893  27.552  1.00  0.00     0.057 A 
ATOM     57  C   UNL A   1      41.678  25.554  27.391  1.00  0.00     0.134 A 
ATOM     58  C   UNL A   1      42.765  27.499  26.514  1.00  0.00     0.134 A 
ATOM     59  F   UNL A   1      40.994  24.916  28.353  1.00  0.00    -0.206 F 
ATOM     60  C   UNL A   1      42.020  24.839  26.241  1.00  0.00     0.040 A 
ATOM     61  C   UNL A   1      43.098  26.801  25.352  1.00  0.00     0.040 A 
ATOM     62  F   UNL A   1      43.142  28.783  26.605  1.00  0.00    -0.206 F 
ATOM     63  C   UNL A   1      42.725  25.465  25.214  1.00  0.00     0.006 A 
ENDBRANCH  42  56
BRANCH  43  64
ATOM     64  C   UNL A   1      38.866  32.135  35.400  1.00  0.00     0.057 A 
ATOM     65  C   UNL A   1      38.149  31.469  36.400  1.00  0.00     0.134 A 
ATOM     66  C   UNL A   1      39.080  33.510  35.563  1.00  0.00     0.134 A 
ATOM     67  F   UNL A   1      37.892  30.159  36.286  1.00  0.00    -0.206 F 
ATOM     68  C   UNL A   1      37.658  32.147  37.517  1.00  0.00     0.040 A 
ATOM     69  C   UNL A   1      38.616  34.195  36.686  1.00  0.00     0.040 A 
ATOM     70  F   UNL A   1      39.758  34.204  34.636  1.00  0.00    -0.206 F 
ATOM     71  C   UNL A   1      37.897  33.512  37.665  1.00  0.00     0.006 A 
ENDBRANCH  43  64
BRANCH  55  72
ATOM     72  C   UNL A   1      44.295  27.931  34.304  1.00  0.00     0.057 A 
ATOM     73  C   UNL A   1      44.172  26.737  35.024  1.00  0.00     0.134 A 
ATOM     74  C   UNL A   1      45.498  28.638  34.417  1.00  0.00     0.134 A 
ATOM     75  F   UNL A   1      43.037  26.024  34.968  1.00  0.00    -0.206 F 
ATOM     76  C   UNL A   1      45.205  26.267  35.836  1.00  0.00     0.040 A 
ATOM     77  C   UNL A   1      46.545  28.170  35.210  1.00  0.00     0.040 A 
ATOM     78  F   UNL A   1      45.678  29.788  33.748  1.00  0.00    -0.206 F 
ATOM     79  C   UNL A   1      46.399  26.982  35.926  1.00  0.00     0.006 A 
ENDBRANCH  55  72
ENDBRANCH  29  30
ENDBRANCH  22  24
ENDBRANCH  21  22
ENDBRANCH  20  21
ENDBRANCH   1  20
TORSDOF 14
ENDMDL
MODEL 3
REMARK VINA RESULT:     -10.6      2.231      2.923
REMARK SMILES C[C@H](NC(=O)c1ccc(N)cc1)C(=O)OCCOC(=O)c1ccc(-c2c3nc(c(-c4c(F)cccc4F)c4ccc([nH]4)c(-c4c(F)cccc4F)c4nc(c(-c5c(F)cccc5F)c5ccc2[nH]5)C=C4)C=C3)cc1
REMARK SMILES IDX 16 1 15 2 13 3 14 4 2 5 1 6 3 7 4 8 5 10 6 11 7 12 12 13
REMARK SMILES IDX 8 14 11 15 9 16 10 17 17 20 18 21 19 22 20 23 21 24 22 25
REMARK SMILES IDX 74 26 23 27 73 28 24 29 25 30 26 31 67 32 27 33 72 34 66 35
REMARK SMILES IDX 68 36 28 37 71 38 65 39 64 40 29 42 55 43 38 44 54 45 39 46
REMARK SMILES IDX 42 47 53 48 69 49 40 50 41 51 52 53 70 54 43 55 30 56 31 57
REMARK SMILES IDX 36 58 32 59 33 60 35 61 37 62 34 63 56 64 57 65 62 66 58 67
REMARK SMILES IDX 59 68 61 69 63 70 60 71 44 72 45 73 50 74 46 75 47 76 49 77
REMARK SMILES IDX 51 78 48 79
REMARK H PARENT 3 9 10 18 10 19 68 41 42 52
REMARK Flexibility Score: inf
ROOT
ATOM      1  C   UNL A   1      31.778  30.714  26.744  1.00  0.00     0.274 C 
ENDROOT
BRANCH   1   2
ATOM      2  O   UNL A   1      32.843  30.453  25.808  1.00  0.00    -0.461 OA
BRANCH   2   3
ATOM      3  C   UNL A   1      33.607  29.358  26.071  1.00  0.00     0.328 C 
ATOM      4  O   UNL A   1      34.578  29.346  26.821  1.00  0.00    -0.250 OA
BRANCH   3   5
ATOM      5  C   UNL A   1      33.202  28.136  25.237  1.00  0.00     0.189 C 
ATOM      6  C   UNL A   1      33.585  26.892  26.034  1.00  0.00     0.043 C 
BRANCH   5   7
ATOM      7  N   UNL A   1      33.775  28.075  23.885  1.00  0.00    -0.339 N 
ATOM      8  C   UNL A   1      33.178  27.566  22.750  1.00  0.00     0.251 C 
ATOM      9  H   UNL A   1      34.684  28.437  23.778  1.00  0.00     0.164 HD
ATOM     10  O   UNL A   1      33.776  27.455  21.689  1.00  0.00    -0.269 OA
BRANCH   8  11
ATOM     11  C   UNL A   1      31.760  27.169  22.848  1.00  0.00     0.039 A 
ATOM     12  C   UNL A   1      30.778  28.155  22.747  1.00  0.00     0.016 A 
ATOM     13  C   UNL A   1      31.421  25.863  23.193  1.00  0.00     0.016 A 
ATOM     14  C   UNL A   1      29.467  27.861  23.126  1.00  0.00     0.026 A 
ATOM     15  C   UNL A   1      30.101  25.576  23.554  1.00  0.00     0.026 A 
ATOM     16  C   UNL A   1      29.121  26.575  23.548  1.00  0.00     0.031 A 
BRANCH  16  17
ATOM     17  N   UNL A   1      27.864  26.328  24.071  1.00  0.00    -0.399 N 
ATOM     18  H   UNL A   1      27.630  25.423  24.381  1.00  0.00     0.156 HD
ATOM     19  H   UNL A   1      27.205  27.056  24.132  1.00  0.00     0.156 HD
ENDBRANCH  16  17
ENDBRANCH   8  11
ENDBRANCH   5   7
ENDBRANCH   3   5
ENDBRANCH   2   3
ENDBRANCH   1   2
BRANCH   1  20
ATOM     20  C   UNL A   1      31.507  32.212  26.876  1.00  0.00     0.275 C 
BRANCH  20  21
ATOM     21  O   UNL A   1      32.709  32.982  26.690  1.00  0.00    -0.458 OA
BRANCH  21  22
ATOM     22  C   UNL A   1      33.110  33.663  27.788  1.00  0.00     0.338 C 
ATOM     23  O   UNL A   1      32.528  34.567  28.359  1.00  0.00    -0.246 OA
BRANCH  22  24
ATOM     24  C   UNL A   1      34.351  33.072  28.301  1.00  0.00     0.060 A 
ATOM     25  C   UNL A   1      34.259  31.889  29.032  1.00  0.00     0.016 A 
ATOM     26  C   UNL A   1      35.574  33.728  28.159  1.00  0.00     0.016 A 
ATOM     27  C   UNL A   1      35.389  31.371  29.659  1.00  0.00     0.010 A 
ATOM     28  C   UNL A   1      36.714  33.187  28.764  1.00  0.00     0.010 A 
ATOM     29  C   UNL A   1      36.629  32.013  29.533  1.00  0.00    -0.014 A 
BRANCH  29  30
ATOM     30  C   UNL A   1      37.829  31.462  30.214  1.00  0.00     0.031 A 
ATOM     31  C   UNL A   1      38.717  30.475  29.509  1.00  0.00     0.074 A 
ATOM     32  C   UNL A   1      38.119  31.844  31.473  1.00  0.00     0.049 A 
ATOM     33  N   UNL A   1      39.707  29.766  29.990  1.00  0.00    -0.248 NA
ATOM     34  C   UNL A   1      38.461  30.258  28.077  1.00  0.00     0.031 C 
ATOM     35  C   UNL A   1      37.367  32.826  32.253  1.00  0.00     0.029 A 
ATOM     36  N   UNL A   1      39.121  31.438  32.321  1.00  0.00    -0.354 N 
ATOM     37  C   UNL A   1      40.163  28.987  28.934  1.00  0.00     0.074 A 
ATOM     38  C   UNL A   1      39.347  29.315  27.784  1.00  0.00     0.031 C 
ATOM     39  C   UNL A   1      37.928  32.945  33.466  1.00  0.00     0.029 A 
ATOM     40  C   UNL A   1      39.036  32.000  33.572  1.00  0.00     0.049 A 
ATOM     41  H   UNL A   1      39.829  30.808  32.058  1.00  0.00     0.167 HD
ATOM     42  C   UNL A   1      41.168  28.079  28.931  1.00  0.00     0.037 A 
ATOM     43  C   UNL A   1      39.734  31.745  34.695  1.00  0.00     0.037 A 
ATOM     44  C   UNL A   1      42.008  27.786  30.061  1.00  0.00     0.049 A 
ATOM     45  C   UNL A   1      40.804  30.691  34.678  1.00  0.00     0.074 A 
ATOM     46  C   UNL A   1      43.088  26.922  30.132  1.00  0.00     0.029 A 
ATOM     47  N   UNL A   1      41.863  28.350  31.319  1.00  0.00    -0.354 N 
ATOM     48  N   UNL A   1      41.220  29.954  33.677  1.00  0.00    -0.248 NA
ATOM     49  C   UNL A   1      41.484  30.416  35.953  1.00  0.00     0.031 C 
ATOM     50  C   UNL A   1      43.572  26.933  31.445  1.00  0.00     0.029 A 
ATOM     51  C   UNL A   1      42.814  27.828  32.181  1.00  0.00     0.049 A 
ATOM     52  H   UNL A   1      41.186  29.021  31.563  1.00  0.00     0.167 HD
ATOM     53  C   UNL A   1      42.210  29.132  34.199  1.00  0.00     0.074 A 
ATOM     54  C   UNL A   1      42.347  29.475  35.599  1.00  0.00     0.031 C 
ATOM     55  C   UNL A   1      42.934  28.174  33.573  1.00  0.00     0.037 A 
BRANCH  42  56
ATOM     56  C   UNL A   1      41.403  27.304  27.669  1.00  0.00     0.057 A 
ATOM     57  C   UNL A   1      42.260  27.761  26.664  1.00  0.00     0.134 A 
ATOM     58  C   UNL A   1      40.811  26.045  27.496  1.00  0.00     0.134 A 
ATOM     59  F   UNL A   1      42.851  28.961  26.768  1.00  0.00    -0.206 F 
ATOM     60  C   UNL A   1      42.514  26.998  25.522  1.00  0.00     0.040 A 
ATOM     61  C   UNL A   1      41.071  25.265  26.368  1.00  0.00     0.040 A 
ATOM     62  F   UNL A   1      39.984  25.548  28.428  1.00  0.00    -0.206 F 
ATOM     63  C   UNL A   1      41.925  25.743  25.376  1.00  0.00     0.006 A 
ENDBRANCH  42  56
BRANCH  43  64
ATOM     64  C   UNL A   1      39.393  32.456  35.951  1.00  0.00     0.057 A 
ATOM     65  C   UNL A   1      40.032  33.647  36.308  1.00  0.00     0.134 A 
ATOM     66  C   UNL A   1      38.424  31.953  36.828  1.00  0.00     0.134 A 
ATOM     67  F   UNL A   1      40.986  34.164  35.520  1.00  0.00    -0.206 F 
ATOM     68  C   UNL A   1      39.724  34.310  37.498  1.00  0.00     0.040 A 
ATOM     69  C   UNL A   1      38.089  32.617  38.008  1.00  0.00     0.040 A 
ATOM     70  F   UNL A   1      37.778  30.811  36.542  1.00  0.00    -0.206 F 
ATOM     71  C   UNL A   1      38.745  33.798  38.347  1.00  0.00     0.006 A 
ENDBRANCH  43  64
BRANCH  55  72
ATOM     72  C   UNL A   1      43.942  27.433  34.396  1.00  0.00     0.057 A 
ATOM     73  C   UNL A   1      45.235  27.934  34.594  1.00  0.00     0.134 A 
ATOM     74  C   UNL A   1      43.608  26.229  35.029  1.00  0.00     0.134 A 
ATOM     75  F   UNL A   1      45.618  29.074  34.001  1.00  0.00    -0.206 F 
ATOM     76  C   UNL A   1      46.165  27.257  35.384  1.00  0.00     0.040 A 
ATOM     77  C   UNL A   1      44.522  25.553  35.836  1.00  0.00     0.040 A 
ATOM     78  F   UNL A   1      42.383  25.700  34.882  1.00  0.00    -0.206 F 
ATOM     79  C   UNL A   1      45.806  26.065  36.013  1.00  0.00     0.006 A 
ENDBRANCH  55  72
ENDBRANCH  29  30
ENDBRANCH  22  24
ENDBRANCH  21  22
ENDBRANCH  20  21
ENDBRANCH   1  20
TORSDOF 14
ENDMDL
