MODEL 1
REMARK VINA RESULT:      -9.2      0.000      0.000
REMARK SMILES [NH3+][C@]1(C(=O)OCCOC(=O)c2ccc(-c3c4nc(c(-c5c(F)cccc5F)c5ccc([nH]5)c(-c5c(F)cccc5F)c5nc(c(-c6c(F)cccc6F)c6ccc3[nH]6)C=C5)C=C4)cc2)CC[N@H+](Cc2ccccc2O)C1
REMARK SMILES IDX 6 1 5 2 3 3 4 4 2 5 65 6 76 7 66 8 67 9 1 11 68 15 69 16
REMARK SMILES IDX 70 17 74 18 71 19 73 20 72 21 75 22 7 24 8 25 9 26 10 27
REMARK SMILES IDX 11 28 12 29 64 30 13 31 63 32 14 33 15 34 16 35 57 36 17 37
REMARK SMILES IDX 62 38 56 39 58 40 18 41 61 42 55 43 54 44 19 46 45 47 28 48
REMARK SMILES IDX 44 49 29 50 32 51 43 52 59 53 30 54 31 55 42 57 60 58 33 59
REMARK SMILES IDX 20 60 21 61 26 62 22 63 23 64 25 65 27 66 24 67 46 68 47 69
REMARK SMILES IDX 52 70 48 71 49 72 51 73 53 74 50 75 34 76 35 77 40 78 36 79
REMARK SMILES IDX 37 80 39 81 41 82 38 83
REMARK H PARENT 67 10 1 12 1 13 1 14 75 23 58 45 32 56
REMARK Flexibility Score: inf
ROOT
ATOM      1  C   UNL A   1      34.213  33.936  29.448  1.00  0.00     0.274 C 
ENDROOT
BRANCH   1   2
ATOM      2  O   UNL A   1      33.994  33.242  30.692  1.00  0.00    -0.457 OA
BRANCH   2   3
ATOM      3  C   UNL A   1      34.719  33.706  31.748  1.00  0.00     0.374 C 
ATOM      4  O   UNL A   1      34.525  34.792  32.291  1.00  0.00    -0.244 OA
BRANCH   3   5
ATOM      5  C   UNL A   1      35.832  32.733  32.180  1.00  0.00     0.246 C 
ATOM      6  C   UNL A   1      37.160  33.187  31.577  1.00  0.00     0.148 C 
ATOM      7  C   UNL A   1      36.201  32.765  33.677  1.00  0.00     0.344 C 
ATOM      8  C   UNL A   1      38.218  32.510  32.423  1.00  0.00     0.270 C 
ATOM      9  N   UNL A   1      37.638  32.437  33.764  1.00  0.00    -0.325 N 
ATOM     10  H   UNL A   1      38.075  33.154  34.344  1.00  0.00     0.348 HD
BRANCH   5  11
ATOM     11  N   UNL A   1      35.472  31.372  31.707  1.00  0.00    -0.338 N 
ATOM     12  H   UNL A   1      35.087  31.429  30.765  1.00  0.00     0.345 HD
ATOM     13  H   UNL A   1      34.777  30.968  32.334  1.00  0.00     0.345 HD
ATOM     14  H   UNL A   1      36.305  30.783  31.699  1.00  0.00     0.345 HD
ENDBRANCH   5  11
BRANCH   9  15
ATOM     15  C   UNL A   1      38.014  31.277  34.570  1.00  0.00     0.303 C 
BRANCH  15  16
ATOM     16  C   UNL A   1      38.828  30.209  33.867  1.00  0.00     0.048 A 
ATOM     17  C   UNL A   1      40.232  30.285  33.941  1.00  0.00     0.013 A 
ATOM     18  C   UNL A   1      38.272  29.102  33.208  1.00  0.00     0.124 A 
ATOM     19  C   UNL A   1      41.043  29.257  33.454  1.00  0.00     0.001 A 
ATOM     20  C   UNL A   1      39.079  28.066  32.738  1.00  0.00     0.046 A 
ATOM     21  C   UNL A   1      40.463  28.137  32.872  1.00  0.00     0.004 A 
BRANCH  18  22
ATOM     22  O   UNL A   1      36.933  28.934  32.996  1.00  0.00    -0.507 OA
ATOM     23  H   UNL A   1      36.327  29.066  33.698  1.00  0.00     0.293 HD
ENDBRANCH  18  22
ENDBRANCH  15  16
ENDBRANCH   9  15
ENDBRANCH   3   5
ENDBRANCH   2   3
ENDBRANCH   1   2
BRANCH   1  24
ATOM     24  C   UNL A   1      34.578  32.948  28.341  1.00  0.00     0.275 C 
BRANCH  24  25
ATOM     25  O   UNL A   1      34.552  31.600  28.849  1.00  0.00    -0.458 OA
BRANCH  25  26
ATOM     26  C   UNL A   1      34.794  30.621  27.946  1.00  0.00     0.338 C 
ATOM     27  O   UNL A   1      34.050  30.248  27.054  1.00  0.00    -0.246 OA
BRANCH  26  28
ATOM     28  C   UNL A   1      36.126  30.017  28.170  1.00  0.00     0.060 A 
ATOM     29  C   UNL A   1      36.430  29.354  29.359  1.00  0.00     0.016 A 
ATOM     30  C   UNL A   1      37.128  30.227  27.221  1.00  0.00     0.016 A 
ATOM     31  C   UNL A   1      37.753  29.012  29.649  1.00  0.00     0.010 A 
ATOM     32  C   UNL A   1      38.427  29.766  27.461  1.00  0.00     0.010 A 
ATOM     33  C   UNL A   1      38.767  29.184  28.693  1.00  0.00    -0.014 A 
BRANCH  33  34
ATOM     34  C   UNL A   1      40.167  28.744  28.968  1.00  0.00     0.031 A 
ATOM     35  C   UNL A   1      41.151  29.664  29.649  1.00  0.00     0.074 A 
ATOM     36  C   UNL A   1      40.579  27.518  28.583  1.00  0.00     0.049 A 
ATOM     37  N   UNL A   1      42.449  29.537  29.779  1.00  0.00    -0.248 NA
ATOM     38  C   UNL A   1      40.608  30.892  30.248  1.00  0.00     0.031 C 
ATOM     39  C   UNL A   1      39.746  26.508  27.928  1.00  0.00     0.029 A 
ATOM     40  N   UNL A   1      41.806  26.912  28.689  1.00  0.00    -0.354 N 
ATOM     41  C   UNL A   1      42.885  30.696  30.410  1.00  0.00     0.074 A 
ATOM     42  C   UNL A   1      41.712  31.511  30.647  1.00  0.00     0.031 C 
ATOM     43  C   UNL A   1      40.469  25.396  27.734  1.00  0.00     0.029 A 
ATOM     44  C   UNL A   1      41.840  25.643  28.164  1.00  0.00     0.049 A 
ATOM     45  H   UNL A   1      42.589  27.345  29.102  1.00  0.00     0.167 HD
ATOM     46  C   UNL A   1      44.147  31.050  30.754  1.00  0.00     0.037 A 
ATOM     47  C   UNL A   1      42.860  24.782  28.000  1.00  0.00     0.037 A 
ATOM     48  C   UNL A   1      45.309  30.215  30.582  1.00  0.00     0.049 A 
ATOM     49  C   UNL A   1      44.244  25.189  28.402  1.00  0.00     0.074 A 
ATOM     50  C   UNL A   1      46.625  30.482  30.923  1.00  0.00     0.029 A 
ATOM     51  N   UNL A   1      45.292  28.939  30.038  1.00  0.00    -0.354 N 
ATOM     52  N   UNL A   1      44.650  26.315  28.933  1.00  0.00    -0.248 NA
ATOM     53  C   UNL A   1      45.316  24.214  28.159  1.00  0.00     0.031 C 
ATOM     54  C   UNL A   1      47.406  29.377  30.568  1.00  0.00     0.029 A 
ATOM     55  C   UNL A   1      46.572  28.409  30.032  1.00  0.00     0.049 A 
ATOM     56  H   UNL A   1      44.487  28.479  29.705  1.00  0.00     0.167 HD
ATOM     57  C   UNL A   1      46.023  26.190  29.081  1.00  0.00     0.074 A 
ATOM     58  C   UNL A   1      46.378  24.866  28.613  1.00  0.00     0.031 C 
ATOM     59  C   UNL A   1      46.913  27.097  29.551  1.00  0.00     0.037 A 
BRANCH  46  60
ATOM     60  C   UNL A   1      44.352  32.420  31.334  1.00  0.00     0.057 A 
ATOM     61  C   UNL A   1      44.614  33.536  30.534  1.00  0.00     0.134 A 
ATOM     62  C   UNL A   1      44.230  32.627  32.715  1.00  0.00     0.134 A 
ATOM     63  F   UNL A   1      44.754  33.403  29.206  1.00  0.00    -0.206 F 
ATOM     64  C   UNL A   1      44.761  34.811  31.086  1.00  0.00     0.040 A 
ATOM     65  C   UNL A   1      44.355  33.899  33.277  1.00  0.00     0.040 A 
ATOM     66  F   UNL A   1      43.972  31.599  33.538  1.00  0.00    -0.206 F 
ATOM     67  C   UNL A   1      44.624  34.995  32.461  1.00  0.00     0.006 A 
ENDBRANCH  46  60
BRANCH  47  68
ATOM     68  C   UNL A   1      42.607  23.457  27.385  1.00  0.00     0.057 A 
ATOM     69  C   UNL A   1      42.747  23.264  26.006  1.00  0.00     0.134 A 
ATOM     70  C   UNL A   1      42.248  22.348  28.162  1.00  0.00     0.134 A 
ATOM     71  F   UNL A   1      43.065  24.294  25.210  1.00  0.00    -0.206 F 
ATOM     72  C   UNL A   1      42.539  22.015  25.421  1.00  0.00     0.040 A 
ATOM     73  C   UNL A   1      42.060  21.089  27.594  1.00  0.00     0.040 A 
ATOM     74  F   UNL A   1      42.103  22.471  29.490  1.00  0.00    -0.206 F 
ATOM     75  C   UNL A   1      42.203  20.921  26.217  1.00  0.00     0.006 A 
ENDBRANCH  47  68
BRANCH  59  76
ATOM     76  C   UNL A   1      48.349  26.675  29.584  1.00  0.00     0.057 A 
ATOM     77  C   UNL A   1      48.873  25.948  30.660  1.00  0.00     0.134 A 
ATOM     78  C   UNL A   1      49.216  27.002  28.535  1.00  0.00     0.134 A 
ATOM     79  F   UNL A   1      48.095  25.620  31.702  1.00  0.00    -0.206 F 
ATOM     80  C   UNL A   1      50.218  25.581  30.702  1.00  0.00     0.040 A 
ATOM     81  C   UNL A   1      50.560  26.625  28.558  1.00  0.00     0.040 A 
ATOM     82  F   UNL A   1      48.773  27.696  27.475  1.00  0.00    -0.206 F 
ATOM     83  C   UNL A   1      51.066  25.918  29.648  1.00  0.00     0.006 A 
ENDBRANCH  59  76
ENDBRANCH  33  34
ENDBRANCH  26  28
ENDBRANCH  25  26
ENDBRANCH  24  25
ENDBRANCH   1  24
TORSDOF 15
ENDMDL
MODEL 2
REMARK VINA RESULT:      -9.1      4.444      9.126
REMARK SMILES [NH3+][C@]1(C(=O)OCCOC(=O)c2ccc(-c3c4nc(c(-c5c(F)cccc5F)c5ccc([nH]5)c(-c5c(F)cccc5F)c5nc(c(-c6c(F)cccc6F)c6ccc3[nH]6)C=C5)C=C4)cc2)CC[N@H+](Cc2ccccc2O)C1
REMARK SMILES IDX 6 1 5 2 3 3 4 4 2 5 65 6 76 7 66 8 67 9 1 11 68 15 69 16
REMARK SMILES IDX 70 17 74 18 71 19 73 20 72 21 75 22 7 24 8 25 9 26 10 27
REMARK SMILES IDX 11 28 12 29 64 30 13 31 63 32 14 33 15 34 16 35 57 36 17 37
REMARK SMILES IDX 62 38 56 39 58 40 18 41 61 42 55 43 54 44 19 46 45 47 28 48
REMARK SMILES IDX 44 49 29 50 32 51 43 52 59 53 30 54 31 55 42 57 60 58 33 59
REMARK SMILES IDX 20 60 21 61 26 62 22 63 23 64 25 65 27 66 24 67 46 68 47 69
REMARK SMILES IDX 52 70 48 71 49 72 51 73 53 74 50 75 34 76 35 77 40 78 36 79
REMARK SMILES IDX 37 80 39 81 41 82 38 83
REMARK H PARENT 67 10 1 12 1 13 1 14 75 23 58 45 32 56
REMARK Flexibility Score: inf
ROOT
ATOM      1  C   UNL A   1      32.109  28.641  25.000  1.00  0.00     0.274 C 
ENDROOT
BRANCH   1   2
ATOM      2  O   UNL A   1      30.993  27.728  25.027  1.00  0.00    -0.457 OA
BRANCH   2   3
ATOM      3  C   UNL A   1      31.024  26.807  26.031  1.00  0.00     0.374 C 
ATOM      4  O   UNL A   1      31.044  27.093  27.226  1.00  0.00    -0.244 OA
BRANCH   3   5
ATOM      5  C   UNL A   1      31.058  25.359  25.508  1.00  0.00     0.246 C 
ATOM      6  C   UNL A   1      30.498  25.321  24.089  1.00  0.00     0.148 C 
ATOM      7  C   UNL A   1      32.463  24.776  25.250  1.00  0.00     0.344 C 
ATOM      8  C   UNL A   1      31.017  24.024  23.504  1.00  0.00     0.270 C 
ATOM      9  N   UNL A   1      32.326  23.828  24.128  1.00  0.00    -0.325 N 
ATOM     10  H   UNL A   1      33.047  24.063  23.446  1.00  0.00     0.348 HD
BRANCH   5  11
ATOM     11  N   UNL A   1      30.247  24.513  26.422  1.00  0.00    -0.338 N 
ATOM     12  H   UNL A   1      30.319  24.873  27.373  1.00  0.00     0.345 HD
ATOM     13  H   UNL A   1      30.594  23.554  26.395  1.00  0.00     0.345 HD
ATOM     14  H   UNL A   1      29.271  24.530  26.124  1.00  0.00     0.345 HD
ENDBRANCH   5  11
BRANCH   9  15
ATOM     15  C   UNL A   1      32.728  22.442  24.367  1.00  0.00     0.303 C 
BRANCH  15  16
ATOM     16  C   UNL A   1      34.212  22.151  24.274  1.00  0.00     0.048 A 
ATOM     17  C   UNL A   1      35.008  22.992  23.472  1.00  0.00     0.013 A 
ATOM     18  C   UNL A   1      34.863  21.140  24.998  1.00  0.00     0.124 A 
ATOM     19  C   UNL A   1      36.400  22.883  23.461  1.00  0.00     0.001 A 
ATOM     20  C   UNL A   1      36.254  21.041  25.003  1.00  0.00     0.046 A 
ATOM     21  C   UNL A   1      37.024  21.920  24.245  1.00  0.00     0.004 A 
BRANCH  18  22
ATOM     22  O   UNL A   1      34.214  20.207  25.757  1.00  0.00    -0.507 OA
ATOM     23  H   UNL A   1      34.465  20.073  26.649  1.00  0.00     0.293 HD
ENDBRANCH  18  22
ENDBRANCH  15  16
ENDBRANCH   9  15
ENDBRANCH   3   5
ENDBRANCH   2   3
ENDBRANCH   1   2
BRANCH   1  24
ATOM     24  C   UNL A   1      31.658  30.049  25.385  1.00  0.00     0.275 C 
BRANCH  24  25
ATOM     25  O   UNL A   1      31.938  30.299  26.776  1.00  0.00    -0.458 OA
BRANCH  25  26
ATOM     26  C   UNL A   1      32.603  31.445  27.050  1.00  0.00     0.338 C 
ATOM     27  O   UNL A   1      32.202  32.584  26.875  1.00  0.00    -0.246 OA
BRANCH  26  28
ATOM     28  C   UNL A   1      33.941  31.155  27.609  1.00  0.00     0.060 A 
ATOM     29  C   UNL A   1      34.365  29.846  27.836  1.00  0.00     0.016 A 
ATOM     30  C   UNL A   1      34.740  32.221  28.029  1.00  0.00     0.016 A 
ATOM     31  C   UNL A   1      35.517  29.605  28.586  1.00  0.00     0.010 A 
ATOM     32  C   UNL A   1      35.960  31.972  28.668  1.00  0.00     0.010 A 
ATOM     33  C   UNL A   1      36.350  30.661  28.987  1.00  0.00    -0.014 A 
BRANCH  33  34
ATOM     34  C   UNL A   1      37.626  30.402  29.718  1.00  0.00     0.031 A 
ATOM     35  C   UNL A   1      38.736  29.602  29.082  1.00  0.00     0.074 A 
ATOM     36  C   UNL A   1      37.791  30.862  30.975  1.00  0.00     0.049 A 
ATOM     37  N   UNL A   1      39.816  29.102  29.633  1.00  0.00    -0.248 NA
ATOM     38  C   UNL A   1      38.610  29.313  27.646  1.00  0.00     0.031 C 
ATOM     39  C   UNL A   1      36.819  31.663  31.723  1.00  0.00     0.029 A 
ATOM     40  N   UNL A   1      38.841  30.723  31.850  1.00  0.00    -0.354 N 
ATOM     41  C   UNL A   1      40.459  28.384  28.631  1.00  0.00     0.074 A 
ATOM     42  C   UNL A   1      39.654  28.522  27.434  1.00  0.00     0.031 C 
ATOM     43  C   UNL A   1      37.334  31.983  32.919  1.00  0.00     0.029 A 
ATOM     44  C   UNL A   1      38.632  31.334  33.062  1.00  0.00     0.049 A 
ATOM     45  H   UNL A   1      39.665  30.231  31.629  1.00  0.00     0.167 HD
ATOM     46  C   UNL A   1      41.609  27.671  28.703  1.00  0.00     0.037 A 
ATOM     47  C   UNL A   1      39.371  31.342  34.186  1.00  0.00     0.037 A 
ATOM     48  C   UNL A   1      42.448  27.586  29.872  1.00  0.00     0.049 A 
ATOM     49  C   UNL A   1      40.647  30.559  34.238  1.00  0.00     0.074 A 
ATOM     50  C   UNL A   1      43.644  26.905  30.030  1.00  0.00     0.029 A 
ATOM     51  N   UNL A   1      42.189  28.217  31.079  1.00  0.00    -0.354 N 
ATOM     52  N   UNL A   1      41.205  29.830  33.304  1.00  0.00    -0.248 NA
ATOM     53  C   UNL A   1      41.384  30.582  35.509  1.00  0.00     0.031 C 
ATOM     54  C   UNL A   1      44.099  27.110  31.338  1.00  0.00     0.029 A 
ATOM     55  C   UNL A   1      43.201  27.941  31.985  1.00  0.00     0.049 A 
ATOM     56  H   UNL A   1      41.402  28.780  31.264  1.00  0.00     0.167 HD
ATOM     57  C   UNL A   1      42.353  29.299  33.874  1.00  0.00     0.074 A 
ATOM     58  C   UNL A   1      42.429  29.816  35.225  1.00  0.00     0.031 C 
ATOM     59  C   UNL A   1      43.256  28.450  33.329  1.00  0.00     0.037 A 
BRANCH  46  60
ATOM     60  C   UNL A   1      42.026  26.897  27.487  1.00  0.00     0.057 A 
ATOM     61  C   UNL A   1      42.811  27.462  26.477  1.00  0.00     0.134 A 
ATOM     62  C   UNL A   1      41.679  25.545  27.358  1.00  0.00     0.134 A 
ATOM     63  F   UNL A   1      43.167  28.755  26.535  1.00  0.00    -0.206 F 
ATOM     64  C   UNL A   1      43.225  26.715  25.371  1.00  0.00     0.040 A 
ATOM     65  C   UNL A   1      42.104  24.783  26.268  1.00  0.00     0.040 A 
ATOM     66  F   UNL A   1      40.935  24.940  28.296  1.00  0.00    -0.206 F 
ATOM     67  C   UNL A   1      42.878  25.369  25.269  1.00  0.00     0.006 A 
ENDBRANCH  46  60
BRANCH  47  68
ATOM     68  C   UNL A   1      38.891  32.092  35.371  1.00  0.00     0.057 A 
ATOM     69  C   UNL A   1      39.131  33.464  35.502  1.00  0.00     0.134 A 
ATOM     70  C   UNL A   1      38.158  31.462  36.385  1.00  0.00     0.134 A 
ATOM     71  F   UNL A   1      39.847  34.114  34.574  1.00  0.00    -0.206 F 
ATOM     72  C   UNL A   1      38.659  34.184  36.599  1.00  0.00     0.040 A 
ATOM     73  C   UNL A   1      37.660  32.174  37.475  1.00  0.00     0.040 A 
ATOM     74  F   UNL A   1      37.894  30.149  36.313  1.00  0.00    -0.206 F 
ATOM     75  C   UNL A   1      37.913  33.540  37.585  1.00  0.00     0.006 A 
ENDBRANCH  47  68
BRANCH  59  76
ATOM     76  C   UNL A   1      44.402  28.038  34.202  1.00  0.00     0.057 A 
ATOM     77  C   UNL A   1      45.587  28.783  34.252  1.00  0.00     0.134 A 
ATOM     78  C   UNL A   1      44.323  26.886  34.993  1.00  0.00     0.134 A 
ATOM     79  F   UNL A   1      45.728  29.887  33.504  1.00  0.00    -0.206 F 
ATOM     80  C   UNL A   1      46.664  28.383  35.043  1.00  0.00     0.040 A 
ATOM     81  C   UNL A   1      45.388  26.485  35.801  1.00  0.00     0.040 A 
ATOM     82  F   UNL A   1      43.214  26.131  34.989  1.00  0.00    -0.206 F 
ATOM     83  C   UNL A   1      46.565  27.231  35.822  1.00  0.00     0.006 A 
ENDBRANCH  59  76
ENDBRANCH  33  34
ENDBRANCH  26  28
ENDBRANCH  25  26
ENDBRANCH  24  25
ENDBRANCH   1  24
TORSDOF 15
ENDMDL
MODEL 3
REMARK VINA RESULT:      -9.1      4.435     10.074
REMARK SMILES [NH3+][C@]1(C(=O)OCCOC(=O)c2ccc(-c3c4nc(c(-c5c(F)cccc5F)c5ccc([nH]5)c(-c5c(F)cccc5F)c5nc(c(-c6c(F)cccc6F)c6ccc3[nH]6)C=C5)C=C4)cc2)CC[N@H+](Cc2ccccc2O)C1
REMARK SMILES IDX 6 1 5 2 3 3 4 4 2 5 65 6 76 7 66 8 67 9 1 11 68 15 69 16
REMARK SMILES IDX 70 17 74 18 71 19 73 20 72 21 75 22 7 24 8 25 9 26 10 27
REMARK SMILES IDX 11 28 12 29 64 30 13 31 63 32 14 33 15 34 16 35 57 36 17 37
REMARK SMILES IDX 62 38 56 39 58 40 18 41 61 42 55 43 54 44 19 46 45 47 28 48
REMARK SMILES IDX 44 49 29 50 32 51 43 52 59 53 30 54 31 55 42 57 60 58 33 59
REMARK SMILES IDX 20 60 21 61 26 62 22 63 23 64 25 65 27 66 24 67 46 68 47 69
REMARK SMILES IDX 52 70 48 71 49 72 51 73 53 74 50 75 34 76 35 77 40 78 36 79
REMARK SMILES IDX 37 80 39 81 41 82 38 83
REMARK H PARENT 67 10 1 12 1 13 1 14 75 23 58 45 32 56
REMARK Flexibility Score: inf
ROOT
ATOM      1  C   UNL A   1      33.271  31.699  27.377  1.00  0.00     0.274 C 
ENDROOT
BRANCH   1   2
ATOM      2  O   UNL A   1      32.653  30.703  26.538  1.00  0.00    -0.457 OA
BRANCH   2   3
ATOM      3  C   UNL A   1      33.386  29.571  26.348  1.00  0.00     0.374 C 
ATOM      4  O   UNL A   1      34.274  29.191  27.109  1.00  0.00    -0.244 OA
BRANCH   3   5
ATOM      5  C   UNL A   1      33.003  28.823  25.058  1.00  0.00     0.246 C 
ATOM      6  C   UNL A   1      33.464  27.371  25.160  1.00  0.00     0.148 C 
ATOM      7  C   UNL A   1      31.492  28.602  24.839  1.00  0.00     0.344 C 
ATOM      8  C   UNL A   1      32.638  26.631  24.128  1.00  0.00     0.270 C 
ATOM      9  N   UNL A   1      31.355  27.331  24.101  1.00  0.00    -0.325 N 
ATOM     10  H   UNL A   1      30.669  26.766  24.602  1.00  0.00     0.348 HD
BRANCH   5  11
ATOM     11  N   UNL A   1      33.654  29.507  23.910  1.00  0.00    -0.338 N 
ATOM     12  H   UNL A   1      34.664  29.377  23.965  1.00  0.00     0.345 HD
ATOM     13  H   UNL A   1      33.437  30.503  23.942  1.00  0.00     0.345 HD
ATOM     14  H   UNL A   1      33.307  29.111  23.037  1.00  0.00     0.345 HD
ENDBRANCH   5  11
BRANCH   9  15
ATOM     15  C   UNL A   1      30.668  27.376  22.811  1.00  0.00     0.303 C 
BRANCH  15  16
ATOM     16  C   UNL A   1      29.625  28.463  22.645  1.00  0.00     0.048 A 
ATOM     17  C   UNL A   1      28.322  28.216  23.121  1.00  0.00     0.013 A 
ATOM     18  C   UNL A   1      29.891  29.735  22.115  1.00  0.00     0.124 A 
ATOM     19  C   UNL A   1      27.354  29.221  23.145  1.00  0.00     0.001 A 
ATOM     20  C   UNL A   1      28.931  30.746  22.155  1.00  0.00     0.046 A 
ATOM     21  C   UNL A   1      27.667  30.493  22.682  1.00  0.00     0.004 A 
BRANCH  18  22
ATOM     22  O   UNL A   1      31.084  30.092  21.552  1.00  0.00    -0.507 OA
ATOM     23  H   UNL A   1      31.829  29.530  21.637  1.00  0.00     0.293 HD
ENDBRANCH  18  22
ENDBRANCH  15  16
ENDBRANCH   9  15
ENDBRANCH   3   5
ENDBRANCH   2   3
ENDBRANCH   1   2
BRANCH   1  24
ATOM     24  C   UNL A   1      32.315  32.868  27.612  1.00  0.00     0.275 C 
BRANCH  24  25
ATOM     25  O   UNL A   1      33.025  34.119  27.513  1.00  0.00    -0.458 OA
BRANCH  25  26
ATOM     26  C   UNL A   1      33.159  34.818  28.663  1.00  0.00     0.338 C 
ATOM     27  O   UNL A   1      32.409  35.683  29.086  1.00  0.00    -0.246 OA
BRANCH  26  28
ATOM     28  C   UNL A   1      34.378  34.404  29.391  1.00  0.00     0.060 A 
ATOM     29  C   UNL A   1      35.639  34.486  28.800  1.00  0.00     0.016 A 
ATOM     30  C   UNL A   1      34.242  33.806  30.645  1.00  0.00     0.016 A 
ATOM     31  C   UNL A   1      36.735  33.865  29.403  1.00  0.00     0.010 A 
ATOM     32  C   UNL A   1      35.367  33.299  31.305  1.00  0.00     0.010 A 
ATOM     33  C   UNL A   1      36.624  33.289  30.678  1.00  0.00    -0.014 A 
BRANCH  33  34
ATOM     34  C   UNL A   1      37.812  32.698  31.362  1.00  0.00     0.031 A 
ATOM     35  C   UNL A   1      38.547  31.522  30.765  1.00  0.00     0.074 A 
ATOM     36  C   UNL A   1      38.230  33.195  32.545  1.00  0.00     0.049 A 
ATOM     37  N   UNL A   1      39.456  30.751  31.310  1.00  0.00    -0.248 NA
ATOM     38  C   UNL A   1      38.204  31.156  29.383  1.00  0.00     0.031 C 
ATOM     39  C   UNL A   1      37.636  34.336  33.244  1.00  0.00     0.029 A 
ATOM     40  N   UNL A   1      39.255  32.804  33.370  1.00  0.00    -0.354 N 
ATOM     41  C   UNL A   1      39.743  29.772  30.367  1.00  0.00     0.074 A 
ATOM     42  C   UNL A   1      38.918  30.051  29.209  1.00  0.00     0.031 C 
ATOM     43  C   UNL A   1      38.333  34.582  34.363  1.00  0.00     0.029 A 
ATOM     44  C   UNL A   1      39.364  33.561  34.510  1.00  0.00     0.049 A 
ATOM     45  H   UNL A   1      39.856  32.051  33.163  1.00  0.00     0.167 HD
ATOM     46  C   UNL A   1      40.607  28.733  30.459  1.00  0.00     0.037 A 
ATOM     47  C   UNL A   1      40.166  33.434  35.582  1.00  0.00     0.037 A 
ATOM     48  C   UNL A   1      41.478  28.488  31.581  1.00  0.00     0.049 A 
ATOM     49  C   UNL A   1      41.126  32.286  35.655  1.00  0.00     0.074 A 
ATOM     50  C   UNL A   1      42.405  27.472  31.751  1.00  0.00     0.029 A 
ATOM     51  N   UNL A   1      41.545  29.281  32.717  1.00  0.00    -0.354 N 
ATOM     52  N   UNL A   1      41.334  31.329  34.785  1.00  0.00    -0.248 NA
ATOM     53  C   UNL A   1      41.944  32.186  36.871  1.00  0.00     0.031 C 
ATOM     54  C   UNL A   1      43.019  27.640  32.998  1.00  0.00     0.029 A 
ATOM     55  C   UNL A   1      42.495  28.776  33.592  1.00  0.00     0.049 A 
ATOM     56  H   UNL A   1      40.999  30.084  32.877  1.00  0.00     0.167 HD
ATOM     57  C   UNL A   1      42.300  30.509  35.350  1.00  0.00     0.074 A 
ATOM     58  C   UNL A   1      42.660  31.097  36.623  1.00  0.00     0.031 C 
ATOM     59  C   UNL A   1      42.832  29.364  34.860  1.00  0.00     0.037 A 
BRANCH  46  60
ATOM     60  C   UNL A   1      40.643  27.753  29.322  1.00  0.00     0.057 A 
ATOM     61  C   UNL A   1      41.604  27.823  28.309  1.00  0.00     0.134 A 
ATOM     62  C   UNL A   1      39.730  26.690  29.277  1.00  0.00     0.134 A 
ATOM     63  F   UNL A   1      42.499  28.822  28.288  1.00  0.00    -0.206 F 
ATOM     64  C   UNL A   1      41.649  26.878  27.280  1.00  0.00     0.040 A 
ATOM     65  C   UNL A   1      39.777  25.729  28.266  1.00  0.00     0.040 A 
ATOM     66  F   UNL A   1      38.787  26.561  30.223  1.00  0.00    -0.206 F 
ATOM     67  C   UNL A   1      40.738  25.823  27.262  1.00  0.00     0.006 A 
ENDBRANCH  46  60
BRANCH  47  68
ATOM     68  C   UNL A   1      40.061  34.407  36.695  1.00  0.00     0.057 A 
ATOM     69  C   UNL A   1      40.778  35.608  36.671  1.00  0.00     0.134 A 
ATOM     70  C   UNL A   1      39.221  34.174  37.790  1.00  0.00     0.134 A 
ATOM     71  F   UNL A   1      41.615  35.875  35.659  1.00  0.00    -0.206 F 
ATOM     72  C   UNL A   1      40.663  36.544  37.700  1.00  0.00     0.040 A 
ATOM     73  C   UNL A   1      39.078  35.111  38.813  1.00  0.00     0.040 A 
ATOM     74  F   UNL A   1      38.505  33.042  37.866  1.00  0.00    -0.206 F 
ATOM     75  C   UNL A   1      39.804  36.300  38.770  1.00  0.00     0.006 A 
ENDBRANCH  47  68
BRANCH  59  76
ATOM     76  C   UNL A   1      43.862  28.684  35.710  1.00  0.00     0.057 A 
ATOM     77  C   UNL A   1      45.224  28.988  35.590  1.00  0.00     0.134 A 
ATOM     78  C   UNL A   1      43.490  27.717  36.650  1.00  0.00     0.134 A 
ATOM     79  F   UNL A   1      45.642  29.894  34.695  1.00  0.00    -0.206 F 
ATOM     80  C   UNL A   1      46.184  28.333  36.362  1.00  0.00     0.040 A 
ATOM     81  C   UNL A   1      44.440  27.068  37.440  1.00  0.00     0.040 A 
ATOM     82  F   UNL A   1      42.201  27.384  36.813  1.00  0.00    -0.206 F 
ATOM     83  C   UNL A   1      45.793  27.371  37.292  1.00  0.00     0.006 A 
ENDBRANCH  59  76
ENDBRANCH  33  34
ENDBRANCH  26  28
ENDBRANCH  25  26
ENDBRANCH  24  25
ENDBRANCH   1  24
TORSDOF 15
ENDMDL
