MODEL 1
REMARK VINA RESULT:     -12.6      0.000      0.000
REMARK SMILES CC(C)(C)c1cc(Nc2ccccc2C(=O)OCCOC(=O)c2ccc(-c3c4nc(c(-c5c(F)cccc5F)c5ccc([nH]5)c(-c5c(F)cccc5F)c5nc(c(-c6c(F)cccc6F)c6ccc3[nH]6)C=C5)C=C4)cc2)cc2c1OCC2(C)C
REMARK SMILES IDX 18 1 17 2 15 3 16 4 14 5 9 6 10 7 11 8 13 9 12 10 8 11 7 13
REMARK SMILES IDX 5 14 6 15 79 16 78 17 80 18 77 19 82 20 81 21 83 22 84 23
REMARK SMILES IDX 2 24 1 25 3 26 4 27 19 28 20 29 21 30 22 31 23 32 24 33
REMARK SMILES IDX 76 34 25 35 75 36 26 37 27 38 28 39 69 40 29 41 74 42 68 43
REMARK SMILES IDX 70 44 30 45 73 46 67 47 66 48 31 50 57 51 40 52 56 53 41 54
REMARK SMILES IDX 44 55 55 56 71 57 42 58 43 59 54 61 72 62 45 63 32 64 33 65
REMARK SMILES IDX 38 66 34 67 35 68 37 69 39 70 36 71 58 72 59 73 64 74 60 75
REMARK SMILES IDX 61 76 63 77 65 78 62 79 46 80 47 81 52 82 48 83 49 84 51 85
REMARK SMILES IDX 53 86 50 87
REMARK H PARENT 8 12 70 49 44 60
REMARK Flexibility Score: inf
ROOT
ATOM      1  C   UNL A   1      42.274  19.221  26.724  1.00  0.00     0.275 C 
ENDROOT
BRANCH   1   2
ATOM      2  O   UNL A   1      41.535  20.251  26.036  1.00  0.00    -0.458 OA
BRANCH   2   3
ATOM      3  C   UNL A   1      40.196  20.087  25.904  1.00  0.00     0.340 C 
ATOM      4  O   UNL A   1      39.628  19.026  25.698  1.00  0.00    -0.246 OA
BRANCH   3   5
ATOM      5  C   UNL A   1      39.459  21.367  26.127  1.00  0.00     0.083 A 
ATOM      6  C   UNL A   1      38.193  21.663  25.584  1.00  0.00     0.053 A 
ATOM      7  C   UNL A   1      37.657  22.949  25.816  1.00  0.00     0.027 A 
ATOM      8  C   UNL A   1      38.367  23.929  26.510  1.00  0.00     0.002 A 
ATOM      9  C   UNL A   1      40.133  22.344  26.889  1.00  0.00     0.018 A 
ATOM     10  C   UNL A   1      39.610  23.628  27.046  1.00  0.00     0.001 A 
BRANCH   6  11
ATOM     11  N   UNL A   1      37.499  20.764  24.746  1.00  0.00    -0.355 N 
ATOM     12  H   UNL A   1      38.038  20.326  24.048  1.00  0.00     0.167 HD
BRANCH  11  13
ATOM     13  C   UNL A   1      36.134  20.413  24.775  1.00  0.00     0.039 A 
ATOM     14  C   UNL A   1      33.762  21.148  24.725  1.00  0.00     0.002 A 
ATOM     15  C   UNL A   1      35.151  21.425  24.770  1.00  0.00     0.034 A 
ATOM     16  C   UNL A   1      33.426  19.799  24.591  1.00  0.00     0.127 A 
ATOM     17  C   UNL A   1      34.379  18.793  24.611  1.00  0.00     0.006 A 
ATOM     18  O   UNL A   1      32.164  19.312  24.373  1.00  0.00    -0.492 OA
ATOM     19  C   UNL A   1      35.722  19.084  24.735  1.00  0.00     0.034 A 
ATOM     20  C   UNL A   1      33.763  17.455  24.401  1.00  0.00     0.028 C 
ATOM     21  C   UNL A   1      32.281  17.869  24.404  1.00  0.00     0.240 C 
ATOM     22  C   UNL A   1      34.197  16.872  23.049  1.00  0.00     0.020 C 
ATOM     23  C   UNL A   1      34.085  16.473  25.530  1.00  0.00     0.020 C 
BRANCH  14  24
ATOM     24  C   UNL A   1      32.725  22.285  24.766  1.00  0.00    -0.009 C 
ATOM     25  C   UNL A   1      33.350  23.633  25.212  1.00  0.00     0.016 C 
ATOM     26  C   UNL A   1      31.569  22.017  25.759  1.00  0.00     0.016 C 
ATOM     27  C   UNL A   1      32.140  22.464  23.354  1.00  0.00     0.016 C 
ENDBRANCH  14  24
ENDBRANCH  11  13
ENDBRANCH   6  11
ENDBRANCH   3   5
ENDBRANCH   2   3
ENDBRANCH   1   2
BRANCH   1  28
ATOM     28  C   UNL A   1      43.198  18.472  25.761  1.00  0.00     0.275 C 
BRANCH  28  29
ATOM     29  O   UNL A   1      43.427  19.253  24.575  1.00  0.00    -0.458 OA
BRANCH  29  30
ATOM     30  C   UNL A   1      44.711  19.603  24.340  1.00  0.00     0.338 C 
ATOM     31  O   UNL A   1      45.573  18.955  23.765  1.00  0.00    -0.246 OA
BRANCH  30  32
ATOM     32  C   UNL A   1      44.886  21.008  24.731  1.00  0.00     0.060 A 
ATOM     33  C   UNL A   1      44.567  22.064  23.878  1.00  0.00     0.016 A 
ATOM     34  C   UNL A   1      45.362  21.255  26.017  1.00  0.00     0.016 A 
ATOM     35  C   UNL A   1      44.763  23.378  24.321  1.00  0.00     0.010 A 
ATOM     36  C   UNL A   1      45.552  22.561  26.460  1.00  0.00     0.010 A 
ATOM     37  C   UNL A   1      45.264  23.637  25.612  1.00  0.00    -0.014 A 
BRANCH  37  38
ATOM     38  C   UNL A   1      45.441  25.025  26.108  1.00  0.00     0.031 A 
ATOM     39  C   UNL A   1      46.792  25.686  26.098  1.00  0.00     0.074 A 
ATOM     40  C   UNL A   1      44.385  25.670  26.639  1.00  0.00     0.049 A 
ATOM     41  N   UNL A   1      47.121  26.898  26.470  1.00  0.00    -0.248 NA
ATOM     42  C   UNL A   1      47.927  24.872  25.636  1.00  0.00     0.031 C 
ATOM     43  C   UNL A   1      43.044  25.104  26.795  1.00  0.00     0.029 A 
ATOM     44  N   UNL A   1      44.274  26.938  27.149  1.00  0.00    -0.354 N 
ATOM     45  C   UNL A   1      48.496  26.992  26.289  1.00  0.00     0.074 A 
ATOM     46  C   UNL A   1      48.947  25.697  25.827  1.00  0.00     0.031 C 
ATOM     47  C   UNL A   1      42.237  26.033  27.331  1.00  0.00     0.029 A 
ATOM     48  C   UNL A   1      43.006  27.249  27.575  1.00  0.00     0.049 A 
ATOM     49  H   UNL A   1      45.031  27.564  27.206  1.00  0.00     0.167 HD
ATOM     50  C   UNL A   1      49.303  28.067  26.467  1.00  0.00     0.037 A 
ATOM     51  C   UNL A   1      42.515  28.391  28.091  1.00  0.00     0.037 A 
ATOM     52  C   UNL A   1      48.848  29.359  26.915  1.00  0.00     0.049 A 
ATOM     53  C   UNL A   1      43.424  29.577  28.255  1.00  0.00     0.074 A 
ATOM     54  C   UNL A   1      49.571  30.533  27.047  1.00  0.00     0.029 A 
ATOM     55  N   UNL A   1      47.551  29.644  27.315  1.00  0.00    -0.354 N 
ATOM     56  N   UNL A   1      44.699  29.686  27.973  1.00  0.00    -0.248 NA
ATOM     57  C   UNL A   1      42.821  30.801  28.800  1.00  0.00     0.031 C 
ATOM     58  C   UNL A   1      48.721  31.516  27.564  1.00  0.00     0.029 A 
ATOM     59  C   UNL A   1      47.458  30.968  27.715  1.00  0.00     0.049 A 
ATOM     60  H   UNL A   1      46.807  29.001  27.316  1.00  0.00     0.167 HD
ATOM     61  C   UNL A   1      45.046  30.995  28.285  1.00  0.00     0.074 A 
ATOM     62  C   UNL A   1      43.842  31.645  28.759  1.00  0.00     0.031 C 
ATOM     63  C   UNL A   1      46.254  31.602  28.189  1.00  0.00     0.037 A 
BRANCH  50  64
ATOM     64  C   UNL A   1      50.764  27.897  26.160  1.00  0.00     0.057 A 
ATOM     65  C   UNL A   1      51.687  27.620  27.177  1.00  0.00     0.134 A 
ATOM     66  C   UNL A   1      51.265  28.049  24.860  1.00  0.00     0.134 A 
ATOM     67  F   UNL A   1      51.280  27.474  28.446  1.00  0.00    -0.206 F 
ATOM     68  C   UNL A   1      53.053  27.497  26.910  1.00  0.00     0.040 A 
ATOM     69  C   UNL A   1      52.624  27.901  24.576  1.00  0.00     0.040 A 
ATOM     70  F   UNL A   1      50.435  28.311  23.838  1.00  0.00    -0.206 F 
ATOM     71  C   UNL A   1      53.523  27.630  25.605  1.00  0.00     0.006 A 
ENDBRANCH  50  64
BRANCH  51  72
ATOM     72  C   UNL A   1      41.078  28.485  28.447  1.00  0.00     0.057 A 
ATOM     73  C   UNL A   1      40.122  28.924  27.525  1.00  0.00     0.134 A 
ATOM     74  C   UNL A   1      40.629  28.130  29.725  1.00  0.00     0.134 A 
ATOM     75  F   UNL A   1      40.490  29.286  26.287  1.00  0.00    -0.206 F 
ATOM     76  C   UNL A   1      38.770  29.011  27.861  1.00  0.00     0.040 A 
ATOM     77  C   UNL A   1      39.277  28.189  30.068  1.00  0.00     0.040 A 
ATOM     78  F   UNL A   1      41.497  27.686  30.645  1.00  0.00    -0.206 F 
ATOM     79  C   UNL A   1      38.344  28.635  29.134  1.00  0.00     0.006 A 
ENDBRANCH  51  72
BRANCH  63  80
ATOM     80  C   UNL A   1      46.325  33.046  28.589  1.00  0.00     0.057 A 
ATOM     81  C   UNL A   1      46.132  34.059  27.642  1.00  0.00     0.134 A 
ATOM     82  C   UNL A   1      46.605  33.434  29.905  1.00  0.00     0.134 A 
ATOM     83  F   UNL A   1      45.867  33.756  26.362  1.00  0.00    -0.206 F 
ATOM     84  C   UNL A   1      46.215  35.409  27.990  1.00  0.00     0.040 A 
ATOM     85  C   UNL A   1      46.665  34.779  30.271  1.00  0.00     0.040 A 
ATOM     86  F   UNL A   1      46.785  32.512  30.862  1.00  0.00    -0.206 F 
ATOM     87  C   UNL A   1      46.476  35.772  29.310  1.00  0.00     0.006 A 
ENDBRANCH  63  80
ENDBRANCH  37  38
ENDBRANCH  30  32
ENDBRANCH  29  30
ENDBRANCH  28  29
ENDBRANCH   1  28
TORSDOF 14
ENDMDL
MODEL 2
REMARK VINA RESULT:     -12.4      0.476      2.125
REMARK SMILES CC(C)(C)c1cc(Nc2ccccc2C(=O)OCCOC(=O)c2ccc(-c3c4nc(c(-c5c(F)cccc5F)c5ccc([nH]5)c(-c5c(F)cccc5F)c5nc(c(-c6c(F)cccc6F)c6ccc3[nH]6)C=C5)C=C4)cc2)cc2c1OCC2(C)C
REMARK SMILES IDX 18 1 17 2 15 3 16 4 14 5 9 6 10 7 11 8 13 9 12 10 8 11 7 13
REMARK SMILES IDX 5 14 6 15 79 16 78 17 80 18 77 19 82 20 81 21 83 22 84 23
REMARK SMILES IDX 2 24 1 25 3 26 4 27 19 28 20 29 21 30 22 31 23 32 24 33
REMARK SMILES IDX 76 34 25 35 75 36 26 37 27 38 28 39 69 40 29 41 74 42 68 43
REMARK SMILES IDX 70 44 30 45 73 46 67 47 66 48 31 50 57 51 40 52 56 53 41 54
REMARK SMILES IDX 44 55 55 56 71 57 42 58 43 59 54 61 72 62 45 63 32 64 33 65
REMARK SMILES IDX 38 66 34 67 35 68 37 69 39 70 36 71 58 72 59 73 64 74 60 75
REMARK SMILES IDX 61 76 63 77 65 78 62 79 46 80 47 81 52 82 48 83 49 84 51 85
REMARK SMILES IDX 53 86 50 87
REMARK H PARENT 8 12 70 49 44 60
REMARK Flexibility Score: inf
ROOT
ATOM      1  C   UNL A   1      42.278  19.245  26.749  1.00  0.00     0.275 C 
ENDROOT
BRANCH   1   2
ATOM      2  O   UNL A   1      41.561  20.293  26.065  1.00  0.00    -0.458 OA
BRANCH   2   3
ATOM      3  C   UNL A   1      40.217  20.166  25.947  1.00  0.00     0.340 C 
ATOM      4  O   UNL A   1      39.617  19.121  25.750  1.00  0.00    -0.246 OA
BRANCH   3   5
ATOM      5  C   UNL A   1      39.519  21.467  26.175  1.00  0.00     0.083 A 
ATOM      6  C   UNL A   1      38.207  21.753  25.751  1.00  0.00     0.053 A 
ATOM      7  C   UNL A   1      37.710  23.057  25.967  1.00  0.00     0.027 A 
ATOM      8  C   UNL A   1      38.497  24.062  26.530  1.00  0.00     0.002 A 
ATOM      9  C   UNL A   1      40.277  22.473  26.811  1.00  0.00     0.018 A 
ATOM     10  C   UNL A   1      39.785  23.770  26.951  1.00  0.00     0.001 A 
BRANCH   6  11
ATOM     11  N   UNL A   1      37.421  20.822  25.038  1.00  0.00    -0.355 N 
ATOM     12  H   UNL A   1      37.920  20.143  24.528  1.00  0.00     0.167 HD
BRANCH  11  13
ATOM     13  C   UNL A   1      36.016  20.738  24.957  1.00  0.00     0.039 A 
ATOM     14  C   UNL A   1      34.003  19.329  24.596  1.00  0.00     0.002 A 
ATOM     15  C   UNL A   1      35.408  19.508  24.626  1.00  0.00     0.034 A 
ATOM     16  C   UNL A   1      33.252  20.432  25.008  1.00  0.00     0.127 A 
ATOM     17  C   UNL A   1      33.834  21.650  25.320  1.00  0.00     0.006 A 
ATOM     18  O   UNL A   1      31.896  20.440  25.208  1.00  0.00    -0.492 OA
ATOM     19  C   UNL A   1      35.202  21.823  25.266  1.00  0.00     0.034 A 
ATOM     20  C   UNL A   1      32.819  22.638  25.776  1.00  0.00     0.028 C 
ATOM     21  C   UNL A   1      31.547  21.808  25.528  1.00  0.00     0.240 C 
ATOM     22  C   UNL A   1      33.017  22.962  27.263  1.00  0.00     0.020 C 
ATOM     23  C   UNL A   1      32.834  23.924  24.947  1.00  0.00     0.020 C 
BRANCH  14  24
ATOM     24  C   UNL A   1      33.384  17.981  24.187  1.00  0.00    -0.009 C 
ATOM     25  C   UNL A   1      34.463  16.916  23.859  1.00  0.00     0.016 C 
ATOM     26  C   UNL A   1      32.500  18.077  22.921  1.00  0.00     0.016 C 
ATOM     27  C   UNL A   1      32.528  17.461  25.355  1.00  0.00     0.016 C 
ENDBRANCH  14  24
ENDBRANCH  11  13
ENDBRANCH   6  11
ENDBRANCH   3   5
ENDBRANCH   2   3
ENDBRANCH   1   2
BRANCH   1  28
ATOM     28  C   UNL A   1      43.162  18.458  25.779  1.00  0.00     0.275 C 
BRANCH  28  29
ATOM     29  O   UNL A   1      43.441  19.243  24.606  1.00  0.00    -0.458 OA
BRANCH  29  30
ATOM     30  C   UNL A   1      44.740  19.557  24.404  1.00  0.00     0.338 C 
ATOM     31  O   UNL A   1      45.604  18.875  23.875  1.00  0.00    -0.246 OA
BRANCH  30  32
ATOM     32  C   UNL A   1      44.935  20.968  24.764  1.00  0.00     0.060 A 
ATOM     33  C   UNL A   1      44.749  22.003  23.849  1.00  0.00     0.016 A 
ATOM     34  C   UNL A   1      45.289  21.244  26.083  1.00  0.00     0.016 A 
ATOM     35  C   UNL A   1      44.956  23.324  24.265  1.00  0.00     0.010 A 
ATOM     36  C   UNL A   1      45.490  22.556  26.500  1.00  0.00     0.010 A 
ATOM     37  C   UNL A   1      45.336  23.611  25.592  1.00  0.00    -0.014 A 
BRANCH  37  38
ATOM     38  C   UNL A   1      45.521  25.008  26.057  1.00  0.00     0.031 A 
ATOM     39  C   UNL A   1      46.877  25.660  26.033  1.00  0.00     0.074 A 
ATOM     40  C   UNL A   1      44.469  25.672  26.573  1.00  0.00     0.049 A 
ATOM     41  N   UNL A   1      47.213  26.878  26.379  1.00  0.00    -0.248 NA
ATOM     42  C   UNL A   1      48.006  24.829  25.590  1.00  0.00     0.031 C 
ATOM     43  C   UNL A   1      43.124  25.118  26.740  1.00  0.00     0.029 A 
ATOM     44  N   UNL A   1      44.366  26.951  27.055  1.00  0.00    -0.354 N 
ATOM     45  C   UNL A   1      48.589  26.959  26.197  1.00  0.00     0.074 A 
ATOM     46  C   UNL A   1      49.032  25.651  25.764  1.00  0.00     0.031 C 
ATOM     47  C   UNL A   1      42.323  26.064  27.255  1.00  0.00     0.029 A 
ATOM     48  C   UNL A   1      43.100  27.281  27.472  1.00  0.00     0.049 A 
ATOM     49  H   UNL A   1      45.127  27.574  27.098  1.00  0.00     0.167 HD
ATOM     50  C   UNL A   1      49.403  28.032  26.352  1.00  0.00     0.037 A 
ATOM     51  C   UNL A   1      42.617  28.437  27.962  1.00  0.00     0.037 A 
ATOM     52  C   UNL A   1      48.956  29.337  26.771  1.00  0.00     0.049 A 
ATOM     53  C   UNL A   1      43.533  29.620  28.101  1.00  0.00     0.074 A 
ATOM     54  C   UNL A   1      49.687  30.508  26.876  1.00  0.00     0.029 A 
ATOM     55  N   UNL A   1      47.661  29.639  27.163  1.00  0.00    -0.354 N 
ATOM     56  N   UNL A   1      44.809  29.715  27.817  1.00  0.00    -0.248 NA
ATOM     57  C   UNL A   1      42.938  30.860  28.617  1.00  0.00     0.031 C 
ATOM     58  C   UNL A   1      48.843  31.509  27.371  1.00  0.00     0.029 A 
ATOM     59  C   UNL A   1      47.576  30.972  27.533  1.00  0.00     0.049 A 
ATOM     60  H   UNL A   1      46.912  29.001  27.177  1.00  0.00     0.167 HD
ATOM     61  C   UNL A   1      45.164  31.027  28.100  1.00  0.00     0.074 A 
ATOM     62  C   UNL A   1      43.965  31.696  28.559  1.00  0.00     0.031 C 
ATOM     63  C   UNL A   1      46.377  31.624  27.992  1.00  0.00     0.037 A 
BRANCH  50  64
ATOM     64  C   UNL A   1      50.863  27.846  26.049  1.00  0.00     0.057 A 
ATOM     65  C   UNL A   1      51.784  27.588  27.073  1.00  0.00     0.134 A 
ATOM     66  C   UNL A   1      51.365  27.962  24.746  1.00  0.00     0.134 A 
ATOM     67  F   UNL A   1      51.376  27.477  28.346  1.00  0.00    -0.206 F 
ATOM     68  C   UNL A   1      53.149  27.451  26.811  1.00  0.00     0.040 A 
ATOM     69  C   UNL A   1      52.723  27.799  24.467  1.00  0.00     0.040 A 
ATOM     70  F   UNL A   1      50.537  28.203  23.718  1.00  0.00    -0.206 F 
ATOM     71  C   UNL A   1      53.621  27.548  25.503  1.00  0.00     0.006 A 
ENDBRANCH  50  64
BRANCH  51  72
ATOM     72  C   UNL A   1      41.180  28.548  28.315  1.00  0.00     0.057 A 
ATOM     73  C   UNL A   1      40.225  28.954  27.377  1.00  0.00     0.134 A 
ATOM     74  C   UNL A   1      40.730  28.243  29.606  1.00  0.00     0.134 A 
ATOM     75  F   UNL A   1      40.593  29.269  26.127  1.00  0.00    -0.206 F 
ATOM     76  C   UNL A   1      38.873  29.058  27.710  1.00  0.00     0.040 A 
ATOM     77  C   UNL A   1      39.379  28.319  29.946  1.00  0.00     0.040 A 
ATOM     78  F   UNL A   1      41.598  27.832  30.542  1.00  0.00    -0.206 F 
ATOM     79  C   UNL A   1      38.447  28.732  28.996  1.00  0.00     0.006 A 
ENDBRANCH  51  72
BRANCH  63  80
ATOM     80  C   UNL A   1      46.457  33.077  28.360  1.00  0.00     0.057 A 
ATOM     81  C   UNL A   1      46.715  33.466  29.679  1.00  0.00     0.134 A 
ATOM     82  C   UNL A   1      46.258  34.089  27.413  1.00  0.00     0.134 A 
ATOM     83  F   UNL A   1      46.908  32.547  30.637  1.00  0.00    -0.206 F 
ATOM     84  C   UNL A   1      46.772  34.813  30.044  1.00  0.00     0.040 A 
ATOM     85  C   UNL A   1      46.338  35.438  27.759  1.00  0.00     0.040 A 
ATOM     86  F   UNL A   1      46.023  33.781  26.128  1.00  0.00    -0.206 F 
ATOM     87  C   UNL A   1      46.590  35.803  29.081  1.00  0.00     0.006 A 
ENDBRANCH  63  80
ENDBRANCH  37  38
ENDBRANCH  30  32
ENDBRANCH  29  30
ENDBRANCH  28  29
ENDBRANCH   1  28
TORSDOF 14
ENDMDL
MODEL 3
REMARK VINA RESULT:     -12.4      0.404      6.077
REMARK SMILES CC(C)(C)c1cc(Nc2ccccc2C(=O)OCCOC(=O)c2ccc(-c3c4nc(c(-c5c(F)cccc5F)c5ccc([nH]5)c(-c5c(F)cccc5F)c5nc(c(-c6c(F)cccc6F)c6ccc3[nH]6)C=C5)C=C4)cc2)cc2c1OCC2(C)C
REMARK SMILES IDX 18 1 17 2 15 3 16 4 14 5 9 6 10 7 11 8 13 9 12 10 8 11 7 13
REMARK SMILES IDX 5 14 6 15 79 16 78 17 80 18 77 19 82 20 81 21 83 22 84 23
REMARK SMILES IDX 2 24 1 25 3 26 4 27 19 28 20 29 21 30 22 31 23 32 24 33
REMARK SMILES IDX 76 34 25 35 75 36 26 37 27 38 28 39 69 40 29 41 74 42 68 43
REMARK SMILES IDX 70 44 30 45 73 46 67 47 66 48 31 50 57 51 40 52 56 53 41 54
REMARK SMILES IDX 44 55 55 56 71 57 42 58 43 59 54 61 72 62 45 63 32 64 33 65
REMARK SMILES IDX 38 66 34 67 35 68 37 69 39 70 36 71 58 72 59 73 64 74 60 75
REMARK SMILES IDX 61 76 63 77 65 78 62 79 46 80 47 81 52 82 48 83 49 84 51 85
REMARK SMILES IDX 53 86 50 87
REMARK H PARENT 8 12 70 49 44 60
REMARK Flexibility Score: inf
ROOT
ATOM      1  C   UNL A   1      42.258  19.243  26.726  1.00  0.00     0.275 C 
ENDROOT
BRANCH   1   2
ATOM      2  O   UNL A   1      41.548  20.335  26.107  1.00  0.00    -0.458 OA
BRANCH   2   3
ATOM      3  C   UNL A   1      40.217  20.187  25.899  1.00  0.00     0.340 C 
ATOM      4  O   UNL A   1      39.654  19.139  25.626  1.00  0.00    -0.246 OA
BRANCH   3   5
ATOM      5  C   UNL A   1      39.478  21.464  26.130  1.00  0.00     0.083 A 
ATOM      6  C   UNL A   1      38.214  21.764  25.586  1.00  0.00     0.053 A 
ATOM      7  C   UNL A   1      37.676  23.047  25.827  1.00  0.00     0.027 A 
ATOM      8  C   UNL A   1      38.383  24.022  26.531  1.00  0.00     0.002 A 
ATOM      9  C   UNL A   1      40.149  22.436  26.903  1.00  0.00     0.018 A 
ATOM     10  C   UNL A   1      39.624  23.717  27.068  1.00  0.00     0.001 A 
BRANCH   6  11
ATOM     11  N   UNL A   1      37.523  20.871  24.738  1.00  0.00    -0.355 N 
ATOM     12  H   UNL A   1      38.063  20.449  24.031  1.00  0.00     0.167 HD
BRANCH  11  13
ATOM     13  C   UNL A   1      36.162  20.507  24.769  1.00  0.00     0.039 A 
ATOM     14  C   UNL A   1      33.783  21.216  24.683  1.00  0.00     0.002 A 
ATOM     15  C   UNL A   1      35.169  21.509  24.727  1.00  0.00     0.034 A 
ATOM     16  C   UNL A   1      33.462  19.861  24.587  1.00  0.00     0.127 A 
ATOM     17  C   UNL A   1      34.425  18.865  24.642  1.00  0.00     0.006 A 
ATOM     18  O   UNL A   1      32.206  19.354  24.375  1.00  0.00    -0.492 OA
ATOM     19  C   UNL A   1      35.764  19.173  24.766  1.00  0.00     0.034 A 
ATOM     20  C   UNL A   1      33.823  17.516  24.467  1.00  0.00     0.028 C 
ATOM     21  C   UNL A   1      32.337  17.914  24.449  1.00  0.00     0.240 C 
ATOM     22  C   UNL A   1      34.272  16.897  23.136  1.00  0.00     0.020 C 
ATOM     23  C   UNL A   1      34.148  16.571  25.627  1.00  0.00     0.020 C 
BRANCH  14  24
ATOM     24  C   UNL A   1      32.735  22.342  24.684  1.00  0.00    -0.009 C 
ATOM     25  C   UNL A   1      31.613  22.097  25.726  1.00  0.00     0.016 C 
ATOM     26  C   UNL A   1      32.011  22.501  23.326  1.00  0.00     0.016 C 
ATOM     27  C   UNL A   1      33.439  23.666  25.032  1.00  0.00     0.016 C 
ENDBRANCH  14  24
ENDBRANCH  11  13
ENDBRANCH   6  11
ENDBRANCH   3   5
ENDBRANCH   2   3
ENDBRANCH   1   2
BRANCH   1  28
ATOM     28  C   UNL A   1      43.143  18.515  25.711  1.00  0.00     0.275 C 
BRANCH  28  29
ATOM     29  O   UNL A   1      43.445  19.377  24.600  1.00  0.00    -0.458 OA
BRANCH  29  30
ATOM     30  C   UNL A   1      44.752  19.664  24.415  1.00  0.00     0.338 C 
ATOM     31  O   UNL A   1      45.611  18.960  23.906  1.00  0.00    -0.246 OA
BRANCH  30  32
ATOM     32  C   UNL A   1      44.969  21.074  24.765  1.00  0.00     0.060 A 
ATOM     33  C   UNL A   1      44.780  22.107  23.847  1.00  0.00     0.016 A 
ATOM     34  C   UNL A   1      45.349  21.353  26.076  1.00  0.00     0.016 A 
ATOM     35  C   UNL A   1      45.009  23.428  24.254  1.00  0.00     0.010 A 
ATOM     36  C   UNL A   1      45.573  22.664  26.483  1.00  0.00     0.010 A 
ATOM     37  C   UNL A   1      45.415  23.716  25.572  1.00  0.00    -0.014 A 
BRANCH  37  38
ATOM     38  C   UNL A   1      45.624  25.113  26.027  1.00  0.00     0.031 A 
ATOM     39  C   UNL A   1      44.486  25.929  26.577  1.00  0.00     0.074 A 
ATOM     40  C   UNL A   1      46.838  25.676  25.877  1.00  0.00     0.049 A 
ATOM     41  N   UNL A   1      44.497  27.154  27.042  1.00  0.00    -0.248 NA
ATOM     42  C   UNL A   1      43.157  25.298  26.579  1.00  0.00     0.031 C 
ATOM     43  C   UNL A   1      48.000  25.024  25.270  1.00  0.00     0.029 A 
ATOM     44  N   UNL A   1      47.296  26.923  26.218  1.00  0.00    -0.354 N 
ATOM     45  C   UNL A   1      43.182  27.440  27.390  1.00  0.00     0.074 A 
ATOM     46  C   UNL A   1      42.391  26.282  27.031  1.00  0.00     0.031 C 
ATOM     47  C   UNL A   1      49.045  25.863  25.313  1.00  0.00     0.029 A 
ATOM     48  C   UNL A   1      48.625  27.118  25.930  1.00  0.00     0.049 A 
ATOM     49  H   UNL A   1      46.727  27.612  26.630  1.00  0.00     0.167 HD
ATOM     50  C   UNL A   1      42.685  28.556  27.979  1.00  0.00     0.037 A 
ATOM     51  C   UNL A   1      49.417  28.183  26.150  1.00  0.00     0.037 A 
ATOM     52  C   UNL A   1      43.477  29.702  28.346  1.00  0.00     0.049 A 
ATOM     53  C   UNL A   1      48.849  29.398  26.827  1.00  0.00     0.074 A 
ATOM     54  C   UNL A   1      43.083  30.845  29.022  1.00  0.00     0.029 A 
ATOM     55  N   UNL A   1      44.825  29.855  28.060  1.00  0.00    -0.354 N 
ATOM     56  N   UNL A   1      47.629  29.612  27.254  1.00  0.00    -0.248 NA
ATOM     57  C   UNL A   1      49.773  30.516  27.062  1.00  0.00     0.031 C 
ATOM     58  C   UNL A   1      44.183  31.705  29.108  1.00  0.00     0.029 A 
ATOM     59  C   UNL A   1      45.273  31.082  28.524  1.00  0.00     0.049 A 
ATOM     60  H   UNL A   1      45.381  29.190  27.593  1.00  0.00     0.167 HD
ATOM     61  C   UNL A   1      47.643  30.877  27.827  1.00  0.00     0.074 A 
ATOM     62  C   UNL A   1      48.998  31.374  27.709  1.00  0.00     0.031 C 
ATOM     63  C   UNL A   1      46.623  31.566  28.396  1.00  0.00     0.037 A 
BRANCH  50  64
ATOM     64  C   UNL A   1      41.213  28.585  28.279  1.00  0.00     0.057 A 
ATOM     65  C   UNL A   1      40.725  28.197  29.533  1.00  0.00     0.134 A 
ATOM     66  C   UNL A   1      40.272  28.960  27.310  1.00  0.00     0.134 A 
ATOM     67  F   UNL A   1      41.566  27.813  30.504  1.00  0.00    -0.206 F 
ATOM     68  C   UNL A   1      39.356  28.183  29.813  1.00  0.00     0.040 A 
ATOM     69  C   UNL A   1      38.903  28.977  27.585  1.00  0.00     0.040 A 
ATOM     70  F   UNL A   1      40.672  29.348  26.088  1.00  0.00    -0.206 F 
ATOM     71  C   UNL A   1      38.442  28.582  28.839  1.00  0.00     0.006 A 
ENDBRANCH  50  64
BRANCH  51  72
ATOM     72  C   UNL A   1      50.850  28.130  25.768  1.00  0.00     0.057 A 
ATOM     73  C   UNL A   1      51.854  27.912  26.718  1.00  0.00     0.134 A 
ATOM     74  C   UNL A   1      51.246  28.293  24.435  1.00  0.00     0.134 A 
ATOM     75  F   UNL A   1      51.540  27.757  28.012  1.00  0.00    -0.206 F 
ATOM     76  C   UNL A   1      53.201  27.863  26.357  1.00  0.00     0.040 A 
ATOM     77  C   UNL A   1      52.587  28.221  24.056  1.00  0.00     0.040 A 
ATOM     78  F   UNL A   1      50.326  28.488  23.478  1.00  0.00    -0.206 F 
ATOM     79  C   UNL A   1      53.570  28.010  25.021  1.00  0.00     0.006 A 
ENDBRANCH  51  72
BRANCH  63  80
ATOM     80  C   UNL A   1      46.944  32.923  28.950  1.00  0.00     0.057 A 
ATOM     81  C   UNL A   1      46.822  34.067  28.153  1.00  0.00     0.134 A 
ATOM     82  C   UNL A   1      47.392  33.095  30.266  1.00  0.00     0.134 A 
ATOM     83  F   UNL A   1      46.405  33.972  26.881  1.00  0.00    -0.206 F 
ATOM     84  C   UNL A   1      47.137  35.336  28.644  1.00  0.00     0.040 A 
ATOM     85  C   UNL A   1      47.684  34.360  30.777  1.00  0.00     0.040 A 
ATOM     86  F   UNL A   1      47.514  32.041  31.086  1.00  0.00    -0.206 F 
ATOM     87  C   UNL A   1      47.562  35.485  29.963  1.00  0.00     0.006 A 
ENDBRANCH  63  80
ENDBRANCH  37  38
ENDBRANCH  30  32
ENDBRANCH  29  30
ENDBRANCH  28  29
ENDBRANCH   1  28
TORSDOF 14
ENDMDL
