MODEL 1
REMARK VINA RESULT:     -10.5      0.000      0.000
REMARK SMILES CC(C)([NH2+]C[C@@H]1COc2ccccc21)C(=O)OCCOC(=O)c1ccc(-c2c3nc(c(-c4c(F)cccc4F)c4ccc([nH]4)c(-c4c(F)cccc4F)c4nc(c(-c5c(F)cccc5F)c5ccc2[nH]5)C=C4)C=C3)cc1
REMARK SMILES IDX 18 1 17 2 15 3 16 4 2 5 1 6 3 7 4 8 5 11 6 12 7 13 14 14
REMARK SMILES IDX 8 15 9 16 13 17 10 18 12 19 11 20 19 21 20 22 21 23 22 24
REMARK SMILES IDX 23 25 24 26 76 27 25 28 75 29 26 30 27 31 28 32 69 33 29 34
REMARK SMILES IDX 74 35 68 36 70 37 30 38 73 39 67 40 66 41 31 43 57 44 40 45
REMARK SMILES IDX 56 46 41 47 44 48 55 49 71 50 42 51 43 52 54 54 72 55 45 56
REMARK SMILES IDX 32 57 33 58 38 59 34 60 35 61 37 62 39 63 36 64 58 65 59 66
REMARK SMILES IDX 64 67 60 68 61 69 63 70 65 71 62 72 46 73 47 74 52 75 48 76
REMARK SMILES IDX 49 77 51 78 53 79 50 80
REMARK H PARENT 4 9 4 10 70 42 44 53
REMARK Flexibility Score: inf
ROOT
ATOM      1  C   UNL A   1      41.573  19.612  26.237  1.00  0.00     0.274 C 
ENDROOT
BRANCH   1   2
ATOM      2  O   UNL A   1      42.521  19.212  25.221  1.00  0.00    -0.457 OA
BRANCH   2   3
ATOM      3  C   UNL A   1      43.699  18.669  25.635  1.00  0.00     0.367 C 
ATOM      4  O   UNL A   1      43.774  17.695  26.379  1.00  0.00    -0.245 OA
BRANCH   3   5
ATOM      5  C   UNL A   1      44.945  19.390  25.056  1.00  0.00     0.188 C 
ATOM      6  C   UNL A   1      44.914  19.222  23.525  1.00  0.00     0.092 C 
ATOM      7  C   UNL A   1      46.243  18.712  25.535  1.00  0.00     0.092 C 
BRANCH   5   8
ATOM      8  N   UNL A   1      44.989  20.852  25.284  1.00  0.00    -0.332 N 
ATOM      9  H   UNL A   1      44.838  20.991  26.283  1.00  0.00     0.347 HD
ATOM     10  H   UNL A   1      44.287  21.195  24.627  1.00  0.00     0.347 HD
BRANCH   8  11
ATOM     11  C   UNL A   1      46.162  21.654  24.930  1.00  0.00     0.273 C 
BRANCH  11  12
ATOM     12  C   UNL A   1      46.015  23.176  24.876  1.00  0.00     0.116 C 
ATOM     13  C   UNL A   1      47.119  23.909  24.097  1.00  0.00     0.244 C 
ATOM     14  C   UNL A   1      46.189  23.909  26.165  1.00  0.00     0.006 A 
ATOM     15  O   UNL A   1      47.193  25.267  24.588  1.00  0.00    -0.492 OA
ATOM     16  C   UNL A   1      46.804  25.127  25.894  1.00  0.00     0.123 A 
ATOM     17  C   UNL A   1      45.763  23.611  27.448  1.00  0.00     0.008 A 
ATOM     18  C   UNL A   1      46.980  26.096  26.857  1.00  0.00     0.047 A 
ATOM     19  C   UNL A   1      45.960  24.568  28.447  1.00  0.00     0.001 A 
ATOM     20  C   UNL A   1      46.553  25.808  28.152  1.00  0.00     0.004 A 
ENDBRANCH  11  12
ENDBRANCH   8  11
ENDBRANCH   5   8
ENDBRANCH   3   5
ENDBRANCH   2   3
ENDBRANCH   1   2
BRANCH   1  21
ATOM     21  C   UNL A   1      41.187  21.071  26.023  1.00  0.00     0.275 C 
BRANCH  21  22
ATOM     22  O   UNL A   1      42.313  21.866  26.422  1.00  0.00    -0.458 OA
BRANCH  22  23
ATOM     23  C   UNL A   1      42.521  23.005  25.731  1.00  0.00     0.338 C 
ATOM     24  O   UNL A   1      42.771  23.133  24.540  1.00  0.00    -0.246 OA
BRANCH  23  25
ATOM     25  C   UNL A   1      42.332  24.126  26.661  1.00  0.00     0.060 A 
ATOM     26  C   UNL A   1      41.593  23.917  27.826  1.00  0.00     0.016 A 
ATOM     27  C   UNL A   1      42.828  25.392  26.361  1.00  0.00     0.016 A 
ATOM     28  C   UNL A   1      41.286  24.982  28.662  1.00  0.00     0.010 A 
ATOM     29  C   UNL A   1      42.618  26.436  27.267  1.00  0.00     0.010 A 
ATOM     30  C   UNL A   1      41.837  26.244  28.422  1.00  0.00    -0.014 A 
BRANCH  30  31
ATOM     31  C   UNL A   1      41.618  27.354  29.386  1.00  0.00     0.031 A 
ATOM     32  C   UNL A   1      42.498  27.489  30.594  1.00  0.00     0.074 A 
ATOM     33  C   UNL A   1      40.616  28.235  29.186  1.00  0.00     0.049 A 
ATOM     34  N   UNL A   1      42.316  28.207  31.672  1.00  0.00    -0.248 NA
ATOM     35  C   UNL A   1      43.739  26.698  30.599  1.00  0.00     0.031 C 
ATOM     36  C   UNL A   1      39.722  28.260  28.025  1.00  0.00     0.029 A 
ATOM     37  N   UNL A   1      40.176  29.279  29.960  1.00  0.00    -0.354 N 
ATOM     38  C   UNL A   1      43.382  27.906  32.509  1.00  0.00     0.074 A 
ATOM     39  C   UNL A   1      44.215  26.950  31.811  1.00  0.00     0.031 C 
ATOM     40  C   UNL A   1      38.867  29.285  28.147  1.00  0.00     0.029 A 
ATOM     41  C   UNL A   1      39.076  29.919  29.440  1.00  0.00     0.049 A 
ATOM     42  H   UNL A   1      40.606  29.545  30.804  1.00  0.00     0.167 HD
ATOM     43  C   UNL A   1      43.632  28.382  33.753  1.00  0.00     0.037 A 
ATOM     44  C   UNL A   1      38.279  30.865  29.971  1.00  0.00     0.037 A 
ATOM     45  C   UNL A   1      42.825  29.372  34.415  1.00  0.00     0.049 A 
ATOM     46  C   UNL A   1      38.543  31.337  31.369  1.00  0.00     0.074 A 
ATOM     47  C   UNL A   1      43.002  29.936  35.666  1.00  0.00     0.029 A 
ATOM     48  N   UNL A   1      41.691  29.958  33.869  1.00  0.00    -0.354 N 
ATOM     49  N   UNL A   1      39.506  30.990  32.186  1.00  0.00    -0.248 NA
ATOM     50  C   UNL A   1      37.587  32.299  31.932  1.00  0.00     0.031 C 
ATOM     51  C   UNL A   1      41.957  30.840  35.890  1.00  0.00     0.029 A 
ATOM     52  C   UNL A   1      41.149  30.863  34.764  1.00  0.00     0.049 A 
ATOM     53  H   UNL A   1      41.328  29.759  32.977  1.00  0.00     0.167 HD
ATOM     54  C   UNL A   1      39.271  31.684  33.364  1.00  0.00     0.074 A 
ATOM     55  C   UNL A   1      38.089  32.494  33.144  1.00  0.00     0.031 C 
ATOM     56  C   UNL A   1      39.963  31.646  34.528  1.00  0.00     0.037 A 
BRANCH  43  57
ATOM     57  C   UNL A   1      44.801  27.804  34.494  1.00  0.00     0.057 A 
ATOM     58  C   UNL A   1      46.092  28.331  34.381  1.00  0.00     0.134 A 
ATOM     59  C   UNL A   1      44.618  26.717  35.361  1.00  0.00     0.134 A 
ATOM     60  F   UNL A   1      46.337  29.361  33.556  1.00  0.00    -0.206 F 
ATOM     61  C   UNL A   1      47.165  27.788  35.092  1.00  0.00     0.040 A 
ATOM     62  C   UNL A   1      45.679  26.179  36.091  1.00  0.00     0.040 A 
ATOM     63  F   UNL A   1      43.405  26.167  35.515  1.00  0.00    -0.206 F 
ATOM     64  C   UNL A   1      46.958  26.713  35.954  1.00  0.00     0.006 A 
ENDBRANCH  43  57
BRANCH  44  65
ATOM     65  C   UNL A   1      37.111  31.362  29.200  1.00  0.00     0.057 A 
ATOM     66  C   UNL A   1      35.961  30.581  29.048  1.00  0.00     0.134 A 
ATOM     67  C   UNL A   1      37.109  32.637  28.620  1.00  0.00     0.134 A 
ATOM     68  F   UNL A   1      35.913  29.343  29.560  1.00  0.00    -0.206 F 
ATOM     69  C   UNL A   1      34.849  31.051  28.348  1.00  0.00     0.040 A 
ATOM     70  C   UNL A   1      35.995  33.130  27.941  1.00  0.00     0.040 A 
ATOM     71  F   UNL A   1      38.182  33.434  28.732  1.00  0.00    -0.206 F 
ATOM     72  C   UNL A   1      34.860  32.334  27.800  1.00  0.00     0.006 A 
ENDBRANCH  44  65
BRANCH  56  73
ATOM     73  C   UNL A   1      39.453  32.505  35.642  1.00  0.00     0.057 A 
ATOM     74  C   UNL A   1      39.857  33.839  35.778  1.00  0.00     0.134 A 
ATOM     75  C   UNL A   1      38.539  32.002  36.574  1.00  0.00     0.134 A 
ATOM     76  F   UNL A   1      40.746  34.370  34.925  1.00  0.00    -0.206 F 
ATOM     77  C   UNL A   1      39.379  34.640  36.815  1.00  0.00     0.040 A 
ATOM     78  C   UNL A   1      38.039  32.799  37.604  1.00  0.00     0.040 A 
ATOM     79  F   UNL A   1      38.113  30.733  36.495  1.00  0.00    -0.206 F 
ATOM     80  C   UNL A   1      38.463  34.122  37.729  1.00  0.00     0.006 A 
ENDBRANCH  56  73
ENDBRANCH  30  31
ENDBRANCH  23  25
ENDBRANCH  22  23
ENDBRANCH  21  22
ENDBRANCH   1  21
TORSDOF 14
ENDMDL
MODEL 2
REMARK VINA RESULT:     -10.5      3.124      5.706
REMARK SMILES CC(C)([NH2+]C[C@@H]1COc2ccccc21)C(=O)OCCOC(=O)c1ccc(-c2c3nc(c(-c4c(F)cccc4F)c4ccc([nH]4)c(-c4c(F)cccc4F)c4nc(c(-c5c(F)cccc5F)c5ccc2[nH]5)C=C4)C=C3)cc1
REMARK SMILES IDX 18 1 17 2 15 3 16 4 2 5 1 6 3 7 4 8 5 11 6 12 7 13 14 14
REMARK SMILES IDX 8 15 9 16 13 17 10 18 12 19 11 20 19 21 20 22 21 23 22 24
REMARK SMILES IDX 23 25 24 26 76 27 25 28 75 29 26 30 27 31 28 32 69 33 29 34
REMARK SMILES IDX 74 35 68 36 70 37 30 38 73 39 67 40 66 41 31 43 57 44 40 45
REMARK SMILES IDX 56 46 41 47 44 48 55 49 71 50 42 51 43 52 54 54 72 55 45 56
REMARK SMILES IDX 32 57 33 58 38 59 34 60 35 61 37 62 39 63 36 64 58 65 59 66
REMARK SMILES IDX 64 67 60 68 61 69 63 70 65 71 62 72 46 73 47 74 52 75 48 76
REMARK SMILES IDX 49 77 51 78 53 79 50 80
REMARK H PARENT 4 9 4 10 70 42 44 53
REMARK Flexibility Score: inf
ROOT
ATOM      1  C   UNL A   1      40.401  20.632  26.301  1.00  0.00     0.274 C 
ENDROOT
BRANCH   1   2
ATOM      2  O   UNL A   1      39.427  21.646  25.963  1.00  0.00    -0.457 OA
BRANCH   2   3
ATOM      3  C   UNL A   1      38.244  21.232  25.432  1.00  0.00     0.367 C 
ATOM      4  O   UNL A   1      38.071  20.122  24.939  1.00  0.00    -0.245 OA
BRANCH   3   5
ATOM      5  C   UNL A   1      37.121  22.300  25.529  1.00  0.00     0.188 C 
ATOM      6  C   UNL A   1      36.535  22.491  24.118  1.00  0.00     0.092 C 
ATOM      7  C   UNL A   1      37.700  23.668  25.940  1.00  0.00     0.092 C 
BRANCH   5   8
ATOM      8  N   UNL A   1      35.969  21.927  26.380  1.00  0.00    -0.332 N 
ATOM      9  H   UNL A   1      36.097  22.418  27.266  1.00  0.00     0.347 HD
ATOM     10  H   UNL A   1      36.014  20.908  26.370  1.00  0.00     0.347 HD
BRANCH   8  11
ATOM     11  C   UNL A   1      34.588  22.182  25.965  1.00  0.00     0.273 C 
BRANCH  11  12
ATOM     12  C   UNL A   1      33.744  23.148  26.799  1.00  0.00     0.116 C 
ATOM     13  C   UNL A   1      32.287  22.712  27.023  1.00  0.00     0.244 C 
ATOM     14  C   UNL A   1      33.441  24.473  26.181  1.00  0.00     0.006 A 
ATOM     15  O   UNL A   1      31.497  23.894  27.289  1.00  0.00    -0.492 OA
ATOM     16  C   UNL A   1      32.163  24.857  26.576  1.00  0.00     0.123 A 
ATOM     17  C   UNL A   1      34.228  25.331  25.433  1.00  0.00     0.008 A 
ATOM     18  C   UNL A   1      31.640  26.097  26.286  1.00  0.00     0.047 A 
ATOM     19  C   UNL A   1      33.704  26.584  25.099  1.00  0.00     0.001 A 
ATOM     20  C   UNL A   1      32.425  26.970  25.534  1.00  0.00     0.004 A 
ENDBRANCH  11  12
ENDBRANCH   8  11
ENDBRANCH   5   8
ENDBRANCH   3   5
ENDBRANCH   2   3
ENDBRANCH   1   2
BRANCH   1  21
ATOM     21  C   UNL A   1      41.805  21.189  26.093  1.00  0.00     0.275 C 
BRANCH  21  22
ATOM     22  O   UNL A   1      41.656  22.519  25.574  1.00  0.00    -0.458 OA
BRANCH  22  23
ATOM     23  C   UNL A   1      42.753  23.301  25.596  1.00  0.00     0.338 C 
ATOM     24  O   UNL A   1      43.760  23.211  24.907  1.00  0.00    -0.246 OA
BRANCH  23  25
ATOM     25  C   UNL A   1      42.517  24.368  26.578  1.00  0.00     0.060 A 
ATOM     26  C   UNL A   1      41.598  24.146  27.604  1.00  0.00     0.016 A 
ATOM     27  C   UNL A   1      43.151  25.601  26.457  1.00  0.00     0.016 A 
ATOM     28  C   UNL A   1      41.254  25.173  28.472  1.00  0.00     0.010 A 
ATOM     29  C   UNL A   1      42.891  26.594  27.405  1.00  0.00     0.010 A 
ATOM     30  C   UNL A   1      41.934  26.394  28.418  1.00  0.00    -0.014 A 
BRANCH  30  31
ATOM     31  C   UNL A   1      41.662  27.450  29.428  1.00  0.00     0.031 A 
ATOM     32  C   UNL A   1      42.487  27.527  30.679  1.00  0.00     0.074 A 
ATOM     33  C   UNL A   1      40.660  28.332  29.231  1.00  0.00     0.049 A 
ATOM     34  N   UNL A   1      42.251  28.185  31.785  1.00  0.00    -0.248 NA
ATOM     35  C   UNL A   1      43.735  26.747  30.697  1.00  0.00     0.031 C 
ATOM     36  C   UNL A   1      39.817  28.411  28.036  1.00  0.00     0.029 A 
ATOM     37  N   UNL A   1      40.177  29.330  30.040  1.00  0.00    -0.354 N 
ATOM     38  C   UNL A   1      43.284  27.850  32.651  1.00  0.00     0.074 A 
ATOM     39  C   UNL A   1      44.156  26.939  31.939  1.00  0.00     0.031 C 
ATOM     40  C   UNL A   1      38.947  29.421  28.173  1.00  0.00     0.029 A 
ATOM     41  C   UNL A   1      39.094  29.988  29.507  1.00  0.00     0.049 A 
ATOM     42  H   UNL A   1      40.567  29.554  30.914  1.00  0.00     0.167 HD
ATOM     43  C   UNL A   1      43.474  28.260  33.927  1.00  0.00     0.037 A 
ATOM     44  C   UNL A   1      38.264  30.897  30.051  1.00  0.00     0.037 A 
ATOM     45  C   UNL A   1      42.629  29.208  34.604  1.00  0.00     0.049 A 
ATOM     46  C   UNL A   1      38.463  31.297  31.481  1.00  0.00     0.074 A 
ATOM     47  C   UNL A   1      42.746  29.707  35.890  1.00  0.00     0.029 A 
ATOM     48  N   UNL A   1      41.515  29.813  34.041  1.00  0.00    -0.354 N 
ATOM     49  N   UNL A   1      39.393  30.915  32.321  1.00  0.00    -0.248 NA
ATOM     50  C   UNL A   1      37.474  32.220  32.052  1.00  0.00     0.031 C 
ATOM     51  C   UNL A   1      41.684  30.589  36.116  1.00  0.00     0.029 A 
ATOM     52  C   UNL A   1      40.925  30.665  34.958  1.00  0.00     0.049 A 
ATOM     53  H   UNL A   1      41.192  29.658  33.125  1.00  0.00     0.167 HD
ATOM     54  C   UNL A   1      39.101  31.544  33.522  1.00  0.00     0.074 A 
ATOM     55  C   UNL A   1      37.922  32.355  33.294  1.00  0.00     0.031 C 
ATOM     56  C   UNL A   1      39.742  31.449  34.712  1.00  0.00     0.037 A 
BRANCH  43  57
ATOM     57  C   UNL A   1      44.616  27.654  34.687  1.00  0.00     0.057 A 
ATOM     58  C   UNL A   1      44.458  26.524  35.497  1.00  0.00     0.134 A 
ATOM     59  C   UNL A   1      45.903  28.198  34.578  1.00  0.00     0.134 A 
ATOM     60  F   UNL A   1      43.249  25.965  35.658  1.00  0.00    -0.206 F 
ATOM     61  C   UNL A   1      45.538  25.965  36.186  1.00  0.00     0.040 A 
ATOM     62  C   UNL A   1      46.993  27.636  35.245  1.00  0.00     0.040 A 
ATOM     63  F   UNL A   1      46.122  29.279  33.816  1.00  0.00    -0.206 F 
ATOM     64  C   UNL A   1      46.810  26.518  36.055  1.00  0.00     0.006 A 
ENDBRANCH  43  57
BRANCH  44  65
ATOM     65  C   UNL A   1      37.126  31.426  29.257  1.00  0.00     0.057 A 
ATOM     66  C   UNL A   1      35.970  30.664  29.059  1.00  0.00     0.134 A 
ATOM     67  C   UNL A   1      37.158  32.711  28.701  1.00  0.00     0.134 A 
ATOM     68  F   UNL A   1      35.891  29.418  29.545  1.00  0.00    -0.206 F 
ATOM     69  C   UNL A   1      34.885  31.163  28.336  1.00  0.00     0.040 A 
ATOM     70  C   UNL A   1      36.071  33.232  28.000  1.00  0.00     0.040 A 
ATOM     71  F   UNL A   1      38.239  33.490  28.858  1.00  0.00    -0.206 F 
ATOM     72  C   UNL A   1      34.929  32.455  27.813  1.00  0.00     0.006 A 
ENDBRANCH  44  65
BRANCH  56  73
ATOM     73  C   UNL A   1      39.176  32.244  35.847  1.00  0.00     0.057 A 
ATOM     74  C   UNL A   1      38.257  31.684  36.742  1.00  0.00     0.134 A 
ATOM     75  C   UNL A   1      39.566  33.572  36.056  1.00  0.00     0.134 A 
ATOM     76  F   UNL A   1      37.833  30.422  36.580  1.00  0.00    -0.206 F 
ATOM     77  C   UNL A   1      37.733  32.425  37.802  1.00  0.00     0.040 A 
ATOM     78  C   UNL A   1      39.064  34.316  37.123  1.00  0.00     0.040 A 
ATOM     79  F   UNL A   1      40.445  34.162  35.233  1.00  0.00    -0.206 F 
ATOM     80  C   UNL A   1      38.140  33.744  37.997  1.00  0.00     0.006 A 
ENDBRANCH  56  73
ENDBRANCH  30  31
ENDBRANCH  23  25
ENDBRANCH  22  23
ENDBRANCH  21  22
ENDBRANCH   1  21
TORSDOF 14
ENDMDL
MODEL 3
REMARK VINA RESULT:     -10.1      5.593     11.366
REMARK SMILES CC(C)([NH2+]C[C@@H]1COc2ccccc21)C(=O)OCCOC(=O)c1ccc(-c2c3nc(c(-c4c(F)cccc4F)c4ccc([nH]4)c(-c4c(F)cccc4F)c4nc(c(-c5c(F)cccc5F)c5ccc2[nH]5)C=C4)C=C3)cc1
REMARK SMILES IDX 18 1 17 2 15 3 16 4 2 5 1 6 3 7 4 8 5 11 6 12 7 13 14 14
REMARK SMILES IDX 8 15 9 16 13 17 10 18 12 19 11 20 19 21 20 22 21 23 22 24
REMARK SMILES IDX 23 25 24 26 76 27 25 28 75 29 26 30 27 31 28 32 69 33 29 34
REMARK SMILES IDX 74 35 68 36 70 37 30 38 73 39 67 40 66 41 31 43 57 44 40 45
REMARK SMILES IDX 56 46 41 47 44 48 55 49 71 50 42 51 43 52 54 54 72 55 45 56
REMARK SMILES IDX 32 57 33 58 38 59 34 60 35 61 37 62 39 63 36 64 58 65 59 66
REMARK SMILES IDX 64 67 60 68 61 69 63 70 65 71 62 72 46 73 47 74 52 75 48 76
REMARK SMILES IDX 49 77 51 78 53 79 50 80
REMARK H PARENT 4 9 4 10 70 42 44 53
REMARK Flexibility Score: inf
ROOT
ATOM      1  C   UNL A   1      33.547  33.298  28.107  1.00  0.00     0.274 C 
ENDROOT
BRANCH   1   2
ATOM      2  O   UNL A   1      33.968  32.018  27.580  1.00  0.00    -0.457 OA
BRANCH   2   3
ATOM      3  C   UNL A   1      33.006  31.190  27.091  1.00  0.00     0.367 C 
ATOM      4  O   UNL A   1      31.838  31.529  26.921  1.00  0.00    -0.245 OA
BRANCH   3   5
ATOM      5  C   UNL A   1      33.534  29.771  26.746  1.00  0.00     0.188 C 
ATOM      6  C   UNL A   1      32.574  28.747  27.381  1.00  0.00     0.092 C 
ATOM      7  C   UNL A   1      34.910  29.527  27.395  1.00  0.00     0.092 C 
BRANCH   5   8
ATOM      8  N   UNL A   1      33.555  29.440  25.304  1.00  0.00    -0.332 N 
ATOM      9  H   UNL A   1      34.536  29.433  25.026  1.00  0.00     0.347 HD
ATOM     10  H   UNL A   1      32.936  30.150  24.910  1.00  0.00     0.347 HD
BRANCH   8  11
ATOM     11  C   UNL A   1      32.972  28.200  24.788  1.00  0.00     0.273 C 
BRANCH  11  12
ATOM     12  C   UNL A   1      33.821  27.327  23.861  1.00  0.00     0.116 C 
ATOM     13  C   UNL A   1      33.278  27.180  22.430  1.00  0.00     0.244 C 
ATOM     14  C   UNL A   1      33.875  25.870  24.182  1.00  0.00     0.006 A 
ATOM     15  O   UNL A   1      33.799  25.950  21.874  1.00  0.00    -0.492 OA
ATOM     16  C   UNL A   1      33.936  25.162  22.986  1.00  0.00     0.123 A 
ATOM     17  C   UNL A   1      33.973  25.206  25.393  1.00  0.00     0.008 A 
ATOM     18  C   UNL A   1      34.133  23.799  22.943  1.00  0.00     0.047 A 
ATOM     19  C   UNL A   1      34.142  23.819  25.373  1.00  0.00     0.001 A 
ATOM     20  C   UNL A   1      34.236  23.121  24.156  1.00  0.00     0.004 A 
ENDBRANCH  11  12
ENDBRANCH   8  11
ENDBRANCH   5   8
ENDBRANCH   3   5
ENDBRANCH   2   3
ENDBRANCH   1   2
BRANCH   1  21
ATOM     21  C   UNL A   1      34.124  33.484  29.505  1.00  0.00     0.275 C 
BRANCH  21  22
ATOM     22  O   UNL A   1      34.577  32.196  29.948  1.00  0.00    -0.458 OA
BRANCH  22  23
ATOM     23  C   UNL A   1      35.319  32.172  31.073  1.00  0.00     0.338 C 
ATOM     24  O   UNL A   1      34.987  32.494  32.206  1.00  0.00    -0.246 OA
BRANCH  23  25
ATOM     25  C   UNL A   1      36.632  31.613  30.725  1.00  0.00     0.060 A 
ATOM     26  C   UNL A   1      37.078  31.715  29.407  1.00  0.00     0.016 A 
ATOM     27  C   UNL A   1      37.394  30.939  31.675  1.00  0.00     0.016 A 
ATOM     28  C   UNL A   1      38.252  31.087  29.014  1.00  0.00     0.010 A 
ATOM     29  C   UNL A   1      38.633  30.412  31.302  1.00  0.00     0.010 A 
ATOM     30  C   UNL A   1      39.072  30.471  29.966  1.00  0.00    -0.014 A 
BRANCH  30  31
ATOM     31  C   UNL A   1      40.391  29.913  29.572  1.00  0.00     0.031 A 
ATOM     32  C   UNL A   1      41.603  30.798  29.532  1.00  0.00     0.074 A 
ATOM     33  C   UNL A   1      40.501  28.613  29.230  1.00  0.00     0.049 A 
ATOM     34  N   UNL A   1      42.766  30.582  28.974  1.00  0.00    -0.248 NA
ATOM     35  C   UNL A   1      41.487  32.108  30.194  1.00  0.00     0.031 C 
ATOM     36  C   UNL A   1      39.420  27.625  29.280  1.00  0.00     0.029 A 
ATOM     37  N   UNL A   1      41.577  27.898  28.768  1.00  0.00    -0.354 N 
ATOM     38  C   UNL A   1      43.496  31.748  29.160  1.00  0.00     0.074 A 
ATOM     39  C   UNL A   1      42.651  32.667  29.894  1.00  0.00     0.031 C 
ATOM     40  C   UNL A   1      39.894  26.430  28.899  1.00  0.00     0.029 A 
ATOM     41  C   UNL A   1      41.277  26.589  28.472  1.00  0.00     0.049 A 
ATOM     42  H   UNL A   1      42.476  28.284  28.659  1.00  0.00     0.167 HD
ATOM     43  C   UNL A   1      44.755  32.025  28.743  1.00  0.00     0.037 A 
ATOM     44  C   UNL A   1      42.007  25.638  27.862  1.00  0.00     0.037 A 
ATOM     45  C   UNL A   1      45.604  31.084  28.061  1.00  0.00     0.049 A 
ATOM     46  C   UNL A   1      43.377  25.983  27.362  1.00  0.00     0.074 A 
ATOM     47  C   UNL A   1      46.902  31.257  27.614  1.00  0.00     0.029 A 
ATOM     48  N   UNL A   1      45.241  29.784  27.740  1.00  0.00    -0.354 N 
ATOM     49  N   UNL A   1      44.032  27.112  27.470  1.00  0.00    -0.248 NA
ATOM     50  C   UNL A   1      44.093  24.935  26.622  1.00  0.00     0.031 C 
ATOM     51  C   UNL A   1      47.313  30.072  26.994  1.00  0.00     0.029 A 
ATOM     52  C   UNL A   1      46.282  29.150  27.085  1.00  0.00     0.049 A 
ATOM     53  H   UNL A   1      44.371  29.374  27.947  1.00  0.00     0.167 HD
ATOM     54  C   UNL A   1      45.234  26.918  26.805  1.00  0.00     0.074 A 
ATOM     55  C   UNL A   1      45.229  25.551  26.322  1.00  0.00     0.031 C 
ATOM     56  C   UNL A   1      46.247  27.794  26.600  1.00  0.00     0.037 A 
BRANCH  43  57
ATOM     57  C   UNL A   1      45.273  33.413  28.975  1.00  0.00     0.057 A 
ATOM     58  C   UNL A   1      46.009  33.756  30.114  1.00  0.00     0.134 A 
ATOM     59  C   UNL A   1      45.052  34.416  28.021  1.00  0.00     0.134 A 
ATOM     60  F   UNL A   1      46.241  32.846  31.074  1.00  0.00    -0.206 F 
ATOM     61  C   UNL A   1      46.495  35.051  30.306  1.00  0.00     0.040 A 
ATOM     62  C   UNL A   1      45.551  35.709  28.191  1.00  0.00     0.040 A 
ATOM     63  F   UNL A   1      44.355  34.153  26.906  1.00  0.00    -0.206 F 
ATOM     64  C   UNL A   1      46.272  36.030  29.339  1.00  0.00     0.006 A 
ENDBRANCH  43  57
BRANCH  44  65
ATOM     65  C   UNL A   1      41.418  24.296  27.624  1.00  0.00     0.057 A 
ATOM     66  C   UNL A   1      41.807  23.191  28.387  1.00  0.00     0.134 A 
ATOM     67  C   UNL A   1      40.436  24.093  26.646  1.00  0.00     0.134 A 
ATOM     68  F   UNL A   1      42.760  23.317  29.321  1.00  0.00    -0.206 F 
ATOM     69  C   UNL A   1      41.240  21.931  28.188  1.00  0.00     0.040 A 
ATOM     70  C   UNL A   1      39.841  22.846  26.454  1.00  0.00     0.040 A 
ATOM     71  F   UNL A   1      40.020  25.114  25.882  1.00  0.00    -0.206 F 
ATOM     72  C   UNL A   1      40.245  21.759  27.225  1.00  0.00     0.006 A 
ENDBRANCH  44  65
BRANCH  56  73
ATOM     73  C   UNL A   1      47.424  27.294  25.824  1.00  0.00     0.057 A 
ATOM     74  C   UNL A   1      47.487  27.423  24.431  1.00  0.00     0.134 A 
ATOM     75  C   UNL A   1      48.509  26.695  26.474  1.00  0.00     0.134 A 
ATOM     76  F   UNL A   1      46.468  27.973  23.753  1.00  0.00    -0.206 F 
ATOM     77  C   UNL A   1      48.586  26.960  23.708  1.00  0.00     0.040 A 
ATOM     78  C   UNL A   1      49.622  26.246  25.764  1.00  0.00     0.040 A 
ATOM     79  F   UNL A   1      48.507  26.545  27.806  1.00  0.00    -0.206 F 
ATOM     80  C   UNL A   1      49.660  26.373  24.375  1.00  0.00     0.006 A 
ENDBRANCH  56  73
ENDBRANCH  30  31
ENDBRANCH  23  25
ENDBRANCH  22  23
ENDBRANCH  21  22
ENDBRANCH   1  21
TORSDOF 14
ENDMDL
