MODEL 1
REMARK VINA RESULT:      -9.8      0.000      0.000
REMARK SMILES COc1ccc(-c2cccc(/C=C\C(=O)OCCOC(=O)c3ccc(-c4c5nc(c(-c6c(F)cccc6F)c6ccc([nH]6)c(-c6c(F)cccc6F)c6nc(c(-c7c(F)cccc7F)c7ccc4[nH]7)C=C6)C=C5)cc3)c2)c(Cl)c1OC
REMARK SMILES IDX 17 1 16 2 14 3 15 4 13 5 12 6 11 7 7 8 8 9 76 10 9 11 10 12
REMARK SMILES IDX 6 13 3 14 4 15 79 16 5 17 77 18 78 19 2 20 1 21 80 22 81 23
REMARK SMILES IDX 18 24 19 25 20 26 21 27 22 28 23 29 75 30 24 31 74 32 25 33
REMARK SMILES IDX 26 34 27 35 68 36 28 37 73 38 67 39 69 40 29 41 72 42 66 43
REMARK SMILES IDX 65 44 30 46 56 47 39 48 55 49 40 50 43 51 54 52 70 53 41 54
REMARK SMILES IDX 42 55 53 57 71 58 44 59 31 60 32 61 37 62 33 63 34 64 36 65
REMARK SMILES IDX 38 66 35 67 57 68 58 69 63 70 59 71 60 72 62 73 64 74 61 75
REMARK SMILES IDX 45 76 46 77 51 78 47 79 48 80 50 81 52 82 49 83
REMARK H PARENT 69 45 43 56
REMARK Flexibility Score: inf
ROOT
ATOM      1  C   UNL A   1      33.454  34.338  28.747  1.00  0.00     0.275 C 
ENDROOT
BRANCH   1   2
ATOM      2  O   UNL A   1      32.834  34.884  29.924  1.00  0.00    -0.459 OA
BRANCH   2   3
ATOM      3  C   UNL A   1      33.009  36.188  30.191  1.00  0.00     0.330 C 
ATOM      4  O   UNL A   1      32.913  37.102  29.383  1.00  0.00    -0.247 OA
BRANCH   3   5
ATOM      5  C   UNL A   1      33.179  36.462  31.640  1.00  0.00     0.094 C 
ATOM      6  C   UNL A   1      33.820  35.825  32.633  1.00  0.00     0.015 C 
BRANCH   6   7
ATOM      7  C   UNL A   1      34.716  34.664  32.577  1.00  0.00    -0.025 A 
ATOM      8  C   UNL A   1      36.972  33.830  32.201  1.00  0.00    -0.016 A 
ATOM      9  C   UNL A   1      36.486  32.517  32.235  1.00  0.00     0.009 A 
ATOM     10  C   UNL A   1      36.069  34.897  32.322  1.00  0.00     0.017 A 
ATOM     11  C   UNL A   1      35.158  32.278  32.561  1.00  0.00     0.001 A 
ATOM     12  C   UNL A   1      34.306  33.351  32.809  1.00  0.00     0.008 A 
BRANCH   8  13
ATOM     13  C   UNL A   1      38.417  34.080  32.162  1.00  0.00     0.004 A 
ATOM     14  C   UNL A   1      41.149  34.634  32.148  1.00  0.00     0.162 A 
ATOM     15  C   UNL A   1      40.437  34.665  33.351  1.00  0.00     0.051 A 
ATOM     16  C   UNL A   1      40.518  34.353  30.914  1.00  0.00     0.180 A 
ATOM     17  C   UNL A   1      39.080  34.375  33.358  1.00  0.00     0.014 A 
ATOM     18  C   UNL A   1      39.138  34.078  30.930  1.00  0.00     0.094 A 
ATOM     19  Cl  UNL A   1      38.214  33.781  29.478  1.00  0.00    -0.079 Cl
BRANCH  14  20
ATOM     20  O   UNL A   1      42.487  34.965  32.125  1.00  0.00    -0.493 OA
ATOM     21  C   UNL A   1      42.855  35.870  33.163  1.00  0.00     0.278 C 
ENDBRANCH  14  20
BRANCH  16  22
ATOM     22  O   UNL A   1      41.386  34.403  29.855  1.00  0.00    -0.491 OA
ATOM     23  C   UNL A   1      41.328  35.427  28.880  1.00  0.00     0.278 C 
ENDBRANCH  16  22
ENDBRANCH   8  13
ENDBRANCH   6   7
ENDBRANCH   3   5
ENDBRANCH   2   3
ENDBRANCH   1   2
BRANCH   1  24
ATOM     24  C   UNL A   1      34.324  33.126  29.110  1.00  0.00     0.275 C 
BRANCH  24  25
ATOM     25  O   UNL A   1      34.788  32.454  27.925  1.00  0.00    -0.458 OA
BRANCH  25  26
ATOM     26  C   UNL A   1      34.668  31.106  27.913  1.00  0.00     0.338 C 
ATOM     27  O   UNL A   1      33.768  30.444  27.423  1.00  0.00    -0.246 OA
BRANCH  26  28
ATOM     28  C   UNL A   1      35.904  30.523  28.458  1.00  0.00     0.060 A 
ATOM     29  C   UNL A   1      37.099  30.734  27.762  1.00  0.00     0.016 A 
ATOM     30  C   UNL A   1      35.894  29.782  29.640  1.00  0.00     0.016 A 
ATOM     31  C   UNL A   1      38.297  30.236  28.263  1.00  0.00     0.010 A 
ATOM     32  C   UNL A   1      37.094  29.273  30.139  1.00  0.00     0.010 A 
ATOM     33  C   UNL A   1      38.301  29.500  29.455  1.00  0.00    -0.014 A 
BRANCH  33  34
ATOM     34  C   UNL A   1      39.568  28.921  29.953  1.00  0.00     0.031 A 
ATOM     35  C   UNL A   1      40.214  29.503  31.173  1.00  0.00     0.074 A 
ATOM     36  C   UNL A   1      40.117  27.868  29.321  1.00  0.00     0.049 A 
ATOM     37  N   UNL A   1      41.348  29.185  31.743  1.00  0.00    -0.248 NA
ATOM     38  C   UNL A   1      39.487  30.595  31.841  1.00  0.00     0.031 C 
ATOM     39  C   UNL A   1      39.552  27.195  28.151  1.00  0.00     0.029 A 
ATOM     40  N   UNL A   1      41.277  27.182  29.574  1.00  0.00    -0.354 N 
ATOM     41  C   UNL A   1      41.476  30.039  32.829  1.00  0.00     0.074 A 
ATOM     42  C   UNL A   1      40.322  30.912  32.821  1.00  0.00     0.031 C 
ATOM     43  C   UNL A   1      40.367  26.192  27.787  1.00  0.00     0.029 A 
ATOM     44  C   UNL A   1      41.531  26.181  28.670  1.00  0.00     0.049 A 
ATOM     45  H   UNL A   1      41.872  27.387  30.332  1.00  0.00     0.167 HD
ATOM     46  C   UNL A   1      42.465  30.084  33.752  1.00  0.00     0.037 A 
ATOM     47  C   UNL A   1      42.596  25.364  28.556  1.00  0.00     0.037 A 
ATOM     48  C   UNL A   1      43.612  29.213  33.746  1.00  0.00     0.049 A 
ATOM     49  C   UNL A   1      43.721  25.489  29.547  1.00  0.00     0.074 A 
ATOM     50  C   UNL A   1      44.668  29.171  34.638  1.00  0.00     0.029 A 
ATOM     51  N   UNL A   1      43.853  28.234  32.792  1.00  0.00    -0.354 N 
ATOM     52  N   UNL A   1      43.829  26.290  30.580  1.00  0.00    -0.248 NA
ATOM     53  C   UNL A   1      44.872  24.596  29.357  1.00  0.00     0.031 C 
ATOM     54  C   UNL A   1      45.577  28.205  34.193  1.00  0.00     0.029 A 
ATOM     55  C   UNL A   1      45.057  27.600  33.059  1.00  0.00     0.049 A 
ATOM     56  H   UNL A   1      43.259  28.021  32.038  1.00  0.00     0.167 HD
ATOM     57  C   UNL A   1      45.041  25.978  31.181  1.00  0.00     0.074 A 
ATOM     58  C   UNL A   1      45.626  24.904  30.403  1.00  0.00     0.031 C 
ATOM     59  C   UNL A   1      45.618  26.527  32.278  1.00  0.00     0.037 A 
BRANCH  46  60
ATOM     60  C   UNL A   1      42.365  31.132  34.821  1.00  0.00     0.057 A 
ATOM     61  C   UNL A   1      41.587  30.949  35.972  1.00  0.00     0.134 A 
ATOM     62  C   UNL A   1      43.072  32.337  34.707  1.00  0.00     0.134 A 
ATOM     63  F   UNL A   1      40.872  29.825  36.138  1.00  0.00    -0.206 F 
ATOM     64  C   UNL A   1      41.493  31.935  36.957  1.00  0.00     0.040 A 
ATOM     65  C   UNL A   1      43.009  33.318  35.699  1.00  0.00     0.040 A 
ATOM     66  F   UNL A   1      43.839  32.577  33.634  1.00  0.00    -0.206 F 
ATOM     67  C   UNL A   1      42.211  33.122  36.823  1.00  0.00     0.006 A 
ENDBRANCH  46  60
BRANCH  47  68
ATOM     68  C   UNL A   1      42.658  24.369  27.455  1.00  0.00     0.057 A 
ATOM     69  C   UNL A   1      43.168  24.708  26.196  1.00  0.00     0.134 A 
ATOM     70  C   UNL A   1      42.191  23.059  27.626  1.00  0.00     0.134 A 
ATOM     71  F   UNL A   1      43.610  25.952  25.961  1.00  0.00    -0.206 F 
ATOM     72  C   UNL A   1      43.194  23.791  25.144  1.00  0.00     0.040 A 
ATOM     73  C   UNL A   1      42.237  22.123  26.592  1.00  0.00     0.040 A 
ATOM     74  F   UNL A   1      41.689  22.668  28.807  1.00  0.00    -0.206 F 
ATOM     75  C   UNL A   1      42.732  22.491  25.343  1.00  0.00     0.006 A 
ENDBRANCH  47  68
BRANCH  59  76
ATOM     76  C   UNL A   1      46.929  25.946  32.728  1.00  0.00     0.057 A 
ATOM     77  C   UNL A   1      47.001  24.923  33.680  1.00  0.00     0.134 A 
ATOM     78  C   UNL A   1      48.133  26.394  32.167  1.00  0.00     0.134 A 
ATOM     79  F   UNL A   1      45.887  24.457  34.265  1.00  0.00    -0.206 F 
ATOM     80  C   UNL A   1      48.226  24.382  34.078  1.00  0.00     0.040 A 
ATOM     81  C   UNL A   1      49.360  25.840  32.534  1.00  0.00     0.040 A 
ATOM     82  F   UNL A   1      48.135  27.365  31.242  1.00  0.00    -0.206 F 
ATOM     83  C   UNL A   1      49.409  24.836  33.499  1.00  0.00     0.006 A 
ENDBRANCH  59  76
ENDBRANCH  33  34
ENDBRANCH  26  28
ENDBRANCH  25  26
ENDBRANCH  24  25
ENDBRANCH   1  24
TORSDOF 15
ENDMDL
MODEL 2
REMARK VINA RESULT:      -9.6      4.695     11.268
REMARK SMILES COc1ccc(-c2cccc(/C=C\C(=O)OCCOC(=O)c3ccc(-c4c5nc(c(-c6c(F)cccc6F)c6ccc([nH]6)c(-c6c(F)cccc6F)c6nc(c(-c7c(F)cccc7F)c7ccc4[nH]7)C=C6)C=C5)cc3)c2)c(Cl)c1OC
REMARK SMILES IDX 17 1 16 2 14 3 15 4 13 5 12 6 11 7 7 8 8 9 76 10 9 11 10 12
REMARK SMILES IDX 6 13 3 14 4 15 79 16 5 17 77 18 78 19 2 20 1 21 80 22 81 23
REMARK SMILES IDX 18 24 19 25 20 26 21 27 22 28 23 29 75 30 24 31 74 32 25 33
REMARK SMILES IDX 26 34 27 35 68 36 28 37 73 38 67 39 69 40 29 41 72 42 66 43
REMARK SMILES IDX 65 44 30 46 56 47 39 48 55 49 40 50 43 51 54 52 70 53 41 54
REMARK SMILES IDX 42 55 53 57 71 58 44 59 31 60 32 61 37 62 33 63 34 64 36 65
REMARK SMILES IDX 38 66 35 67 57 68 58 69 63 70 59 71 60 72 62 73 64 74 61 75
REMARK SMILES IDX 45 76 46 77 51 78 47 79 48 80 50 81 52 82 49 83
REMARK H PARENT 69 45 43 56
REMARK Flexibility Score: inf
ROOT
ATOM      1  C   UNL A   1      41.794  19.789  26.159  1.00  0.00     0.275 C 
ENDROOT
BRANCH   1   2
ATOM      2  O   UNL A   1      42.861  19.607  25.213  1.00  0.00    -0.459 OA
BRANCH   2   3
ATOM      3  C   UNL A   1      43.907  18.843  25.568  1.00  0.00     0.330 C 
ATOM      4  O   UNL A   1      43.845  17.800  26.204  1.00  0.00    -0.247 OA
BRANCH   3   5
ATOM      5  C   UNL A   1      45.184  19.299  24.966  1.00  0.00     0.094 C 
ATOM      6  C   UNL A   1      45.696  20.510  24.689  1.00  0.00     0.015 C 
BRANCH   6   7
ATOM      7  C   UNL A   1      45.187  21.842  25.029  1.00  0.00    -0.025 A 
ATOM      8  C   UNL A   1      45.140  23.671  26.636  1.00  0.00    -0.016 A 
ATOM      9  C   UNL A   1      44.125  24.290  25.894  1.00  0.00     0.009 A 
ATOM     10  C   UNL A   1      45.627  22.422  26.222  1.00  0.00     0.017 A 
ATOM     11  C   UNL A   1      43.737  23.756  24.673  1.00  0.00     0.001 A 
ATOM     12  C   UNL A   1      44.331  22.582  24.214  1.00  0.00     0.008 A 
BRANCH   8  13
ATOM     13  C   UNL A   1      45.765  24.377  27.759  1.00  0.00     0.004 A 
ATOM     14  C   UNL A   1      47.043  25.680  29.867  1.00  0.00     0.162 A 
ATOM     15  C   UNL A   1      47.619  25.684  28.592  1.00  0.00     0.051 A 
ATOM     16  C   UNL A   1      45.829  25.006  30.135  1.00  0.00     0.180 A 
ATOM     17  C   UNL A   1      46.975  25.047  27.541  1.00  0.00     0.014 A 
ATOM     18  C   UNL A   1      45.193  24.348  29.067  1.00  0.00     0.094 A 
ATOM     19  Cl  UNL A   1      43.727  23.419  29.263  1.00  0.00    -0.079 Cl
BRANCH  14  20
ATOM     20  O   UNL A   1      47.699  26.272  30.925  1.00  0.00    -0.493 OA
ATOM     21  C   UNL A   1      48.885  25.580  31.304  1.00  0.00     0.278 C 
ENDBRANCH  14  20
BRANCH  16  22
ATOM     22  O   UNL A   1      45.456  25.098  31.451  1.00  0.00    -0.491 OA
ATOM     23  C   UNL A   1      44.367  25.899  31.872  1.00  0.00     0.278 C 
ENDBRANCH  16  22
ENDBRANCH   8  13
ENDBRANCH   6   7
ENDBRANCH   3   5
ENDBRANCH   2   3
ENDBRANCH   1   2
BRANCH   1  24
ATOM     24  C   UNL A   1      41.813  21.217  26.722  1.00  0.00     0.275 C 
BRANCH  24  25
ATOM     25  O   UNL A   1      41.128  22.125  25.841  1.00  0.00    -0.458 OA
BRANCH  25  26
ATOM     26  C   UNL A   1      39.997  22.691  26.322  1.00  0.00     0.338 C 
ATOM     27  O   UNL A   1      38.899  22.173  26.440  1.00  0.00    -0.246 OA
BRANCH  26  28
ATOM     28  C   UNL A   1      40.330  24.024  26.850  1.00  0.00     0.060 A 
ATOM     29  C   UNL A   1      40.496  25.074  25.941  1.00  0.00     0.016 A 
ATOM     30  C   UNL A   1      40.471  24.244  28.220  1.00  0.00     0.016 A 
ATOM     31  C   UNL A   1      40.771  26.358  26.399  1.00  0.00     0.010 A 
ATOM     32  C   UNL A   1      40.757  25.530  28.681  1.00  0.00     0.010 A 
ATOM     33  C   UNL A   1      40.905  26.593  27.773  1.00  0.00    -0.014 A 
BRANCH  33  34
ATOM     34  C   UNL A   1      41.255  27.947  28.253  1.00  0.00     0.031 A 
ATOM     35  C   UNL A   1      42.694  28.370  28.280  1.00  0.00     0.074 A 
ATOM     36  C   UNL A   1      40.284  28.793  28.641  1.00  0.00     0.049 A 
ATOM     37  N   UNL A   1      43.222  29.485  28.712  1.00  0.00    -0.248 NA
ATOM     38  C   UNL A   1      43.669  27.404  27.751  1.00  0.00     0.031 C 
ATOM     39  C   UNL A   1      38.851  28.502  28.617  1.00  0.00     0.029 A 
ATOM     40  N   UNL A   1      40.359  30.069  29.137  1.00  0.00    -0.354 N 
ATOM     41  C   UNL A   1      44.590  29.354  28.517  1.00  0.00     0.074 A 
ATOM     42  C   UNL A   1      44.814  28.039  27.958  1.00  0.00     0.031 C 
ATOM     43  C   UNL A   1      38.180  29.570  29.077  1.00  0.00     0.029 A 
ATOM     44  C   UNL A   1      39.137  30.601  29.470  1.00  0.00     0.049 A 
ATOM     45  H   UNL A   1      41.207  30.558  29.245  1.00  0.00     0.167 HD
ATOM     46  C   UNL A   1      45.567  30.255  28.776  1.00  0.00     0.037 A 
ATOM     47  C   UNL A   1      38.831  31.778  30.049  1.00  0.00     0.037 A 
ATOM     48  C   UNL A   1      45.330  31.559  29.338  1.00  0.00     0.049 A 
ATOM     49  C   UNL A   1      39.944  32.728  30.401  1.00  0.00     0.074 A 
ATOM     50  C   UNL A   1      46.249  32.551  29.632  1.00  0.00     0.029 A 
ATOM     51  N   UNL A   1      44.082  32.050  29.696  1.00  0.00    -0.354 N 
ATOM     52  N   UNL A   1      41.234  32.603  30.200  1.00  0.00    -0.248 NA
ATOM     53  C   UNL A   1      39.558  33.983  31.060  1.00  0.00     0.031 C 
ATOM     54  C   UNL A   1      45.564  33.619  30.222  1.00  0.00     0.029 A 
ATOM     55  C   UNL A   1      44.210  33.320  30.236  1.00  0.00     0.049 A 
ATOM     56  H   UNL A   1      43.232  31.567  29.584  1.00  0.00     0.167 HD
ATOM     57  C   UNL A   1      41.810  33.774  30.678  1.00  0.00     0.074 A 
ATOM     58  C   UNL A   1      40.726  34.601  31.166  1.00  0.00     0.031 C 
ATOM     59  C   UNL A   1      43.117  34.132  30.708  1.00  0.00     0.037 A 
BRANCH  46  60
ATOM     60  C   UNL A   1      46.980  29.843  28.486  1.00  0.00     0.057 A 
ATOM     61  C   UNL A   1      47.848  29.400  29.494  1.00  0.00     0.134 A 
ATOM     62  C   UNL A   1      47.476  29.872  27.176  1.00  0.00     0.134 A 
ATOM     63  F   UNL A   1      47.442  29.362  30.773  1.00  0.00    -0.206 F 
ATOM     64  C   UNL A   1      49.165  29.028  29.214  1.00  0.00     0.040 A 
ATOM     65  C   UNL A   1      48.782  29.475  26.880  1.00  0.00     0.040 A 
ATOM     66  F   UNL A   1      46.699  30.281  26.162  1.00  0.00    -0.206 F 
ATOM     67  C   UNL A   1      49.633  29.059  27.901  1.00  0.00     0.006 A 
ENDBRANCH  46  60
BRANCH  47  68
ATOM     68  C   UNL A   1      37.417  32.118  30.346  1.00  0.00     0.057 A 
ATOM     69  C   UNL A   1      36.828  31.772  31.568  1.00  0.00     0.134 A 
ATOM     70  C   UNL A   1      36.611  32.778  29.410  1.00  0.00     0.134 A 
ATOM     71  F   UNL A   1      37.539  31.118  32.498  1.00  0.00    -0.206 F 
ATOM     72  C   UNL A   1      35.488  32.053  31.841  1.00  0.00     0.040 A 
ATOM     73  C   UNL A   1      35.278  33.091  29.679  1.00  0.00     0.040 A 
ATOM     74  F   UNL A   1      37.113  33.139  28.219  1.00  0.00    -0.206 F 
ATOM     75  C   UNL A   1      34.710  32.719  30.896  1.00  0.00     0.006 A 
ENDBRANCH  47  68
BRANCH  59  76
ATOM     76  C   UNL A   1      43.443  35.496  31.247  1.00  0.00     0.057 A 
ATOM     77  C   UNL A   1      43.625  35.733  32.614  1.00  0.00     0.134 A 
ATOM     78  C   UNL A   1      43.616  36.580  30.375  1.00  0.00     0.134 A 
ATOM     79  F   UNL A   1      43.462  34.742  33.504  1.00  0.00    -0.206 F 
ATOM     80  C   UNL A   1      43.943  37.003  33.099  1.00  0.00     0.040 A 
ATOM     81  C   UNL A   1      43.965  37.847  30.844  1.00  0.00     0.040 A 
ATOM     82  F   UNL A   1      43.466  36.421  29.052  1.00  0.00    -0.206 F 
ATOM     83  C   UNL A   1      44.121  38.063  32.212  1.00  0.00     0.006 A 
ENDBRANCH  59  76
ENDBRANCH  33  34
ENDBRANCH  26  28
ENDBRANCH  25  26
ENDBRANCH  24  25
ENDBRANCH   1  24
TORSDOF 15
ENDMDL
MODEL 3
REMARK VINA RESULT:      -9.6      4.741     10.831
REMARK SMILES COc1ccc(-c2cccc(/C=C\C(=O)OCCOC(=O)c3ccc(-c4c5nc(c(-c6c(F)cccc6F)c6ccc([nH]6)c(-c6c(F)cccc6F)c6nc(c(-c7c(F)cccc7F)c7ccc4[nH]7)C=C6)C=C5)cc3)c2)c(Cl)c1OC
REMARK SMILES IDX 17 1 16 2 14 3 15 4 13 5 12 6 11 7 7 8 8 9 76 10 9 11 10 12
REMARK SMILES IDX 6 13 3 14 4 15 79 16 5 17 77 18 78 19 2 20 1 21 80 22 81 23
REMARK SMILES IDX 18 24 19 25 20 26 21 27 22 28 23 29 75 30 24 31 74 32 25 33
REMARK SMILES IDX 26 34 27 35 68 36 28 37 73 38 67 39 69 40 29 41 72 42 66 43
REMARK SMILES IDX 65 44 30 46 56 47 39 48 55 49 40 50 43 51 54 52 70 53 41 54
REMARK SMILES IDX 42 55 53 57 71 58 44 59 31 60 32 61 37 62 33 63 34 64 36 65
REMARK SMILES IDX 38 66 35 67 57 68 58 69 63 70 59 71 60 72 62 73 64 74 61 75
REMARK SMILES IDX 45 76 46 77 51 78 47 79 48 80 50 81 52 82 49 83
REMARK H PARENT 69 45 43 56
REMARK Flexibility Score: inf
ROOT
ATOM      1  C   UNL A   1      43.075  20.688  25.812  1.00  0.00     0.275 C 
ENDROOT
BRANCH   1   2
ATOM      2  O   UNL A   1      41.689  21.020  25.629  1.00  0.00    -0.459 OA
BRANCH   2   3
ATOM      3  C   UNL A   1      40.913  21.150  26.718  1.00  0.00     0.330 C 
ATOM      4  O   UNL A   1      40.731  20.291  27.570  1.00  0.00    -0.247 OA
BRANCH   3   5
ATOM      5  C   UNL A   1      40.399  22.530  26.898  1.00  0.00     0.094 C 
ATOM      6  C   UNL A   1      39.266  23.151  26.531  1.00  0.00     0.015 C 
BRANCH   6   7
ATOM      7  C   UNL A   1      38.054  22.600  25.916  1.00  0.00    -0.025 A 
ATOM      8  C   UNL A   1      35.644  22.777  25.615  1.00  0.00    -0.016 A 
ATOM      9  C   UNL A   1      35.638  21.533  24.972  1.00  0.00     0.009 A 
ATOM     10  C   UNL A   1      36.850  23.277  26.129  1.00  0.00     0.017 A 
ATOM     11  C   UNL A   1      36.837  20.892  24.693  1.00  0.00     0.001 A 
ATOM     12  C   UNL A   1      38.038  21.472  25.096  1.00  0.00     0.008 A 
BRANCH   8  13
ATOM     13  C   UNL A   1      34.428  23.598  25.642  1.00  0.00     0.004 A 
ATOM     14  C   UNL A   1      32.176  25.240  25.701  1.00  0.00     0.162 A 
ATOM     15  C   UNL A   1      33.268  25.581  24.896  1.00  0.00     0.051 A 
ATOM     16  C   UNL A   1      32.184  24.087  26.519  1.00  0.00     0.180 A 
ATOM     17  C   UNL A   1      34.382  24.756  24.857  1.00  0.00     0.014 A 
ATOM     18  C   UNL A   1      33.326  23.267  26.487  1.00  0.00     0.094 A 
ATOM     19  Cl  UNL A   1      33.505  21.850  27.493  1.00  0.00    -0.079 Cl
BRANCH  14  20
ATOM     20  O   UNL A   1      31.084  26.078  25.779  1.00  0.00    -0.493 OA
ATOM     21  C   UNL A   1      31.388  27.425  25.429  1.00  0.00     0.278 C 
ENDBRANCH  14  20
BRANCH  16  22
ATOM     22  O   UNL A   1      31.033  23.953  27.251  1.00  0.00    -0.491 OA
ATOM     23  C   UNL A   1      30.071  22.955  26.968  1.00  0.00     0.278 C 
ENDBRANCH  16  22
ENDBRANCH   8  13
ENDBRANCH   6   7
ENDBRANCH   3   5
ENDBRANCH   2   3
ENDBRANCH   1   2
BRANCH   1  24
ATOM     24  C   UNL A   1      43.974  21.786  25.226  1.00  0.00     0.275 C 
BRANCH  24  25
ATOM     25  O   UNL A   1      44.216  22.821  26.195  1.00  0.00    -0.458 OA
BRANCH  25  26
ATOM     26  C   UNL A   1      44.172  24.095  25.739  1.00  0.00     0.338 C 
ATOM     27  O   UNL A   1      44.397  24.487  24.606  1.00  0.00    -0.246 OA
BRANCH  26  28
ATOM     28  C   UNL A   1      43.639  24.955  26.807  1.00  0.00     0.060 A 
ATOM     29  C   UNL A   1      44.063  26.287  26.859  1.00  0.00     0.016 A 
ATOM     30  C   UNL A   1      42.730  24.465  27.745  1.00  0.00     0.016 A 
ATOM     31  C   UNL A   1      43.554  27.146  27.827  1.00  0.00     0.010 A 
ATOM     32  C   UNL A   1      42.225  25.323  28.723  1.00  0.00     0.010 A 
ATOM     33  C   UNL A   1      42.633  26.668  28.767  1.00  0.00    -0.014 A 
BRANCH  33  34
ATOM     34  C   UNL A   1      42.139  27.568  29.831  1.00  0.00     0.031 A 
ATOM     35  C   UNL A   1      42.828  27.584  31.162  1.00  0.00     0.074 A 
ATOM     36  C   UNL A   1      41.091  28.377  29.591  1.00  0.00     0.049 A 
ATOM     37  N   UNL A   1      42.526  28.252  32.244  1.00  0.00    -0.248 NA
ATOM     38  C   UNL A   1      44.018  26.727  31.292  1.00  0.00     0.031 C 
ATOM     39  C   UNL A   1      40.372  28.475  28.321  1.00  0.00     0.029 A 
ATOM     40  N   UNL A   1      40.447  29.268  30.411  1.00  0.00    -0.354 N 
ATOM     41  C   UNL A   1      43.479  27.893  33.187  1.00  0.00     0.074 A 
ATOM     42  C   UNL A   1      44.351  26.923  32.560  1.00  0.00     0.031 C 
ATOM     43  C   UNL A   1      39.385  29.376  28.445  1.00  0.00     0.029 A 
ATOM     44  C   UNL A   1      39.376  29.886  29.815  1.00  0.00     0.049 A 
ATOM     45  H   UNL A   1      40.726  29.449  31.337  1.00  0.00     0.167 HD
ATOM     46  C   UNL A   1      43.617  28.340  34.457  1.00  0.00     0.037 A 
ATOM     47  C   UNL A   1      38.474  30.746  30.326  1.00  0.00     0.037 A 
ATOM     48  C   UNL A   1      42.739  29.302  35.071  1.00  0.00     0.049 A 
ATOM     49  C   UNL A   1      38.602  31.164  31.766  1.00  0.00     0.074 A 
ATOM     50  C   UNL A   1      42.794  29.827  36.350  1.00  0.00     0.029 A 
ATOM     51  N   UNL A   1      41.642  29.879  34.448  1.00  0.00    -0.354 N 
ATOM     52  N   UNL A   1      39.515  30.832  32.648  1.00  0.00    -0.248 NA
ATOM     53  C   UNL A   1      37.574  32.079  32.283  1.00  0.00     0.031 C 
ATOM     54  C   UNL A   1      41.697  30.679  36.520  1.00  0.00     0.029 A 
ATOM     55  C   UNL A   1      40.994  30.734  35.326  1.00  0.00     0.049 A 
ATOM     56  H   UNL A   1      41.363  29.706  33.520  1.00  0.00     0.167 HD
ATOM     57  C   UNL A   1      39.191  31.518  33.811  1.00  0.00     0.074 A 
ATOM     58  C   UNL A   1      38.004  32.296  33.518  1.00  0.00     0.031 C 
ATOM     59  C   UNL A   1      39.819  31.507  35.012  1.00  0.00     0.037 A 
BRANCH  46  60
ATOM     60  C   UNL A   1      44.736  27.763  35.275  1.00  0.00     0.057 A 
ATOM     61  C   UNL A   1      46.003  28.360  35.327  1.00  0.00     0.134 A 
ATOM     62  C   UNL A   1      44.538  26.604  36.036  1.00  0.00     0.134 A 
ATOM     63  F   UNL A   1      46.265  29.464  34.610  1.00  0.00    -0.206 F 
ATOM     64  C   UNL A   1      47.040  27.810  36.084  1.00  0.00     0.040 A 
ATOM     65  C   UNL A   1      45.559  26.061  36.820  1.00  0.00     0.040 A 
ATOM     66  F   UNL A   1      43.350  25.984  36.036  1.00  0.00    -0.206 F 
ATOM     67  C   UNL A   1      46.816  26.660  36.838  1.00  0.00     0.006 A 
ENDBRANCH  46  60
BRANCH  47  68
ATOM     68  C   UNL A   1      37.365  31.256  29.481  1.00  0.00     0.057 A 
ATOM     69  C   UNL A   1      36.237  30.473  29.211  1.00  0.00     0.134 A 
ATOM     70  C   UNL A   1      37.414  32.532  28.903  1.00  0.00     0.134 A 
ATOM     71  F   UNL A   1      36.141  29.234  29.715  1.00  0.00    -0.206 F 
ATOM     72  C   UNL A   1      35.208  30.929  28.385  1.00  0.00     0.040 A 
ATOM     73  C   UNL A   1      36.380  33.012  28.099  1.00  0.00     0.040 A 
ATOM     74  F   UNL A   1      38.467  33.334  29.121  1.00  0.00    -0.206 F 
ATOM     75  C   UNL A   1      35.277  32.206  27.830  1.00  0.00     0.006 A 
ENDBRANCH  47  68
BRANCH  59  76
ATOM     76  C   UNL A   1      39.262  32.398  36.087  1.00  0.00     0.057 A 
ATOM     77  C   UNL A   1      38.288  31.955  36.989  1.00  0.00     0.134 A 
ATOM     78  C   UNL A   1      39.740  33.706  36.243  1.00  0.00     0.134 A 
ATOM     79  F   UNL A   1      37.778  30.718  36.889  1.00  0.00    -0.206 F 
ATOM     80  C   UNL A   1      37.790  32.789  37.993  1.00  0.00     0.040 A 
ATOM     81  C   UNL A   1      39.274  34.538  37.260  1.00  0.00     0.040 A 
ATOM     82  F   UNL A   1      40.681  34.190  35.418  1.00  0.00    -0.206 F 
ATOM     83  C   UNL A   1      38.289  34.082  38.135  1.00  0.00     0.006 A 
ENDBRANCH  59  76
ENDBRANCH  33  34
ENDBRANCH  26  28
ENDBRANCH  25  26
ENDBRANCH  24  25
ENDBRANCH   1  24
TORSDOF 15
ENDMDL
