MODEL 1
REMARK VINA RESULT:     -12.7      0.000      0.000
REMARK SMILES O=C(OCCOC(=O)c1cc(N2C(=O)C[C@H](Nc3ccccc3O)C2=O)ccc1O)c1ccc(-c2c3nc(c(-c4c(F)cccc4F)c4ccc([nH]4)c(-c4c(F)cccc4F)c4nc(c(-c5c(F)cccc5F)c5ccc2[nH]5)C=C4)C=C3)cc1
REMARK SMILES IDX 5 1 4 2 3 3 2 4 1 5 31 6 32 7 84 8 33 9 83 10 34 11 35 12
REMARK SMILES IDX 36 13 77 14 37 15 82 16 76 17 78 18 38 19 81 20 75 21 74 22
REMARK SMILES IDX 39 24 65 25 48 26 64 27 49 28 52 29 63 30 79 31 50 32 51 33
REMARK SMILES IDX 62 35 80 36 53 37 40 38 41 39 46 40 42 41 43 42 45 43 47 44
REMARK SMILES IDX 44 45 66 46 67 47 72 48 68 49 69 50 71 51 73 52 70 53 54 54
REMARK SMILES IDX 55 55 60 56 56 57 57 58 59 59 61 60 58 61 6 62 7 63 8 64
REMARK SMILES IDX 9 65 10 66 29 67 11 68 28 69 27 70 30 71 12 73 13 74 25 75
REMARK SMILES IDX 14 76 15 77 16 78 26 79 17 80 18 82 19 83 23 84 20 85 22 86
REMARK SMILES IDX 21 87 24 88
REMARK H PARENT 78 23 52 34 30 72 17 81 24 89
REMARK Flexibility Score: inf
ROOT
ATOM      1  C   UNL A   1      32.273  31.176  26.701  1.00  0.00     0.275 C 
ENDROOT
BRANCH   1   2
ATOM      2  C   UNL A   1      31.465  32.377  27.202  1.00  0.00     0.275 C 
BRANCH   2   3
ATOM      3  O   UNL A   1      32.174  33.625  27.204  1.00  0.00    -0.458 OA
BRANCH   3   4
ATOM      4  C   UNL A   1      32.933  34.195  28.167  1.00  0.00     0.338 C 
ATOM      5  O   UNL A   1      32.601  35.303  28.591  1.00  0.00    -0.246 OA
BRANCH   4   6
ATOM      6  C   UNL A   1      34.219  33.616  28.680  1.00  0.00     0.060 A 
ATOM      7  C   UNL A   1      35.517  34.038  28.379  1.00  0.00     0.016 A 
ATOM      8  C   UNL A   1      34.083  32.544  29.572  1.00  0.00     0.016 A 
ATOM      9  C   UNL A   1      36.634  33.466  29.003  1.00  0.00     0.010 A 
ATOM     10  C   UNL A   1      35.189  31.986  30.217  1.00  0.00     0.010 A 
ATOM     11  C   UNL A   1      36.475  32.440  29.930  1.00  0.00    -0.014 A 
BRANCH  11  12
ATOM     12  C   UNL A   1      37.644  31.728  30.487  1.00  0.00     0.031 A 
ATOM     13  C   UNL A   1      38.095  32.083  31.872  1.00  0.00     0.074 A 
ATOM     14  C   UNL A   1      38.286  30.788  29.769  1.00  0.00     0.049 A 
ATOM     15  N   UNL A   1      39.062  31.568  32.582  1.00  0.00    -0.248 NA
ATOM     16  C   UNL A   1      37.343  33.150  32.557  1.00  0.00     0.031 C 
ATOM     17  C   UNL A   1      37.903  30.344  28.431  1.00  0.00     0.029 A 
ATOM     18  N   UNL A   1      39.404  30.049  30.055  1.00  0.00    -0.354 N 
ATOM     19  C   UNL A   1      39.009  32.220  33.806  1.00  0.00     0.074 A 
ATOM     20  C   UNL A   1      37.976  33.226  33.716  1.00  0.00     0.031 C 
ATOM     21  C   UNL A   1      38.803  29.451  27.985  1.00  0.00     0.029 A 
ATOM     22  C   UNL A   1      39.813  29.247  29.017  1.00  0.00     0.049 A 
ATOM     23  H   UNL A   1      39.869  30.089  30.922  1.00  0.00     0.167 HD
ATOM     24  C   UNL A   1      39.729  31.969  34.921  1.00  0.00     0.037 A 
ATOM     25  C   UNL A   1      40.884  28.437  28.920  1.00  0.00     0.037 A 
ATOM     26  C   UNL A   1      40.773  30.986  34.983  1.00  0.00     0.049 A 
ATOM     27  C   UNL A   1      41.747  28.251  30.138  1.00  0.00     0.074 A 
ATOM     28  C   UNL A   1      41.568  30.632  36.058  1.00  0.00     0.029 A 
ATOM     29  N   UNL A   1      41.180  30.210  33.906  1.00  0.00    -0.354 N 
ATOM     30  N   UNL A   1      41.634  28.810  31.320  1.00  0.00    -0.248 NA
ATOM     31  C   UNL A   1      42.855  27.293  30.029  1.00  0.00     0.031 C 
ATOM     32  C   UNL A   1      42.490  29.678  35.615  1.00  0.00     0.029 A 
ATOM     33  C   UNL A   1      42.235  29.399  34.280  1.00  0.00     0.049 A 
ATOM     34  H   UNL A   1      40.776  30.234  33.008  1.00  0.00     0.167 HD
ATOM     35  C   UNL A   1      42.621  28.237  32.110  1.00  0.00     0.074 A 
ATOM     36  C   UNL A   1      43.325  27.289  31.269  1.00  0.00     0.031 C 
ATOM     37  C   UNL A   1      42.909  28.461  33.416  1.00  0.00     0.037 A 
BRANCH  24  38
ATOM     38  C   UNL A   1      39.400  32.786  36.135  1.00  0.00     0.057 A 
ATOM     39  C   UNL A   1      40.034  34.010  36.391  1.00  0.00     0.134 A 
ATOM     40  C   UNL A   1      38.475  32.328  37.079  1.00  0.00     0.134 A 
ATOM     41  F   UNL A   1      40.951  34.494  35.538  1.00  0.00    -0.206 F 
ATOM     42  C   UNL A   1      39.786  34.732  37.560  1.00  0.00     0.040 A 
ATOM     43  C   UNL A   1      38.200  33.052  38.240  1.00  0.00     0.040 A 
ATOM     44  F   UNL A   1      37.836  31.162  36.898  1.00  0.00    -0.206 F 
ATOM     45  C   UNL A   1      38.864  34.253  38.487  1.00  0.00     0.006 A 
ENDBRANCH  24  38
BRANCH  25  46
ATOM     46  C   UNL A   1      41.170  27.718  27.651  1.00  0.00     0.057 A 
ATOM     47  C   UNL A   1      40.688  26.427  27.413  1.00  0.00     0.134 A 
ATOM     48  C   UNL A   1      41.947  28.308  26.644  1.00  0.00     0.134 A 
ATOM     49  F   UNL A   1      39.946  25.803  28.339  1.00  0.00    -0.206 F 
ATOM     50  C   UNL A   1      40.984  25.739  26.234  1.00  0.00     0.040 A 
ATOM     51  C   UNL A   1      42.236  27.639  25.453  1.00  0.00     0.040 A 
ATOM     52  F   UNL A   1      42.427  29.551  26.799  1.00  0.00    -0.206 F 
ATOM     53  C   UNL A   1      41.760  26.346  25.249  1.00  0.00     0.006 A 
ENDBRANCH  25  46
BRANCH  37  54
ATOM     54  C   UNL A   1      44.007  27.638  34.020  1.00  0.00     0.057 A 
ATOM     55  C   UNL A   1      45.335  28.079  34.047  1.00  0.00     0.134 A 
ATOM     56  C   UNL A   1      43.716  26.412  34.634  1.00  0.00     0.134 A 
ATOM     57  F   UNL A   1      45.678  29.238  33.464  1.00  0.00    -0.206 F 
ATOM     58  C   UNL A   1      46.340  27.320  34.646  1.00  0.00     0.040 A 
ATOM     59  C   UNL A   1      44.706  25.659  35.262  1.00  0.00     0.040 A 
ATOM     60  F   UNL A   1      42.459  25.939  34.651  1.00  0.00    -0.206 F 
ATOM     61  C   UNL A   1      46.024  26.110  35.264  1.00  0.00     0.006 A 
ENDBRANCH  37  54
ENDBRANCH  11  12
ENDBRANCH   4   6
ENDBRANCH   3   4
ENDBRANCH   2   3
ENDBRANCH   1   2
BRANCH   1  62
ATOM     62  O   UNL A   1      31.661  30.486  25.601  1.00  0.00    -0.458 OA
BRANCH  62  63
ATOM     63  C   UNL A   1      32.294  29.355  25.190  1.00  0.00     0.342 C 
ATOM     64  O   UNL A   1      33.471  29.080  25.363  1.00  0.00    -0.246 OA
BRANCH  63  65
ATOM     65  C   UNL A   1      31.328  28.396  24.608  1.00  0.00     0.103 A 
ATOM     66  C   UNL A   1      31.473  27.034  24.933  1.00  0.00     0.046 A 
ATOM     67  C   UNL A   1      30.331  28.796  23.716  1.00  0.00     0.130 A 
ATOM     68  C   UNL A   1      30.611  26.080  24.373  1.00  0.00     0.053 A 
ATOM     69  C   UNL A   1      29.470  27.847  23.162  1.00  0.00     0.049 A 
ATOM     70  C   UNL A   1      29.613  26.495  23.484  1.00  0.00     0.031 A 
BRANCH  67  71
ATOM     71  O   UNL A   1      30.199  30.110  23.364  1.00  0.00    -0.507 OA
ATOM     72  H   UNL A   1      30.003  30.753  24.017  1.00  0.00     0.293 HD
ENDBRANCH  67  71
BRANCH  68  73
ATOM     73  N   UNL A   1      30.787  24.708  24.656  1.00  0.00    -0.249 N 
ATOM     74  C   UNL A   1      30.539  24.166  25.888  1.00  0.00     0.236 C 
ATOM     75  C   UNL A   1      31.554  23.865  23.893  1.00  0.00     0.256 C 
ATOM     76  O   UNL A   1      30.082  24.734  26.871  1.00  0.00    -0.274 OA
ATOM     77  C   UNL A   1      30.962  22.727  25.894  1.00  0.00     0.136 C 
ATOM     78  C   UNL A   1      31.458  22.465  24.482  1.00  0.00     0.179 C 
ATOM     79  O   UNL A   1      32.301  24.177  22.975  1.00  0.00    -0.272 OA
BRANCH  78  80
ATOM     80  N   UNL A   1      32.766  21.794  24.526  1.00  0.00    -0.370 N 
ATOM     81  H   UNL A   1      33.599  22.310  24.627  1.00  0.00     0.161 HD
BRANCH  80  82
ATOM     82  C   UNL A   1      32.789  20.396  24.419  1.00  0.00     0.077 A 
ATOM     83  C   UNL A   1      32.462  19.811  23.191  1.00  0.00     0.029 A 
ATOM     84  C   UNL A   1      32.955  19.550  25.529  1.00  0.00     0.138 A 
ATOM     85  C   UNL A   1      32.356  18.423  23.063  1.00  0.00     0.002 A 
ATOM     86  C   UNL A   1      32.842  18.164  25.412  1.00  0.00     0.048 A 
ATOM     87  C   UNL A   1      32.545  17.600  24.172  1.00  0.00     0.004 A 
BRANCH  84  88
ATOM     88  O   UNL A   1      33.214  20.107  26.752  1.00  0.00    -0.506 OA
ATOM     89  H   UNL A   1      33.726  19.639  27.381  1.00  0.00     0.293 HD
ENDBRANCH  84  88
ENDBRANCH  80  82
ENDBRANCH  78  80
ENDBRANCH  68  73
ENDBRANCH  63  65
ENDBRANCH  62  63
ENDBRANCH   1  62
TORSDOF 16
ENDMDL
MODEL 2
REMARK VINA RESULT:     -12.5      4.482      8.208
REMARK SMILES O=C(OCCOC(=O)c1cc(N2C(=O)C[C@H](Nc3ccccc3O)C2=O)ccc1O)c1ccc(-c2c3nc(c(-c4c(F)cccc4F)c4ccc([nH]4)c(-c4c(F)cccc4F)c4nc(c(-c5c(F)cccc5F)c5ccc2[nH]5)C=C4)C=C3)cc1
REMARK SMILES IDX 5 1 4 2 3 3 2 4 1 5 31 6 32 7 84 8 33 9 83 10 34 11 35 12
REMARK SMILES IDX 36 13 77 14 37 15 82 16 76 17 78 18 38 19 81 20 75 21 74 22
REMARK SMILES IDX 39 24 65 25 48 26 64 27 49 28 52 29 63 30 79 31 50 32 51 33
REMARK SMILES IDX 62 35 80 36 53 37 40 38 41 39 46 40 42 41 43 42 45 43 47 44
REMARK SMILES IDX 44 45 66 46 67 47 72 48 68 49 69 50 71 51 73 52 70 53 54 54
REMARK SMILES IDX 55 55 60 56 56 57 57 58 59 59 61 60 58 61 6 62 7 63 8 64
REMARK SMILES IDX 9 65 10 66 29 67 11 68 28 69 27 70 30 71 12 73 13 74 25 75
REMARK SMILES IDX 14 76 15 77 16 78 26 79 17 80 18 82 19 83 23 84 20 85 22 86
REMARK SMILES IDX 21 87 24 88
REMARK H PARENT 78 23 52 34 30 72 17 81 24 89
REMARK Flexibility Score: inf
ROOT
ATOM      1  C   UNL A   1      34.468  34.854  33.207  1.00  0.00     0.275 C 
ENDROOT
BRANCH   1   2
ATOM      2  C   UNL A   1      34.856  33.623  34.031  1.00  0.00     0.275 C 
BRANCH   2   3
ATOM      3  O   UNL A   1      35.630  32.642  33.324  1.00  0.00    -0.458 OA
BRANCH   3   4
ATOM      4  C   UNL A   1      36.805  32.059  33.650  1.00  0.00     0.338 C 
ATOM      5  O   UNL A   1      37.115  31.999  34.841  1.00  0.00    -0.246 OA
BRANCH   4   6
ATOM      6  C   UNL A   1      37.814  31.578  32.648  1.00  0.00     0.060 A 
ATOM      7  C   UNL A   1      37.639  31.441  31.269  1.00  0.00     0.016 A 
ATOM      8  C   UNL A   1      39.073  31.250  33.172  1.00  0.00     0.016 A 
ATOM      9  C   UNL A   1      38.700  31.067  30.432  1.00  0.00     0.010 A 
ATOM     10  C   UNL A   1      40.140  30.902  32.343  1.00  0.00     0.010 A 
ATOM     11  C   UNL A   1      39.958  30.801  30.965  1.00  0.00    -0.014 A 
BRANCH  11  12
ATOM     12  C   UNL A   1      41.046  30.267  30.120  1.00  0.00     0.031 A 
ATOM     13  C   UNL A   1      42.144  31.199  29.706  1.00  0.00     0.074 A 
ATOM     14  C   UNL A   1      41.048  28.978  29.731  1.00  0.00     0.049 A 
ATOM     15  N   UNL A   1      43.219  30.950  29.007  1.00  0.00    -0.248 NA
ATOM     16  C   UNL A   1      42.028  32.597  30.158  1.00  0.00     0.031 C 
ATOM     17  C   UNL A   1      40.048  27.983  30.111  1.00  0.00     0.029 A 
ATOM     18  N   UNL A   1      41.909  28.287  28.919  1.00  0.00    -0.354 N 
ATOM     19  C   UNL A   1      43.920  32.146  28.968  1.00  0.00     0.074 A 
ATOM     20  C   UNL A   1      43.115  33.142  29.637  1.00  0.00     0.031 C 
ATOM     21  C   UNL A   1      40.317  26.823  29.487  1.00  0.00     0.029 A 
ATOM     22  C   UNL A   1      41.520  26.990  28.681  1.00  0.00     0.049 A 
ATOM     23  H   UNL A   1      42.728  28.682  28.542  1.00  0.00     0.167 HD
ATOM     24  C   UNL A   1      45.149  32.382  28.459  1.00  0.00     0.037 A 
ATOM     25  C   UNL A   1      42.082  26.048  27.901  1.00  0.00     0.037 A 
ATOM     26  C   UNL A   1      45.923  31.388  27.771  1.00  0.00     0.049 A 
ATOM     27  C   UNL A   1      43.400  26.361  27.245  1.00  0.00     0.074 A 
ATOM     28  C   UNL A   1      47.185  31.501  27.219  1.00  0.00     0.029 A 
ATOM     29  N   UNL A   1      45.488  30.092  27.524  1.00  0.00    -0.354 N 
ATOM     30  N   UNL A   1      44.097  27.472  27.288  1.00  0.00    -0.248 NA
ATOM     31  C   UNL A   1      44.032  25.284  26.474  1.00  0.00     0.031 C 
ATOM     32  C   UNL A   1      47.491  30.288  26.593  1.00  0.00     0.029 A 
ATOM     33  C   UNL A   1      46.443  29.403  26.801  1.00  0.00     0.049 A 
ATOM     34  H   UNL A   1      44.626  29.720  27.821  1.00  0.00     0.167 HD
ATOM     35  C   UNL A   1      45.271  27.215  26.594  1.00  0.00     0.074 A 
ATOM     36  C   UNL A   1      45.188  25.840  26.138  1.00  0.00     0.031 C 
ATOM     37  C   UNL A   1      46.329  28.032  26.368  1.00  0.00     0.037 A 
BRANCH  24  38
ATOM     38  C   UNL A   1      45.697  33.766  28.631  1.00  0.00     0.057 A 
ATOM     39  C   UNL A   1      45.508  34.759  27.658  1.00  0.00     0.134 A 
ATOM     40  C   UNL A   1      46.457  34.103  29.756  1.00  0.00     0.134 A 
ATOM     41  F   UNL A   1      44.811  34.494  26.542  1.00  0.00    -0.206 F 
ATOM     42  C   UNL A   1      46.085  36.024  27.782  1.00  0.00     0.040 A 
ATOM     43  C   UNL A   1      47.019  35.372  29.904  1.00  0.00     0.040 A 
ATOM     44  F   UNL A   1      46.681  33.200  30.723  1.00  0.00    -0.206 F 
ATOM     45  C   UNL A   1      46.841  36.333  28.910  1.00  0.00     0.006 A 
ENDBRANCH  24  38
BRANCH  25  46
ATOM     46  C   UNL A   1      41.430  24.723  27.735  1.00  0.00     0.057 A 
ATOM     47  C   UNL A   1      41.861  23.598  28.444  1.00  0.00     0.134 A 
ATOM     48  C   UNL A   1      40.358  24.551  26.848  1.00  0.00     0.134 A 
ATOM     49  F   UNL A   1      42.888  23.694  29.302  1.00  0.00    -0.206 F 
ATOM     50  C   UNL A   1      41.270  22.345  28.264  1.00  0.00     0.040 A 
ATOM     51  C   UNL A   1      39.745  23.308  26.671  1.00  0.00     0.040 A 
ATOM     52  F   UNL A   1      39.882  25.591  26.149  1.00  0.00    -0.206 F 
ATOM     53  C   UNL A   1      40.207  22.199  27.375  1.00  0.00     0.006 A 
ENDBRANCH  25  46
BRANCH  37  54
ATOM     54  C   UNL A   1      47.494  27.446  25.629  1.00  0.00     0.057 A 
ATOM     55  C   UNL A   1      47.624  27.562  24.240  1.00  0.00     0.134 A 
ATOM     56  C   UNL A   1      48.527  26.808  26.328  1.00  0.00     0.134 A 
ATOM     57  F   UNL A   1      46.661  28.150  23.514  1.00  0.00    -0.206 F 
ATOM     58  C   UNL A   1      48.733  27.045  23.569  1.00  0.00     0.040 A 
ATOM     59  C   UNL A   1      49.653  26.314  25.672  1.00  0.00     0.040 A 
ATOM     60  F   UNL A   1      48.467  26.675  27.663  1.00  0.00    -0.206 F 
ATOM     61  C   UNL A   1      49.755  26.427  24.288  1.00  0.00     0.006 A 
ENDBRANCH  37  54
ENDBRANCH  11  12
ENDBRANCH   4   6
ENDBRANCH   3   4
ENDBRANCH   2   3
ENDBRANCH   1   2
BRANCH   1  62
ATOM     62  O   UNL A   1      33.200  34.730  32.545  1.00  0.00    -0.458 OA
BRANCH  62  63
ATOM     63  C   UNL A   1      32.850  35.770  31.742  1.00  0.00     0.342 C 
ATOM     64  O   UNL A   1      32.286  36.796  32.090  1.00  0.00    -0.246 OA
BRANCH  63  65
ATOM     65  C   UNL A   1      33.372  35.573  30.371  1.00  0.00     0.103 A 
ATOM     66  C   UNL A   1      33.679  34.261  29.963  1.00  0.00     0.046 A 
ATOM     67  C   UNL A   1      33.614  36.644  29.508  1.00  0.00     0.130 A 
ATOM     68  C   UNL A   1      34.217  34.026  28.690  1.00  0.00     0.053 A 
ATOM     69  C   UNL A   1      34.146  36.410  28.239  1.00  0.00     0.049 A 
ATOM     70  C   UNL A   1      34.451  35.108  27.834  1.00  0.00     0.031 A 
BRANCH  67  71
ATOM     71  O   UNL A   1      33.354  37.926  29.902  1.00  0.00    -0.507 OA
ATOM     72  H   UNL A   1      34.038  38.454  30.264  1.00  0.00     0.293 HD
ENDBRANCH  67  71
BRANCH  68  73
ATOM     73  N   UNL A   1      34.574  32.718  28.298  1.00  0.00    -0.249 N 
ATOM     74  C   UNL A   1      35.873  32.317  28.139  1.00  0.00     0.236 C 
ATOM     75  C   UNL A   1      33.712  31.844  27.683  1.00  0.00     0.256 C 
ATOM     76  O   UNL A   1      36.884  32.969  28.368  1.00  0.00    -0.274 OA
ATOM     77  C   UNL A   1      35.902  30.927  27.579  1.00  0.00     0.136 C 
ATOM     78  C   UNL A   1      34.441  30.527  27.464  1.00  0.00     0.179 C 
ATOM     79  O   UNL A   1      32.594  32.094  27.253  1.00  0.00    -0.272 OA
BRANCH  78  80
ATOM     80  N   UNL A   1      34.178  29.966  26.129  1.00  0.00    -0.370 N 
ATOM     81  H   UNL A   1      34.628  30.325  25.330  1.00  0.00     0.161 HD
BRANCH  80  82
ATOM     82  C   UNL A   1      33.266  28.906  26.033  1.00  0.00     0.077 A 
ATOM     83  C   UNL A   1      33.703  27.615  26.349  1.00  0.00     0.029 A 
ATOM     84  C   UNL A   1      31.987  29.049  25.469  1.00  0.00     0.138 A 
ATOM     85  C   UNL A   1      32.869  26.508  26.158  1.00  0.00     0.002 A 
ATOM     86  C   UNL A   1      31.152  27.949  25.266  1.00  0.00     0.048 A 
ATOM     87  C   UNL A   1      31.596  26.675  25.617  1.00  0.00     0.004 A 
BRANCH  84  88
ATOM     88  O   UNL A   1      31.566  30.297  25.095  1.00  0.00    -0.506 OA
ATOM     89  H   UNL A   1      32.193  30.956  24.874  1.00  0.00     0.293 HD
ENDBRANCH  84  88
ENDBRANCH  80  82
ENDBRANCH  78  80
ENDBRANCH  68  73
ENDBRANCH  63  65
ENDBRANCH  62  63
ENDBRANCH   1  62
TORSDOF 16
ENDMDL
MODEL 3
REMARK VINA RESULT:     -12.4      4.402     10.106
REMARK SMILES O=C(OCCOC(=O)c1cc(N2C(=O)C[C@H](Nc3ccccc3O)C2=O)ccc1O)c1ccc(-c2c3nc(c(-c4c(F)cccc4F)c4ccc([nH]4)c(-c4c(F)cccc4F)c4nc(c(-c5c(F)cccc5F)c5ccc2[nH]5)C=C4)C=C3)cc1
REMARK SMILES IDX 5 1 4 2 3 3 2 4 1 5 31 6 32 7 84 8 33 9 83 10 34 11 35 12
REMARK SMILES IDX 36 13 77 14 37 15 82 16 76 17 78 18 38 19 81 20 75 21 74 22
REMARK SMILES IDX 39 24 65 25 48 26 64 27 49 28 52 29 63 30 79 31 50 32 51 33
REMARK SMILES IDX 62 35 80 36 53 37 40 38 41 39 46 40 42 41 43 42 45 43 47 44
REMARK SMILES IDX 44 45 66 46 67 47 72 48 68 49 69 50 71 51 73 52 70 53 54 54
REMARK SMILES IDX 55 55 60 56 56 57 57 58 59 59 61 60 58 61 6 62 7 63 8 64
REMARK SMILES IDX 9 65 10 66 29 67 11 68 28 69 27 70 30 71 12 73 13 74 25 75
REMARK SMILES IDX 14 76 15 77 16 78 26 79 17 80 18 82 19 83 23 84 20 85 22 86
REMARK SMILES IDX 21 87 24 88
REMARK H PARENT 78 23 52 34 30 72 17 81 24 89
REMARK Flexibility Score: inf
ROOT
ATOM      1  C   UNL A   1      38.118  20.976  25.384  1.00  0.00     0.275 C 
ENDROOT
BRANCH   1   2
ATOM      2  C   UNL A   1      38.798  19.644  25.052  1.00  0.00     0.275 C 
BRANCH   2   3
ATOM      3  O   UNL A   1      39.787  19.216  26.002  1.00  0.00    -0.458 OA
BRANCH   3   4
ATOM      4  C   UNL A   1      41.073  19.603  26.154  1.00  0.00     0.338 C 
ATOM      5  O   UNL A   1      41.959  18.770  25.957  1.00  0.00    -0.246 OA
BRANCH   4   6
ATOM      6  C   UNL A   1      41.493  20.953  26.659  1.00  0.00     0.060 A 
ATOM      7  C   UNL A   1      41.788  21.310  27.977  1.00  0.00     0.016 A 
ATOM      8  C   UNL A   1      41.613  21.950  25.681  1.00  0.00     0.016 A 
ATOM      9  C   UNL A   1      42.261  22.590  28.298  1.00  0.00     0.010 A 
ATOM     10  C   UNL A   1      42.107  23.218  25.988  1.00  0.00     0.010 A 
ATOM     11  C   UNL A   1      42.428  23.549  27.304  1.00  0.00    -0.014 A 
BRANCH  11  12
ATOM     12  C   UNL A   1      42.785  24.943  27.641  1.00  0.00     0.031 A 
ATOM     13  C   UNL A   1      44.205  25.378  27.442  1.00  0.00     0.074 A 
ATOM     14  C   UNL A   1      41.859  25.797  28.117  1.00  0.00     0.049 A 
ATOM     15  N   UNL A   1      44.742  26.554  27.627  1.00  0.00    -0.248 NA
ATOM     16  C   UNL A   1      45.146  24.356  26.949  1.00  0.00     0.031 C 
ATOM     17  C   UNL A   1      40.446  25.482  28.310  1.00  0.00     0.029 A 
ATOM     18  N   UNL A   1      41.970  27.096  28.539  1.00  0.00    -0.354 N 
ATOM     19  C   UNL A   1      46.067  26.421  27.238  1.00  0.00     0.074 A 
ATOM     20  C   UNL A   1      46.279  25.035  26.890  1.00  0.00     0.031 C 
ATOM     21  C   UNL A   1      39.829  26.538  28.867  1.00  0.00     0.029 A 
ATOM     22  C   UNL A   1      40.801  27.609  29.050  1.00  0.00     0.049 A 
ATOM     23  H   UNL A   1      42.806  27.612  28.482  1.00  0.00     0.167 HD
ATOM     24  C   UNL A   1      47.012  27.382  27.137  1.00  0.00     0.037 A 
ATOM     25  C   UNL A   1      40.552  28.813  29.598  1.00  0.00     0.037 A 
ATOM     26  C   UNL A   1      46.793  28.749  27.516  1.00  0.00     0.049 A 
ATOM     27  C   UNL A   1      41.650  29.842  29.582  1.00  0.00     0.074 A 
ATOM     28  C   UNL A   1      47.667  29.817  27.452  1.00  0.00     0.029 A 
ATOM     29  N   UNL A   1      45.606  29.229  28.055  1.00  0.00    -0.354 N 
ATOM     30  N   UNL A   1      42.877  29.729  29.131  1.00  0.00    -0.248 NA
ATOM     31  C   UNL A   1      41.322  31.174  30.106  1.00  0.00     0.031 C 
ATOM     32  C   UNL A   1      47.025  30.933  28.000  1.00  0.00     0.029 A 
ATOM     33  C   UNL A   1      45.733  30.572  28.357  1.00  0.00     0.049 A 
ATOM     34  H   UNL A   1      44.794  28.691  28.200  1.00  0.00     0.167 HD
ATOM     35  C   UNL A   1      43.452  30.984  29.268  1.00  0.00     0.074 A 
ATOM     36  C   UNL A   1      42.438  31.842  29.850  1.00  0.00     0.031 C 
ATOM     37  C   UNL A   1      44.699  31.397  28.930  1.00  0.00     0.037 A 
BRANCH  24  38
ATOM     38  C   UNL A   1      48.349  26.960  26.607  1.00  0.00     0.057 A 
ATOM     39  C   UNL A   1      48.631  26.970  25.233  1.00  0.00     0.134 A 
ATOM     40  C   UNL A   1      49.351  26.500  27.468  1.00  0.00     0.134 A 
ATOM     41  F   UNL A   1      47.705  27.375  24.350  1.00  0.00    -0.206 F 
ATOM     42  C   UNL A   1      49.848  26.503  24.733  1.00  0.00     0.040 A 
ATOM     43  C   UNL A   1      50.581  26.053  26.982  1.00  0.00     0.040 A 
ATOM     44  F   UNL A   1      49.146  26.460  28.793  1.00  0.00    -0.206 F 
ATOM     45  C   UNL A   1      50.828  26.045  25.610  1.00  0.00     0.006 A 
ENDBRANCH  24  38
BRANCH  25  46
ATOM     46  C   UNL A   1      39.212  29.119  30.162  1.00  0.00     0.057 A 
ATOM     47  C   UNL A   1      38.221  29.747  29.401  1.00  0.00     0.134 A 
ATOM     48  C   UNL A   1      38.894  28.796  31.488  1.00  0.00     0.134 A 
ATOM     49  F   UNL A   1      38.465  30.090  28.128  1.00  0.00    -0.206 F 
ATOM     50  C   UNL A   1      36.972  30.065  29.941  1.00  0.00     0.040 A 
ATOM     51  C   UNL A   1      37.643  29.091  32.036  1.00  0.00     0.040 A 
ATOM     52  F   UNL A   1      39.791  28.177  32.270  1.00  0.00    -0.206 F 
ATOM     53  C   UNL A   1      36.680  29.735  31.263  1.00  0.00     0.006 A 
ENDBRANCH  25  46
BRANCH  37  54
ATOM     54  C   UNL A   1      45.017  32.846  29.145  1.00  0.00     0.057 A 
ATOM     55  C   UNL A   1      45.613  33.307  30.325  1.00  0.00     0.134 A 
ATOM     56  C   UNL A   1      44.773  33.782  28.131  1.00  0.00     0.134 A 
ATOM     57  F   UNL A   1      45.859  32.461  31.337  1.00  0.00    -0.206 F 
ATOM     58  C   UNL A   1      45.938  34.652  30.496  1.00  0.00     0.040 A 
ATOM     59  C   UNL A   1      45.121  35.123  28.279  1.00  0.00     0.040 A 
ATOM     60  F   UNL A   1      44.213  33.400  26.972  1.00  0.00    -0.206 F 
ATOM     61  C   UNL A   1      45.700  35.563  29.467  1.00  0.00     0.006 A 
ENDBRANCH  37  54
ENDBRANCH  11  12
ENDBRANCH   4   6
ENDBRANCH   3   4
ENDBRANCH   2   3
ENDBRANCH   1   2
BRANCH   1  62
ATOM     62  O   UNL A   1      36.908  21.207  24.647  1.00  0.00    -0.458 OA
BRANCH  62  63
ATOM     63  C   UNL A   1      36.030  22.075  25.213  1.00  0.00     0.342 C 
ATOM     64  O   UNL A   1      36.297  22.953  26.020  1.00  0.00    -0.246 OA
BRANCH  63  65
ATOM     65  C   UNL A   1      34.684  21.923  24.618  1.00  0.00     0.103 A 
ATOM     66  C   UNL A   1      34.086  23.057  24.036  1.00  0.00     0.046 A 
ATOM     67  C   UNL A   1      33.982  20.717  24.668  1.00  0.00     0.130 A 
ATOM     68  C   UNL A   1      32.794  22.976  23.498  1.00  0.00     0.053 A 
ATOM     69  C   UNL A   1      32.697  20.634  24.128  1.00  0.00     0.049 A 
ATOM     70  C   UNL A   1      32.104  21.760  23.551  1.00  0.00     0.031 A 
BRANCH  67  71
ATOM     71  O   UNL A   1      34.534  19.615  25.259  1.00  0.00    -0.507 OA
ATOM     72  H   UNL A   1      34.324  18.759  24.944  1.00  0.00     0.293 HD
ENDBRANCH  67  71
BRANCH  68  73
ATOM     73  N   UNL A   1      32.173  24.125  22.961  1.00  0.00    -0.249 N 
ATOM     74  C   UNL A   1      32.536  24.675  21.762  1.00  0.00     0.236 C 
ATOM     75  C   UNL A   1      31.437  25.012  23.707  1.00  0.00     0.256 C 
ATOM     76  O   UNL A   1      33.363  24.246  20.968  1.00  0.00    -0.274 OA
ATOM     77  C   UNL A   1      31.789  25.959  21.555  1.00  0.00     0.136 C 
ATOM     78  C   UNL A   1      30.891  26.083  22.775  1.00  0.00     0.179 C 
ATOM     79  O   UNL A   1      31.332  25.039  24.926  1.00  0.00    -0.272 OA
BRANCH  78  80
ATOM     80  N   UNL A   1      31.012  27.431  23.352  1.00  0.00    -0.370 N 
ATOM     81  H   UNL A   1      31.751  27.658  23.963  1.00  0.00     0.161 HD
BRANCH  80  82
ATOM     82  C   UNL A   1      30.043  28.382  23.003  1.00  0.00     0.077 A 
ATOM     83  C   UNL A   1      28.709  28.137  23.346  1.00  0.00     0.029 A 
ATOM     84  C   UNL A   1      30.320  29.484  22.177  1.00  0.00     0.138 A 
ATOM     85  C   UNL A   1      27.689  28.995  22.921  1.00  0.00     0.002 A 
ATOM     86  C   UNL A   1      29.307  30.340  21.740  1.00  0.00     0.048 A 
ATOM     87  C   UNL A   1      27.988  30.095  22.118  1.00  0.00     0.004 A 
BRANCH  84  88
ATOM     88  O   UNL A   1      31.611  29.705  21.779  1.00  0.00    -0.506 OA
ATOM     89  H   UNL A   1      32.321  29.461  22.339  1.00  0.00     0.293 HD
ENDBRANCH  84  88
ENDBRANCH  80  82
ENDBRANCH  78  80
ENDBRANCH  68  73
ENDBRANCH  63  65
ENDBRANCH  62  63
ENDBRANCH   1  62
TORSDOF 16
ENDMDL
