MODEL 1
REMARK VINA RESULT:     -11.4      0.000      0.000
REMARK SMILES COc1cccc([C@@H]2CN(C(=O)c3cnn(C)c3)C[C@H]2C(=O)OCCOC(=O)c2ccc(-c3c4nc(c(-c5c(F)cccc5F)c5ccc([nH]5)c(-c5c(F)cccc5F)c5nc(c(-c6c(F)cccc6F)c6ccc3[nH]6)C=C5)C=C4)cc2)c1OC
REMARK SMILES IDX 24 1 23 2 21 3 22 4 20 5 8 6 9 7 10 8 19 9 7 10 3 11 4 12
REMARK SMILES IDX 83 13 5 14 6 15 2 16 1 17 84 18 85 19 11 20 12 21 13 22
REMARK SMILES IDX 14 23 18 24 15 25 16 26 17 27 25 28 26 29 27 30 28 31 29 32
REMARK SMILES IDX 30 33 82 34 31 35 81 36 32 37 33 38 34 39 75 40 35 41 80 42
REMARK SMILES IDX 74 43 76 44 36 45 79 46 73 47 72 48 37 50 63 51 46 52 62 53
REMARK SMILES IDX 47 54 50 55 61 56 77 57 48 58 49 59 60 61 78 62 51 63 38 64
REMARK SMILES IDX 39 65 44 66 40 67 41 68 43 69 45 70 42 71 64 72 65 73 70 74
REMARK SMILES IDX 66 75 67 76 69 77 71 78 68 79 52 80 53 81 58 82 54 83 55 84
REMARK SMILES IDX 57 85 59 86 56 87
REMARK H PARENT 76 49 50 60
REMARK Flexibility Score: inf
ROOT
ATOM      1  C   UNL A   1      32.074  30.970  26.876  1.00  0.00     0.274 C 
ENDROOT
BRANCH   1   2
ATOM      2  O   UNL A   1      31.942  30.539  25.507  1.00  0.00    -0.462 OA
BRANCH   2   3
ATOM      3  C   UNL A   1      32.551  29.367  25.197  1.00  0.00     0.311 C 
ATOM      4  O   UNL A   1      33.642  29.014  25.635  1.00  0.00    -0.252 OA
BRANCH   3   5
ATOM      5  C   UNL A   1      31.804  28.540  24.180  1.00  0.00     0.128 C 
ATOM      6  C   UNL A   1      31.344  27.134  24.607  1.00  0.00     0.059 C 
ATOM      7  C   UNL A   1      30.008  26.953  23.881  1.00  0.00     0.129 C 
ATOM      8  N   UNL A   1      29.475  28.293  23.726  1.00  0.00    -0.337 N 
ATOM      9  C   UNL A   1      30.521  29.289  23.829  1.00  0.00     0.135 C 
BRANCH   6  10
ATOM     10  C   UNL A   1      32.271  25.951  24.344  1.00  0.00     0.004 A 
ATOM     11  C   UNL A   1      33.403  23.883  24.966  1.00  0.00     0.161 A 
ATOM     12  C   UNL A   1      34.198  23.975  23.816  1.00  0.00     0.050 A 
ATOM     13  C   UNL A   1      32.445  24.873  25.251  1.00  0.00     0.164 A 
ATOM     14  C   UNL A   1      34.023  25.023  22.922  1.00  0.00     0.004 A 
ATOM     15  C   UNL A   1      33.069  26.002  23.185  1.00  0.00     0.008 A 
BRANCH  11  16
ATOM     16  O   UNL A   1      33.696  22.882  25.856  1.00  0.00    -0.493 OA
ATOM     17  C   UNL A   1      35.099  22.769  26.086  1.00  0.00     0.278 C 
ENDBRANCH  11  16
BRANCH  13  18
ATOM     18  O   UNL A   1      31.638  24.936  26.356  1.00  0.00    -0.493 OA
ATOM     19  C   UNL A   1      30.560  24.026  26.507  1.00  0.00     0.278 C 
ENDBRANCH  13  18
ENDBRANCH   6  10
BRANCH   8  20
ATOM     20  C   UNL A   1      28.224  28.646  23.244  1.00  0.00     0.257 C 
ATOM     21  O   UNL A   1      27.275  27.865  23.281  1.00  0.00    -0.269 OA
BRANCH  20  22
ATOM     22  C   UNL A   1      28.058  29.991  22.729  1.00  0.00     0.077 A 
ATOM     23  C   UNL A   1      27.706  31.149  23.457  1.00  0.00     0.149 A 
ATOM     24  C   UNL A   1      28.132  30.435  21.422  1.00  0.00     0.122 A 
ATOM     25  N   UNL A   1      27.659  32.246  22.693  1.00  0.00    -0.181 NA
ATOM     26  N   UNL A   1      27.938  31.783  21.463  1.00  0.00    -0.275 N 
ATOM     27  C   UNL A   1      28.029  32.701  20.355  1.00  0.00     0.173 C 
ENDBRANCH  20  22
ENDBRANCH   8  20
ENDBRANCH   3   5
ENDBRANCH   2   3
ENDBRANCH   1   2
BRANCH   1  28
ATOM     28  C   UNL A   1      31.821  32.470  27.017  1.00  0.00     0.275 C 
BRANCH  28  29
ATOM     29  O   UNL A   1      33.062  33.199  27.026  1.00  0.00    -0.458 OA
BRANCH  29  30
ATOM     30  C   UNL A   1      33.195  34.083  28.039  1.00  0.00     0.338 C 
ATOM     31  O   UNL A   1      32.525  35.079  28.244  1.00  0.00    -0.246 OA
BRANCH  30  32
ATOM     32  C   UNL A   1      34.298  33.679  28.922  1.00  0.00     0.060 A 
ATOM     33  C   UNL A   1      35.588  34.137  28.663  1.00  0.00     0.016 A 
ATOM     34  C   UNL A   1      34.081  32.705  29.897  1.00  0.00     0.016 A 
ATOM     35  C   UNL A   1      36.674  33.563  29.320  1.00  0.00     0.010 A 
ATOM     36  C   UNL A   1      35.171  32.166  30.592  1.00  0.00     0.010 A 
ATOM     37  C   UNL A   1      36.485  32.546  30.270  1.00  0.00    -0.014 A 
BRANCH  37  38
ATOM     38  C   UNL A   1      37.663  31.820  30.827  1.00  0.00     0.031 A 
ATOM     39  C   UNL A   1      38.147  32.112  32.229  1.00  0.00     0.074 A 
ATOM     40  C   UNL A   1      38.258  30.835  30.124  1.00  0.00     0.049 A 
ATOM     41  N   UNL A   1      39.120  31.549  32.905  1.00  0.00    -0.248 NA
ATOM     42  C   UNL A   1      37.426  33.150  32.985  1.00  0.00     0.031 C 
ATOM     43  C   UNL A   1      37.874  30.406  28.780  1.00  0.00     0.029 A 
ATOM     44  N   UNL A   1      39.309  30.011  30.450  1.00  0.00    -0.354 N 
ATOM     45  C   UNL A   1      39.121  32.155  34.155  1.00  0.00     0.074 A 
ATOM     46  C   UNL A   1      38.071  33.149  34.142  1.00  0.00     0.031 C 
ATOM     47  C   UNL A   1      38.667  29.390  28.401  1.00  0.00     0.029 A 
ATOM     48  C   UNL A   1      39.650  29.134  29.449  1.00  0.00     0.049 A 
ATOM     49  H   UNL A   1      39.774  30.048  31.317  1.00  0.00     0.167 HD
ATOM     50  C   UNL A   1      39.911  31.904  35.227  1.00  0.00     0.037 A 
ATOM     51  C   UNL A   1      40.657  28.243  29.367  1.00  0.00     0.037 A 
ATOM     52  C   UNL A   1      40.986  30.948  35.250  1.00  0.00     0.049 A 
ATOM     53  C   UNL A   1      41.609  28.083  30.520  1.00  0.00     0.074 A 
ATOM     54  C   UNL A   1      41.861  30.659  36.284  1.00  0.00     0.029 A 
ATOM     55  N   UNL A   1      41.347  30.138  34.186  1.00  0.00    -0.354 N 
ATOM     56  N   UNL A   1      41.589  28.661  31.695  1.00  0.00    -0.248 NA
ATOM     57  C   UNL A   1      42.727  27.146  30.330  1.00  0.00     0.031 C 
ATOM     58  C   UNL A   1      42.784  29.711  35.827  1.00  0.00     0.029 A 
ATOM     59  C   UNL A   1      42.449  29.371  34.527  1.00  0.00     0.049 A 
ATOM     60  H   UNL A   1      40.887  30.111  33.315  1.00  0.00     0.167 HD
ATOM     61  C   UNL A   1      42.673  28.139  32.394  1.00  0.00     0.074 A 
ATOM     62  C   UNL A   1      43.321  27.190  31.515  1.00  0.00     0.031 C 
ATOM     63  C   UNL A   1      43.088  28.422  33.653  1.00  0.00     0.037 A 
BRANCH  50  64
ATOM     64  C   UNL A   1      39.659  32.707  36.469  1.00  0.00     0.057 A 
ATOM     65  C   UNL A   1      38.668  32.346  37.391  1.00  0.00     0.134 A 
ATOM     66  C   UNL A   1      40.438  33.834  36.763  1.00  0.00     0.134 A 
ATOM     67  F   UNL A   1      37.875  31.289  37.155  1.00  0.00    -0.206 F 
ATOM     68  C   UNL A   1      38.453  33.084  38.556  1.00  0.00     0.040 A 
ATOM     69  C   UNL A   1      40.246  34.568  37.933  1.00  0.00     0.040 A 
ATOM     70  F   UNL A   1      41.404  34.230  35.921  1.00  0.00    -0.206 F 
ATOM     71  C   UNL A   1      39.248  34.195  38.833  1.00  0.00     0.006 A 
ENDBRANCH  50  64
BRANCH  51  72
ATOM     72  C   UNL A   1      40.845  27.450  28.124  1.00  0.00     0.057 A 
ATOM     73  C   UNL A   1      41.626  27.926  27.065  1.00  0.00     0.134 A 
ATOM     74  C   UNL A   1      40.223  26.206  27.959  1.00  0.00     0.134 A 
ATOM     75  F   UNL A   1      42.223  29.124  27.152  1.00  0.00    -0.206 F 
ATOM     76  C   UNL A   1      41.772  27.199  25.882  1.00  0.00     0.040 A 
ATOM     77  C   UNL A   1      40.384  25.456  26.794  1.00  0.00     0.040 A 
ATOM     78  F   UNL A   1      39.458  25.697  28.936  1.00  0.00    -0.206 F 
ATOM     79  C   UNL A   1      41.155  25.957  25.748  1.00  0.00     0.006 A 
ENDBRANCH  51  72
BRANCH  63  80
ATOM     80  C   UNL A   1      44.274  27.664  34.172  1.00  0.00     0.057 A 
ATOM     81  C   UNL A   1      45.579  28.162  34.070  1.00  0.00     0.134 A 
ATOM     82  C   UNL A   1      44.104  26.423  34.803  1.00  0.00     0.134 A 
ATOM     83  F   UNL A   1      45.812  29.338  33.467  1.00  0.00    -0.206 F 
ATOM     84  C   UNL A   1      46.674  27.441  34.549  1.00  0.00     0.040 A 
ATOM     85  C   UNL A   1      45.189  25.706  35.309  1.00  0.00     0.040 A 
ATOM     86  F   UNL A   1      42.881  25.891  34.942  1.00  0.00    -0.206 F 
ATOM     87  C   UNL A   1      46.481  26.212  35.176  1.00  0.00     0.006 A 
ENDBRANCH  63  80
ENDBRANCH  37  38
ENDBRANCH  30  32
ENDBRANCH  29  30
ENDBRANCH  28  29
ENDBRANCH   1  28
TORSDOF 16
ENDMDL
MODEL 2
REMARK VINA RESULT:     -11.4      4.766      8.135
REMARK SMILES COc1cccc([C@@H]2CN(C(=O)c3cnn(C)c3)C[C@H]2C(=O)OCCOC(=O)c2ccc(-c3c4nc(c(-c5c(F)cccc5F)c5ccc([nH]5)c(-c5c(F)cccc5F)c5nc(c(-c6c(F)cccc6F)c6ccc3[nH]6)C=C5)C=C4)cc2)c1OC
REMARK SMILES IDX 24 1 23 2 21 3 22 4 20 5 8 6 9 7 10 8 19 9 7 10 3 11 4 12
REMARK SMILES IDX 83 13 5 14 6 15 2 16 1 17 84 18 85 19 11 20 12 21 13 22
REMARK SMILES IDX 14 23 18 24 15 25 16 26 17 27 25 28 26 29 27 30 28 31 29 32
REMARK SMILES IDX 30 33 82 34 31 35 81 36 32 37 33 38 34 39 75 40 35 41 80 42
REMARK SMILES IDX 74 43 76 44 36 45 79 46 73 47 72 48 37 50 63 51 46 52 62 53
REMARK SMILES IDX 47 54 50 55 61 56 77 57 48 58 49 59 60 61 78 62 51 63 38 64
REMARK SMILES IDX 39 65 44 66 40 67 41 68 43 69 45 70 42 71 64 72 65 73 70 74
REMARK SMILES IDX 66 75 67 76 69 77 71 78 68 79 52 80 53 81 58 82 54 83 55 84
REMARK SMILES IDX 57 85 59 86 56 87
REMARK H PARENT 76 49 50 60
REMARK Flexibility Score: inf
ROOT
ATOM      1  C   UNL A   1      33.425  30.047  27.346  1.00  0.00     0.274 C 
ENDROOT
BRANCH   1   2
ATOM      2  O   UNL A   1      33.148  28.707  27.797  1.00  0.00    -0.462 OA
BRANCH   2   3
ATOM      3  C   UNL A   1      32.078  28.101  27.222  1.00  0.00     0.311 C 
ATOM      4  O   UNL A   1      30.994  27.937  27.772  1.00  0.00    -0.252 OA
BRANCH   3   5
ATOM      5  C   UNL A   1      32.354  27.555  25.842  1.00  0.00     0.128 C 
ATOM      6  C   UNL A   1      31.975  26.088  25.570  1.00  0.00     0.059 C 
ATOM      7  C   UNL A   1      31.521  26.096  24.108  1.00  0.00     0.129 C 
ATOM      8  N   UNL A   1      31.009  27.434  23.876  1.00  0.00    -0.337 N 
ATOM      9  C   UNL A   1      31.530  28.371  24.850  1.00  0.00     0.135 C 
BRANCH   6  10
ATOM     10  C   UNL A   1      33.025  25.006  25.807  1.00  0.00     0.004 A 
ATOM     11  C   UNL A   1      33.897  23.014  26.908  1.00  0.00     0.161 A 
ATOM     12  C   UNL A   1      35.148  23.238  26.318  1.00  0.00     0.050 A 
ATOM     13  C   UNL A   1      32.830  23.899  26.673  1.00  0.00     0.164 A 
ATOM     14  C   UNL A   1      35.339  24.315  25.463  1.00  0.00     0.004 A 
ATOM     15  C   UNL A   1      34.288  25.191  25.211  1.00  0.00     0.008 A 
BRANCH  11  16
ATOM     16  O   UNL A   1      33.804  21.994  27.821  1.00  0.00    -0.493 OA
ATOM     17  C   UNL A   1      33.541  20.741  27.192  1.00  0.00     0.278 C 
ENDBRANCH  11  16
BRANCH  13  18
ATOM     18  O   UNL A   1      31.575  23.831  27.218  1.00  0.00    -0.493 OA
ATOM     19  C   UNL A   1      30.591  22.984  26.644  1.00  0.00     0.278 C 
ENDBRANCH  13  18
ENDBRANCH   6  10
BRANCH   8  20
ATOM     20  C   UNL A   1      30.363  27.898  22.742  1.00  0.00     0.257 C 
ATOM     21  O   UNL A   1      30.684  27.522  21.616  1.00  0.00    -0.269 OA
BRANCH  20  22
ATOM     22  C   UNL A   1      29.259  28.819  22.927  1.00  0.00     0.077 A 
ATOM     23  C   UNL A   1      27.888  28.499  23.048  1.00  0.00     0.149 A 
ATOM     24  C   UNL A   1      29.276  30.201  22.958  1.00  0.00     0.122 A 
ATOM     25  N   UNL A   1      27.120  29.577  23.236  1.00  0.00    -0.181 NA
ATOM     26  N   UNL A   1      27.994  30.597  23.193  1.00  0.00    -0.275 N 
ATOM     27  C   UNL A   1      27.534  31.946  23.412  1.00  0.00     0.173 C 
ENDBRANCH  20  22
ENDBRANCH   8  20
ENDBRANCH   3   5
ENDBRANCH   2   3
ENDBRANCH   1   2
BRANCH   1  28
ATOM     28  C   UNL A   1      34.777  30.541  27.856  1.00  0.00     0.275 C 
BRANCH  28  29
ATOM     29  O   UNL A   1      35.570  29.443  28.345  1.00  0.00    -0.458 OA
BRANCH  29  30
ATOM     30  C   UNL A   1      36.232  29.689  29.497  1.00  0.00     0.338 C 
ATOM     31  O   UNL A   1      35.753  29.862  30.604  1.00  0.00    -0.246 OA
BRANCH  30  32
ATOM     32  C   UNL A   1      37.681  29.715  29.253  1.00  0.00     0.060 A 
ATOM     33  C   UNL A   1      38.157  29.691  27.944  1.00  0.00     0.016 A 
ATOM     34  C   UNL A   1      38.565  29.581  30.324  1.00  0.00     0.016 A 
ATOM     35  C   UNL A   1      39.507  29.453  27.699  1.00  0.00     0.010 A 
ATOM     36  C   UNL A   1      39.930  29.391  30.075  1.00  0.00     0.010 A 
ATOM     37  C   UNL A   1      40.408  29.265  28.759  1.00  0.00    -0.014 A 
BRANCH  37  38
ATOM     38  C   UNL A   1      41.807  28.830  28.480  1.00  0.00     0.031 A 
ATOM     39  C   UNL A   1      42.108  27.383  28.162  1.00  0.00     0.074 A 
ATOM     40  C   UNL A   1      42.808  29.732  28.422  1.00  0.00     0.049 A 
ATOM     41  N   UNL A   1      43.252  26.824  27.844  1.00  0.00    -0.248 NA
ATOM     42  C   UNL A   1      40.974  26.444  28.173  1.00  0.00     0.031 C 
ATOM     43  C   UNL A   1      42.666  31.168  28.657  1.00  0.00     0.029 A 
ATOM     44  N   UNL A   1      44.143  29.571  28.139  1.00  0.00    -0.354 N 
ATOM     45  C   UNL A   1      42.973  25.483  27.611  1.00  0.00     0.074 A 
ATOM     46  C   UNL A   1      41.559  25.300  27.849  1.00  0.00     0.031 C 
ATOM     47  C   UNL A   1      43.860  31.760  28.495  1.00  0.00     0.029 A 
ATOM     48  C   UNL A   1      44.863  30.740  28.201  1.00  0.00     0.049 A 
ATOM     49  H   UNL A   1      44.546  28.701  27.915  1.00  0.00     0.167 HD
ATOM     50  C   UNL A   1      43.809  24.491  27.220  1.00  0.00     0.037 A 
ATOM     51  C   UNL A   1      46.184  30.967  28.067  1.00  0.00     0.037 A 
ATOM     52  C   UNL A   1      45.225  24.642  27.015  1.00  0.00     0.049 A 
ATOM     53  C   UNL A   1      47.112  29.822  27.772  1.00  0.00     0.074 A 
ATOM     54  C   UNL A   1      46.152  23.677  26.657  1.00  0.00     0.029 A 
ATOM     55  N   UNL A   1      45.924  25.828  27.168  1.00  0.00    -0.354 N 
ATOM     56  N   UNL A   1      46.829  28.562  27.550  1.00  0.00    -0.248 NA
ATOM     57  C   UNL A   1      48.549  30.133  27.713  1.00  0.00     0.031 C 
ATOM     58  C   UNL A   1      47.420  24.270  26.643  1.00  0.00     0.029 A 
ATOM     59  C   UNL A   1      47.274  25.614  26.940  1.00  0.00     0.049 A 
ATOM     60  H   UNL A   1      45.521  26.695  27.403  1.00  0.00     0.167 HD
ATOM     61  C   UNL A   1      48.045  27.937  27.299  1.00  0.00     0.074 A 
ATOM     62  C   UNL A   1      49.067  28.957  27.384  1.00  0.00     0.031 C 
ATOM     63  C   UNL A   1      48.289  26.633  27.019  1.00  0.00     0.037 A 
BRANCH  50  64
ATOM     64  C   UNL A   1      43.211  23.130  27.018  1.00  0.00     0.057 A 
ATOM     65  C   UNL A   1      42.925  22.284  28.097  1.00  0.00     0.134 A 
ATOM     66  C   UNL A   1      42.884  22.676  25.734  1.00  0.00     0.134 A 
ATOM     67  F   UNL A   1      43.233  22.654  29.350  1.00  0.00    -0.206 F 
ATOM     68  C   UNL A   1      42.347  21.028  27.904  1.00  0.00     0.040 A 
ATOM     69  C   UNL A   1      42.289  21.431  25.530  1.00  0.00     0.040 A 
ATOM     70  F   UNL A   1      43.131  23.440  24.659  1.00  0.00    -0.206 F 
ATOM     71  C   UNL A   1      42.021  20.601  26.618  1.00  0.00     0.006 A 
ENDBRANCH  50  64
BRANCH  51  72
ATOM     72  C   UNL A   1      46.722  32.341  28.249  1.00  0.00     0.057 A 
ATOM     73  C   UNL A   1      46.721  33.270  27.203  1.00  0.00     0.134 A 
ATOM     74  C   UNL A   1      47.273  32.745  29.472  1.00  0.00     0.134 A 
ATOM     75  F   UNL A   1      46.234  32.932  26.000  1.00  0.00    -0.206 F 
ATOM     76  C   UNL A   1      47.261  34.548  27.362  1.00  0.00     0.040 A 
ATOM     77  C   UNL A   1      47.789  34.028  29.653  1.00  0.00     0.040 A 
ATOM     78  F   UNL A   1      47.307  31.899  30.512  1.00  0.00    -0.206 F 
ATOM     79  C   UNL A   1      47.790  34.931  28.593  1.00  0.00     0.006 A 
ENDBRANCH  51  72
BRANCH  63  80
ATOM     80  C   UNL A   1      49.711  26.243  26.741  1.00  0.00     0.057 A 
ATOM     81  C   UNL A   1      50.252  26.274  25.449  1.00  0.00     0.134 A 
ATOM     82  C   UNL A   1      50.557  25.848  27.787  1.00  0.00     0.134 A 
ATOM     83  F   UNL A   1      49.492  26.631  24.403  1.00  0.00    -0.206 F 
ATOM     84  C   UNL A   1      51.574  25.898  25.204  1.00  0.00     0.040 A 
ATOM     85  C   UNL A   1      51.887  25.496  27.557  1.00  0.00     0.040 A 
ATOM     86  F   UNL A   1      50.105  25.805  29.049  1.00  0.00    -0.206 F 
ATOM     87  C   UNL A   1      52.397  25.513  26.260  1.00  0.00     0.006 A 
ENDBRANCH  63  80
ENDBRANCH  37  38
ENDBRANCH  30  32
ENDBRANCH  29  30
ENDBRANCH  28  29
ENDBRANCH   1  28
TORSDOF 16
ENDMDL
MODEL 3
REMARK VINA RESULT:     -11.4      1.526      6.226
REMARK SMILES COc1cccc([C@@H]2CN(C(=O)c3cnn(C)c3)C[C@H]2C(=O)OCCOC(=O)c2ccc(-c3c4nc(c(-c5c(F)cccc5F)c5ccc([nH]5)c(-c5c(F)cccc5F)c5nc(c(-c6c(F)cccc6F)c6ccc3[nH]6)C=C5)C=C4)cc2)c1OC
REMARK SMILES IDX 24 1 23 2 21 3 22 4 20 5 8 6 9 7 10 8 19 9 7 10 3 11 4 12
REMARK SMILES IDX 83 13 5 14 6 15 2 16 1 17 84 18 85 19 11 20 12 21 13 22
REMARK SMILES IDX 14 23 18 24 15 25 16 26 17 27 25 28 26 29 27 30 28 31 29 32
REMARK SMILES IDX 30 33 82 34 31 35 81 36 32 37 33 38 34 39 75 40 35 41 80 42
REMARK SMILES IDX 74 43 76 44 36 45 79 46 73 47 72 48 37 50 63 51 46 52 62 53
REMARK SMILES IDX 47 54 50 55 61 56 77 57 48 58 49 59 60 61 78 62 51 63 38 64
REMARK SMILES IDX 39 65 44 66 40 67 41 68 43 69 45 70 42 71 64 72 65 73 70 74
REMARK SMILES IDX 66 75 67 76 69 77 71 78 68 79 52 80 53 81 58 82 54 83 55 84
REMARK SMILES IDX 57 85 59 86 56 87
REMARK H PARENT 76 49 50 60
REMARK Flexibility Score: inf
ROOT
ATOM      1  C   UNL A   1      32.853  29.306  24.833  1.00  0.00     0.274 C 
ENDROOT
BRANCH   1   2
ATOM      2  O   UNL A   1      32.506  29.275  23.434  1.00  0.00    -0.462 OA
BRANCH   2   3
ATOM      3  C   UNL A   1      32.592  28.060  22.834  1.00  0.00     0.311 C 
ATOM      4  O   UNL A   1      33.607  27.615  22.310  1.00  0.00    -0.252 OA
BRANCH   3   5
ATOM      5  C   UNL A   1      31.283  27.310  22.785  1.00  0.00     0.128 C 
ATOM      6  C   UNL A   1      30.833  26.582  24.065  1.00  0.00     0.059 C 
ATOM      7  C   UNL A   1      29.309  26.726  24.048  1.00  0.00     0.129 C 
ATOM      8  N   UNL A   1      29.052  27.959  23.326  1.00  0.00    -0.337 N 
ATOM      9  C   UNL A   1      30.180  28.325  22.495  1.00  0.00     0.135 C 
BRANCH   6  10
ATOM     10  C   UNL A   1      31.239  25.124  24.256  1.00  0.00     0.004 A 
ATOM     11  C   UNL A   1      32.600  23.344  25.219  1.00  0.00     0.161 A 
ATOM     12  C   UNL A   1      32.044  22.432  24.312  1.00  0.00     0.050 A 
ATOM     13  C   UNL A   1      32.217  24.698  25.192  1.00  0.00     0.164 A 
ATOM     14  C   UNL A   1      31.081  22.844  23.401  1.00  0.00     0.004 A 
ATOM     15  C   UNL A   1      30.683  24.178  23.374  1.00  0.00     0.008 A 
BRANCH  11  16
ATOM     16  O   UNL A   1      33.618  22.895  26.021  1.00  0.00    -0.493 OA
ATOM     17  C   UNL A   1      33.126  22.290  27.216  1.00  0.00     0.278 C 
ENDBRANCH  11  16
BRANCH  13  18
ATOM     18  O   UNL A   1      32.710  25.702  25.983  1.00  0.00    -0.493 OA
ATOM     19  C   UNL A   1      34.020  26.203  25.769  1.00  0.00     0.278 C 
ENDBRANCH  13  18
ENDBRANCH   6  10
BRANCH   8  20
ATOM     20  C   UNL A   1      27.830  28.591  23.157  1.00  0.00     0.257 C 
ATOM     21  O   UNL A   1      26.771  28.032  23.438  1.00  0.00    -0.269 OA
BRANCH  20  22
ATOM     22  C   UNL A   1      27.842  29.957  22.673  1.00  0.00     0.077 A 
ATOM     23  C   UNL A   1      27.760  31.138  23.443  1.00  0.00     0.149 A 
ATOM     24  C   UNL A   1      27.863  30.416  21.370  1.00  0.00     0.122 A 
ATOM     25  N   UNL A   1      27.823  32.247  22.698  1.00  0.00    -0.181 NA
ATOM     26  N   UNL A   1      27.902  31.776  21.442  1.00  0.00    -0.275 N 
ATOM     27  C   UNL A   1      28.038  32.695  20.339  1.00  0.00     0.173 C 
ENDBRANCH  20  22
ENDBRANCH   8  20
ENDBRANCH   3   5
ENDBRANCH   2   3
ENDBRANCH   1   2
BRANCH   1  28
ATOM     28  C   UNL A   1      31.899  30.198  25.626  1.00  0.00     0.275 C 
BRANCH  28  29
ATOM     29  O   UNL A   1      32.337  30.326  26.991  1.00  0.00    -0.458 OA
BRANCH  29  30
ATOM     30  C   UNL A   1      33.005  31.468  27.269  1.00  0.00     0.338 C 
ATOM     31  O   UNL A   1      32.574  32.607  27.226  1.00  0.00    -0.246 OA
BRANCH  30  32
ATOM     32  C   UNL A   1      34.388  31.162  27.661  1.00  0.00     0.060 A 
ATOM     33  C   UNL A   1      34.745  29.847  27.951  1.00  0.00     0.016 A 
ATOM     34  C   UNL A   1      35.281  32.205  27.913  1.00  0.00     0.016 A 
ATOM     35  C   UNL A   1      35.963  29.578  28.570  1.00  0.00     0.010 A 
ATOM     36  C   UNL A   1      36.526  31.924  28.489  1.00  0.00     0.010 A 
ATOM     37  C   UNL A   1      36.857  30.615  28.879  1.00  0.00    -0.014 A 
BRANCH  37  38
ATOM     38  C   UNL A   1      38.069  30.332  29.702  1.00  0.00     0.031 A 
ATOM     39  C   UNL A   1      39.208  29.520  29.130  1.00  0.00     0.074 A 
ATOM     40  C   UNL A   1      38.203  30.867  30.933  1.00  0.00     0.049 A 
ATOM     41  N   UNL A   1      40.362  29.212  29.673  1.00  0.00    -0.248 NA
ATOM     42  C   UNL A   1      39.046  29.010  27.759  1.00  0.00     0.031 C 
ATOM     43  C   UNL A   1      37.213  31.711  31.600  1.00  0.00     0.029 A 
ATOM     44  N   UNL A   1      39.235  30.784  31.837  1.00  0.00    -0.354 N 
ATOM     45  C   UNL A   1      41.058  28.487  28.713  1.00  0.00     0.074 A 
ATOM     46  C   UNL A   1      40.191  28.374  27.562  1.00  0.00     0.031 C 
ATOM     47  C   UNL A   1      37.688  32.080  32.801  1.00  0.00     0.029 A 
ATOM     48  C   UNL A   1      38.991  31.455  33.012  1.00  0.00     0.049 A 
ATOM     49  H   UNL A   1      40.068  30.291  31.661  1.00  0.00     0.167 HD
ATOM     50  C   UNL A   1      42.309  27.972  28.772  1.00  0.00     0.037 A 
ATOM     51  C   UNL A   1      39.716  31.536  34.144  1.00  0.00     0.037 A 
ATOM     52  C   UNL A   1      43.174  28.038  29.920  1.00  0.00     0.049 A 
ATOM     53  C   UNL A   1      41.043  30.835  34.234  1.00  0.00     0.074 A 
ATOM     54  C   UNL A   1      44.443  27.507  30.076  1.00  0.00     0.029 A 
ATOM     55  N   UNL A   1      42.853  28.659  31.116  1.00  0.00    -0.354 N 
ATOM     56  N   UNL A   1      41.685  30.159  33.314  1.00  0.00    -0.248 NA
ATOM     57  C   UNL A   1      41.743  30.905  35.526  1.00  0.00     0.031 C 
ATOM     58  C   UNL A   1      44.869  27.762  31.385  1.00  0.00     0.029 A 
ATOM     59  C   UNL A   1      43.886  28.498  32.025  1.00  0.00     0.049 A 
ATOM     60  H   UNL A   1      42.014  29.143  31.294  1.00  0.00     0.167 HD
ATOM     61  C   UNL A   1      42.875  29.749  33.905  1.00  0.00     0.074 A 
ATOM     62  C   UNL A   1      42.871  30.261  35.258  1.00  0.00     0.031 C 
ATOM     63  C   UNL A   1      43.882  29.015  33.369  1.00  0.00     0.037 A 
BRANCH  50  64
ATOM     64  C   UNL A   1      42.813  27.253  27.555  1.00  0.00     0.057 A 
ATOM     65  C   UNL A   1      42.616  25.877  27.379  1.00  0.00     0.134 A 
ATOM     66  C   UNL A   1      43.469  27.950  26.532  1.00  0.00     0.134 A 
ATOM     67  F   UNL A   1      42.012  25.150  28.332  1.00  0.00    -0.206 F 
ATOM     68  C   UNL A   1      43.066  25.218  26.234  1.00  0.00     0.040 A 
ATOM     69  C   UNL A   1      43.906  27.306  25.375  1.00  0.00     0.040 A 
ATOM     70  F   UNL A   1      43.686  29.269  26.640  1.00  0.00    -0.206 F 
ATOM     71  C   UNL A   1      43.708  25.934  25.224  1.00  0.00     0.006 A 
ENDBRANCH  50  64
BRANCH  51  72
ATOM     72  C   UNL A   1      39.184  32.286  35.312  1.00  0.00     0.057 A 
ATOM     73  C   UNL A   1      38.394  31.662  36.283  1.00  0.00     0.134 A 
ATOM     74  C   UNL A   1      39.435  33.656  35.466  1.00  0.00     0.134 A 
ATOM     75  F   UNL A   1      38.094  30.360  36.174  1.00  0.00    -0.206 F 
ATOM     76  C   UNL A   1      37.862  32.374  37.360  1.00  0.00     0.040 A 
ATOM     77  C   UNL A   1      38.934  34.374  36.552  1.00  0.00     0.040 A 
ATOM     78  F   UNL A   1      40.182  34.313  34.567  1.00  0.00    -0.206 F 
ATOM     79  C   UNL A   1      38.139  33.733  37.499  1.00  0.00     0.006 A 
ENDBRANCH  51  72
BRANCH  63  80
ATOM     80  C   UNL A   1      45.082  28.760  34.233  1.00  0.00     0.057 A 
ATOM     81  C   UNL A   1      46.166  29.645  34.281  1.00  0.00     0.134 A 
ATOM     82  C   UNL A   1      45.144  27.617  35.043  1.00  0.00     0.134 A 
ATOM     83  F   UNL A   1      46.175  30.750  33.520  1.00  0.00    -0.206 F 
ATOM     84  C   UNL A   1      47.281  29.389  35.081  1.00  0.00     0.040 A 
ATOM     85  C   UNL A   1      46.241  27.365  35.867  1.00  0.00     0.040 A 
ATOM     86  F   UNL A   1      44.136  26.733  35.052  1.00  0.00    -0.206 F 
ATOM     87  C   UNL A   1      47.319  28.249  35.881  1.00  0.00     0.006 A 
ENDBRANCH  63  80
ENDBRANCH  37  38
ENDBRANCH  30  32
ENDBRANCH  29  30
ENDBRANCH  28  29
ENDBRANCH   1  28
TORSDOF 16
ENDMDL
