MODEL 1
REMARK VINA RESULT:     -10.4      0.000      0.000
REMARK SMILES CCOC(=O)[C@H]1CCCN(C(=O)N[C@](C)(CC)C(=O)OCCOC(=O)c2ccc(-c3c4nc(c(-c5c(F)cccc5F)c5ccc([nH]5)c(-c5c(F)cccc5F)c5nc(c(-c6c(F)cccc6F)c6ccc3[nH]6)C=C5)C=C4)cc2)C1
REMARK SMILES IDX 20 1 18 2 19 3 14 4 15 5 13 6 11 7 12 8 10 10 6 11 7 12
REMARK SMILES IDX 80 13 8 14 9 15 4 16 5 17 3 18 2 19 1 20 16 21 17 22 21 23
REMARK SMILES IDX 22 24 23 25 24 26 25 27 26 28 27 29 79 30 28 31 78 32 29 33
REMARK SMILES IDX 30 34 31 35 72 36 32 37 77 38 71 39 73 40 33 41 76 42 70 43
REMARK SMILES IDX 69 44 34 46 60 47 43 48 59 49 44 50 47 51 58 52 74 53 45 54
REMARK SMILES IDX 46 55 57 57 75 58 48 59 35 60 36 61 41 62 37 63 38 64 40 65
REMARK SMILES IDX 42 66 39 67 61 68 62 69 67 70 63 71 64 72 66 73 68 74 65 75
REMARK SMILES IDX 49 76 50 77 55 78 51 79 52 80 54 81 56 82 53 83
REMARK H PARENT 13 9 73 45 47 56
REMARK Flexibility Score: inf
ROOT
ATOM      1  O   UNL A   1      32.950  28.839  26.701  1.00  0.00    -0.460 OA
ENDROOT
BRANCH   1   2
ATOM      2  C   UNL A   1      32.119  27.805  27.001  1.00  0.00     0.331 C 
ATOM      3  O   UNL A   1      31.335  27.797  27.944  1.00  0.00    -0.249 OA
BRANCH   2   4
ATOM      4  C   UNL A   1      32.206  26.667  25.934  1.00  0.00     0.136 C 
ATOM      5  C   UNL A   1      30.966  26.867  25.051  1.00  0.00     0.047 C 
BRANCH   4   6
ATOM      6  N   UNL A   1      32.045  25.413  26.700  1.00  0.00    -0.322 N 
ATOM      7  C   UNL A   1      32.134  24.091  26.499  1.00  0.00     0.318 C 
ATOM      8  O   UNL A   1      31.885  23.421  27.508  1.00  0.00    -0.249 OA
ATOM      9  H   UNL A   1      31.799  25.605  27.634  1.00  0.00     0.166 HD
BRANCH   7  10
ATOM     10  N   UNL A   1      32.462  23.500  25.312  1.00  0.00    -0.324 N 
ATOM     11  C   UNL A   1      34.535  23.594  23.930  1.00  0.00     0.119 C 
ATOM     12  C   UNL A   1      33.670  23.406  22.671  1.00  0.00     0.019 C 
ATOM     13  C   UNL A   1      33.842  23.011  25.169  1.00  0.00     0.136 C 
ATOM     14  C   UNL A   1      32.237  23.861  22.893  1.00  0.00     0.023 C 
ATOM     15  C   UNL A   1      31.656  23.198  24.133  1.00  0.00     0.121 C 
BRANCH  11  16
ATOM     16  C   UNL A   1      35.890  22.924  23.793  1.00  0.00     0.310 C 
ATOM     17  O   UNL A   1      36.559  22.924  22.769  1.00  0.00    -0.252 OA
BRANCH  16  18
ATOM     18  O   UNL A   1      36.254  22.305  24.950  1.00  0.00    -0.466 OA
BRANCH  18  19
ATOM     19  C   UNL A   1      37.663  22.135  25.150  1.00  0.00     0.229 C 
ATOM     20  C   UNL A   1      38.202  23.243  26.032  1.00  0.00     0.049 C 
ENDBRANCH  18  19
ENDBRANCH  16  18
ENDBRANCH  11  16
ENDBRANCH   7  10
ENDBRANCH   4   6
BRANCH   4  21
ATOM     21  C   UNL A   1      33.623  26.706  25.295  1.00  0.00     0.037 C 
ATOM     22  C   UNL A   1      33.708  27.152  23.839  1.00  0.00     0.007 C 
ENDBRANCH   4  21
ENDBRANCH   2   4
ENDBRANCH   1   2
BRANCH   1  23
ATOM     23  C   UNL A   1      32.358  30.150  26.630  1.00  0.00     0.274 C 
BRANCH  23  24
ATOM     24  C   UNL A   1      33.205  31.092  27.480  1.00  0.00     0.275 C 
BRANCH  24  25
ATOM     25  O   UNL A   1      34.472  30.448  27.719  1.00  0.00    -0.458 OA
BRANCH  25  26
ATOM     26  C   UNL A   1      35.221  30.957  28.724  1.00  0.00     0.338 C 
ATOM     27  O   UNL A   1      34.896  31.810  29.531  1.00  0.00    -0.246 OA
BRANCH  26  28
ATOM     28  C   UNL A   1      36.537  30.285  28.752  1.00  0.00     0.060 A 
ATOM     29  C   UNL A   1      37.065  29.812  29.953  1.00  0.00     0.016 A 
ATOM     30  C   UNL A   1      37.306  30.229  27.592  1.00  0.00     0.016 A 
ATOM     31  C   UNL A   1      38.396  29.391  30.018  1.00  0.00     0.010 A 
ATOM     32  C   UNL A   1      38.592  29.679  27.636  1.00  0.00     0.010 A 
ATOM     33  C   UNL A   1      39.171  29.278  28.855  1.00  0.00    -0.014 A 
BRANCH  33  34
ATOM     34  C   UNL A   1      40.567  28.739  28.882  1.00  0.00     0.031 A 
ATOM     35  C   UNL A   1      41.736  29.661  29.130  1.00  0.00     0.074 A 
ATOM     36  C   UNL A   1      40.815  27.437  28.627  1.00  0.00     0.049 A 
ATOM     37  N   UNL A   1      43.007  29.478  28.869  1.00  0.00    -0.248 NA
ATOM     38  C   UNL A   1      41.434  30.971  29.730  1.00  0.00     0.031 C 
ATOM     39  C   UNL A   1      39.808  26.399  28.405  1.00  0.00     0.029 A 
ATOM     40  N   UNL A   1      42.009  26.765  28.492  1.00  0.00    -0.354 N 
ATOM     41  C   UNL A   1      43.639  30.674  29.188  1.00  0.00     0.074 A 
ATOM     42  C   UNL A   1      42.617  31.569  29.689  1.00  0.00     0.031 C 
ATOM     43  C   UNL A   1      40.418  25.225  28.191  1.00  0.00     0.029 A 
ATOM     44  C   UNL A   1      41.857  25.443  28.148  1.00  0.00     0.049 A 
ATOM     45  H   UNL A   1      42.887  27.190  28.630  1.00  0.00     0.167 HD
ATOM     46  C   UNL A   1      44.949  30.998  29.063  1.00  0.00     0.037 A 
ATOM     47  C   UNL A   1      42.758  24.517  27.767  1.00  0.00     0.037 A 
ATOM     48  C   UNL A   1      45.980  30.082  28.647  1.00  0.00     0.049 A 
ATOM     49  C   UNL A   1      44.203  24.895  27.637  1.00  0.00     0.074 A 
ATOM     50  C   UNL A   1      47.340  30.315  28.522  1.00  0.00     0.029 A 
ATOM     51  N   UNL A   1      45.772  28.753  28.318  1.00  0.00    -0.354 N 
ATOM     52  N   UNL A   1      44.774  26.053  27.856  1.00  0.00    -0.248 NA
ATOM     53  C   UNL A   1      45.123  23.845  27.178  1.00  0.00     0.031 C 
ATOM     54  C   UNL A   1      47.951  29.130  28.097  1.00  0.00     0.029 A 
ATOM     55  C   UNL A   1      46.975  28.154  27.987  1.00  0.00     0.049 A 
ATOM     56  H   UNL A   1      44.897  28.302  28.318  1.00  0.00     0.167 HD
ATOM     57  C   UNL A   1      46.119  25.872  27.563  1.00  0.00     0.074 A 
ATOM     58  C   UNL A   1      46.283  24.487  27.172  1.00  0.00     0.031 C 
ATOM     59  C   UNL A   1      47.125  26.776  27.604  1.00  0.00     0.037 A 
BRANCH  46  60
ATOM     60  C   UNL A   1      45.354  32.415  29.345  1.00  0.00     0.057 A 
ATOM     61  C   UNL A   1      45.352  33.404  28.356  1.00  0.00     0.134 A 
ATOM     62  C   UNL A   1      45.673  32.807  30.653  1.00  0.00     0.134 A 
ATOM     63  F   UNL A   1      45.066  33.092  27.084  1.00  0.00    -0.206 F 
ATOM     64  C   UNL A   1      45.658  34.733  28.657  1.00  0.00     0.040 A 
ATOM     65  C   UNL A   1      45.961  34.134  30.969  1.00  0.00     0.040 A 
ATOM     66  F   UNL A   1      45.685  31.906  31.649  1.00  0.00    -0.206 F 
ATOM     67  C   UNL A   1      45.957  35.102  29.968  1.00  0.00     0.006 A 
ENDBRANCH  46  60
BRANCH  47  68
ATOM     68  C   UNL A   1      42.299  23.153  27.405  1.00  0.00     0.057 A 
ATOM     69  C   UNL A   1      42.015  22.201  28.391  1.00  0.00     0.134 A 
ATOM     70  C   UNL A   1      42.121  22.773  26.069  1.00  0.00     0.134 A 
ATOM     71  F   UNL A   1      42.193  22.499  29.686  1.00  0.00    -0.206 F 
ATOM     72  C   UNL A   1      41.573  20.919  28.061  1.00  0.00     0.040 A 
ATOM     73  C   UNL A   1      41.654  21.505  25.725  1.00  0.00     0.040 A 
ATOM     74  F   UNL A   1      42.374  23.642  25.079  1.00  0.00    -0.206 F 
ATOM     75  C   UNL A   1      41.382  20.572  26.724  1.00  0.00     0.006 A 
ENDBRANCH  47  68
BRANCH  59  76
ATOM     76  C   UNL A   1      48.494  26.287  27.245  1.00  0.00     0.057 A 
ATOM     77  C   UNL A   1      49.316  25.654  28.185  1.00  0.00     0.134 A 
ATOM     78  C   UNL A   1      48.987  26.434  25.943  1.00  0.00     0.134 A 
ATOM     79  F   UNL A   1      48.904  25.499  29.453  1.00  0.00    -0.206 F 
ATOM     80  C   UNL A   1      50.589  25.197  27.846  1.00  0.00     0.040 A 
ATOM     81  C   UNL A   1      50.251  25.966  25.587  1.00  0.00     0.040 A 
ATOM     82  F   UNL A   1      48.244  27.029  24.997  1.00  0.00    -0.206 F 
ATOM     83  C   UNL A   1      51.059  25.349  26.541  1.00  0.00     0.006 A 
ENDBRANCH  59  76
ENDBRANCH  33  34
ENDBRANCH  26  28
ENDBRANCH  25  26
ENDBRANCH  24  25
ENDBRANCH  23  24
ENDBRANCH   1  23
TORSDOF 17
ENDMDL
MODEL 2
REMARK VINA RESULT:     -10.3      4.107      7.511
REMARK SMILES CCOC(=O)[C@H]1CCCN(C(=O)N[C@](C)(CC)C(=O)OCCOC(=O)c2ccc(-c3c4nc(c(-c5c(F)cccc5F)c5ccc([nH]5)c(-c5c(F)cccc5F)c5nc(c(-c6c(F)cccc6F)c6ccc3[nH]6)C=C5)C=C4)cc2)C1
REMARK SMILES IDX 20 1 18 2 19 3 14 4 15 5 13 6 11 7 12 8 10 10 6 11 7 12
REMARK SMILES IDX 80 13 8 14 9 15 4 16 5 17 3 18 2 19 1 20 16 21 17 22 21 23
REMARK SMILES IDX 22 24 23 25 24 26 25 27 26 28 27 29 79 30 28 31 78 32 29 33
REMARK SMILES IDX 30 34 31 35 72 36 32 37 77 38 71 39 73 40 33 41 76 42 70 43
REMARK SMILES IDX 69 44 34 46 60 47 43 48 59 49 44 50 47 51 58 52 74 53 45 54
REMARK SMILES IDX 46 55 57 57 75 58 48 59 35 60 36 61 41 62 37 63 38 64 40 65
REMARK SMILES IDX 42 66 39 67 61 68 62 69 67 70 63 71 64 72 66 73 68 74 65 75
REMARK SMILES IDX 49 76 50 77 55 78 51 79 52 80 54 81 56 82 53 83
REMARK H PARENT 13 9 73 45 47 56
REMARK Flexibility Score: inf
ROOT
ATOM      1  O   UNL A   1      31.184  27.518  24.896  1.00  0.00    -0.460 OA
ENDROOT
BRANCH   1   2
ATOM      2  C   UNL A   1      31.681  26.574  24.054  1.00  0.00     0.331 C 
ATOM      3  O   UNL A   1      31.646  26.649  22.830  1.00  0.00    -0.249 OA
BRANCH   2   4
ATOM      4  C   UNL A   1      32.401  25.427  24.834  1.00  0.00     0.136 C 
ATOM      5  C   UNL A   1      33.154  26.140  25.966  1.00  0.00     0.047 C 
BRANCH   4   6
ATOM      6  N   UNL A   1      33.389  24.879  23.880  1.00  0.00    -0.322 N 
ATOM      7  C   UNL A   1      34.272  23.874  23.811  1.00  0.00     0.318 C 
ATOM      8  O   UNL A   1      34.899  23.841  22.745  1.00  0.00    -0.249 OA
ATOM      9  H   UNL A   1      33.401  25.408  23.050  1.00  0.00     0.166 HD
BRANCH   7  10
ATOM     10  N   UNL A   1      34.492  22.955  24.799  1.00  0.00    -0.324 N 
ATOM     11  C   UNL A   1      33.239  20.907  25.466  1.00  0.00     0.119 C 
ATOM     12  C   UNL A   1      33.691  21.136  26.919  1.00  0.00     0.019 C 
ATOM     13  C   UNL A   1      34.218  21.548  24.473  1.00  0.00     0.136 C 
ATOM     14  C   UNL A   1      34.029  22.595  27.183  1.00  0.00     0.023 C 
ATOM     15  C   UNL A   1      35.023  23.105  26.150  1.00  0.00     0.121 C 
BRANCH  11  16
ATOM     16  C   UNL A   1      33.133  19.430  25.131  1.00  0.00     0.310 C 
ATOM     17  O   UNL A   1      32.152  18.738  25.365  1.00  0.00    -0.252 OA
BRANCH  16  18
ATOM     18  O   UNL A   1      34.280  18.970  24.558  1.00  0.00    -0.466 OA
BRANCH  18  19
ATOM     19  C   UNL A   1      34.424  17.545  24.507  1.00  0.00     0.229 C 
ATOM     20  C   UNL A   1      34.017  17.029  23.141  1.00  0.00     0.049 C 
ENDBRANCH  18  19
ENDBRANCH  16  18
ENDBRANCH  11  16
ENDBRANCH   7  10
ENDBRANCH   4   6
BRANCH   4  21
ATOM     21  C   UNL A   1      31.348  24.336  25.175  1.00  0.00     0.037 C 
ATOM     22  C   UNL A   1      30.870  23.457  24.024  1.00  0.00     0.007 C 
ENDBRANCH   4  21
ENDBRANCH   2   4
ENDBRANCH   1   2
BRANCH   1  23
ATOM     23  C   UNL A   1      31.103  28.864  24.390  1.00  0.00     0.274 C 
BRANCH  23  24
ATOM     24  C   UNL A   1      32.344  29.616  24.860  1.00  0.00     0.275 C 
BRANCH  24  25
ATOM     25  O   UNL A   1      32.271  29.729  26.295  1.00  0.00    -0.458 OA
BRANCH  25  26
ATOM     26  C   UNL A   1      32.684  30.904  26.824  1.00  0.00     0.338 C 
ATOM     27  O   UNL A   1      32.066  31.953  26.873  1.00  0.00    -0.246 OA
BRANCH  26  28
ATOM     28  C   UNL A   1      34.032  30.739  27.407  1.00  0.00     0.060 A 
ATOM     29  C   UNL A   1      34.522  29.469  27.709  1.00  0.00     0.016 A 
ATOM     30  C   UNL A   1      34.769  31.865  27.767  1.00  0.00     0.016 A 
ATOM     31  C   UNL A   1      35.687  29.327  28.468  1.00  0.00     0.010 A 
ATOM     32  C   UNL A   1      36.004  31.712  28.407  1.00  0.00     0.010 A 
ATOM     33  C   UNL A   1      36.471  30.442  28.796  1.00  0.00    -0.014 A 
BRANCH  33  34
ATOM     34  C   UNL A   1      37.772  30.311  29.524  1.00  0.00     0.031 A 
ATOM     35  C   UNL A   1      38.908  29.523  28.919  1.00  0.00     0.074 A 
ATOM     36  C   UNL A   1      37.937  30.839  30.755  1.00  0.00     0.049 A 
ATOM     37  N   UNL A   1      39.965  29.012  29.501  1.00  0.00    -0.248 NA
ATOM     38  C   UNL A   1      38.835  29.255  27.474  1.00  0.00     0.031 C 
ATOM     39  C   UNL A   1      36.963  31.661  31.474  1.00  0.00     0.029 A 
ATOM     40  N   UNL A   1      38.992  30.744  31.634  1.00  0.00    -0.354 N 
ATOM     41  C   UNL A   1      40.633  28.292  28.516  1.00  0.00     0.074 A 
ATOM     42  C   UNL A   1      39.876  28.453  27.292  1.00  0.00     0.031 C 
ATOM     43  C   UNL A   1      37.470  32.016  32.662  1.00  0.00     0.029 A 
ATOM     44  C   UNL A   1      38.757  31.358  32.841  1.00  0.00     0.049 A 
ATOM     45  H   UNL A   1      39.834  30.280  31.418  1.00  0.00     0.167 HD
ATOM     46  C   UNL A   1      41.763  27.554  28.629  1.00  0.00     0.037 A 
ATOM     47  C   UNL A   1      39.452  31.342  33.995  1.00  0.00     0.037 A 
ATOM     48  C   UNL A   1      42.563  27.463  29.823  1.00  0.00     0.049 A 
ATOM     49  C   UNL A   1      40.703  30.522  34.097  1.00  0.00     0.074 A 
ATOM     50  C   UNL A   1      43.744  26.764  30.019  1.00  0.00     0.029 A 
ATOM     51  N   UNL A   1      42.283  28.111  31.014  1.00  0.00    -0.354 N 
ATOM     52  N   UNL A   1      41.274  29.774  33.186  1.00  0.00    -0.248 NA
ATOM     53  C   UNL A   1      41.388  30.520  35.397  1.00  0.00     0.031 C 
ATOM     54  C   UNL A   1      44.165  26.975  31.336  1.00  0.00     0.029 A 
ATOM     55  C   UNL A   1      43.264  27.828  31.949  1.00  0.00     0.049 A 
ATOM     56  H   UNL A   1      41.501  28.688  31.172  1.00  0.00     0.167 HD
ATOM     57  C   UNL A   1      42.386  29.214  33.801  1.00  0.00     0.074 A 
ATOM     58  C   UNL A   1      42.421  29.725  35.156  1.00  0.00     0.031 C 
ATOM     59  C   UNL A   1      43.289  28.345  33.291  1.00  0.00     0.037 A 
BRANCH  46  60
ATOM     60  C   UNL A   1      42.201  26.751  27.440  1.00  0.00     0.057 A 
ATOM     61  C   UNL A   1      43.065  27.265  26.467  1.00  0.00     0.134 A 
ATOM     62  C   UNL A   1      41.810  25.410  27.315  1.00  0.00     0.134 A 
ATOM     63  F   UNL A   1      43.467  28.543  26.523  1.00  0.00    -0.206 F 
ATOM     64  C   UNL A   1      43.522  26.476  25.409  1.00  0.00     0.040 A 
ATOM     65  C   UNL A   1      42.274  24.606  26.274  1.00  0.00     0.040 A 
ATOM     66  F   UNL A   1      40.988  24.855  28.220  1.00  0.00    -0.206 F 
ATOM     67  C   UNL A   1      43.132  25.140  25.315  1.00  0.00     0.006 A 
ENDBRANCH  46  60
BRANCH  47  68
ATOM     68  C   UNL A   1      38.931  32.076  35.175  1.00  0.00     0.057 A 
ATOM     69  C   UNL A   1      38.249  31.408  36.198  1.00  0.00     0.134 A 
ATOM     70  C   UNL A   1      39.113  33.458  35.313  1.00  0.00     0.134 A 
ATOM     71  F   UNL A   1      38.021  30.089  36.106  1.00  0.00    -0.206 F 
ATOM     72  C   UNL A   1      37.765  32.087  37.316  1.00  0.00     0.040 A 
ATOM     73  C   UNL A   1      38.659  34.146  36.438  1.00  0.00     0.040 A 
ATOM     74  F   UNL A   1      39.761  34.153  34.367  1.00  0.00    -0.206 F 
ATOM     75  C   UNL A   1      37.978  33.460  37.442  1.00  0.00     0.006 A 
ENDBRANCH  47  68
BRANCH  59  76
ATOM     76  C   UNL A   1      44.406  27.917  34.192  1.00  0.00     0.057 A 
ATOM     77  C   UNL A   1      44.315  26.756  34.969  1.00  0.00     0.134 A 
ATOM     78  C   UNL A   1      45.588  28.661  34.268  1.00  0.00     0.134 A 
ATOM     79  F   UNL A   1      43.200  26.009  34.949  1.00  0.00    -0.206 F 
ATOM     80  C   UNL A   1      45.359  26.358  35.805  1.00  0.00     0.040 A 
ATOM     81  C   UNL A   1      46.645  28.266  35.087  1.00  0.00     0.040 A 
ATOM     82  F   UNL A   1      45.735  29.781  33.544  1.00  0.00    -0.206 F 
ATOM     83  C   UNL A   1      46.531  27.113  35.863  1.00  0.00     0.006 A 
ENDBRANCH  59  76
ENDBRANCH  33  34
ENDBRANCH  26  28
ENDBRANCH  25  26
ENDBRANCH  24  25
ENDBRANCH  23  24
ENDBRANCH   1  23
TORSDOF 17
ENDMDL
MODEL 3
REMARK VINA RESULT:     -10.3      2.247      7.099
REMARK SMILES CCOC(=O)[C@H]1CCCN(C(=O)N[C@](C)(CC)C(=O)OCCOC(=O)c2ccc(-c3c4nc(c(-c5c(F)cccc5F)c5ccc([nH]5)c(-c5c(F)cccc5F)c5nc(c(-c6c(F)cccc6F)c6ccc3[nH]6)C=C5)C=C4)cc2)C1
REMARK SMILES IDX 20 1 18 2 19 3 14 4 15 5 13 6 11 7 12 8 10 10 6 11 7 12
REMARK SMILES IDX 80 13 8 14 9 15 4 16 5 17 3 18 2 19 1 20 16 21 17 22 21 23
REMARK SMILES IDX 22 24 23 25 24 26 25 27 26 28 27 29 79 30 28 31 78 32 29 33
REMARK SMILES IDX 30 34 31 35 72 36 32 37 77 38 71 39 73 40 33 41 76 42 70 43
REMARK SMILES IDX 69 44 34 46 60 47 43 48 59 49 44 50 47 51 58 52 74 53 45 54
REMARK SMILES IDX 46 55 57 57 75 58 48 59 35 60 36 61 41 62 37 63 38 64 40 65
REMARK SMILES IDX 42 66 39 67 61 68 62 69 67 70 63 71 64 72 66 73 68 74 65 75
REMARK SMILES IDX 49 76 50 77 55 78 51 79 52 80 54 81 56 82 53 83
REMARK H PARENT 13 9 73 45 47 56
REMARK Flexibility Score: inf
ROOT
ATOM      1  O   UNL A   1      33.815  22.122  24.916  1.00  0.00    -0.460 OA
ENDROOT
BRANCH   1   2
ATOM      2  C   UNL A   1      33.098  22.986  25.681  1.00  0.00     0.331 C 
ATOM      3  O   UNL A   1      32.502  22.674  26.707  1.00  0.00    -0.249 OA
BRANCH   2   4
ATOM      4  C   UNL A   1      33.212  24.454  25.156  1.00  0.00     0.136 C 
ATOM      5  C   UNL A   1      34.683  24.833  25.378  1.00  0.00     0.047 C 
BRANCH   4   6
ATOM      6  N   UNL A   1      32.373  25.254  26.074  1.00  0.00    -0.322 N 
ATOM      7  C   UNL A   1      31.967  26.522  26.220  1.00  0.00     0.318 C 
ATOM      8  O   UNL A   1      31.240  26.697  27.206  1.00  0.00    -0.249 OA
ATOM      9  H   UNL A   1      32.004  24.688  26.790  1.00  0.00     0.166 HD
BRANCH   7  10
ATOM     10  N   UNL A   1      32.300  27.552  25.386  1.00  0.00    -0.324 N 
ATOM     11  C   UNL A   1      31.352  28.292  23.204  1.00  0.00     0.119 C 
ATOM     12  C   UNL A   1      32.748  28.797  22.799  1.00  0.00     0.019 C 
ATOM     13  C   UNL A   1      31.194  28.264  24.730  1.00  0.00     0.136 C 
ATOM     14  C   UNL A   1      33.853  28.078  23.558  1.00  0.00     0.023 C 
ATOM     15  C   UNL A   1      33.595  28.140  25.056  1.00  0.00     0.121 C 
BRANCH  11  16
ATOM     16  C   UNL A   1      30.247  29.164  22.635  1.00  0.00     0.310 C 
ATOM     17  O   UNL A   1      30.256  29.641  21.508  1.00  0.00    -0.252 OA
BRANCH  16  18
ATOM     18  O   UNL A   1      29.257  29.364  23.547  1.00  0.00    -0.466 OA
BRANCH  18  19
ATOM     19  C   UNL A   1      27.992  29.778  23.015  1.00  0.00     0.229 C 
ATOM     20  C   UNL A   1      27.654  31.173  23.500  1.00  0.00     0.049 C 
ENDBRANCH  18  19
ENDBRANCH  16  18
ENDBRANCH  11  16
ENDBRANCH   7  10
ENDBRANCH   4   6
BRANCH   4  21
ATOM     21  C   UNL A   1      32.609  24.506  23.724  1.00  0.00     0.037 C 
ATOM     22  C   UNL A   1      33.595  24.623  22.567  1.00  0.00     0.007 C 
ENDBRANCH   4  21
ENDBRANCH   2   4
ENDBRANCH   1   2
BRANCH   1  23
ATOM     23  C   UNL A   1      34.335  20.950  25.571  1.00  0.00     0.274 C 
BRANCH  23  24
ATOM     24  C   UNL A   1      35.729  20.680  25.012  1.00  0.00     0.275 C 
BRANCH  24  25
ATOM     25  O   UNL A   1      36.610  21.702  25.518  1.00  0.00    -0.458 OA
BRANCH  25  26
ATOM     26  C   UNL A   1      37.917  21.366  25.627  1.00  0.00     0.338 C 
ATOM     27  O   UNL A   1      38.449  20.337  25.251  1.00  0.00    -0.246 OA
BRANCH  26  28
ATOM     28  C   UNL A   1      38.665  22.477  26.250  1.00  0.00     0.060 A 
ATOM     29  C   UNL A   1      38.220  23.792  26.119  1.00  0.00     0.016 A 
ATOM     30  C   UNL A   1      39.886  22.222  26.872  1.00  0.00     0.016 A 
ATOM     31  C   UNL A   1      39.044  24.854  26.503  1.00  0.00     0.010 A 
ATOM     32  C   UNL A   1      40.643  23.283  27.378  1.00  0.00     0.010 A 
ATOM     33  C   UNL A   1      40.251  24.620  27.177  1.00  0.00    -0.014 A 
BRANCH  33  34
ATOM     34  C   UNL A   1      41.105  25.738  27.686  1.00  0.00     0.031 A 
ATOM     35  C   UNL A   1      40.510  26.817  28.558  1.00  0.00     0.074 A 
ATOM     36  C   UNL A   1      42.403  25.840  27.329  1.00  0.00     0.049 A 
ATOM     37  N   UNL A   1      40.967  28.016  28.821  1.00  0.00    -0.248 NA
ATOM     38  C   UNL A   1      39.221  26.515  29.200  1.00  0.00     0.031 C 
ATOM     39  C   UNL A   1      43.152  24.872  26.526  1.00  0.00     0.029 A 
ATOM     40  N   UNL A   1      43.325  26.829  27.586  1.00  0.00    -0.354 N 
ATOM     41  C   UNL A   1      39.985  28.640  29.583  1.00  0.00     0.074 A 
ATOM     42  C   UNL A   1      38.918  27.677  29.763  1.00  0.00     0.031 C 
ATOM     43  C   UNL A   1      44.414  25.295  26.380  1.00  0.00     0.029 A 
ATOM     44  C   UNL A   1      44.540  26.616  26.980  1.00  0.00     0.049 A 
ATOM     45  H   UNL A   1      43.133  27.614  28.150  1.00  0.00     0.167 HD
ATOM     46  C   UNL A   1      39.971  29.902  30.074  1.00  0.00     0.037 A 
ATOM     47  C   UNL A   1      45.618  27.414  26.850  1.00  0.00     0.037 A 
ATOM     48  C   UNL A   1      41.067  30.831  29.970  1.00  0.00     0.049 A 
ATOM     49  C   UNL A   1      45.584  28.806  27.403  1.00  0.00     0.074 A 
ATOM     50  C   UNL A   1      41.153  32.122  30.466  1.00  0.00     0.029 A 
ATOM     51  N   UNL A   1      42.276  30.560  29.352  1.00  0.00    -0.354 N 
ATOM     52  N   UNL A   1      44.616  29.415  28.043  1.00  0.00    -0.248 NA
ATOM     53  C   UNL A   1      46.780  29.633  27.190  1.00  0.00     0.031 C 
ATOM     54  C   UNL A   1      42.409  32.639  30.130  1.00  0.00     0.029 A 
ATOM     55  C   UNL A   1      43.114  31.659  29.451  1.00  0.00     0.049 A 
ATOM     56  H   UNL A   1      42.506  29.713  28.907  1.00  0.00     0.167 HD
ATOM     57  C   UNL A   1      45.085  30.694  28.310  1.00  0.00     0.074 A 
ATOM     58  C   UNL A   1      46.432  30.767  27.782  1.00  0.00     0.031 C 
ATOM     59  C   UNL A   1      44.451  31.718  28.926  1.00  0.00     0.037 A 
BRANCH  46  60
ATOM     60  C   UNL A   1      38.719  30.382  30.747  1.00  0.00     0.057 A 
ATOM     61  C   UNL A   1      37.677  30.992  30.041  1.00  0.00     0.134 A 
ATOM     62  C   UNL A   1      38.526  30.152  32.117  1.00  0.00     0.134 A 
ATOM     63  F   UNL A   1      37.804  31.250  28.731  1.00  0.00    -0.206 F 
ATOM     64  C   UNL A   1      36.488  31.362  30.674  1.00  0.00     0.040 A 
ATOM     65  C   UNL A   1      37.335  30.498  32.756  1.00  0.00     0.040 A 
ATOM     66  F   UNL A   1      39.484  29.563  32.850  1.00  0.00    -0.206 F 
ATOM     67  C   UNL A   1      36.312  31.108  32.034  1.00  0.00     0.006 A 
ENDBRANCH  46  60
BRANCH  47  68
ATOM     68  C   UNL A   1      46.800  26.931  26.093  1.00  0.00     0.057 A 
ATOM     69  C   UNL A   1      47.800  26.178  26.718  1.00  0.00     0.134 A 
ATOM     70  C   UNL A   1      46.951  27.200  24.726  1.00  0.00     0.134 A 
ATOM     71  F   UNL A   1      47.724  25.913  28.030  1.00  0.00    -0.206 F 
ATOM     72  C   UNL A   1      48.910  25.711  26.012  1.00  0.00     0.040 A 
ATOM     73  C   UNL A   1      48.040  26.716  24.002  1.00  0.00     0.040 A 
ATOM     74  F   UNL A   1      46.024  27.914  24.071  1.00  0.00    -0.206 F 
ATOM     75  C   UNL A   1      49.027  25.973  24.647  1.00  0.00     0.006 A 
ENDBRANCH  47  68
BRANCH  59  76
ATOM     76  C   UNL A   1      45.218  32.994  29.089  1.00  0.00     0.057 A 
ATOM     77  C   UNL A   1      46.043  33.216  30.198  1.00  0.00     0.134 A 
ATOM     78  C   UNL A   1      45.148  33.999  28.118  1.00  0.00     0.134 A 
ATOM     79  F   UNL A   1      46.139  32.295  31.169  1.00  0.00    -0.206 F 
ATOM     80  C   UNL A   1      46.759  34.404  30.345  1.00  0.00     0.040 A 
ATOM     81  C   UNL A   1      45.872  35.184  28.244  1.00  0.00     0.040 A 
ATOM     82  F   UNL A   1      44.378  33.842  27.030  1.00  0.00    -0.206 F 
ATOM     83  C   UNL A   1      46.677  35.392  29.363  1.00  0.00     0.006 A 
ENDBRANCH  59  76
ENDBRANCH  33  34
ENDBRANCH  26  28
ENDBRANCH  25  26
ENDBRANCH  24  25
ENDBRANCH  23  24
ENDBRANCH   1  23
TORSDOF 17
ENDMDL
