MODEL 1
REMARK VINA RESULT:     -11.3      0.000      0.000
REMARK SMILES CCCCNC(=O)[C@]1(C)CC[C@@](C)(C(=O)OCCOC(=O)c2ccc(-c3c4nc(c(-c5c(F)cccc5F)c5ccc([nH]5)c(-c5c(F)cccc5F)c5nc(c(-c6c(F)cccc6F)c6ccc3[nH]6)C=C5)C=C4)cc2)C1(C)C
REMARK SMILES IDX 17 1 16 2 14 3 15 4 12 5 8 6 10 7 76 8 9 9 11 10 77 11 78 12
REMARK SMILES IDX 13 13 6 14 5 15 7 17 4 18 3 19 2 20 1 21 18 22 19 23 20 24
REMARK SMILES IDX 21 25 22 26 23 27 75 28 24 29 74 30 25 31 26 32 27 33 68 34
REMARK SMILES IDX 28 35 73 36 67 37 69 38 29 39 72 40 66 41 65 42 30 44 56 45
REMARK SMILES IDX 39 46 55 47 40 48 43 49 54 50 70 51 41 52 42 53 53 55 71 56
REMARK SMILES IDX 44 57 31 58 32 59 37 60 33 61 34 62 36 63 38 64 35 65 57 66
REMARK SMILES IDX 58 67 63 68 59 69 60 70 62 71 64 72 61 73 45 74 46 75 51 76
REMARK SMILES IDX 47 77 48 78 50 79 52 80 49 81
REMARK H PARENT 5 16 69 43 43 54
REMARK Flexibility Score: inf
ROOT
ATOM      1  C   UNL A   1      35.356  21.243  25.777  1.00  0.00     0.274 C 
ENDROOT
BRANCH   1   2
ATOM      2  O   UNL A   1      34.670  22.120  24.863  1.00  0.00    -0.462 OA
BRANCH   2   3
ATOM      3  C   UNL A   1      33.362  21.833  24.602  1.00  0.00     0.312 C 
ATOM      4  O   UNL A   1      32.693  21.032  25.242  1.00  0.00    -0.252 OA
BRANCH   3   5
ATOM      5  C   UNL A   1      32.836  22.663  23.396  1.00  0.00     0.071 C 
ATOM      6  C   UNL A   1      32.917  25.232  23.316  1.00  0.00     0.053 C 
ATOM      7  C   UNL A   1      34.322  24.612  23.224  1.00  0.00     0.018 C 
ATOM      8  C   UNL A   1      32.026  24.002  23.849  1.00  0.00    -0.005 C 
ATOM      9  C   UNL A   1      32.986  26.391  24.360  1.00  0.00     0.022 C 
ATOM     10  C   UNL A   1      34.093  23.224  22.657  1.00  0.00     0.020 C 
ATOM     11  C   UNL A   1      31.938  24.024  25.417  1.00  0.00     0.013 C 
ATOM     12  C   UNL A   1      30.546  24.151  23.426  1.00  0.00     0.013 C 
ATOM     13  C   UNL A   1      32.144  21.626  22.467  1.00  0.00     0.024 C 
BRANCH   6  14
ATOM     14  C   UNL A   1      32.627  25.991  21.954  1.00  0.00     0.226 C 
ATOM     15  N   UNL A   1      31.630  26.852  21.654  1.00  0.00    -0.356 N 
ATOM     16  H   UNL A   1      31.621  27.091  20.700  1.00  0.00     0.163 HD
ATOM     17  O   UNL A   1      33.320  25.733  20.956  1.00  0.00    -0.274 OA
BRANCH  15  18
ATOM     18  C   UNL A   1      30.577  27.508  22.390  1.00  0.00     0.116 C 
BRANCH  18  19
ATOM     19  C   UNL A   1      30.842  28.999  22.613  1.00  0.00     0.021 C 
BRANCH  19  20
ATOM     20  C   UNL A   1      29.673  29.766  23.229  1.00  0.00    -0.002 C 
ATOM     21  C   UNL A   1      28.346  29.479  22.541  1.00  0.00     0.004 C 
ENDBRANCH  19  20
ENDBRANCH  18  19
ENDBRANCH  15  18
ENDBRANCH   6  14
ENDBRANCH   3   5
ENDBRANCH   2   3
ENDBRANCH   1   2
BRANCH   1  22
ATOM     22  C   UNL A   1      36.448  20.491  25.026  1.00  0.00     0.275 C 
BRANCH  22  23
ATOM     23  O   UNL A   1      37.596  21.350  24.901  1.00  0.00    -0.458 OA
BRANCH  23  24
ATOM     24  C   UNL A   1      38.657  21.017  25.666  1.00  0.00     0.338 C 
ATOM     25  O   UNL A   1      39.146  19.905  25.816  1.00  0.00    -0.246 OA
BRANCH  24  26
ATOM     26  C   UNL A   1      39.208  22.215  26.322  1.00  0.00     0.060 A 
ATOM     27  C   UNL A   1      38.671  23.480  26.072  1.00  0.00     0.016 A 
ATOM     28  C   UNL A   1      40.366  22.084  27.088  1.00  0.00     0.016 A 
ATOM     29  C   UNL A   1      39.356  24.620  26.492  1.00  0.00     0.010 A 
ATOM     30  C   UNL A   1      40.990  23.224  27.597  1.00  0.00     0.010 A 
ATOM     31  C   UNL A   1      40.521  24.508  27.267  1.00  0.00    -0.014 A 
BRANCH  31  32
ATOM     32  C   UNL A   1      41.281  25.712  27.706  1.00  0.00     0.031 A 
ATOM     33  C   UNL A   1      40.606  26.766  28.547  1.00  0.00     0.074 A 
ATOM     34  C   UNL A   1      42.561  25.889  27.326  1.00  0.00     0.049 A 
ATOM     35  N   UNL A   1      41.008  27.977  28.839  1.00  0.00    -0.248 NA
ATOM     36  C   UNL A   1      39.293  26.420  29.118  1.00  0.00     0.031 C 
ATOM     37  C   UNL A   1      43.352  24.949  26.529  1.00  0.00     0.029 A 
ATOM     38  N   UNL A   1      43.421  26.938  27.548  1.00  0.00    -0.354 N 
ATOM     39  C   UNL A   1      39.973  28.559  29.563  1.00  0.00     0.074 A 
ATOM     40  C   UNL A   1      38.927  27.566  29.675  1.00  0.00     0.031 C 
ATOM     41  C   UNL A   1      44.581  25.452  26.343  1.00  0.00     0.029 A 
ATOM     42  C   UNL A   1      44.642  26.784  26.936  1.00  0.00     0.049 A 
ATOM     43  H   UNL A   1      43.186  27.723  28.092  1.00  0.00     0.167 HD
ATOM     44  C   UNL A   1      39.901  29.808  30.082  1.00  0.00     0.037 A 
ATOM     45  C   UNL A   1      45.679  27.634  26.817  1.00  0.00     0.037 A 
ATOM     46  C   UNL A   1      40.973  30.768  30.039  1.00  0.00     0.049 A 
ATOM     47  C   UNL A   1      45.580  29.008  27.416  1.00  0.00     0.074 A 
ATOM     48  C   UNL A   1      41.014  32.038  30.591  1.00  0.00     0.029 A 
ATOM     49  N   UNL A   1      42.197  30.560  29.423  1.00  0.00    -0.354 N 
ATOM     50  N   UNL A   1      44.588  29.552  28.077  1.00  0.00    -0.248 NA
ATOM     51  C   UNL A   1      46.741  29.893  27.238  1.00  0.00     0.031 C 
ATOM     52  C   UNL A   1      42.253  32.609  30.285  1.00  0.00     0.029 A 
ATOM     53  C   UNL A   1      42.995  31.682  29.571  1.00  0.00     0.049 A 
ATOM     54  H   UNL A   1      42.459  29.738  28.950  1.00  0.00     0.167 HD
ATOM     55  C   UNL A   1      45.005  30.836  28.399  1.00  0.00     0.074 A 
ATOM     56  C   UNL A   1      46.350  30.983  27.883  1.00  0.00     0.031 C 
ATOM     57  C   UNL A   1      44.332  31.810  29.056  1.00  0.00     0.037 A 
BRANCH  44  58
ATOM     58  C   UNL A   1      38.615  30.229  30.727  1.00  0.00     0.057 A 
ATOM     59  C   UNL A   1      38.356  30.016  32.085  1.00  0.00     0.134 A 
ATOM     60  C   UNL A   1      37.650  30.925  29.985  1.00  0.00     0.134 A 
ATOM     61  F   UNL A   1      39.233  29.347  32.848  1.00  0.00    -0.206 F 
ATOM     62  C   UNL A   1      37.178  30.472  32.682  1.00  0.00     0.040 A 
ATOM     63  C   UNL A   1      36.480  31.403  30.574  1.00  0.00     0.040 A 
ATOM     64  F   UNL A   1      37.841  31.167  28.680  1.00  0.00    -0.206 F 
ATOM     65  C   UNL A   1      36.240  31.176  31.928  1.00  0.00     0.006 A 
ENDBRANCH  44  58
BRANCH  45  66
ATOM     66  C   UNL A   1      46.887  27.228  26.055  1.00  0.00     0.057 A 
ATOM     67  C   UNL A   1      46.995  27.478  24.684  1.00  0.00     0.134 A 
ATOM     68  C   UNL A   1      47.955  26.574  26.681  1.00  0.00     0.134 A 
ATOM     69  F   UNL A   1      45.992  28.080  24.026  1.00  0.00    -0.206 F 
ATOM     70  C   UNL A   1      48.116  27.078  23.955  1.00  0.00     0.040 A 
ATOM     71  C   UNL A   1      49.094  26.193  25.971  1.00  0.00     0.040 A 
ATOM     72  F   UNL A   1      47.912  26.309  27.995  1.00  0.00    -0.206 F 
ATOM     73  C   UNL A   1      49.173  26.438  24.601  1.00  0.00     0.006 A 
ENDBRANCH  45  66
BRANCH  57  74
ATOM     74  C   UNL A   1      45.049  33.108  29.271  1.00  0.00     0.057 A 
ATOM     75  C   UNL A   1      45.868  33.317  30.387  1.00  0.00     0.134 A 
ATOM     76  C   UNL A   1      44.940  34.148  28.340  1.00  0.00     0.134 A 
ATOM     77  F   UNL A   1      46.001  32.363  31.321  1.00  0.00    -0.206 F 
ATOM     78  C   UNL A   1      46.537  34.526  30.581  1.00  0.00     0.040 A 
ATOM     79  C   UNL A   1      45.620  35.353  28.514  1.00  0.00     0.040 A 
ATOM     80  F   UNL A   1      44.175  34.006  27.247  1.00  0.00    -0.206 F 
ATOM     81  C   UNL A   1      46.418  35.547  29.639  1.00  0.00     0.006 A 
ENDBRANCH  57  74
ENDBRANCH  31  32
ENDBRANCH  24  26
ENDBRANCH  23  24
ENDBRANCH  22  23
ENDBRANCH   1  22
TORSDOF 15
ENDMDL
MODEL 2
REMARK VINA RESULT:     -11.3      1.374      2.149
REMARK SMILES CCCCNC(=O)[C@]1(C)CC[C@@](C)(C(=O)OCCOC(=O)c2ccc(-c3c4nc(c(-c5c(F)cccc5F)c5ccc([nH]5)c(-c5c(F)cccc5F)c5nc(c(-c6c(F)cccc6F)c6ccc3[nH]6)C=C5)C=C4)cc2)C1(C)C
REMARK SMILES IDX 17 1 16 2 14 3 15 4 12 5 8 6 10 7 76 8 9 9 11 10 77 11 78 12
REMARK SMILES IDX 13 13 6 14 5 15 7 17 4 18 3 19 2 20 1 21 18 22 19 23 20 24
REMARK SMILES IDX 21 25 22 26 23 27 75 28 24 29 74 30 25 31 26 32 27 33 68 34
REMARK SMILES IDX 28 35 73 36 67 37 69 38 29 39 72 40 66 41 65 42 30 44 56 45
REMARK SMILES IDX 39 46 55 47 40 48 43 49 54 50 70 51 41 52 42 53 53 55 71 56
REMARK SMILES IDX 44 57 31 58 32 59 37 60 33 61 34 62 36 63 38 64 35 65 57 66
REMARK SMILES IDX 58 67 63 68 59 69 60 70 62 71 64 72 61 73 45 74 46 75 51 76
REMARK SMILES IDX 47 77 48 78 50 79 52 80 49 81
REMARK H PARENT 5 16 69 43 43 54
REMARK Flexibility Score: inf
ROOT
ATOM      1  C   UNL A   1      36.574  22.657  23.668  1.00  0.00     0.274 C 
ENDROOT
BRANCH   1   2
ATOM      2  O   UNL A   1      35.397  23.296  24.198  1.00  0.00    -0.462 OA
BRANCH   2   3
ATOM      3  C   UNL A   1      34.447  23.680  23.296  1.00  0.00     0.312 C 
ATOM      4  O   UNL A   1      34.472  23.391  22.107  1.00  0.00    -0.252 OA
BRANCH   3   5
ATOM      5  C   UNL A   1      33.333  24.523  23.979  1.00  0.00     0.071 C 
ATOM      6  C   UNL A   1      31.586  23.513  25.573  1.00  0.00     0.053 C 
ATOM      7  C   UNL A   1      32.994  23.516  26.194  1.00  0.00     0.018 C 
ATOM      8  C   UNL A   1      31.891  23.764  24.013  1.00  0.00    -0.005 C 
ATOM      9  C   UNL A   1      30.969  22.100  25.822  1.00  0.00     0.022 C 
ATOM     10  C   UNL A   1      33.723  24.642  25.487  1.00  0.00     0.020 C 
ATOM     11  C   UNL A   1      32.030  22.397  23.252  1.00  0.00     0.013 C 
ATOM     12  C   UNL A   1      30.689  24.426  23.301  1.00  0.00     0.013 C 
ATOM     13  C   UNL A   1      33.442  25.932  23.332  1.00  0.00     0.024 C 
BRANCH   6  14
ATOM     14  C   UNL A   1      30.665  24.465  26.444  1.00  0.00     0.226 C 
ATOM     15  N   UNL A   1      30.699  25.810  26.562  1.00  0.00    -0.356 N 
ATOM     16  H   UNL A   1      30.085  26.138  27.258  1.00  0.00     0.163 HD
ATOM     17  O   UNL A   1      29.835  23.962  27.221  1.00  0.00    -0.274 OA
BRANCH  15  18
ATOM     18  C   UNL A   1      31.414  26.885  25.917  1.00  0.00     0.116 C 
BRANCH  18  19
ATOM     19  C   UNL A   1      32.256  27.713  26.890  1.00  0.00     0.021 C 
BRANCH  19  20
ATOM     20  C   UNL A   1      33.534  28.295  26.288  1.00  0.00    -0.002 C 
ATOM     21  C   UNL A   1      34.373  29.059  27.303  1.00  0.00     0.004 C 
ENDBRANCH  19  20
ENDBRANCH  18  19
ENDBRANCH  15  18
ENDBRANCH   6  14
ENDBRANCH   3   5
ENDBRANCH   2   3
ENDBRANCH   1   2
BRANCH   1  22
ATOM     22  C   UNL A   1      36.741  21.292  24.326  1.00  0.00     0.275 C 
BRANCH  22  23
ATOM     23  O   UNL A   1      37.209  21.484  25.673  1.00  0.00    -0.458 OA
BRANCH  23  24
ATOM     24  C   UNL A   1      38.531  21.293  25.862  1.00  0.00     0.338 C 
ATOM     25  O   UNL A   1      39.191  20.307  25.558  1.00  0.00    -0.246 OA
BRANCH  24  26
ATOM     26  C   UNL A   1      39.133  22.479  26.495  1.00  0.00     0.060 A 
ATOM     27  C   UNL A   1      38.647  23.760  26.222  1.00  0.00     0.016 A 
ATOM     28  C   UNL A   1      40.287  22.315  27.260  1.00  0.00     0.016 A 
ATOM     29  C   UNL A   1      39.379  24.879  26.619  1.00  0.00     0.010 A 
ATOM     30  C   UNL A   1      40.958  23.437  27.746  1.00  0.00     0.010 A 
ATOM     31  C   UNL A   1      40.541  24.733  27.393  1.00  0.00    -0.014 A 
BRANCH  31  32
ATOM     32  C   UNL A   1      41.351  25.913  27.808  1.00  0.00     0.031 A 
ATOM     33  C   UNL A   1      40.733  26.992  28.661  1.00  0.00     0.074 A 
ATOM     34  C   UNL A   1      42.627  26.047  27.395  1.00  0.00     0.049 A 
ATOM     35  N   UNL A   1      41.182  28.190  28.938  1.00  0.00    -0.248 NA
ATOM     36  C   UNL A   1      39.424  26.691  29.266  1.00  0.00     0.031 C 
ATOM     37  C   UNL A   1      43.366  25.078  26.582  1.00  0.00     0.029 A 
ATOM     38  N   UNL A   1      43.526  27.068  27.590  1.00  0.00    -0.354 N 
ATOM     39  C   UNL A   1      40.185  28.808  29.685  1.00  0.00     0.074 A 
ATOM     40  C   UNL A   1      39.110  27.851  29.827  1.00  0.00     0.031 C 
ATOM     41  C   UNL A   1      44.605  25.540  26.362  1.00  0.00     0.029 A 
ATOM     42  C   UNL A   1      44.725  26.871  26.948  1.00  0.00     0.049 A 
ATOM     43  H   UNL A   1      43.331  27.862  28.137  1.00  0.00     0.167 HD
ATOM     44  C   UNL A   1      40.168  30.061  30.200  1.00  0.00     0.037 A 
ATOM     45  C   UNL A   1      45.786  27.687  26.800  1.00  0.00     0.037 A 
ATOM     46  C   UNL A   1      41.269  30.985  30.126  1.00  0.00     0.049 A 
ATOM     47  C   UNL A   1      45.748  29.065  27.395  1.00  0.00     0.074 A 
ATOM     48  C   UNL A   1      41.366  32.254  30.672  1.00  0.00     0.029 A 
ATOM     49  N   UNL A   1      42.469  30.735  29.480  1.00  0.00    -0.354 N 
ATOM     50  N   UNL A   1      44.791  29.644  28.078  1.00  0.00    -0.248 NA
ATOM     51  C   UNL A   1      46.932  29.911  27.184  1.00  0.00     0.031 C 
ATOM     52  C   UNL A   1      42.614  32.784  30.332  1.00  0.00     0.029 A 
ATOM     53  C   UNL A   1      43.307  31.830  29.604  1.00  0.00     0.049 A 
ATOM     54  H   UNL A   1      42.692  29.903  29.005  1.00  0.00     0.167 HD
ATOM     55  C   UNL A   1      45.258  30.915  28.385  1.00  0.00     0.074 A 
ATOM     56  C   UNL A   1      46.594  31.016  27.834  1.00  0.00     0.031 C 
ATOM     57  C   UNL A   1      44.634  31.913  29.054  1.00  0.00     0.037 A 
BRANCH  44  58
ATOM     58  C   UNL A   1      38.912  30.526  30.876  1.00  0.00     0.057 A 
ATOM     59  C   UNL A   1      38.698  30.361  32.248  1.00  0.00     0.134 A 
ATOM     60  C   UNL A   1      37.935  31.216  30.146  1.00  0.00     0.134 A 
ATOM     61  F   UNL A   1      39.590  29.700  33.002  1.00  0.00    -0.206 F 
ATOM     62  C   UNL A   1      37.550  30.858  32.871  1.00  0.00     0.040 A 
ATOM     63  C   UNL A   1      36.794  31.734  30.760  1.00  0.00     0.040 A 
ATOM     64  F   UNL A   1      38.083  31.413  28.827  1.00  0.00    -0.206 F 
ATOM     65  C   UNL A   1      36.599  31.555  32.127  1.00  0.00     0.006 A 
ENDBRANCH  44  58
BRANCH  45  66
ATOM     66  C   UNL A   1      46.960  27.239  26.009  1.00  0.00     0.057 A 
ATOM     67  C   UNL A   1      47.049  27.494  24.637  1.00  0.00     0.134 A 
ATOM     68  C   UNL A   1      48.014  26.538  26.607  1.00  0.00     0.134 A 
ATOM     69  F   UNL A   1      46.057  28.141  24.006  1.00  0.00    -0.206 F 
ATOM     70  C   UNL A   1      48.138  27.056  23.882  1.00  0.00     0.040 A 
ATOM     71  C   UNL A   1      49.121  26.117  25.870  1.00  0.00     0.040 A 
ATOM     72  F   UNL A   1      47.989  26.265  27.920  1.00  0.00    -0.206 F 
ATOM     73  C   UNL A   1      49.181  26.369  24.501  1.00  0.00     0.006 A 
ENDBRANCH  45  66
BRANCH  57  74
ATOM     74  C   UNL A   1      45.399  33.186  29.246  1.00  0.00     0.057 A 
ATOM     75  C   UNL A   1      46.269  33.365  30.328  1.00  0.00     0.134 A 
ATOM     76  C   UNL A   1      45.282  34.235  28.325  1.00  0.00     0.134 A 
ATOM     77  F   UNL A   1      46.411  32.401  31.251  1.00  0.00    -0.206 F 
ATOM     78  C   UNL A   1      46.982  34.551  30.500  1.00  0.00     0.040 A 
ATOM     79  C   UNL A   1      46.006  35.418  28.476  1.00  0.00     0.040 A 
ATOM     80  F   UNL A   1      44.470  34.123  27.264  1.00  0.00    -0.206 F 
ATOM     81  C   UNL A   1      46.855  35.581  29.568  1.00  0.00     0.006 A 
ENDBRANCH  57  74
ENDBRANCH  31  32
ENDBRANCH  24  26
ENDBRANCH  23  24
ENDBRANCH  22  23
ENDBRANCH   1  22
TORSDOF 15
ENDMDL
MODEL 3
REMARK VINA RESULT:     -11.3      1.462      2.559
REMARK SMILES CCCCNC(=O)[C@]1(C)CC[C@@](C)(C(=O)OCCOC(=O)c2ccc(-c3c4nc(c(-c5c(F)cccc5F)c5ccc([nH]5)c(-c5c(F)cccc5F)c5nc(c(-c6c(F)cccc6F)c6ccc3[nH]6)C=C5)C=C4)cc2)C1(C)C
REMARK SMILES IDX 17 1 16 2 14 3 15 4 12 5 8 6 10 7 76 8 9 9 11 10 77 11 78 12
REMARK SMILES IDX 13 13 6 14 5 15 7 17 4 18 3 19 2 20 1 21 18 22 19 23 20 24
REMARK SMILES IDX 21 25 22 26 23 27 75 28 24 29 74 30 25 31 26 32 27 33 68 34
REMARK SMILES IDX 28 35 73 36 67 37 69 38 29 39 72 40 66 41 65 42 30 44 56 45
REMARK SMILES IDX 39 46 55 47 40 48 43 49 54 50 70 51 41 52 42 53 53 55 71 56
REMARK SMILES IDX 44 57 31 58 32 59 37 60 33 61 34 62 36 63 38 64 35 65 57 66
REMARK SMILES IDX 58 67 63 68 59 69 60 70 62 71 64 72 61 73 45 74 46 75 51 76
REMARK SMILES IDX 47 77 48 78 50 79 52 80 49 81
REMARK H PARENT 5 16 69 43 43 54
REMARK Flexibility Score: inf
ROOT
ATOM      1  C   UNL A   1      36.670  22.629  23.684  1.00  0.00     0.274 C 
ENDROOT
BRANCH   1   2
ATOM      2  O   UNL A   1      35.484  23.241  24.224  1.00  0.00    -0.462 OA
BRANCH   2   3
ATOM      3  C   UNL A   1      34.529  23.627  23.328  1.00  0.00     0.312 C 
ATOM      4  O   UNL A   1      34.548  23.340  22.138  1.00  0.00    -0.252 OA
BRANCH   3   5
ATOM      5  C   UNL A   1      33.419  24.469  24.019  1.00  0.00     0.071 C 
ATOM      6  C   UNL A   1      31.644  23.447  25.574  1.00  0.00     0.053 C 
ATOM      7  C   UNL A   1      33.046  23.418  26.208  1.00  0.00     0.018 C 
ATOM      8  C   UNL A   1      31.967  23.728  24.022  1.00  0.00    -0.005 C 
ATOM      9  C   UNL A   1      31.007  22.036  25.785  1.00  0.00     0.022 C 
ATOM     10  C   UNL A   1      33.796  24.550  25.533  1.00  0.00     0.020 C 
ATOM     11  C   UNL A   1      32.097  22.377  23.233  1.00  0.00     0.013 C 
ATOM     12  C   UNL A   1      30.781  24.421  23.314  1.00  0.00     0.013 C 
ATOM     13  C   UNL A   1      33.552  25.891  23.405  1.00  0.00     0.024 C 
BRANCH   6  14
ATOM     14  C   UNL A   1      30.726  24.391  26.457  1.00  0.00     0.226 C 
ATOM     15  N   UNL A   1      30.762  25.735  26.588  1.00  0.00    -0.356 N 
ATOM     16  H   UNL A   1      30.151  26.056  27.289  1.00  0.00     0.163 HD
ATOM     17  O   UNL A   1      29.899  23.881  27.232  1.00  0.00    -0.274 OA
BRANCH  15  18
ATOM     18  C   UNL A   1      31.476  26.815  25.951  1.00  0.00     0.116 C 
BRANCH  18  19
ATOM     19  C   UNL A   1      32.231  27.701  26.943  1.00  0.00     0.021 C 
BRANCH  19  20
ATOM     20  C   UNL A   1      33.677  28.005  26.552  1.00  0.00    -0.002 C 
ATOM     21  C   UNL A   1      34.118  29.405  26.952  1.00  0.00     0.004 C 
ENDBRANCH  19  20
ENDBRANCH  18  19
ENDBRANCH  15  18
ENDBRANCH   6  14
ENDBRANCH   3   5
ENDBRANCH   2   3
ENDBRANCH   1   2
BRANCH   1  22
ATOM     22  C   UNL A   1      36.965  21.345  24.449  1.00  0.00     0.275 C 
BRANCH  22  23
ATOM     23  O   UNL A   1      37.404  21.689  25.775  1.00  0.00    -0.458 OA
BRANCH  23  24
ATOM     24  C   UNL A   1      38.717  21.496  26.022  1.00  0.00     0.338 C 
ATOM     25  O   UNL A   1      39.375  20.489  25.795  1.00  0.00    -0.246 OA
BRANCH  24  26
ATOM     26  C   UNL A   1      39.309  22.710  26.609  1.00  0.00     0.060 A 
ATOM     27  C   UNL A   1      38.880  23.979  26.216  1.00  0.00     0.016 A 
ATOM     28  C   UNL A   1      40.405  22.572  27.461  1.00  0.00     0.016 A 
ATOM     29  C   UNL A   1      39.617  25.105  26.583  1.00  0.00     0.010 A 
ATOM     30  C   UNL A   1      41.076  23.710  27.912  1.00  0.00     0.010 A 
ATOM     31  C   UNL A   1      40.721  24.987  27.442  1.00  0.00    -0.014 A 
BRANCH  31  32
ATOM     32  C   UNL A   1      41.535  26.173  27.828  1.00  0.00     0.031 A 
ATOM     33  C   UNL A   1      40.923  27.273  28.659  1.00  0.00     0.074 A 
ATOM     34  C   UNL A   1      42.810  26.294  27.407  1.00  0.00     0.049 A 
ATOM     35  N   UNL A   1      41.377  28.476  28.907  1.00  0.00    -0.248 NA
ATOM     36  C   UNL A   1      39.616  26.989  29.276  1.00  0.00     0.031 C 
ATOM     37  C   UNL A   1      43.543  25.306  26.614  1.00  0.00     0.029 A 
ATOM     38  N   UNL A   1      43.713  27.316  27.576  1.00  0.00    -0.354 N 
ATOM     39  C   UNL A   1      40.384  29.113  29.644  1.00  0.00     0.074 A 
ATOM     40  C   UNL A   1      39.308  28.162  29.812  1.00  0.00     0.031 C 
ATOM     41  C   UNL A   1      44.783  25.759  26.379  1.00  0.00     0.029 A 
ATOM     42  C   UNL A   1      44.909  27.102  26.935  1.00  0.00     0.049 A 
ATOM     43  H   UNL A   1      43.522  28.123  28.107  1.00  0.00     0.167 HD
ATOM     44  C   UNL A   1      40.373  30.376  30.132  1.00  0.00     0.037 A 
ATOM     45  C   UNL A   1      45.972  27.911  26.764  1.00  0.00     0.037 A 
ATOM     46  C   UNL A   1      41.477  31.295  30.034  1.00  0.00     0.049 A 
ATOM     47  C   UNL A   1      45.940  29.303  27.329  1.00  0.00     0.074 A 
ATOM     48  C   UNL A   1      41.579  32.576  30.551  1.00  0.00     0.029 A 
ATOM     49  N   UNL A   1      42.673  31.028  29.389  1.00  0.00    -0.354 N 
ATOM     50  N   UNL A   1      44.987  29.899  28.003  1.00  0.00    -0.248 NA
ATOM     51  C   UNL A   1      47.125  30.140  27.094  1.00  0.00     0.031 C 
ATOM     52  C   UNL A   1      42.828  33.094  30.195  1.00  0.00     0.029 A 
ATOM     53  C   UNL A   1      43.515  32.123  29.485  1.00  0.00     0.049 A 
ATOM     54  H   UNL A   1      42.892  30.184  28.931  1.00  0.00     0.167 HD
ATOM     55  C   UNL A   1      45.459  31.175  28.279  1.00  0.00     0.074 A 
ATOM     56  C   UNL A   1      46.793  31.260  27.721  1.00  0.00     0.031 C 
ATOM     57  C   UNL A   1      44.840  32.189  28.928  1.00  0.00     0.037 A 
BRANCH  44  58
ATOM     58  C   UNL A   1      39.121  30.860  30.802  1.00  0.00     0.057 A 
ATOM     59  C   UNL A   1      38.081  31.466  30.090  1.00  0.00     0.134 A 
ATOM     60  C   UNL A   1      38.930  30.647  32.174  1.00  0.00     0.134 A 
ATOM     61  F   UNL A   1      38.205  31.709  28.777  1.00  0.00    -0.206 F 
ATOM     62  C   UNL A   1      36.896  31.852  30.721  1.00  0.00     0.040 A 
ATOM     63  C   UNL A   1      37.743  31.010  32.811  1.00  0.00     0.040 A 
ATOM     64  F   UNL A   1      39.887  30.065  32.912  1.00  0.00    -0.206 F 
ATOM     65  C   UNL A   1      36.721  31.616  32.084  1.00  0.00     0.006 A 
ENDBRANCH  44  58
BRANCH  45  66
ATOM     66  C   UNL A   1      47.141  27.443  25.980  1.00  0.00     0.057 A 
ATOM     67  C   UNL A   1      48.250  26.866  26.607  1.00  0.00     0.134 A 
ATOM     68  C   UNL A   1      47.179  27.569  24.585  1.00  0.00     0.134 A 
ATOM     69  F   UNL A   1      48.281  26.741  27.942  1.00  0.00    -0.206 F 
ATOM     70  C   UNL A   1      49.364  26.444  25.878  1.00  0.00     0.040 A 
ATOM     71  C   UNL A   1      48.274  27.127  23.842  1.00  0.00     0.040 A 
ATOM     72  F   UNL A   1      46.145  28.112  23.926  1.00  0.00    -0.206 F 
ATOM     73  C   UNL A   1      49.374  26.570  24.490  1.00  0.00     0.006 A 
ENDBRANCH  45  66
BRANCH  57  74
ATOM     74  C   UNL A   1      45.609  33.465  29.089  1.00  0.00     0.057 A 
ATOM     75  C   UNL A   1      46.461  33.676  30.180  1.00  0.00     0.134 A 
ATOM     76  C   UNL A   1      45.516  34.481  28.131  1.00  0.00     0.134 A 
ATOM     77  F   UNL A   1      46.582  32.745  31.138  1.00  0.00    -0.206 F 
ATOM     78  C   UNL A   1      47.179  34.864  30.323  1.00  0.00     0.040 A 
ATOM     79  C   UNL A   1      46.244  35.665  28.253  1.00  0.00     0.040 A 
ATOM     80  F   UNL A   1      44.721  34.336  27.060  1.00  0.00    -0.206 F 
ATOM     81  C   UNL A   1      47.074  35.861  29.354  1.00  0.00     0.006 A 
ENDBRANCH  57  74
ENDBRANCH  31  32
ENDBRANCH  24  26
ENDBRANCH  23  24
ENDBRANCH  22  23
ENDBRANCH   1  22
TORSDOF 15
ENDMDL
