MODEL 1
REMARK VINA RESULT:     -11.8      0.000      0.000
REMARK SMILES C[C@@H]1CN(S(=O)(=O)c2ccc(Cl)c(C(=O)OCCOC(=O)c3ccc(-c4c5nc(c(-c6c(F)cccc6F)c6ccc([nH]6)c(-c6c(F)cccc6F)c6nc(c(-c7c(F)cccc7F)c7ccc4[nH]7)C=C6)C=C5)cc3)c2Cl)C[C@H]1C
REMARK SMILES IDX 17 1 16 2 14 3 15 4 13 5 8 6 9 7 76 8 10 9 77 10 11 11 12 12
REMARK SMILES IDX 5 13 6 14 7 15 4 16 1 17 2 18 3 19 79 20 78 21 80 22 18 23
REMARK SMILES IDX 19 24 20 25 21 26 22 27 23 28 75 29 24 30 74 31 25 32 26 33
REMARK SMILES IDX 27 34 68 35 28 36 73 37 67 38 69 39 29 40 72 41 66 42 65 43
REMARK SMILES IDX 30 45 56 46 39 47 55 48 40 49 43 50 54 51 70 52 41 53 42 54
REMARK SMILES IDX 53 56 71 57 44 58 31 59 32 60 37 61 33 62 34 63 36 64 38 65
REMARK SMILES IDX 35 66 57 67 58 68 63 69 59 70 60 71 62 72 64 73 61 74 45 75
REMARK SMILES IDX 46 76 51 77 47 78 48 79 50 80 52 81 49 82
REMARK H PARENT 69 44 43 55
REMARK Flexibility Score: inf
ROOT
ATOM      1  C   UNL A   1      31.175  29.262  24.367  1.00  0.00     0.275 C 
ENDROOT
BRANCH   1   2
ATOM      2  O   UNL A   1      31.536  28.040  23.688  1.00  0.00    -0.458 OA
BRANCH   2   3
ATOM      3  C   UNL A   1      30.643  27.014  23.683  1.00  0.00     0.341 C 
ATOM      4  O   UNL A   1      29.435  27.113  23.584  1.00  0.00    -0.246 OA
BRANCH   3   5
ATOM      5  C   UNL A   1      31.412  25.738  23.714  1.00  0.00     0.098 A 
ATOM      6  C   UNL A   1      32.026  23.695  24.881  1.00  0.00     0.102 A 
ATOM      7  C   UNL A   1      32.361  23.107  23.654  1.00  0.00     0.025 A 
ATOM      8  C   UNL A   1      31.637  25.044  24.927  1.00  0.00     0.077 A 
ATOM      9  C   UNL A   1      32.323  23.856  22.481  1.00  0.00     0.023 A 
ATOM     10  Cl  UNL A   1      31.622  25.898  26.438  1.00  0.00    -0.082 Cl
ATOM     11  C   UNL A   1      31.823  25.158  22.502  1.00  0.00     0.057 A 
ATOM     12  Cl  UNL A   1      31.824  26.013  20.996  1.00  0.00    -0.083 Cl
BRANCH   6  13
ATOM     13  S   UNL A   1      31.833  22.589  26.275  1.00  0.00     0.244 S 
ATOM     14  O   UNL A   1      31.350  21.325  25.748  1.00  0.00    -0.207 OA
ATOM     15  O   UNL A   1      31.082  23.263  27.305  1.00  0.00    -0.207 OA
BRANCH  13  16
ATOM     16  N   UNL A   1      33.411  22.313  26.845  1.00  0.00    -0.197 NA
ATOM     17  C   UNL A   1      36.720  23.703  25.757  1.00  0.00     0.009 C 
ATOM     18  C   UNL A   1      35.413  22.933  25.678  1.00  0.00     0.005 C 
ATOM     19  C   UNL A   1      34.381  23.432  26.685  1.00  0.00     0.106 C 
ATOM     20  C   UNL A   1      35.520  21.456  26.051  1.00  0.00     0.005 C 
ATOM     21  C   UNL A   1      34.048  21.083  26.252  1.00  0.00     0.106 C 
ATOM     22  C   UNL A   1      36.221  20.608  25.001  1.00  0.00     0.009 C 
ENDBRANCH  13  16
ENDBRANCH   6  13
ENDBRANCH   3   5
ENDBRANCH   2   3
ENDBRANCH   1   2
BRANCH   1  23
ATOM     23  C   UNL A   1      31.778  29.273  25.776  1.00  0.00     0.275 C 
BRANCH  23  24
ATOM     24  O   UNL A   1      33.004  30.025  25.770  1.00  0.00    -0.458 OA
BRANCH  24  25
ATOM     25  C   UNL A   1      33.100  30.976  26.727  1.00  0.00     0.338 C 
ATOM     26  O   UNL A   1      32.235  31.742  27.117  1.00  0.00    -0.246 OA
BRANCH  25  27
ATOM     27  C   UNL A   1      34.393  30.821  27.401  1.00  0.00     0.060 A 
ATOM     28  C   UNL A   1      34.721  29.543  27.831  1.00  0.00     0.016 A 
ATOM     29  C   UNL A   1      35.225  31.898  27.690  1.00  0.00     0.016 A 
ATOM     30  C   UNL A   1      35.858  29.332  28.600  1.00  0.00     0.010 A 
ATOM     31  C   UNL A   1      36.411  31.670  28.403  1.00  0.00     0.010 A 
ATOM     32  C   UNL A   1      36.736  30.384  28.876  1.00  0.00    -0.014 A 
BRANCH  32  33
ATOM     33  C   UNL A   1      37.981  30.123  29.651  1.00  0.00     0.031 A 
ATOM     34  C   UNL A   1      39.065  29.253  29.078  1.00  0.00     0.074 A 
ATOM     35  C   UNL A   1      38.153  30.682  30.867  1.00  0.00     0.049 A 
ATOM     36  N   UNL A   1      40.113  28.736  29.670  1.00  0.00    -0.248 NA
ATOM     37  C   UNL A   1      38.954  28.912  27.652  1.00  0.00     0.031 C 
ATOM     38  C   UNL A   1      37.230  31.621  31.509  1.00  0.00     0.029 A 
ATOM     39  N   UNL A   1      39.166  30.540  31.785  1.00  0.00    -0.354 N 
ATOM     40  C   UNL A   1      40.758  27.974  28.704  1.00  0.00     0.074 A 
ATOM     41  C   UNL A   1      39.982  28.091  27.488  1.00  0.00     0.031 C 
ATOM     42  C   UNL A   1      37.724  31.983  32.701  1.00  0.00     0.029 A 
ATOM     43  C   UNL A   1      38.941  31.224  32.956  1.00  0.00     0.049 A 
ATOM     44  H   UNL A   1      39.974  30.002  31.620  1.00  0.00     0.167 HD
ATOM     45  C   UNL A   1      41.893  27.244  28.828  1.00  0.00     0.037 A 
ATOM     46  C   UNL A   1      39.598  31.196  34.132  1.00  0.00     0.037 A 
ATOM     47  C   UNL A   1      42.680  27.171  30.034  1.00  0.00     0.049 A 
ATOM     48  C   UNL A   1      40.789  30.294  34.278  1.00  0.00     0.074 A 
ATOM     49  C   UNL A   1      43.853  26.469  30.257  1.00  0.00     0.029 A 
ATOM     50  N   UNL A   1      42.376  27.826  31.218  1.00  0.00    -0.354 N 
ATOM     51  N   UNL A   1      41.369  29.538  33.378  1.00  0.00    -0.248 NA
ATOM     52  C   UNL A   1      41.403  30.218  35.611  1.00  0.00     0.031 C 
ATOM     53  C   UNL A   1      44.226  26.653  31.591  1.00  0.00     0.029 A 
ATOM     54  C   UNL A   1      43.318  27.514  32.186  1.00  0.00     0.049 A 
ATOM     55  H   UNL A   1      41.606  28.425  31.351  1.00  0.00     0.167 HD
ATOM     56  C   UNL A   1      42.419  28.907  34.029  1.00  0.00     0.074 A 
ATOM     57  C   UNL A   1      42.414  29.388  35.395  1.00  0.00     0.031 C 
ATOM     58  C   UNL A   1      43.302  28.002  33.541  1.00  0.00     0.037 A 
BRANCH  45  59
ATOM     59  C   UNL A   1      42.334  26.426  27.648  1.00  0.00     0.057 A 
ATOM     60  C   UNL A   1      41.925  25.101  27.456  1.00  0.00     0.134 A 
ATOM     61  C   UNL A   1      43.145  26.999  26.658  1.00  0.00     0.134 A 
ATOM     62  F   UNL A   1      41.153  24.489  28.366  1.00  0.00    -0.206 F 
ATOM     63  C   UNL A   1      42.324  24.369  26.335  1.00  0.00     0.040 A 
ATOM     64  C   UNL A   1      43.527  26.287  25.520  1.00  0.00     0.040 A 
ATOM     65  F   UNL A   1      43.566  28.268  26.772  1.00  0.00    -0.206 F 
ATOM     66  C   UNL A   1      43.122  24.965  25.359  1.00  0.00     0.006 A 
ENDBRANCH  45  59
BRANCH  46  67
ATOM     67  C   UNL A   1      39.093  31.985  35.287  1.00  0.00     0.057 A 
ATOM     68  C   UNL A   1      38.277  31.405  36.263  1.00  0.00     0.134 A 
ATOM     69  C   UNL A   1      39.402  33.345  35.432  1.00  0.00     0.134 A 
ATOM     70  F   UNL A   1      37.920  30.115  36.166  1.00  0.00    -0.206 F 
ATOM     71  C   UNL A   1      37.778  32.147  37.335  1.00  0.00     0.040 A 
ATOM     72  C   UNL A   1      38.940  34.090  36.517  1.00  0.00     0.040 A 
ATOM     73  F   UNL A   1      40.175  33.966  34.530  1.00  0.00    -0.206 F 
ATOM     74  C   UNL A   1      38.116  33.492  37.469  1.00  0.00     0.006 A 
ENDBRANCH  46  67
BRANCH  58  75
ATOM     75  C   UNL A   1      44.350  27.488  34.484  1.00  0.00     0.057 A 
ATOM     76  C   UNL A   1      45.556  28.171  34.684  1.00  0.00     0.134 A 
ATOM     77  C   UNL A   1      44.129  26.329  35.237  1.00  0.00     0.134 A 
ATOM     78  F   UNL A   1      45.837  29.279  33.982  1.00  0.00    -0.206 F 
ATOM     79  C   UNL A   1      46.512  27.709  35.591  1.00  0.00     0.040 A 
ATOM     80  C   UNL A   1      45.064  25.872  36.166  1.00  0.00     0.040 A 
ATOM     81  F   UNL A   1      42.992  25.631  35.096  1.00  0.00    -0.206 F 
ATOM     82  C   UNL A   1      46.262  26.561  36.341  1.00  0.00     0.006 A 
ENDBRANCH  58  75
ENDBRANCH  32  33
ENDBRANCH  25  27
ENDBRANCH  24  25
ENDBRANCH  23  24
ENDBRANCH   1  23
TORSDOF 13
ENDMDL
MODEL 2
REMARK VINA RESULT:     -11.8      3.780      8.615
REMARK SMILES C[C@@H]1CN(S(=O)(=O)c2ccc(Cl)c(C(=O)OCCOC(=O)c3ccc(-c4c5nc(c(-c6c(F)cccc6F)c6ccc([nH]6)c(-c6c(F)cccc6F)c6nc(c(-c7c(F)cccc7F)c7ccc4[nH]7)C=C6)C=C5)cc3)c2Cl)C[C@H]1C
REMARK SMILES IDX 17 1 16 2 14 3 15 4 13 5 8 6 9 7 76 8 10 9 77 10 11 11 12 12
REMARK SMILES IDX 5 13 6 14 7 15 4 16 1 17 2 18 3 19 79 20 78 21 80 22 18 23
REMARK SMILES IDX 19 24 20 25 21 26 22 27 23 28 75 29 24 30 74 31 25 32 26 33
REMARK SMILES IDX 27 34 68 35 28 36 73 37 67 38 69 39 29 40 72 41 66 42 65 43
REMARK SMILES IDX 30 45 56 46 39 47 55 48 40 49 43 50 54 51 70 52 41 53 42 54
REMARK SMILES IDX 53 56 71 57 44 58 31 59 32 60 37 61 33 62 34 63 36 64 38 65
REMARK SMILES IDX 35 66 57 67 58 68 63 69 59 70 60 71 62 72 64 73 61 74 45 75
REMARK SMILES IDX 46 76 51 77 47 78 48 79 50 80 52 81 49 82
REMARK H PARENT 69 44 43 55
REMARK Flexibility Score: inf
ROOT
ATOM      1  C   UNL A   1      34.657  22.491  27.125  1.00  0.00     0.275 C 
ENDROOT
BRANCH   1   2
ATOM      2  O   UNL A   1      34.169  23.669  26.449  1.00  0.00    -0.458 OA
BRANCH   2   3
ATOM      3  C   UNL A   1      32.922  23.633  25.905  1.00  0.00     0.341 C 
ATOM      4  O   UNL A   1      31.994  22.946  26.282  1.00  0.00    -0.246 OA
BRANCH   3   5
ATOM      5  C   UNL A   1      32.862  24.664  24.830  1.00  0.00     0.098 A 
ATOM      6  C   UNL A   1      32.586  26.991  24.179  1.00  0.00     0.102 A 
ATOM      7  C   UNL A   1      33.268  26.726  22.984  1.00  0.00     0.025 A 
ATOM      8  C   UNL A   1      32.299  25.941  25.068  1.00  0.00     0.077 A 
ATOM      9  C   UNL A   1      33.651  25.426  22.666  1.00  0.00     0.023 A 
ATOM     10  Cl  UNL A   1      31.120  26.157  26.322  1.00  0.00    -0.082 Cl
ATOM     11  C   UNL A   1      33.477  24.401  23.595  1.00  0.00     0.057 A 
ATOM     12  Cl  UNL A   1      33.976  22.817  23.105  1.00  0.00    -0.083 Cl
BRANCH   6  13
ATOM     13  S   UNL A   1      32.390  28.712  24.627  1.00  0.00     0.244 S 
ATOM     14  O   UNL A   1      30.969  29.006  24.570  1.00  0.00    -0.207 OA
ATOM     15  O   UNL A   1      33.310  29.505  23.848  1.00  0.00    -0.207 OA
BRANCH  13  16
ATOM     16  N   UNL A   1      32.846  28.801  26.263  1.00  0.00    -0.197 NA
ATOM     17  C   UNL A   1      34.031  31.679  28.355  1.00  0.00     0.009 C 
ATOM     18  C   UNL A   1      34.034  30.635  27.252  1.00  0.00     0.005 C 
ATOM     19  C   UNL A   1      32.636  30.110  26.941  1.00  0.00     0.106 C 
ATOM     20  C   UNL A   1      34.778  29.346  27.597  1.00  0.00     0.005 C 
ATOM     21  C   UNL A   1      34.279  28.400  26.500  1.00  0.00     0.106 C 
ATOM     22  C   UNL A   1      36.291  29.500  27.620  1.00  0.00     0.009 C 
ENDBRANCH  13  16
ENDBRANCH   6  13
ENDBRANCH   3   5
ENDBRANCH   2   3
ENDBRANCH   1   2
BRANCH   1  23
ATOM     23  C   UNL A   1      35.364  21.570  26.125  1.00  0.00     0.275 C 
BRANCH  23  24
ATOM     24  O   UNL A   1      36.462  22.271  25.515  1.00  0.00    -0.458 OA
BRANCH  24  25
ATOM     25  C   UNL A   1      37.682  21.725  25.729  1.00  0.00     0.338 C 
ATOM     26  O   UNL A   1      38.090  20.632  25.377  1.00  0.00    -0.246 OA
BRANCH  25  27
ATOM     27  C   UNL A   1      38.552  22.758  26.300  1.00  0.00     0.060 A 
ATOM     28  C   UNL A   1      38.157  24.076  26.116  1.00  0.00     0.016 A 
ATOM     29  C   UNL A   1      39.763  22.465  26.918  1.00  0.00     0.016 A 
ATOM     30  C   UNL A   1      38.991  25.118  26.499  1.00  0.00     0.010 A 
ATOM     31  C   UNL A   1      40.570  23.519  27.371  1.00  0.00     0.010 A 
ATOM     32  C   UNL A   1      40.197  24.860  27.157  1.00  0.00    -0.014 A 
BRANCH  32  33
ATOM     33  C   UNL A   1      41.047  25.994  27.614  1.00  0.00     0.031 A 
ATOM     34  C   UNL A   1      40.470  27.073  28.487  1.00  0.00     0.074 A 
ATOM     35  C   UNL A   1      42.349  26.051  27.262  1.00  0.00     0.049 A 
ATOM     36  N   UNL A   1      40.976  28.238  28.809  1.00  0.00    -0.248 NA
ATOM     37  C   UNL A   1      39.146  26.813  29.071  1.00  0.00     0.031 C 
ATOM     38  C   UNL A   1      43.068  25.030  26.497  1.00  0.00     0.029 A 
ATOM     39  N   UNL A   1      43.302  27.014  27.499  1.00  0.00    -0.354 N 
ATOM     40  C   UNL A   1      40.015  28.866  29.593  1.00  0.00     0.074 A 
ATOM     41  C   UNL A   1      38.894  27.956  29.693  1.00  0.00     0.031 C 
ATOM     42  C   UNL A   1      44.345  25.408  26.344  1.00  0.00     0.029 A 
ATOM     43  C   UNL A   1      44.511  26.743  26.904  1.00  0.00     0.049 A 
ATOM     44  H   UNL A   1      43.134  27.818  28.042  1.00  0.00     0.167 HD
ATOM     45  C   UNL A   1      40.070  30.091  30.169  1.00  0.00     0.037 A 
ATOM     46  C   UNL A   1      45.612  27.505  26.761  1.00  0.00     0.037 A 
ATOM     47  C   UNL A   1      41.211  30.969  30.097  1.00  0.00     0.049 A 
ATOM     48  C   UNL A   1      45.607  28.901  27.315  1.00  0.00     0.074 A 
ATOM     49  C   UNL A   1      41.369  32.226  30.658  1.00  0.00     0.029 A 
ATOM     50  N   UNL A   1      42.390  30.682  29.424  1.00  0.00    -0.354 N 
ATOM     51  N   UNL A   1      44.680  29.510  28.014  1.00  0.00    -0.248 NA
ATOM     52  C   UNL A   1      46.790  29.728  27.038  1.00  0.00     0.031 C 
ATOM     53  C   UNL A   1      42.619  32.720  30.276  1.00  0.00     0.029 A 
ATOM     54  C   UNL A   1      43.264  31.751  29.525  1.00  0.00     0.049 A 
ATOM     55  H   UNL A   1      42.577  29.841  28.948  1.00  0.00     0.167 HD
ATOM     56  C   UNL A   1      45.169  30.783  28.268  1.00  0.00     0.074 A 
ATOM     57  C   UNL A   1      46.487  30.852  27.673  1.00  0.00     0.031 C 
ATOM     58  C   UNL A   1      44.574  31.806  28.928  1.00  0.00     0.037 A 
BRANCH  45  59
ATOM     59  C   UNL A   1      38.848  30.581  30.893  1.00  0.00     0.057 A 
ATOM     60  C   UNL A   1      38.577  30.244  32.225  1.00  0.00     0.134 A 
ATOM     61  C   UNL A   1      37.953  31.451  30.254  1.00  0.00     0.134 A 
ATOM     62  F   UNL A   1      39.389  29.411  32.893  1.00  0.00    -0.206 F 
ATOM     63  C   UNL A   1      37.450  30.735  32.887  1.00  0.00     0.040 A 
ATOM     64  C   UNL A   1      36.838  31.972  30.915  1.00  0.00     0.040 A 
ATOM     65  F   UNL A   1      38.156  31.825  28.982  1.00  0.00    -0.206 F 
ATOM     66  C   UNL A   1      36.581  31.608  32.234  1.00  0.00     0.006 A 
ENDBRANCH  45  59
BRANCH  46  67
ATOM     67  C   UNL A   1      46.778  26.994  25.992  1.00  0.00     0.057 A 
ATOM     68  C   UNL A   1      47.769  26.220  26.603  1.00  0.00     0.134 A 
ATOM     69  C   UNL A   1      46.936  27.284  24.629  1.00  0.00     0.134 A 
ATOM     70  F   UNL A   1      47.691  25.931  27.911  1.00  0.00    -0.206 F 
ATOM     71  C   UNL A   1      48.879  25.760  25.892  1.00  0.00     0.040 A 
ATOM     72  C   UNL A   1      48.022  26.802  23.899  1.00  0.00     0.040 A 
ATOM     73  F   UNL A   1      46.026  28.026  23.983  1.00  0.00    -0.206 F 
ATOM     74  C   UNL A   1      49.004  26.043  24.533  1.00  0.00     0.006 A 
ENDBRANCH  46  67
BRANCH  58  75
ATOM     75  C   UNL A   1      45.353  33.082  29.060  1.00  0.00     0.057 A 
ATOM     76  C   UNL A   1      46.213  33.309  30.141  1.00  0.00     0.134 A 
ATOM     77  C   UNL A   1      45.280  34.070  28.071  1.00  0.00     0.134 A 
ATOM     78  F   UNL A   1      46.316  32.410  31.131  1.00  0.00    -0.206 F 
ATOM     79  C   UNL A   1      46.965  34.482  30.240  1.00  0.00     0.040 A 
ATOM     80  C   UNL A   1      46.045  35.234  28.144  1.00  0.00     0.040 A 
ATOM     81  F   UNL A   1      44.478  33.912  27.007  1.00  0.00    -0.206 F 
ATOM     82  C   UNL A   1      46.888  35.444  29.234  1.00  0.00     0.006 A 
ENDBRANCH  58  75
ENDBRANCH  32  33
ENDBRANCH  25  27
ENDBRANCH  24  25
ENDBRANCH  23  24
ENDBRANCH   1  23
TORSDOF 13
ENDMDL
MODEL 3
REMARK VINA RESULT:     -11.7      4.045      8.976
REMARK SMILES C[C@@H]1CN(S(=O)(=O)c2ccc(Cl)c(C(=O)OCCOC(=O)c3ccc(-c4c5nc(c(-c6c(F)cccc6F)c6ccc([nH]6)c(-c6c(F)cccc6F)c6nc(c(-c7c(F)cccc7F)c7ccc4[nH]7)C=C6)C=C5)cc3)c2Cl)C[C@H]1C
REMARK SMILES IDX 17 1 16 2 14 3 15 4 13 5 8 6 9 7 76 8 10 9 77 10 11 11 12 12
REMARK SMILES IDX 5 13 6 14 7 15 4 16 1 17 2 18 3 19 79 20 78 21 80 22 18 23
REMARK SMILES IDX 19 24 20 25 21 26 22 27 23 28 75 29 24 30 74 31 25 32 26 33
REMARK SMILES IDX 27 34 68 35 28 36 73 37 67 38 69 39 29 40 72 41 66 42 65 43
REMARK SMILES IDX 30 45 56 46 39 47 55 48 40 49 43 50 54 51 70 52 41 53 42 54
REMARK SMILES IDX 53 56 71 57 44 58 31 59 32 60 37 61 33 62 34 63 36 64 38 65
REMARK SMILES IDX 35 66 57 67 58 68 63 69 59 70 60 71 62 72 64 73 61 74 45 75
REMARK SMILES IDX 46 76 51 77 47 78 48 79 50 80 52 81 49 82
REMARK H PARENT 69 44 43 55
REMARK Flexibility Score: inf
ROOT
ATOM      1  C   UNL A   1      35.012  20.966  25.057  1.00  0.00     0.275 C 
ENDROOT
BRANCH   1   2
ATOM      2  O   UNL A   1      34.902  22.404  25.000  1.00  0.00    -0.458 OA
BRANCH   2   3
ATOM      3  C   UNL A   1      34.620  22.985  23.803  1.00  0.00     0.341 C 
ATOM      4  O   UNL A   1      35.326  22.969  22.813  1.00  0.00    -0.246 OA
BRANCH   3   5
ATOM      5  C   UNL A   1      33.246  23.556  23.883  1.00  0.00     0.098 A 
ATOM      6  C   UNL A   1      31.799  25.499  24.095  1.00  0.00     0.102 A 
ATOM      7  C   UNL A   1      30.757  24.774  23.501  1.00  0.00     0.025 A 
ATOM      8  C   UNL A   1      33.021  24.865  24.374  1.00  0.00     0.077 A 
ATOM      9  C   UNL A   1      30.922  23.426  23.196  1.00  0.00     0.023 A 
ATOM     10  Cl  UNL A   1      34.157  25.596  25.463  1.00  0.00    -0.082 Cl
ATOM     11  C   UNL A   1      32.169  22.823  23.358  1.00  0.00     0.057 A 
ATOM     12  Cl  UNL A   1      32.274  21.140  22.961  1.00  0.00    -0.083 Cl
BRANCH   6  13
ATOM     13  S   UNL A   1      31.592  27.274  24.187  1.00  0.00     0.244 S 
ATOM     14  O   UNL A   1      32.860  27.869  23.802  1.00  0.00    -0.207 OA
ATOM     15  O   UNL A   1      31.008  27.610  25.462  1.00  0.00    -0.207 OA
BRANCH  13  16
ATOM     16  N   UNL A   1      30.477  27.655  22.961  1.00  0.00    -0.197 NA
ATOM     17  C   UNL A   1      29.164  30.948  21.739  1.00  0.00     0.009 C 
ATOM     18  C   UNL A   1      29.424  29.792  22.689  1.00  0.00     0.005 C 
ATOM     19  C   UNL A   1      30.649  28.974  22.293  1.00  0.00     0.106 C 
ATOM     20  C   UNL A   1      28.332  28.724  22.707  1.00  0.00     0.005 C 
ATOM     21  C   UNL A   1      29.044  27.569  23.417  1.00  0.00     0.106 C 
ATOM     22  C   UNL A   1      27.054  29.166  23.402  1.00  0.00     0.009 C 
ENDBRANCH  13  16
ENDBRANCH   6  13
ENDBRANCH   3   5
ENDBRANCH   2   3
ENDBRANCH   1   2
BRANCH   1  23
ATOM     23  C   UNL A   1      36.485  20.552  24.972  1.00  0.00     0.275 C 
BRANCH  23  24
ATOM     24  O   UNL A   1      37.293  21.489  25.706  1.00  0.00    -0.458 OA
BRANCH  24  25
ATOM     25  C   UNL A   1      38.576  21.108  25.905  1.00  0.00     0.338 C 
ATOM     26  O   UNL A   1      39.117  20.072  25.560  1.00  0.00    -0.246 OA
BRANCH  25  27
ATOM     27  C   UNL A   1      39.314  22.252  26.450  1.00  0.00     0.060 A 
ATOM     28  C   UNL A   1      38.866  23.513  26.084  1.00  0.00     0.016 A 
ATOM     29  C   UNL A   1      40.463  22.109  27.220  1.00  0.00     0.016 A 
ATOM     30  C   UNL A   1      39.588  24.646  26.438  1.00  0.00     0.010 A 
ATOM     31  C   UNL A   1      41.150  23.258  27.640  1.00  0.00     0.010 A 
ATOM     32  C   UNL A   1      40.725  24.541  27.244  1.00  0.00    -0.014 A 
BRANCH  32  33
ATOM     33  C   UNL A   1      41.450  25.772  27.662  1.00  0.00     0.031 A 
ATOM     34  C   UNL A   1      40.761  26.812  28.501  1.00  0.00     0.074 A 
ATOM     35  C   UNL A   1      42.739  25.955  27.306  1.00  0.00     0.049 A 
ATOM     36  N   UNL A   1      41.141  28.033  28.785  1.00  0.00    -0.248 NA
ATOM     37  C   UNL A   1      39.471  26.432  29.096  1.00  0.00     0.031 C 
ATOM     38  C   UNL A   1      43.563  24.991  26.573  1.00  0.00     0.029 A 
ATOM     39  N   UNL A   1      43.585  27.020  27.511  1.00  0.00    -0.354 N 
ATOM     40  C   UNL A   1      40.118  28.581  29.550  1.00  0.00     0.074 A 
ATOM     41  C   UNL A   1      39.099  27.562  29.681  1.00  0.00     0.031 C 
ATOM     42  C   UNL A   1      44.794  25.497  26.406  1.00  0.00     0.029 A 
ATOM     43  C   UNL A   1      44.817  26.859  26.922  1.00  0.00     0.049 A 
ATOM     44  H   UNL A   1      43.332  27.819  28.028  1.00  0.00     0.167 HD
ATOM     45  C   UNL A   1      40.042  29.823  30.086  1.00  0.00     0.037 A 
ATOM     46  C   UNL A   1      45.832  27.728  26.753  1.00  0.00     0.037 A 
ATOM     47  C   UNL A   1      41.084  30.814  29.984  1.00  0.00     0.049 A 
ATOM     48  C   UNL A   1      45.678  29.133  27.262  1.00  0.00     0.074 A 
ATOM     49  C   UNL A   1      41.108  32.097  30.504  1.00  0.00     0.029 A 
ATOM     50  N   UNL A   1      42.288  30.631  29.319  1.00  0.00    -0.354 N 
ATOM     51  N   UNL A   1      44.691  29.663  27.943  1.00  0.00    -0.248 NA
ATOM     52  C   UNL A   1      46.768  30.071  26.956  1.00  0.00     0.031 C 
ATOM     53  C   UNL A   1      42.300  32.709  30.105  1.00  0.00     0.029 A 
ATOM     54  C   UNL A   1      43.044  31.790  29.384  1.00  0.00     0.049 A 
ATOM     55  H   UNL A   1      42.563  29.800  28.869  1.00  0.00     0.167 HD
ATOM     56  C   UNL A   1      45.043  30.988  28.155  1.00  0.00     0.074 A 
ATOM     57  C   UNL A   1      46.347  31.176  27.555  1.00  0.00     0.031 C 
ATOM     58  C   UNL A   1      44.342  31.963  28.783  1.00  0.00     0.037 A 
BRANCH  45  59
ATOM     59  C   UNL A   1      38.774  30.204  30.796  1.00  0.00     0.057 A 
ATOM     60  C   UNL A   1      37.699  30.815  30.141  1.00  0.00     0.134 A 
ATOM     61  C   UNL A   1      38.612  29.904  32.157  1.00  0.00     0.134 A 
ATOM     62  F   UNL A   1      37.789  31.135  28.841  1.00  0.00    -0.206 F 
ATOM     63  C   UNL A   1      36.518  31.134  30.815  1.00  0.00     0.040 A 
ATOM     64  C   UNL A   1      37.426  30.192  32.836  1.00  0.00     0.040 A 
ATOM     65  F   UNL A   1      39.598  29.309  32.846  1.00  0.00    -0.206 F 
ATOM     66  C   UNL A   1      36.377  30.815  32.165  1.00  0.00     0.006 A 
ENDBRANCH  45  59
BRANCH  46  67
ATOM     67  C   UNL A   1      47.046  27.319  25.999  1.00  0.00     0.057 A 
ATOM     68  C   UNL A   1      47.124  27.468  24.611  1.00  0.00     0.134 A 
ATOM     69  C   UNL A   1      48.152  26.753  26.649  1.00  0.00     0.134 A 
ATOM     70  F   UNL A   1      46.089  27.976  23.926  1.00  0.00    -0.206 F 
ATOM     71  C   UNL A   1      48.252  27.061  23.894  1.00  0.00     0.040 A 
ATOM     72  C   UNL A   1      49.299  26.374  25.950  1.00  0.00     0.040 A 
ATOM     73  F   UNL A   1      48.142  26.576  27.978  1.00  0.00    -0.206 F 
ATOM     74  C   UNL A   1      49.347  26.520  24.565  1.00  0.00     0.006 A 
ENDBRANCH  46  67
BRANCH  58  75
ATOM     75  C   UNL A   1      44.981  33.318  28.872  1.00  0.00     0.057 A 
ATOM     76  C   UNL A   1      44.723  34.315  27.923  1.00  0.00     0.134 A 
ATOM     77  C   UNL A   1      45.821  33.645  29.943  1.00  0.00     0.134 A 
ATOM     78  F   UNL A   1      43.941  34.061  26.864  1.00  0.00    -0.206 F 
ATOM     79  C   UNL A   1      45.289  35.587  28.030  1.00  0.00     0.040 A 
ATOM     80  C   UNL A   1      46.372  34.920  30.077  1.00  0.00     0.040 A 
ATOM     81  F   UNL A   1      46.104  32.736  30.889  1.00  0.00    -0.206 F 
ATOM     82  C   UNL A   1      46.109  35.894  29.115  1.00  0.00     0.006 A 
ENDBRANCH  58  75
ENDBRANCH  32  33
ENDBRANCH  25  27
ENDBRANCH  24  25
ENDBRANCH  23  24
ENDBRANCH   1  23
TORSDOF 13
ENDMDL
