MODEL 1
REMARK VINA RESULT:     -11.7      0.000      0.000
REMARK SMILES CCn1nc(C)c(Br)c1C[C@H](C(=O)OCCOC(=O)c1ccc(-c2c3nc(c(-c4c(F)cccc4F)c4ccc([nH]4)c(-c4c(F)cccc4F)c4nc(c(-c5c(F)cccc5F)c5ccc2[nH]5)C=C4)C=C3)cc1)c1ccc(F)cc1
REMARK SMILES IDX 15 1 14 2 12 3 13 4 11 5 10 6 9 7 3 8 4 9 5 10 7 11 6 12
REMARK SMILES IDX 8 13 2 14 1 15 74 16 75 17 80 18 76 19 79 20 77 21 78 22
REMARK SMILES IDX 16 23 17 24 18 25 19 26 20 27 21 28 73 29 22 30 72 31 23 32
REMARK SMILES IDX 24 33 25 34 66 35 26 36 71 37 65 38 67 39 27 40 70 41 64 42
REMARK SMILES IDX 63 43 28 45 54 46 37 47 53 48 38 49 41 50 52 51 68 52 39 53
REMARK SMILES IDX 40 54 51 56 69 57 42 58 29 59 30 60 35 61 31 62 32 63 34 64
REMARK SMILES IDX 36 65 33 66 55 67 56 68 61 69 57 70 58 71 60 72 62 73 59 74
REMARK SMILES IDX 43 75 44 76 49 77 45 78 46 79 48 80 50 81 47 82
REMARK H PARENT 67 44 41 55
REMARK Flexibility Score: inf
ROOT
ATOM      1  C   UNL A   1      36.499  23.371  26.006  1.00  0.00     0.274 C 
ENDROOT
BRANCH   1   2
ATOM      2  O   UNL A   1      36.104  23.898  24.720  1.00  0.00    -0.462 OA
BRANCH   2   3
ATOM      3  C   UNL A   1      35.401  23.081  23.902  1.00  0.00     0.313 C 
ATOM      4  O   UNL A   1      35.744  22.802  22.756  1.00  0.00    -0.252 OA
BRANCH   3   5
ATOM      5  C   UNL A   1      34.157  22.468  24.538  1.00  0.00     0.135 C 
BRANCH   5   6
ATOM      6  C   UNL A   1      32.908  23.295  24.091  1.00  0.00     0.077 C 
BRANCH   6   7
ATOM      7  C   UNL A   1      32.289  24.332  25.025  1.00  0.00     0.054 A 
ATOM      8  N   UNL A   1      31.300  24.012  25.944  1.00  0.00    -0.268 N 
ATOM      9  N   UNL A   1      30.950  25.033  26.748  1.00  0.00    -0.177 NA
ATOM     10  C   UNL A   1      31.622  26.083  26.278  1.00  0.00     0.074 A 
ATOM     11  C   UNL A   1      32.471  25.696  25.219  1.00  0.00     0.062 A 
ATOM     12  C   UNL A   1      31.414  27.417  26.901  1.00  0.00     0.070 C 
ATOM     13  Br  UNL A   1      33.596  26.935  24.359  1.00  0.00    -0.047 Br
BRANCH   8  14
ATOM     14  C   UNL A   1      30.554  22.776  26.127  1.00  0.00     0.141 C 
ATOM     15  C   UNL A   1      29.513  22.902  27.232  1.00  0.00     0.029 C 
ENDBRANCH   8  14
ENDBRANCH   6   7
ENDBRANCH   5   6
BRANCH   5  16
ATOM     16  C   UNL A   1      33.922  20.957  24.589  1.00  0.00    -0.033 A 
ATOM     17  C   UNL A   1      34.891  20.002  24.924  1.00  0.00     0.007 A 
ATOM     18  C   UNL A   1      32.684  20.494  24.094  1.00  0.00     0.007 A 
ATOM     19  C   UNL A   1      34.723  18.668  24.530  1.00  0.00     0.039 A 
ATOM     20  C   UNL A   1      32.528  19.176  23.675  1.00  0.00     0.039 A 
ATOM     21  C   UNL A   1      33.571  18.285  23.855  1.00  0.00     0.123 A 
ATOM     22  F   UNL A   1      33.482  17.051  23.342  1.00  0.00    -0.207 F 
ENDBRANCH   5  16
ENDBRANCH   3   5
ENDBRANCH   2   3
ENDBRANCH   1   2
BRANCH   1  23
ATOM     23  C   UNL A   1      38.018  23.463  26.086  1.00  0.00     0.275 C 
BRANCH  23  24
ATOM     24  O   UNL A   1      38.509  24.782  26.401  1.00  0.00    -0.458 OA
BRANCH  24  25
ATOM     25  C   UNL A   1      39.740  24.837  26.950  1.00  0.00     0.338 C 
ATOM     26  O   UNL A   1      40.569  23.936  26.933  1.00  0.00    -0.246 OA
BRANCH  25  27
ATOM     27  C   UNL A   1      39.917  26.092  27.700  1.00  0.00     0.060 A 
ATOM     28  C   UNL A   1      39.934  26.021  29.094  1.00  0.00     0.016 A 
ATOM     29  C   UNL A   1      39.883  27.331  27.051  1.00  0.00     0.016 A 
ATOM     30  C   UNL A   1      39.717  27.173  29.829  1.00  0.00     0.010 A 
ATOM     31  C   UNL A   1      39.746  28.490  27.792  1.00  0.00     0.010 A 
ATOM     32  C   UNL A   1      39.582  28.410  29.177  1.00  0.00    -0.014 A 
BRANCH  32  33
ATOM     33  C   UNL A   1      39.593  29.632  29.995  1.00  0.00     0.031 A 
ATOM     34  C   UNL A   1      40.966  30.240  30.041  1.00  0.00     0.074 A 
ATOM     35  C   UNL A   1      38.445  30.201  30.438  1.00  0.00     0.049 A 
ATOM     36  N   UNL A   1      41.623  30.684  31.062  1.00  0.00    -0.248 NA
ATOM     37  C   UNL A   1      41.797  30.144  28.812  1.00  0.00     0.031 C 
ATOM     38  C   UNL A   1      37.085  29.671  30.267  1.00  0.00     0.029 A 
ATOM     39  N   UNL A   1      38.208  31.438  30.978  1.00  0.00    -0.354 N 
ATOM     40  C   UNL A   1      42.849  31.117  30.551  1.00  0.00     0.074 A 
ATOM     41  C   UNL A   1      42.988  30.545  29.247  1.00  0.00     0.031 C 
ATOM     42  C   UNL A   1      36.184  30.662  30.428  1.00  0.00     0.029 A 
ATOM     43  C   UNL A   1      36.883  31.868  30.821  1.00  0.00     0.049 A 
ATOM     44  H   UNL A   1      38.899  31.972  31.431  1.00  0.00     0.167 HD
ATOM     45  C   UNL A   1      43.462  32.214  31.069  1.00  0.00     0.037 A 
ATOM     46  C   UNL A   1      36.421  33.146  30.897  1.00  0.00     0.037 A 
ATOM     47  C   UNL A   1      43.080  32.396  32.444  1.00  0.00     0.049 A 
ATOM     48  C   UNL A   1      37.461  33.945  31.579  1.00  0.00     0.074 A 
ATOM     49  C   UNL A   1      43.237  31.683  33.613  1.00  0.00     0.029 A 
ATOM     50  N   UNL A   1      42.070  33.294  32.662  1.00  0.00    -0.354 N 
ATOM     51  N   UNL A   1      37.775  33.806  32.834  1.00  0.00    -0.248 NA
ATOM     52  C   UNL A   1      38.465  34.587  30.747  1.00  0.00     0.031 C 
ATOM     53  C   UNL A   1      42.058  31.938  34.372  1.00  0.00     0.029 A 
ATOM     54  C   UNL A   1      41.268  32.850  33.673  1.00  0.00     0.049 A 
ATOM     55  H   UNL A   1      41.942  34.134  32.165  1.00  0.00     0.167 HD
ATOM     56  C   UNL A   1      39.157  33.907  32.856  1.00  0.00     0.074 A 
ATOM     57  C   UNL A   1      39.514  34.498  31.568  1.00  0.00     0.031 C 
ATOM     58  C   UNL A   1      39.880  33.232  33.797  1.00  0.00     0.037 A 
BRANCH  45  59
ATOM     59  C   UNL A   1      43.901  33.377  30.187  1.00  0.00     0.057 A 
ATOM     60  C   UNL A   1      45.212  33.866  30.326  1.00  0.00     0.134 A 
ATOM     61  C   UNL A   1      43.030  34.230  29.469  1.00  0.00     0.134 A 
ATOM     62  F   UNL A   1      46.142  33.161  30.986  1.00  0.00    -0.206 F 
ATOM     63  C   UNL A   1      45.593  35.140  29.880  1.00  0.00     0.040 A 
ATOM     64  C   UNL A   1      43.412  35.483  28.984  1.00  0.00     0.040 A 
ATOM     65  F   UNL A   1      41.738  33.960  29.265  1.00  0.00    -0.206 F 
ATOM     66  C   UNL A   1      44.687  35.959  29.220  1.00  0.00     0.006 A 
ENDBRANCH  45  59
BRANCH  46  67
ATOM     67  C   UNL A   1      35.324  33.790  30.127  1.00  0.00     0.057 A 
ATOM     68  C   UNL A   1      34.281  34.483  30.766  1.00  0.00     0.134 A 
ATOM     69  C   UNL A   1      35.413  33.976  28.736  1.00  0.00     0.134 A 
ATOM     70  F   UNL A   1      34.141  34.424  32.098  1.00  0.00    -0.206 F 
ATOM     71  C   UNL A   1      33.388  35.309  30.065  1.00  0.00     0.040 A 
ATOM     72  C   UNL A   1      34.524  34.790  28.023  1.00  0.00     0.040 A 
ATOM     73  F   UNL A   1      36.421  33.446  28.029  1.00  0.00    -0.206 F 
ATOM     74  C   UNL A   1      33.513  35.470  28.688  1.00  0.00     0.006 A 
ENDBRANCH  46  67
BRANCH  58  75
ATOM     75  C   UNL A   1      39.133  32.683  34.981  1.00  0.00     0.057 A 
ATOM     76  C   UNL A   1      38.672  31.363  35.094  1.00  0.00     0.134 A 
ATOM     77  C   UNL A   1      38.997  33.503  36.106  1.00  0.00     0.134 A 
ATOM     78  F   UNL A   1      38.839  30.482  34.099  1.00  0.00    -0.206 F 
ATOM     79  C   UNL A   1      38.067  30.897  36.266  1.00  0.00     0.040 A 
ATOM     80  C   UNL A   1      38.430  33.040  37.293  1.00  0.00     0.040 A 
ATOM     81  F   UNL A   1      39.460  34.763  36.083  1.00  0.00    -0.206 F 
ATOM     82  C   UNL A   1      37.953  31.734  37.372  1.00  0.00     0.006 A 
ENDBRANCH  58  75
ENDBRANCH  32  33
ENDBRANCH  25  27
ENDBRANCH  24  25
ENDBRANCH  23  24
ENDBRANCH   1  23
TORSDOF 15
ENDMDL
MODEL 2
REMARK VINA RESULT:     -11.5      5.357     11.658
REMARK SMILES CCn1nc(C)c(Br)c1C[C@H](C(=O)OCCOC(=O)c1ccc(-c2c3nc(c(-c4c(F)cccc4F)c4ccc([nH]4)c(-c4c(F)cccc4F)c4nc(c(-c5c(F)cccc5F)c5ccc2[nH]5)C=C4)C=C3)cc1)c1ccc(F)cc1
REMARK SMILES IDX 15 1 14 2 12 3 13 4 11 5 10 6 9 7 3 8 4 9 5 10 7 11 6 12
REMARK SMILES IDX 8 13 2 14 1 15 74 16 75 17 80 18 76 19 79 20 77 21 78 22
REMARK SMILES IDX 16 23 17 24 18 25 19 26 20 27 21 28 73 29 22 30 72 31 23 32
REMARK SMILES IDX 24 33 25 34 66 35 26 36 71 37 65 38 67 39 27 40 70 41 64 42
REMARK SMILES IDX 63 43 28 45 54 46 37 47 53 48 38 49 41 50 52 51 68 52 39 53
REMARK SMILES IDX 40 54 51 56 69 57 42 58 29 59 30 60 35 61 31 62 32 63 34 64
REMARK SMILES IDX 36 65 33 66 55 67 56 68 61 69 57 70 58 71 60 72 62 73 59 74
REMARK SMILES IDX 43 75 44 76 49 77 45 78 46 79 48 80 50 81 47 82
REMARK H PARENT 67 44 41 55
REMARK Flexibility Score: inf
ROOT
ATOM      1  C   UNL A   1      34.283  31.540  27.606  1.00  0.00     0.274 C 
ENDROOT
BRANCH   1   2
ATOM      2  O   UNL A   1      35.511  32.301  27.556  1.00  0.00    -0.462 OA
BRANCH   2   3
ATOM      3  C   UNL A   1      35.472  33.576  28.007  1.00  0.00     0.313 C 
ATOM      4  O   UNL A   1      34.796  34.463  27.491  1.00  0.00    -0.252 OA
BRANCH   3   5
ATOM      5  C   UNL A   1      36.294  33.824  29.268  1.00  0.00     0.135 C 
BRANCH   5   6
ATOM      6  C   UNL A   1      35.450  33.387  30.509  1.00  0.00     0.077 C 
BRANCH   6   7
ATOM      7  C   UNL A   1      35.126  34.385  31.617  1.00  0.00     0.054 A 
ATOM      8  N   UNL A   1      35.847  34.447  32.801  1.00  0.00    -0.268 N 
ATOM      9  N   UNL A   1      35.480  35.456  33.613  1.00  0.00    -0.177 NA
ATOM     10  C   UNL A   1      34.416  35.998  33.024  1.00  0.00     0.074 A 
ATOM     11  C   UNL A   1      34.165  35.375  31.782  1.00  0.00     0.062 A 
ATOM     12  C   UNL A   1      33.703  37.114  33.699  1.00  0.00     0.070 C 
ATOM     13  Br  UNL A   1      32.753  35.936  30.671  1.00  0.00    -0.047 Br
BRANCH   8  14
ATOM     14  C   UNL A   1      36.885  33.565  33.314  1.00  0.00     0.141 C 
ATOM     15  C   UNL A   1      38.274  34.166  33.142  1.00  0.00     0.029 C 
ENDBRANCH   8  14
ENDBRANCH   6   7
ENDBRANCH   5   6
BRANCH   5  16
ATOM     16  C   UNL A   1      37.778  33.466  29.363  1.00  0.00    -0.033 A 
ATOM     17  C   UNL A   1      38.283  32.208  29.716  1.00  0.00     0.007 A 
ATOM     18  C   UNL A   1      38.693  34.536  29.253  1.00  0.00     0.007 A 
ATOM     19  C   UNL A   1      39.594  32.090  30.194  1.00  0.00     0.039 A 
ATOM     20  C   UNL A   1      39.987  34.426  29.755  1.00  0.00     0.039 A 
ATOM     21  C   UNL A   1      40.409  33.212  30.266  1.00  0.00     0.123 A 
ATOM     22  F   UNL A   1      41.603  33.128  30.867  1.00  0.00    -0.207 F 
ENDBRANCH   5  16
ENDBRANCH   3   5
ENDBRANCH   2   3
ENDBRANCH   1   2
BRANCH   1  23
ATOM     23  C   UNL A   1      34.664  30.064  27.583  1.00  0.00     0.275 C 
BRANCH  23  24
ATOM     24  O   UNL A   1      36.085  29.827  27.532  1.00  0.00    -0.458 OA
BRANCH  24  25
ATOM     25  C   UNL A   1      36.652  29.400  28.679  1.00  0.00     0.338 C 
ATOM     26  O   UNL A   1      36.203  29.574  29.805  1.00  0.00    -0.246 OA
BRANCH  25  27
ATOM     27  C   UNL A   1      37.971  28.800  28.413  1.00  0.00     0.060 A 
ATOM     28  C   UNL A   1      38.353  27.698  29.180  1.00  0.00     0.016 A 
ATOM     29  C   UNL A   1      38.884  29.420  27.552  1.00  0.00     0.016 A 
ATOM     30  C   UNL A   1      39.691  27.348  29.235  1.00  0.00     0.010 A 
ATOM     31  C   UNL A   1      40.207  29.015  27.550  1.00  0.00     0.010 A 
ATOM     32  C   UNL A   1      40.631  28.033  28.448  1.00  0.00    -0.014 A 
BRANCH  32  33
ATOM     33  C   UNL A   1      41.991  27.481  28.352  1.00  0.00     0.031 A 
ATOM     34  C   UNL A   1      42.848  27.950  29.493  1.00  0.00     0.074 A 
ATOM     35  C   UNL A   1      42.303  26.513  27.457  1.00  0.00     0.049 A 
ATOM     36  N   UNL A   1      44.054  28.416  29.464  1.00  0.00    -0.248 NA
ATOM     37  C   UNL A   1      42.191  28.119  30.816  1.00  0.00     0.031 C 
ATOM     38  C   UNL A   1      41.412  25.955  26.428  1.00  0.00     0.029 A 
ATOM     39  N   UNL A   1      43.400  25.696  27.364  1.00  0.00    -0.354 N 
ATOM     40  C   UNL A   1      44.363  28.719  30.793  1.00  0.00     0.074 A 
ATOM     41  C   UNL A   1      43.129  28.750  31.517  1.00  0.00     0.031 C 
ATOM     42  C   UNL A   1      41.877  24.754  26.024  1.00  0.00     0.029 A 
ATOM     43  C   UNL A   1      43.147  24.503  26.673  1.00  0.00     0.049 A 
ATOM     44  H   UNL A   1      44.277  25.925  27.745  1.00  0.00     0.167 HD
ATOM     45  C   UNL A   1      45.623  28.532  31.267  1.00  0.00     0.037 A 
ATOM     46  C   UNL A   1      43.875  23.355  26.727  1.00  0.00     0.037 A 
ATOM     47  C   UNL A   1      46.579  28.640  30.197  1.00  0.00     0.049 A 
ATOM     48  C   UNL A   1      45.193  23.701  27.299  1.00  0.00     0.074 A 
ATOM     49  C   UNL A   1      46.987  29.637  29.337  1.00  0.00     0.029 A 
ATOM     50  N   UNL A   1      46.989  27.455  29.649  1.00  0.00    -0.354 N 
ATOM     51  N   UNL A   1      46.079  24.432  26.687  1.00  0.00    -0.248 NA
ATOM     52  C   UNL A   1      45.343  23.608  28.742  1.00  0.00     0.031 C 
ATOM     53  C   UNL A   1      47.308  28.976  28.116  1.00  0.00     0.029 A 
ATOM     54  C   UNL A   1      47.156  27.602  28.302  1.00  0.00     0.049 A 
ATOM     55  H   UNL A   1      47.141  26.622  30.150  1.00  0.00     0.167 HD
ATOM     56  C   UNL A   1      46.597  25.248  27.680  1.00  0.00     0.074 A 
ATOM     57  C   UNL A   1      46.190  24.620  28.935  1.00  0.00     0.031 C 
ATOM     58  C   UNL A   1      47.049  26.499  27.375  1.00  0.00     0.037 A 
BRANCH  45  59
ATOM     59  C   UNL A   1      45.893  27.703  32.516  1.00  0.00     0.057 A 
ATOM     60  C   UNL A   1      45.333  26.415  32.600  1.00  0.00     0.134 A 
ATOM     61  C   UNL A   1      46.380  28.211  33.743  1.00  0.00     0.134 A 
ATOM     62  F   UNL A   1      44.830  25.813  31.512  1.00  0.00    -0.206 F 
ATOM     63  C   UNL A   1      45.177  25.738  33.818  1.00  0.00     0.040 A 
ATOM     64  C   UNL A   1      46.268  27.525  34.955  1.00  0.00     0.040 A 
ATOM     65  F   UNL A   1      46.911  29.429  33.877  1.00  0.00    -0.206 F 
ATOM     66  C   UNL A   1      45.631  26.300  35.004  1.00  0.00     0.006 A 
ENDBRANCH  45  59
BRANCH  46  67
ATOM     67  C   UNL A   1      43.404  21.946  26.652  1.00  0.00     0.057 A 
ATOM     68  C   UNL A   1      42.352  21.473  27.454  1.00  0.00     0.134 A 
ATOM     69  C   UNL A   1      43.793  21.096  25.600  1.00  0.00     0.134 A 
ATOM     70  F   UNL A   1      41.862  22.229  28.448  1.00  0.00    -0.206 F 
ATOM     71  C   UNL A   1      41.724  20.239  27.222  1.00  0.00     0.040 A 
ATOM     72  C   UNL A   1      43.183  19.859  25.362  1.00  0.00     0.040 A 
ATOM     73  F   UNL A   1      44.719  21.476  24.709  1.00  0.00    -0.206 F 
ATOM     74  C   UNL A   1      42.136  19.430  26.168  1.00  0.00     0.006 A 
ENDBRANCH  46  67
BRANCH  58  75
ATOM     75  C   UNL A   1      47.286  26.813  25.924  1.00  0.00     0.057 A 
ATOM     76  C   UNL A   1      46.391  27.511  25.100  1.00  0.00     0.134 A 
ATOM     77  C   UNL A   1      48.540  26.505  25.384  1.00  0.00     0.134 A 
ATOM     78  F   UNL A   1      45.202  27.925  25.559  1.00  0.00    -0.206 F 
ATOM     79  C   UNL A   1      46.720  27.850  23.782  1.00  0.00     0.040 A 
ATOM     80  C   UNL A   1      48.894  26.870  24.086  1.00  0.00     0.040 A 
ATOM     81  F   UNL A   1      49.462  25.880  26.134  1.00  0.00    -0.206 F 
ATOM     82  C   UNL A   1      47.979  27.537  23.276  1.00  0.00     0.006 A 
ENDBRANCH  58  75
ENDBRANCH  32  33
ENDBRANCH  25  27
ENDBRANCH  24  25
ENDBRANCH  23  24
ENDBRANCH   1  23
TORSDOF 15
ENDMDL
MODEL 3
REMARK VINA RESULT:     -11.5      5.230     10.030
REMARK SMILES CCn1nc(C)c(Br)c1C[C@H](C(=O)OCCOC(=O)c1ccc(-c2c3nc(c(-c4c(F)cccc4F)c4ccc([nH]4)c(-c4c(F)cccc4F)c4nc(c(-c5c(F)cccc5F)c5ccc2[nH]5)C=C4)C=C3)cc1)c1ccc(F)cc1
REMARK SMILES IDX 15 1 14 2 12 3 13 4 11 5 10 6 9 7 3 8 4 9 5 10 7 11 6 12
REMARK SMILES IDX 8 13 2 14 1 15 74 16 75 17 80 18 76 19 79 20 77 21 78 22
REMARK SMILES IDX 16 23 17 24 18 25 19 26 20 27 21 28 73 29 22 30 72 31 23 32
REMARK SMILES IDX 24 33 25 34 66 35 26 36 71 37 65 38 67 39 27 40 70 41 64 42
REMARK SMILES IDX 63 43 28 45 54 46 37 47 53 48 38 49 41 50 52 51 68 52 39 53
REMARK SMILES IDX 40 54 51 56 69 57 42 58 29 59 30 60 35 61 31 62 32 63 34 64
REMARK SMILES IDX 36 65 33 66 55 67 56 68 61 69 57 70 58 71 60 72 62 73 59 74
REMARK SMILES IDX 43 75 44 76 49 77 45 78 46 79 48 80 50 81 47 82
REMARK H PARENT 67 44 41 55
REMARK Flexibility Score: inf
ROOT
ATOM      1  C   UNL A   1      33.369  29.417  26.960  1.00  0.00     0.274 C 
ENDROOT
BRANCH   1   2
ATOM      2  O   UNL A   1      33.012  28.488  25.913  1.00  0.00    -0.462 OA
BRANCH   2   3
ATOM      3  C   UNL A   1      31.824  27.849  26.026  1.00  0.00     0.313 C 
ATOM      4  O   UNL A   1      31.325  27.521  27.099  1.00  0.00    -0.252 OA
BRANCH   3   5
ATOM      5  C   UNL A   1      31.104  27.617  24.701  1.00  0.00     0.135 C 
BRANCH   5   6
ATOM      6  C   UNL A   1      30.340  26.256  24.780  1.00  0.00     0.077 C 
BRANCH   6   7
ATOM      7  C   UNL A   1      31.023  24.958  24.356  1.00  0.00     0.054 A 
ATOM      8  N   UNL A   1      31.680  24.823  23.141  1.00  0.00    -0.268 N 
ATOM      9  N   UNL A   1      32.306  23.641  22.986  1.00  0.00    -0.177 NA
ATOM     10  C   UNL A   1      31.958  22.928  24.056  1.00  0.00     0.074 A 
ATOM     11  C   UNL A   1      31.172  23.704  24.936  1.00  0.00     0.062 A 
ATOM     12  C   UNL A   1      32.425  21.522  24.175  1.00  0.00     0.070 C 
ATOM     13  Br  UNL A   1      30.550  23.007  26.569  1.00  0.00    -0.047 Br
BRANCH   8  14
ATOM     14  C   UNL A   1      31.746  25.729  22.004  1.00  0.00     0.141 C 
ATOM     15  C   UNL A   1      33.131  26.345  21.850  1.00  0.00     0.029 C 
ENDBRANCH   8  14
ENDBRANCH   6   7
ENDBRANCH   5   6
BRANCH   5  16
ATOM     16  C   UNL A   1      30.334  28.726  23.981  1.00  0.00    -0.033 A 
ATOM     17  C   UNL A   1      30.465  30.097  24.239  1.00  0.00     0.007 A 
ATOM     18  C   UNL A   1      29.295  28.314  23.118  1.00  0.00     0.007 A 
ATOM     19  C   UNL A   1      29.443  30.979  23.865  1.00  0.00     0.039 A 
ATOM     20  C   UNL A   1      28.264  29.184  22.772  1.00  0.00     0.039 A 
ATOM     21  C   UNL A   1      28.327  30.501  23.191  1.00  0.00     0.123 A 
ATOM     22  F   UNL A   1      27.284  31.314  22.975  1.00  0.00    -0.207 F 
ENDBRANCH   5  16
ENDBRANCH   3   5
ENDBRANCH   2   3
ENDBRANCH   1   2
BRANCH   1  23
ATOM     23  C   UNL A   1      34.891  29.487  27.003  1.00  0.00     0.275 C 
BRANCH  23  24
ATOM     24  O   UNL A   1      35.454  29.209  28.300  1.00  0.00    -0.458 OA
BRANCH  24  25
ATOM     25  C   UNL A   1      36.507  29.972  28.661  1.00  0.00     0.338 C 
ATOM     26  O   UNL A   1      36.451  31.142  29.017  1.00  0.00    -0.246 OA
BRANCH  25  27
ATOM     27  C   UNL A   1      37.770  29.247  28.445  1.00  0.00     0.060 A 
ATOM     28  C   UNL A   1      38.032  28.139  29.253  1.00  0.00     0.016 A 
ATOM     29  C   UNL A   1      38.756  29.753  27.589  1.00  0.00     0.016 A 
ATOM     30  C   UNL A   1      39.331  27.670  29.350  1.00  0.00     0.010 A 
ATOM     31  C   UNL A   1      40.035  29.230  27.632  1.00  0.00     0.010 A 
ATOM     32  C   UNL A   1      40.348  28.242  28.568  1.00  0.00    -0.014 A 
BRANCH  32  33
ATOM     33  C   UNL A   1      41.653  27.565  28.522  1.00  0.00     0.031 A 
ATOM     34  C   UNL A   1      42.474  27.889  29.737  1.00  0.00     0.074 A 
ATOM     35  C   UNL A   1      41.929  26.618  27.592  1.00  0.00     0.049 A 
ATOM     36  N   UNL A   1      43.718  28.235  29.807  1.00  0.00    -0.248 NA
ATOM     37  C   UNL A   1      41.752  28.052  31.025  1.00  0.00     0.031 C 
ATOM     38  C   UNL A   1      41.059  26.203  26.482  1.00  0.00     0.029 A 
ATOM     39  N   UNL A   1      42.947  25.704  27.519  1.00  0.00    -0.354 N 
ATOM     40  C   UNL A   1      43.967  28.438  31.166  1.00  0.00     0.074 A 
ATOM     41  C   UNL A   1      42.698  28.552  31.816  1.00  0.00     0.031 C 
ATOM     42  C   UNL A   1      41.433  24.985  26.038  1.00  0.00     0.029 A 
ATOM     43  C   UNL A   1      42.628  24.578  26.746  1.00  0.00     0.049 A 
ATOM     44  H   UNL A   1      43.816  25.825  27.964  1.00  0.00     0.167 HD
ATOM     45  C   UNL A   1      45.171  28.104  31.703  1.00  0.00     0.037 A 
ATOM     46  C   UNL A   1      43.240  23.363  26.778  1.00  0.00     0.037 A 
ATOM     47  C   UNL A   1      46.200  28.173  30.700  1.00  0.00     0.049 A 
ATOM     48  C   UNL A   1      44.545  23.549  27.446  1.00  0.00     0.074 A 
ATOM     49  C   UNL A   1      46.755  29.169  29.925  1.00  0.00     0.029 A 
ATOM     50  N   UNL A   1      46.531  26.983  30.110  1.00  0.00    -0.354 N 
ATOM     51  N   UNL A   1      45.534  24.220  26.931  1.00  0.00    -0.248 NA
ATOM     52  C   UNL A   1      44.592  23.367  28.887  1.00  0.00     0.031 C 
ATOM     53  C   UNL A   1      47.091  28.542  28.689  1.00  0.00     0.029 A 
ATOM     54  C   UNL A   1      46.798  27.182  28.787  1.00  0.00     0.049 A 
ATOM     55  H   UNL A   1      46.571  26.115  30.571  1.00  0.00     0.167 HD
ATOM     56  C   UNL A   1      46.061  24.929  27.999  1.00  0.00     0.074 A 
ATOM     57  C   UNL A   1      45.516  24.281  29.189  1.00  0.00     0.031 C 
ATOM     58  C   UNL A   1      46.648  26.144  27.793  1.00  0.00     0.037 A 
BRANCH  45  59
ATOM     59  C   UNL A   1      45.280  27.190  32.917  1.00  0.00     0.057 A 
ATOM     60  C   UNL A   1      46.105  27.588  33.985  1.00  0.00     0.134 A 
ATOM     61  C   UNL A   1      44.894  25.829  32.951  1.00  0.00     0.134 A 
ATOM     62  F   UNL A   1      46.547  28.850  34.076  1.00  0.00    -0.206 F 
ATOM     63  C   UNL A   1      46.587  26.684  34.942  1.00  0.00     0.040 A 
ATOM     64  C   UNL A   1      45.336  24.931  33.925  1.00  0.00     0.040 A 
ATOM     65  F   UNL A   1      44.146  25.252  32.006  1.00  0.00    -0.206 F 
ATOM     66  C   UNL A   1      46.216  25.347  34.905  1.00  0.00     0.006 A 
ENDBRANCH  45  59
BRANCH  46  67
ATOM     67  C   UNL A   1      42.644  22.012  26.594  1.00  0.00     0.057 A 
ATOM     68  C   UNL A   1      43.221  21.060  25.735  1.00  0.00     0.134 A 
ATOM     69  C   UNL A   1      41.648  21.524  27.458  1.00  0.00     0.134 A 
ATOM     70  F   UNL A   1      44.222  21.405  24.912  1.00  0.00    -0.206 F 
ATOM     71  C   UNL A   1      42.835  19.711  25.742  1.00  0.00     0.040 A 
ATOM     72  C   UNL A   1      41.247  20.183  27.469  1.00  0.00     0.040 A 
ATOM     73  F   UNL A   1      41.091  22.312  28.388  1.00  0.00    -0.206 F 
ATOM     74  C   UNL A   1      41.848  19.267  26.616  1.00  0.00     0.006 A 
ENDBRANCH  46  67
BRANCH  58  75
ATOM     75  C   UNL A   1      47.008  26.508  26.379  1.00  0.00     0.057 A 
ATOM     76  C   UNL A   1      46.209  27.283  25.525  1.00  0.00     0.134 A 
ATOM     77  C   UNL A   1      48.282  26.162  25.918  1.00  0.00     0.134 A 
ATOM     78  F   UNL A   1      45.009  27.734  25.915  1.00  0.00    -0.206 F 
ATOM     79  C   UNL A   1      46.651  27.661  24.252  1.00  0.00     0.040 A 
ATOM     80  C   UNL A   1      48.750  26.564  24.668  1.00  0.00     0.040 A 
ATOM     81  F   UNL A   1      49.116  25.462  26.704  1.00  0.00    -0.206 F 
ATOM     82  C   UNL A   1      47.929  27.309  23.825  1.00  0.00     0.006 A 
ENDBRANCH  58  75
ENDBRANCH  32  33
ENDBRANCH  25  27
ENDBRANCH  24  25
ENDBRANCH  23  24
ENDBRANCH   1  23
TORSDOF 15
ENDMDL
