MODEL 1
REMARK VINA RESULT:     -11.8      0.000      0.000
REMARK SMILES C[C@H]1[C@H](C(=O)OCCOC(=O)c2ccc(-c3c4nc(c(-c5c(F)cccc5F)c5ccc([nH]5)c(-c5c(F)cccc5F)c5nc(c(-c6c(F)cccc6F)c6ccc3[nH]6)C=C5)C=C4)cc2)CC[N@@H+]1[C@@H](c1ccccc1)c1ccco1
REMARK SMILES IDX 7 1 6 2 4 3 5 4 3 5 1 6 2 7 68 8 66 9 67 10 69 12 70 13
REMARK SMILES IDX 71 14 75 15 72 16 74 17 73 18 76 19 77 20 80 21 78 22 79 23
REMARK SMILES IDX 8 24 9 25 10 26 11 27 12 28 13 29 65 30 14 31 64 32 15 33
REMARK SMILES IDX 16 34 17 35 58 36 18 37 63 38 57 39 59 40 19 41 62 42 56 43
REMARK SMILES IDX 55 44 20 46 46 47 29 48 45 49 30 50 33 51 44 52 60 53 31 54
REMARK SMILES IDX 32 55 43 57 61 58 34 59 21 60 22 61 27 62 23 63 24 64 26 65
REMARK SMILES IDX 28 66 25 67 47 68 48 69 53 70 49 71 50 72 52 73 54 74 51 75
REMARK SMILES IDX 35 76 36 77 41 78 37 79 38 80 40 81 42 82 39 83
REMARK H PARENT 68 11 59 45 33 56
REMARK Flexibility Score: inf
ROOT
ATOM      1  C   UNL A   1      34.653  20.935  25.293  1.00  0.00     0.274 C 
ENDROOT
BRANCH   1   2
ATOM      2  O   UNL A   1      34.394  22.352  25.276  1.00  0.00    -0.462 OA
BRANCH   2   3
ATOM      3  C   UNL A   1      34.088  22.917  24.086  1.00  0.00     0.315 C 
ATOM      4  O   UNL A   1      33.601  22.313  23.135  1.00  0.00    -0.252 OA
BRANCH   3   5
ATOM      5  C   UNL A   1      34.343  24.414  24.029  1.00  0.00     0.162 C 
ATOM      6  C   UNL A   1      33.642  26.125  22.312  1.00  0.00     0.076 C 
ATOM      7  C   UNL A   1      33.199  25.311  23.539  1.00  0.00     0.196 C 
ATOM      8  N   UNL A   1      32.924  26.263  24.624  1.00  0.00    -0.319 N 
ATOM      9  C   UNL A   1      34.748  24.935  25.399  1.00  0.00     0.083 C 
ATOM     10  C   UNL A   1      34.077  26.285  25.517  1.00  0.00     0.264 C 
ATOM     11  H   UNL A   1      32.828  27.203  24.241  1.00  0.00     0.349 HD
BRANCH   8  12
ATOM     12  C   UNL A   1      31.585  26.136  25.246  1.00  0.00     0.283 C 
BRANCH  12  13
ATOM     13  C   UNL A   1      30.421  26.818  24.518  1.00  0.00     0.017 A 
ATOM     14  C   UNL A   1      30.657  27.995  23.782  1.00  0.00     0.010 A 
ATOM     15  C   UNL A   1      29.107  26.325  24.560  1.00  0.00     0.010 A 
ATOM     16  C   UNL A   1      29.622  28.641  23.103  1.00  0.00     0.001 A 
ATOM     17  C   UNL A   1      28.076  26.956  23.859  1.00  0.00     0.001 A 
ATOM     18  C   UNL A   1      28.333  28.115  23.132  1.00  0.00     0.000 A 
ENDBRANCH  12  13
BRANCH  12  19
ATOM     19  C   UNL A   1      31.327  24.707  25.668  1.00  0.00     0.165 A 
ATOM     20  C   UNL A   1      30.814  23.621  24.981  1.00  0.00     0.052 A 
ATOM     21  O   UNL A   1      31.595  24.340  26.957  1.00  0.00    -0.463 OA
ATOM     22  C   UNL A   1      30.762  22.546  25.898  1.00  0.00     0.042 A 
ATOM     23  C   UNL A   1      31.252  23.035  27.086  1.00  0.00     0.195 A 
ENDBRANCH  12  19
ENDBRANCH   8  12
ENDBRANCH   3   5
ENDBRANCH   2   3
ENDBRANCH   1   2
BRANCH   1  24
ATOM     24  C   UNL A   1      36.130  20.670  25.003  1.00  0.00     0.275 C 
BRANCH  24  25
ATOM     25  O   UNL A   1      36.954  21.650  25.658  1.00  0.00    -0.458 OA
BRANCH  25  26
ATOM     26  C   UNL A   1      38.257  21.310  25.774  1.00  0.00     0.338 C 
ATOM     27  O   UNL A   1      38.811  20.301  25.376  1.00  0.00    -0.246 OA
BRANCH  26  28
ATOM     28  C   UNL A   1      38.981  22.438  26.367  1.00  0.00     0.060 A 
ATOM     29  C   UNL A   1      38.558  23.731  26.060  1.00  0.00     0.016 A 
ATOM     30  C   UNL A   1      40.110  22.221  27.151  1.00  0.00     0.016 A 
ATOM     31  C   UNL A   1      39.283  24.829  26.500  1.00  0.00     0.010 A 
ATOM     32  C   UNL A   1      40.818  23.325  27.626  1.00  0.00     0.010 A 
ATOM     33  C   UNL A   1      40.418  24.631  27.289  1.00  0.00    -0.014 A 
BRANCH  33  34
ATOM     34  C   UNL A   1      41.226  25.783  27.740  1.00  0.00     0.031 A 
ATOM     35  C   UNL A   1      40.571  26.855  28.555  1.00  0.00     0.074 A 
ATOM     36  C   UNL A   1      42.519  25.877  27.387  1.00  0.00     0.049 A 
ATOM     37  N   UNL A   1      40.995  28.059  28.831  1.00  0.00    -0.248 NA
ATOM     38  C   UNL A   1      39.254  26.528  29.126  1.00  0.00     0.031 C 
ATOM     39  C   UNL A   1      43.278  24.856  26.662  1.00  0.00     0.029 A 
ATOM     40  N   UNL A   1      43.418  26.896  27.571  1.00  0.00    -0.354 N 
ATOM     41  C   UNL A   1      39.977  28.654  29.564  1.00  0.00     0.074 A 
ATOM     42  C   UNL A   1      38.918  27.677  29.697  1.00  0.00     0.031 C 
ATOM     43  C   UNL A   1      44.523  25.309  26.445  1.00  0.00     0.029 A 
ATOM     44  C   UNL A   1      44.623  26.673  26.951  1.00  0.00     0.049 A 
ATOM     45  H   UNL A   1      43.220  27.706  28.095  1.00  0.00     0.167 HD
ATOM     46  C   UNL A   1      39.936  29.909  30.066  1.00  0.00     0.037 A 
ATOM     47  C   UNL A   1      45.666  27.502  26.760  1.00  0.00     0.037 A 
ATOM     48  C   UNL A   1      41.014  30.854  29.944  1.00  0.00     0.049 A 
ATOM     49  C   UNL A   1      45.575  28.911  27.275  1.00  0.00     0.074 A 
ATOM     50  C   UNL A   1      41.083  32.152  30.414  1.00  0.00     0.029 A 
ATOM     51  N   UNL A   1      42.220  30.589  29.310  1.00  0.00    -0.354 N 
ATOM     52  N   UNL A   1      44.593  29.490  27.922  1.00  0.00    -0.248 NA
ATOM     53  C   UNL A   1      46.726  29.787  27.018  1.00  0.00     0.031 C 
ATOM     54  C   UNL A   1      42.320  32.685  30.037  1.00  0.00     0.029 A 
ATOM     55  C   UNL A   1      43.036  31.705  29.366  1.00  0.00     0.049 A 
ATOM     56  H   UNL A   1      42.459  29.736  28.883  1.00  0.00     0.167 HD
ATOM     57  C   UNL A   1      45.016  30.788  28.173  1.00  0.00     0.074 A 
ATOM     58  C   UNL A   1      46.345  30.911  27.610  1.00  0.00     0.031 C 
ATOM     59  C   UNL A   1      44.364  31.788  28.815  1.00  0.00     0.037 A 
BRANCH  46  60
ATOM     60  C   UNL A   1      38.674  30.341  30.749  1.00  0.00     0.057 A 
ATOM     61  C   UNL A   1      38.470  30.157  32.121  1.00  0.00     0.134 A 
ATOM     62  C   UNL A   1      37.655  30.970  30.022  1.00  0.00     0.134 A 
ATOM     63  F   UNL A   1      39.399  29.545  32.871  1.00  0.00    -0.206 F 
ATOM     64  C   UNL A   1      37.288  30.566  32.744  1.00  0.00     0.040 A 
ATOM     65  C   UNL A   1      36.479  31.403  30.635  1.00  0.00     0.040 A 
ATOM     66  F   UNL A   1      37.788  31.176  28.703  1.00  0.00    -0.206 F 
ATOM     67  C   UNL A   1      36.292  31.197  32.001  1.00  0.00     0.006 A 
ENDBRANCH  46  60
BRANCH  47  68
ATOM     68  C   UNL A   1      46.856  27.031  26.011  1.00  0.00     0.057 A 
ATOM     69  C   UNL A   1      47.905  26.373  26.661  1.00  0.00     0.134 A 
ATOM     70  C   UNL A   1      46.967  27.213  24.626  1.00  0.00     0.134 A 
ATOM     71  F   UNL A   1      47.865  26.188  27.988  1.00  0.00    -0.206 F 
ATOM     72  C   UNL A   1      49.025  25.918  25.964  1.00  0.00     0.040 A 
ATOM     73  C   UNL A   1      48.070  26.743  23.913  1.00  0.00     0.040 A 
ATOM     74  F   UNL A   1      45.992  27.834  23.944  1.00  0.00    -0.206 F 
ATOM     75  C   UNL A   1      49.106  26.096  24.583  1.00  0.00     0.006 A 
ENDBRANCH  47  68
BRANCH  59  76
ATOM     76  C   UNL A   1      45.098  33.081  28.987  1.00  0.00     0.057 A 
ATOM     77  C   UNL A   1      45.953  33.305  30.072  1.00  0.00     0.134 A 
ATOM     78  C   UNL A   1      45.000  34.085  28.014  1.00  0.00     0.134 A 
ATOM     79  F   UNL A   1      46.077  32.386  31.041  1.00  0.00    -0.206 F 
ATOM     80  C   UNL A   1      46.680  34.490  30.188  1.00  0.00     0.040 A 
ATOM     81  C   UNL A   1      45.738  35.263  28.109  1.00  0.00     0.040 A 
ATOM     82  F   UNL A   1      44.203  33.923  26.948  1.00  0.00    -0.206 F 
ATOM     83  C   UNL A   1      46.581  35.469  29.200  1.00  0.00     0.006 A 
ENDBRANCH  59  76
ENDBRANCH  33  34
ENDBRANCH  26  28
ENDBRANCH  25  26
ENDBRANCH  24  25
ENDBRANCH   1  24
TORSDOF 14
ENDMDL
MODEL 2
REMARK VINA RESULT:     -11.6      3.813      8.723
REMARK SMILES C[C@H]1[C@H](C(=O)OCCOC(=O)c2ccc(-c3c4nc(c(-c5c(F)cccc5F)c5ccc([nH]5)c(-c5c(F)cccc5F)c5nc(c(-c6c(F)cccc6F)c6ccc3[nH]6)C=C5)C=C4)cc2)CC[N@@H+]1[C@@H](c1ccccc1)c1ccco1
REMARK SMILES IDX 7 1 6 2 4 3 5 4 3 5 1 6 2 7 68 8 66 9 67 10 69 12 70 13
REMARK SMILES IDX 71 14 75 15 72 16 74 17 73 18 76 19 77 20 80 21 78 22 79 23
REMARK SMILES IDX 8 24 9 25 10 26 11 27 12 28 13 29 65 30 14 31 64 32 15 33
REMARK SMILES IDX 16 34 17 35 58 36 18 37 63 38 57 39 59 40 19 41 62 42 56 43
REMARK SMILES IDX 55 44 20 46 46 47 29 48 45 49 30 50 33 51 44 52 60 53 31 54
REMARK SMILES IDX 32 55 43 57 61 58 34 59 21 60 22 61 27 62 23 63 24 64 26 65
REMARK SMILES IDX 28 66 25 67 47 68 48 69 53 70 49 71 50 72 52 73 54 74 51 75
REMARK SMILES IDX 35 76 36 77 41 78 37 79 38 80 40 81 42 82 39 83
REMARK H PARENT 68 11 59 45 33 56
REMARK Flexibility Score: inf
ROOT
ATOM      1  C   UNL A   1      31.401  28.637  24.762  1.00  0.00     0.274 C 
ENDROOT
BRANCH   1   2
ATOM      2  O   UNL A   1      31.476  27.565  25.722  1.00  0.00    -0.462 OA
BRANCH   2   3
ATOM      3  C   UNL A   1      32.320  26.544  25.455  1.00  0.00     0.315 C 
ATOM      4  O   UNL A   1      33.316  26.274  26.121  1.00  0.00    -0.252 OA
BRANCH   3   5
ATOM      5  C   UNL A   1      31.903  25.691  24.270  1.00  0.00     0.162 C 
ATOM      6  C   UNL A   1      33.147  25.117  22.151  1.00  0.00     0.076 C 
ATOM      7  C   UNL A   1      32.965  24.780  23.641  1.00  0.00     0.196 C 
ATOM      8  N   UNL A   1      32.439  23.411  23.721  1.00  0.00    -0.319 N 
ATOM      9  C   UNL A   1      30.732  24.797  24.647  1.00  0.00     0.083 C 
ATOM     10  C   UNL A   1      30.999  23.486  23.942  1.00  0.00     0.264 C 
ATOM     11  H   UNL A   1      32.577  22.936  22.830  1.00  0.00     0.349 HD
BRANCH   8  12
ATOM     12  C   UNL A   1      33.213  22.492  24.588  1.00  0.00     0.283 C 
BRANCH  12  13
ATOM     13  C   UNL A   1      32.947  20.993  24.412  1.00  0.00     0.017 A 
ATOM     14  C   UNL A   1      33.140  20.121  25.502  1.00  0.00     0.010 A 
ATOM     15  C   UNL A   1      32.528  20.433  23.194  1.00  0.00     0.010 A 
ATOM     16  C   UNL A   1      32.905  18.750  25.379  1.00  0.00     0.001 A 
ATOM     17  C   UNL A   1      32.268  19.066  23.078  1.00  0.00     0.001 A 
ATOM     18  C   UNL A   1      32.458  18.224  24.170  1.00  0.00     0.000 A 
ENDBRANCH  12  13
BRANCH  12  19
ATOM     19  C   UNL A   1      34.673  22.885  24.611  1.00  0.00     0.165 A 
ATOM     20  C   UNL A   1      35.686  22.722  23.683  1.00  0.00     0.052 A 
ATOM     21  O   UNL A   1      35.176  23.493  25.727  1.00  0.00    -0.463 OA
ATOM     22  C   UNL A   1      36.861  23.250  24.266  1.00  0.00     0.042 A 
ATOM     23  C   UNL A   1      36.497  23.709  25.509  1.00  0.00     0.195 A 
ENDBRANCH  12  19
ENDBRANCH   8  12
ENDBRANCH   3   5
ENDBRANCH   2   3
ENDBRANCH   1   2
BRANCH   1  24
ATOM     24  C   UNL A   1      31.618  29.979  25.461  1.00  0.00     0.275 C 
BRANCH  24  25
ATOM     25  O   UNL A   1      32.959  30.067  25.975  1.00  0.00    -0.458 OA
BRANCH  25  26
ATOM     26  C   UNL A   1      33.156  31.048  26.883  1.00  0.00     0.338 C 
ATOM     27  O   UNL A   1      32.373  31.908  27.245  1.00  0.00    -0.246 OA
BRANCH  26  28
ATOM     28  C   UNL A   1      34.470  30.853  27.501  1.00  0.00     0.060 A 
ATOM     29  C   UNL A   1      34.866  29.554  27.821  1.00  0.00     0.016 A 
ATOM     30  C   UNL A   1      35.266  31.945  27.832  1.00  0.00     0.016 A 
ATOM     31  C   UNL A   1      36.046  29.330  28.513  1.00  0.00     0.010 A 
ATOM     32  C   UNL A   1      36.472  31.719  28.496  1.00  0.00     0.010 A 
ATOM     33  C   UNL A   1      36.859  30.414  28.853  1.00  0.00    -0.014 A 
BRANCH  33  34
ATOM     34  C   UNL A   1      38.103  30.204  29.621  1.00  0.00     0.031 A 
ATOM     35  C   UNL A   1      39.167  29.318  29.054  1.00  0.00     0.074 A 
ATOM     36  C   UNL A   1      38.253  30.776  30.829  1.00  0.00     0.049 A 
ATOM     37  N   UNL A   1      40.201  28.783  29.645  1.00  0.00    -0.248 NA
ATOM     38  C   UNL A   1      39.040  28.977  27.626  1.00  0.00     0.031 C 
ATOM     39  C   UNL A   1      37.317  31.718  31.445  1.00  0.00     0.029 A 
ATOM     40  N   UNL A   1      39.242  30.625  31.766  1.00  0.00    -0.354 N 
ATOM     41  C   UNL A   1      40.821  28.002  28.680  1.00  0.00     0.074 A 
ATOM     42  C   UNL A   1      40.053  28.137  27.461  1.00  0.00     0.031 C 
ATOM     43  C   UNL A   1      37.766  32.046  32.665  1.00  0.00     0.029 A 
ATOM     44  C   UNL A   1      38.978  31.283  32.942  1.00  0.00     0.049 A 
ATOM     45  H   UNL A   1      40.059  30.097  31.612  1.00  0.00     0.167 HD
ATOM     46  C   UNL A   1      41.927  27.234  28.812  1.00  0.00     0.037 A 
ATOM     47  C   UNL A   1      39.612  31.226  34.128  1.00  0.00     0.037 A 
ATOM     48  C   UNL A   1      42.691  27.137  30.028  1.00  0.00     0.049 A 
ATOM     49  C   UNL A   1      40.803  30.321  34.271  1.00  0.00     0.074 A 
ATOM     50  C   UNL A   1      43.828  26.392  30.277  1.00  0.00     0.029 A 
ATOM     51  N   UNL A   1      42.391  27.822  31.198  1.00  0.00    -0.354 N 
ATOM     52  N   UNL A   1      41.358  29.543  33.374  1.00  0.00    -0.248 NA
ATOM     53  C   UNL A   1      41.444  30.271  35.592  1.00  0.00     0.031 C 
ATOM     54  C   UNL A   1      44.200  26.601  31.609  1.00  0.00     0.029 A 
ATOM     55  C   UNL A   1      43.317  27.507  32.177  1.00  0.00     0.049 A 
ATOM     56  H   UNL A   1      41.634  28.438  31.314  1.00  0.00     0.167 HD
ATOM     57  C   UNL A   1      42.428  28.931  34.011  1.00  0.00     0.074 A 
ATOM     58  C   UNL A   1      42.444  29.429  35.372  1.00  0.00     0.031 C 
ATOM     59  C   UNL A   1      43.319  28.038  33.516  1.00  0.00     0.037 A 
BRANCH  46  60
ATOM     60  C   UNL A   1      42.345  26.412  27.631  1.00  0.00     0.057 A 
ATOM     61  C   UNL A   1      41.901  25.098  27.445  1.00  0.00     0.134 A 
ATOM     62  C   UNL A   1      43.191  26.954  26.655  1.00  0.00     0.134 A 
ATOM     63  F   UNL A   1      41.104  24.514  28.352  1.00  0.00    -0.206 F 
ATOM     64  C   UNL A   1      42.299  24.344  26.338  1.00  0.00     0.040 A 
ATOM     65  C   UNL A   1      43.578  26.220  25.534  1.00  0.00     0.040 A 
ATOM     66  F   UNL A   1      43.653  28.208  26.774  1.00  0.00    -0.206 F 
ATOM     67  C   UNL A   1      43.135  24.908  25.376  1.00  0.00     0.006 A 
ENDBRANCH  46  60
BRANCH  47  68
ATOM     68  C   UNL A   1      39.100  32.012  35.277  1.00  0.00     0.057 A 
ATOM     69  C   UNL A   1      39.399  33.371  35.412  1.00  0.00     0.134 A 
ATOM     70  C   UNL A   1      38.288  31.429  36.259  1.00  0.00     0.134 A 
ATOM     71  F   UNL A   1      40.188  33.981  34.516  1.00  0.00    -0.206 F 
ATOM     72  C   UNL A   1      38.915  34.122  36.484  1.00  0.00     0.040 A 
ATOM     73  C   UNL A   1      37.778  32.172  37.323  1.00  0.00     0.040 A 
ATOM     74  F   UNL A   1      37.962  30.129  36.183  1.00  0.00    -0.206 F 
ATOM     75  C   UNL A   1      38.095  33.523  37.440  1.00  0.00     0.006 A 
ENDBRANCH  47  68
BRANCH  59  76
ATOM     76  C   UNL A   1      44.414  27.586  34.431  1.00  0.00     0.057 A 
ATOM     77  C   UNL A   1      45.609  28.300  34.560  1.00  0.00     0.134 A 
ATOM     78  C   UNL A   1      44.234  26.458  35.244  1.00  0.00     0.134 A 
ATOM     79  F   UNL A   1      45.842  29.379  33.799  1.00  0.00    -0.206 F 
ATOM     80  C   UNL A   1      46.597  27.903  35.464  1.00  0.00     0.040 A 
ATOM     81  C   UNL A   1      45.204  26.065  36.164  1.00  0.00     0.040 A 
ATOM     82  F   UNL A   1      43.106  25.738  35.170  1.00  0.00    -0.206 F 
ATOM     83  C   UNL A   1      46.391  26.788  36.275  1.00  0.00     0.006 A 
ENDBRANCH  59  76
ENDBRANCH  33  34
ENDBRANCH  26  28
ENDBRANCH  25  26
ENDBRANCH  24  25
ENDBRANCH   1  24
TORSDOF 14
ENDMDL
MODEL 3
REMARK VINA RESULT:     -11.6      3.827      8.587
REMARK SMILES C[C@H]1[C@H](C(=O)OCCOC(=O)c2ccc(-c3c4nc(c(-c5c(F)cccc5F)c5ccc([nH]5)c(-c5c(F)cccc5F)c5nc(c(-c6c(F)cccc6F)c6ccc3[nH]6)C=C5)C=C4)cc2)CC[N@@H+]1[C@@H](c1ccccc1)c1ccco1
REMARK SMILES IDX 7 1 6 2 4 3 5 4 3 5 1 6 2 7 68 8 66 9 67 10 69 12 70 13
REMARK SMILES IDX 71 14 75 15 72 16 74 17 73 18 76 19 77 20 80 21 78 22 79 23
REMARK SMILES IDX 8 24 9 25 10 26 11 27 12 28 13 29 65 30 14 31 64 32 15 33
REMARK SMILES IDX 16 34 17 35 58 36 18 37 63 38 57 39 59 40 19 41 62 42 56 43
REMARK SMILES IDX 55 44 20 46 46 47 29 48 45 49 30 50 33 51 44 52 60 53 31 54
REMARK SMILES IDX 32 55 43 57 61 58 34 59 21 60 22 61 27 62 23 63 24 64 26 65
REMARK SMILES IDX 28 66 25 67 47 68 48 69 53 70 49 71 50 72 52 73 54 74 51 75
REMARK SMILES IDX 35 76 36 77 41 78 37 79 38 80 40 81 42 82 39 83
REMARK H PARENT 68 11 59 45 33 56
REMARK Flexibility Score: inf
ROOT
ATOM      1  C   UNL A   1      31.194  29.535  24.932  1.00  0.00     0.274 C 
ENDROOT
BRANCH   1   2
ATOM      2  O   UNL A   1      31.094  28.098  24.911  1.00  0.00    -0.462 OA
BRANCH   2   3
ATOM      3  C   UNL A   1      30.590  27.523  23.797  1.00  0.00     0.315 C 
ATOM      4  O   UNL A   1      29.392  27.429  23.544  1.00  0.00    -0.252 OA
BRANCH   3   5
ATOM      5  C   UNL A   1      31.647  27.037  22.819  1.00  0.00     0.162 C 
ATOM      6  C   UNL A   1      34.009  27.837  22.439  1.00  0.00     0.076 C 
ATOM      7  C   UNL A   1      33.096  26.966  23.318  1.00  0.00     0.196 C 
ATOM      8  N   UNL A   1      33.524  25.571  23.150  1.00  0.00    -0.319 N 
ATOM      9  C   UNL A   1      31.295  25.650  22.305  1.00  0.00     0.083 C 
ATOM     10  C   UNL A   1      32.617  24.922  22.210  1.00  0.00     0.264 C 
ATOM     11  H   UNL A   1      34.453  25.544  22.732  1.00  0.00     0.349 HD
BRANCH   8  12
ATOM     12  C   UNL A   1      33.824  24.852  24.411  1.00  0.00     0.283 C 
BRANCH  12  13
ATOM     13  C   UNL A   1      32.665  24.090  25.061  1.00  0.00     0.017 A 
ATOM     14  C   UNL A   1      32.543  22.702  24.853  1.00  0.00     0.010 A 
ATOM     15  C   UNL A   1      31.693  24.719  25.857  1.00  0.00     0.010 A 
ATOM     16  C   UNL A   1      31.501  21.974  25.433  1.00  0.00     0.001 A 
ATOM     17  C   UNL A   1      30.666  23.988  26.458  1.00  0.00     0.001 A 
ATOM     18  C   UNL A   1      30.569  22.616  26.244  1.00  0.00     0.000 A 
ENDBRANCH  12  13
BRANCH  12  19
ATOM     19  C   UNL A   1      35.113  24.070  24.285  1.00  0.00     0.165 A 
ATOM     20  C   UNL A   1      36.103  23.771  25.205  1.00  0.00     0.052 A 
ATOM     21  O   UNL A   1      35.456  23.552  23.068  1.00  0.00    -0.463 OA
ATOM     22  C   UNL A   1      37.096  23.042  24.511  1.00  0.00     0.042 A 
ATOM     23  C   UNL A   1      36.653  22.934  23.214  1.00  0.00     0.195 A 
ENDBRANCH  12  19
ENDBRANCH   8  12
ENDBRANCH   3   5
ENDBRANCH   2   3
ENDBRANCH   1   2
BRANCH   1  24
ATOM     24  C   UNL A   1      32.593  29.955  25.383  1.00  0.00     0.275 C 
BRANCH  24  25
ATOM     25  O   UNL A   1      32.619  30.169  26.805  1.00  0.00    -0.458 OA
BRANCH  25  26
ATOM     26  C   UNL A   1      33.135  31.358  27.191  1.00  0.00     0.338 C 
ATOM     27  O   UNL A   1      32.595  32.450  27.190  1.00  0.00    -0.246 OA
BRANCH  26  28
ATOM     28  C   UNL A   1      34.465  31.125  27.761  1.00  0.00     0.060 A 
ATOM     29  C   UNL A   1      34.785  29.837  28.192  1.00  0.00     0.016 A 
ATOM     30  C   UNL A   1      35.354  32.180  27.939  1.00  0.00     0.016 A 
ATOM     31  C   UNL A   1      35.983  29.593  28.846  1.00  0.00     0.010 A 
ATOM     32  C   UNL A   1      36.576  31.929  28.563  1.00  0.00     0.010 A 
ATOM     33  C   UNL A   1      36.889  30.640  29.033  1.00  0.00    -0.014 A 
BRANCH  33  34
ATOM     34  C   UNL A   1      38.156  30.413  29.757  1.00  0.00     0.031 A 
ATOM     35  C   UNL A   1      39.200  29.536  29.137  1.00  0.00     0.074 A 
ATOM     36  C   UNL A   1      38.345  30.959  30.970  1.00  0.00     0.049 A 
ATOM     37  N   UNL A   1      40.251  28.988  29.685  1.00  0.00    -0.248 NA
ATOM     38  C   UNL A   1      39.027  29.226  27.708  1.00  0.00     0.031 C 
ATOM     39  C   UNL A   1      37.430  31.889  31.635  1.00  0.00     0.029 A 
ATOM     40  N   UNL A   1      39.363  30.787  31.873  1.00  0.00    -0.354 N 
ATOM     41  C   UNL A   1      40.838  28.227  28.684  1.00  0.00     0.074 A 
ATOM     42  C   UNL A   1      40.032  28.388  27.494  1.00  0.00     0.031 C 
ATOM     43  C   UNL A   1      37.919  32.191  32.847  1.00  0.00     0.029 A 
ATOM     44  C   UNL A   1      39.137  31.421  33.070  1.00  0.00     0.049 A 
ATOM     45  H   UNL A   1      40.173  30.261  31.682  1.00  0.00     0.167 HD
ATOM     46  C   UNL A   1      41.947  27.455  28.766  1.00  0.00     0.037 A 
ATOM     47  C   UNL A   1      39.808  31.338  34.234  1.00  0.00     0.037 A 
ATOM     48  C   UNL A   1      42.748  27.331  29.955  1.00  0.00     0.049 A 
ATOM     49  C   UNL A   1      41.001  30.429  34.320  1.00  0.00     0.074 A 
ATOM     50  C   UNL A   1      43.891  26.579  30.153  1.00  0.00     0.029 A 
ATOM     51  N   UNL A   1      42.487  27.992  31.148  1.00  0.00    -0.354 N 
ATOM     52  N   UNL A   1      41.526  29.669  33.390  1.00  0.00    -0.248 NA
ATOM     53  C   UNL A   1      41.683  30.351  35.619  1.00  0.00     0.031 C 
ATOM     54  C   UNL A   1      44.306  26.760  31.477  1.00  0.00     0.029 A 
ATOM     55  C   UNL A   1      43.442  27.655  32.091  1.00  0.00     0.049 A 
ATOM     56  H   UNL A   1      41.735  28.607  31.300  1.00  0.00     0.167 HD
ATOM     57  C   UNL A   1      42.615  29.043  33.981  1.00  0.00     0.074 A 
ATOM     58  C   UNL A   1      42.675  29.512  35.350  1.00  0.00     0.031 C 
ATOM     59  C   UNL A   1      43.488  28.159  33.439  1.00  0.00     0.037 A 
BRANCH  46  60
ATOM     60  C   UNL A   1      42.326  26.656  27.556  1.00  0.00     0.057 A 
ATOM     61  C   UNL A   1      43.139  27.179  26.545  1.00  0.00     0.134 A 
ATOM     62  C   UNL A   1      41.884  25.334  27.414  1.00  0.00     0.134 A 
ATOM     63  F   UNL A   1      43.581  28.443  26.612  1.00  0.00    -0.206 F 
ATOM     64  C   UNL A   1      43.485  26.420  25.423  1.00  0.00     0.040 A 
ATOM     65  C   UNL A   1      42.240  24.559  26.310  1.00  0.00     0.040 A 
ATOM     66  F   UNL A   1      41.101  24.773  28.348  1.00  0.00    -0.206 F 
ATOM     67  C   UNL A   1      43.039  25.105  25.308  1.00  0.00     0.006 A 
ENDBRANCH  46  60
BRANCH  47  68
ATOM     68  C   UNL A   1      39.334  32.101  35.415  1.00  0.00     0.057 A 
ATOM     69  C   UNL A   1      39.745  33.420  35.634  1.00  0.00     0.134 A 
ATOM     70  C   UNL A   1      38.449  31.537  36.343  1.00  0.00     0.134 A 
ATOM     71  F   UNL A   1      40.607  34.007  34.792  1.00  0.00    -0.206 F 
ATOM     72  C   UNL A   1      39.297  34.149  36.737  1.00  0.00     0.040 A 
ATOM     73  C   UNL A   1      37.975  32.262  37.436  1.00  0.00     0.040 A 
ATOM     74  F   UNL A   1      38.015  30.277  36.185  1.00  0.00    -0.206 F 
ATOM     75  C   UNL A   1      38.404  33.572  37.638  1.00  0.00     0.006 A 
ENDBRANCH  47  68
BRANCH  59  76
ATOM     76  C   UNL A   1      44.610  27.686  34.310  1.00  0.00     0.057 A 
ATOM     77  C   UNL A   1      45.810  28.396  34.416  1.00  0.00     0.134 A 
ATOM     78  C   UNL A   1      44.454  26.542  35.104  1.00  0.00     0.134 A 
ATOM     79  F   UNL A   1      46.021  29.491  33.670  1.00  0.00    -0.206 F 
ATOM     80  C   UNL A   1      46.825  27.979  35.279  1.00  0.00     0.040 A 
ATOM     81  C   UNL A   1      45.452  26.128  35.985  1.00  0.00     0.040 A 
ATOM     82  F   UNL A   1      43.322  25.826  35.051  1.00  0.00    -0.206 F 
ATOM     83  C   UNL A   1      46.643  26.848  36.074  1.00  0.00     0.006 A 
ENDBRANCH  59  76
ENDBRANCH  33  34
ENDBRANCH  26  28
ENDBRANCH  25  26
ENDBRANCH  24  25
ENDBRANCH   1  24
TORSDOF 14
ENDMDL
