MODEL 1
REMARK VINA RESULT:     -12.2      0.000      0.000
REMARK SMILES COc1ccc(CCc2nnc(NC(=O)[C@@H]3[C@@H](C(=O)OCCOC(=O)c4ccc(-c5c6nc(c(-c7c(F)cccc7F)c7ccc([nH]7)c(-c7c(F)cccc7F)c7nc(c(-c8c(F)cccc8F)c8ccc5[nH]8)C=C7)C=C6)cc4)C3(C)C)s2)cc1
REMARK SMILES IDX 18 1 19 2 17 3 16 4 80 5 81 6 82 7 14 8 13 9 15 11 12 12
REMARK SMILES IDX 9 13 10 14 83 15 11 16 8 17 7 18 6 19 3 20 4 21 85 22 5 23
REMARK SMILES IDX 84 24 2 25 1 26 20 27 21 28 22 29 23 30 24 31 25 32 26 33
REMARK SMILES IDX 27 34 79 35 28 36 78 37 29 38 30 39 31 40 72 41 32 42 77 43
REMARK SMILES IDX 71 44 73 45 33 46 76 47 70 48 69 49 34 51 60 52 43 53 59 54
REMARK SMILES IDX 44 55 47 56 58 57 74 58 45 59 46 60 57 62 75 63 48 64 35 65
REMARK SMILES IDX 36 66 41 67 37 68 38 69 40 70 42 71 39 72 61 73 62 74 67 75
REMARK SMILES IDX 63 76 64 77 66 78 68 79 65 80 49 81 50 82 55 83 51 84 52 85
REMARK SMILES IDX 54 86 56 87 53 88
REMARK H PARENT 13 10 73 50 47 61
REMARK Flexibility Score: inf
ROOT
ATOM      1  C   UNL A   1      31.729  30.058  26.280  1.00  0.00     0.310 C 
ATOM      2  O   UNL A   1      31.896  29.817  27.467  1.00  0.00    -0.252 OA
ENDROOT
BRANCH   1   3
ATOM      3  C   UNL A   1      31.794  28.974  25.274  1.00  0.00     0.118 C 
ATOM      4  C   UNL A   1      31.502  27.572  25.699  1.00  0.00     0.100 C 
ATOM      5  C   UNL A   1      32.891  27.925  25.154  1.00  0.00    -0.009 C 
ATOM      6  C   UNL A   1      34.054  27.917  26.112  1.00  0.00     0.013 C 
ATOM      7  C   UNL A   1      33.302  27.566  23.750  1.00  0.00     0.013 C 
BRANCH   4   8
ATOM      8  C   UNL A   1      30.605  26.534  25.114  1.00  0.00     0.230 C 
ATOM      9  N   UNL A   1      30.504  25.201  25.410  1.00  0.00    -0.300 N 
ATOM     10  H   UNL A   1      29.683  24.779  25.068  1.00  0.00     0.172 HD
ATOM     11  O   UNL A   1      29.760  26.952  24.316  1.00  0.00    -0.274 OA
BRANCH   9  12
ATOM     12  C   UNL A   1      31.321  24.352  26.083  1.00  0.00     0.212 A 
ATOM     13  C   UNL A   1      33.007  22.729  26.486  1.00  0.00     0.119 A 
ATOM     14  N   UNL A   1      32.202  22.894  27.513  1.00  0.00    -0.142 NA
ATOM     15  S   UNL A   1      32.711  23.852  25.210  1.00  0.00    -0.080 S 
ATOM     16  N   UNL A   1      31.233  23.842  27.280  1.00  0.00    -0.120 NA
BRANCH  13  17
ATOM     17  C   UNL A   1      34.026  21.634  26.382  1.00  0.00     0.074 C 
BRANCH  17  18
ATOM     18  C   UNL A   1      34.160  21.075  24.947  1.00  0.00     0.043 C 
BRANCH  18  19
ATOM     19  C   UNL A   1      33.934  19.581  24.804  1.00  0.00    -0.047 A 
ATOM     20  C   UNL A   1      33.543  16.801  24.529  1.00  0.00     0.118 A 
ATOM     21  C   UNL A   1      34.822  17.336  24.477  1.00  0.00     0.046 A 
ATOM     22  C   UNL A   1      32.451  17.648  24.710  1.00  0.00     0.046 A 
ATOM     23  C   UNL A   1      35.008  18.712  24.585  1.00  0.00     0.007 A 
ATOM     24  C   UNL A   1      32.647  19.032  24.844  1.00  0.00     0.007 A 
BRANCH  20  25
ATOM     25  O   UNL A   1      33.467  15.438  24.464  1.00  0.00    -0.497 OA
ATOM     26  C   UNL A   1      32.671  14.856  25.489  1.00  0.00     0.278 C 
ENDBRANCH  20  25
ENDBRANCH  18  19
ENDBRANCH  17  18
ENDBRANCH  13  17
ENDBRANCH   9  12
ENDBRANCH   4   8
ENDBRANCH   1   3
BRANCH   1  27
ATOM     27  O   UNL A   1      31.358  31.249  25.749  1.00  0.00    -0.462 OA
BRANCH  27  28
ATOM     28  C   UNL A   1      31.214  32.348  26.666  1.00  0.00     0.274 C 
BRANCH  28  29
ATOM     29  C   UNL A   1      32.593  32.914  27.003  1.00  0.00     0.275 C 
BRANCH  29  30
ATOM     30  O   UNL A   1      32.480  34.248  27.540  1.00  0.00    -0.458 OA
BRANCH  30  31
ATOM     31  C   UNL A   1      33.058  34.421  28.750  1.00  0.00     0.338 C 
ATOM     32  O   UNL A   1      32.651  35.098  29.680  1.00  0.00    -0.246 OA
BRANCH  31  33
ATOM     33  C   UNL A   1      34.275  33.606  28.851  1.00  0.00     0.060 A 
ATOM     34  C   UNL A   1      34.143  32.276  29.227  1.00  0.00     0.016 A 
ATOM     35  C   UNL A   1      35.537  34.194  28.784  1.00  0.00     0.016 A 
ATOM     36  C   UNL A   1      35.256  31.566  29.662  1.00  0.00     0.010 A 
ATOM     37  C   UNL A   1      36.666  33.448  29.154  1.00  0.00     0.010 A 
ATOM     38  C   UNL A   1      36.531  32.145  29.666  1.00  0.00    -0.014 A 
BRANCH  38  39
ATOM     39  C   UNL A   1      37.669  31.420  30.309  1.00  0.00     0.031 A 
ATOM     40  C   UNL A   1      37.959  31.610  31.780  1.00  0.00     0.074 A 
ATOM     41  C   UNL A   1      38.401  30.526  29.614  1.00  0.00     0.049 A 
ATOM     42  N   UNL A   1      38.955  31.151  32.498  1.00  0.00    -0.248 NA
ATOM     43  C   UNL A   1      37.004  32.425  32.548  1.00  0.00     0.031 C 
ATOM     44  C   UNL A   1      38.199  30.174  28.208  1.00  0.00     0.029 A 
ATOM     45  N   UNL A   1      39.455  29.732  30.003  1.00  0.00    -0.354 N 
ATOM     46  C   UNL A   1      38.781  31.670  33.775  1.00  0.00     0.074 A 
ATOM     47  C   UNL A   1      37.580  32.478  33.740  1.00  0.00     0.031 C 
ATOM     48  C   UNL A   1      39.064  29.208  27.864  1.00  0.00     0.029 A 
ATOM     49  C   UNL A   1      39.945  28.935  28.995  1.00  0.00     0.049 A 
ATOM     50  H   UNL A   1      39.823  29.734  30.915  1.00  0.00     0.167 HD
ATOM     51  C   UNL A   1      39.548  31.492  34.879  1.00  0.00     0.037 A 
ATOM     52  C   UNL A   1      41.005  28.105  28.963  1.00  0.00     0.037 A 
ATOM     53  C   UNL A   1      40.714  30.650  34.935  1.00  0.00     0.049 A 
ATOM     54  C   UNL A   1      41.864  27.958  30.187  1.00  0.00     0.074 A 
ATOM     55  C   UNL A   1      41.552  30.407  36.012  1.00  0.00     0.029 A 
ATOM     56  N   UNL A   1      41.203  29.902  33.875  1.00  0.00    -0.354 N 
ATOM     57  N   UNL A   1      41.718  28.499  31.371  1.00  0.00    -0.248 NA
ATOM     58  C   UNL A   1      43.048  27.095  30.063  1.00  0.00     0.031 C 
ATOM     59  C   UNL A   1      42.566  29.539  35.593  1.00  0.00     0.029 A 
ATOM     60  C   UNL A   1      42.334  29.205  34.271  1.00  0.00     0.049 A 
ATOM     61  H   UNL A   1      40.805  29.871  32.975  1.00  0.00     0.167 HD
ATOM     62  C   UNL A   1      42.778  28.031  32.136  1.00  0.00     0.074 A 
ATOM     63  C   UNL A   1      43.547  27.145  31.289  1.00  0.00     0.031 C 
ATOM     64  C   UNL A   1      43.087  28.316  33.424  1.00  0.00     0.037 A 
BRANCH  51  65
ATOM     65  C   UNL A   1      39.173  32.257  36.116  1.00  0.00     0.057 A 
ATOM     66  C   UNL A   1      39.669  33.539  36.384  1.00  0.00     0.134 A 
ATOM     67  C   UNL A   1      38.264  31.711  37.034  1.00  0.00     0.134 A 
ATOM     68  F   UNL A   1      40.554  34.113  35.555  1.00  0.00    -0.206 F 
ATOM     69  C   UNL A   1      39.290  34.242  37.531  1.00  0.00     0.040 A 
ATOM     70  C   UNL A   1      37.858  32.415  38.169  1.00  0.00     0.040 A 
ATOM     71  F   UNL A   1      37.745  30.491  36.833  1.00  0.00    -0.206 F 
ATOM     72  C   UNL A   1      38.376  33.683  38.423  1.00  0.00     0.006 A 
ENDBRANCH  51  65
BRANCH  52  73
ATOM     73  C   UNL A   1      41.344  27.381  27.711  1.00  0.00     0.057 A 
ATOM     74  C   UNL A   1      42.212  27.934  26.763  1.00  0.00     0.134 A 
ATOM     75  C   UNL A   1      40.797  26.123  27.428  1.00  0.00     0.134 A 
ATOM     76  F   UNL A   1      42.746  29.148  26.963  1.00  0.00    -0.206 F 
ATOM     77  C   UNL A   1      42.514  27.269  25.573  1.00  0.00     0.040 A 
ATOM     78  C   UNL A   1      41.113  25.433  26.257  1.00  0.00     0.040 A 
ATOM     79  F   UNL A   1      39.956  25.539  28.294  1.00  0.00    -0.206 F 
ATOM     80  C   UNL A   1      41.970  26.011  25.322  1.00  0.00     0.006 A 
ENDBRANCH  52  73
BRANCH  64  81
ATOM     81  C   UNL A   1      44.285  27.626  34.009  1.00  0.00     0.057 A 
ATOM     82  C   UNL A   1      45.564  28.192  33.959  1.00  0.00     0.134 A 
ATOM     83  C   UNL A   1      44.151  26.386  34.646  1.00  0.00     0.134 A 
ATOM     84  F   UNL A   1      45.763  29.371  33.350  1.00  0.00    -0.206 F 
ATOM     85  C   UNL A   1      46.673  27.537  34.498  1.00  0.00     0.040 A 
ATOM     86  C   UNL A   1      45.246  25.733  35.212  1.00  0.00     0.040 A 
ATOM     87  F   UNL A   1      42.950  25.792  34.735  1.00  0.00    -0.206 F 
ATOM     88  C   UNL A   1      46.514  26.306  35.131  1.00  0.00     0.006 A 
ENDBRANCH  64  81
ENDBRANCH  38  39
ENDBRANCH  31  33
ENDBRANCH  30  31
ENDBRANCH  29  30
ENDBRANCH  28  29
ENDBRANCH  27  28
ENDBRANCH   1  27
TORSDOF 17
ENDMDL
MODEL 2
REMARK VINA RESULT:     -11.9      4.444      7.895
REMARK SMILES COc1ccc(CCc2nnc(NC(=O)[C@@H]3[C@@H](C(=O)OCCOC(=O)c4ccc(-c5c6nc(c(-c7c(F)cccc7F)c7ccc([nH]7)c(-c7c(F)cccc7F)c7nc(c(-c8c(F)cccc8F)c8ccc5[nH]8)C=C7)C=C6)cc4)C3(C)C)s2)cc1
REMARK SMILES IDX 18 1 19 2 17 3 16 4 80 5 81 6 82 7 14 8 13 9 15 11 12 12
REMARK SMILES IDX 9 13 10 14 83 15 11 16 8 17 7 18 6 19 3 20 4 21 85 22 5 23
REMARK SMILES IDX 84 24 2 25 1 26 20 27 21 28 22 29 23 30 24 31 25 32 26 33
REMARK SMILES IDX 27 34 79 35 28 36 78 37 29 38 30 39 31 40 72 41 32 42 77 43
REMARK SMILES IDX 71 44 73 45 33 46 76 47 70 48 69 49 34 51 60 52 43 53 59 54
REMARK SMILES IDX 44 55 47 56 58 57 74 58 45 59 46 60 57 62 75 63 48 64 35 65
REMARK SMILES IDX 36 66 41 67 37 68 38 69 40 70 42 71 39 72 61 73 62 74 67 75
REMARK SMILES IDX 63 76 64 77 66 78 68 79 65 80 49 81 50 82 55 83 51 84 52 85
REMARK SMILES IDX 54 86 56 87 53 88
REMARK H PARENT 13 10 73 50 47 61
REMARK Flexibility Score: inf
ROOT
ATOM      1  C   UNL A   1      34.502  29.877  27.077  1.00  0.00     0.310 C 
ATOM      2  O   UNL A   1      35.275  28.956  27.302  1.00  0.00    -0.252 OA
ENDROOT
BRANCH   1   3
ATOM      3  C   UNL A   1      33.094  29.606  26.703  1.00  0.00     0.118 C 
ATOM      4  C   UNL A   1      32.654  28.191  26.515  1.00  0.00     0.100 C 
ATOM      5  C   UNL A   1      32.598  29.166  25.333  1.00  0.00    -0.009 C 
ATOM      6  C   UNL A   1      33.565  28.961  24.196  1.00  0.00     0.013 C 
ATOM      7  C   UNL A   1      31.300  29.781  24.880  1.00  0.00     0.013 C 
BRANCH   4   8
ATOM      8  C   UNL A   1      31.479  27.447  27.053  1.00  0.00     0.230 C 
ATOM      9  N   UNL A   1      30.874  26.313  26.581  1.00  0.00    -0.300 N 
ATOM     10  H   UNL A   1      30.276  25.881  27.232  1.00  0.00     0.172 HD
ATOM     11  O   UNL A   1      31.043  27.854  28.135  1.00  0.00    -0.274 OA
BRANCH   9  12
ATOM     12  C   UNL A   1      30.943  25.672  25.387  1.00  0.00     0.212 A 
ATOM     13  C   UNL A   1      31.358  23.958  23.796  1.00  0.00     0.119 A 
ATOM     14  N   UNL A   1      31.184  25.139  23.241  1.00  0.00    -0.142 NA
ATOM     15  S   UNL A   1      31.070  23.964  25.496  1.00  0.00    -0.080 S 
ATOM     16  N   UNL A   1      30.934  26.127  24.165  1.00  0.00    -0.120 NA
BRANCH  13  17
ATOM     17  C   UNL A   1      31.835  22.743  23.058  1.00  0.00     0.074 C 
BRANCH  17  18
ATOM     18  C   UNL A   1      32.344  21.631  24.003  1.00  0.00     0.043 C 
BRANCH  18  19
ATOM     19  C   UNL A   1      33.843  21.609  24.237  1.00  0.00    -0.047 A 
ATOM     20  C   UNL A   1      36.633  21.590  24.656  1.00  0.00     0.118 A 
ATOM     21  C   UNL A   1      36.030  22.660  24.012  1.00  0.00     0.046 A 
ATOM     22  C   UNL A   1      35.853  20.519  25.088  1.00  0.00     0.046 A 
ATOM     23  C   UNL A   1      34.656  22.652  23.782  1.00  0.00     0.007 A 
ATOM     24  C   UNL A   1      34.464  20.529  24.878  1.00  0.00     0.007 A 
BRANCH  20  25
ATOM     25  O   UNL A   1      37.976  21.712  24.879  1.00  0.00    -0.497 OA
ATOM     26  C   UNL A   1      38.307  22.632  25.911  1.00  0.00     0.278 C 
ENDBRANCH  20  25
ENDBRANCH  18  19
ENDBRANCH  17  18
ENDBRANCH  13  17
ENDBRANCH   9  12
ENDBRANCH   4   8
ENDBRANCH   1   3
BRANCH   1  27
ATOM     27  O   UNL A   1      34.758  31.197  27.246  1.00  0.00    -0.462 OA
BRANCH  27  28
ATOM     28  C   UNL A   1      33.979  31.883  28.242  1.00  0.00     0.274 C 
BRANCH  28  29
ATOM     29  C   UNL A   1      34.895  32.348  29.373  1.00  0.00     0.275 C 
BRANCH  29  30
ATOM     30  O   UNL A   1      35.491  31.219  30.045  1.00  0.00    -0.458 OA
BRANCH  30  31
ATOM     31  C   UNL A   1      36.661  31.485  30.669  1.00  0.00     0.338 C 
ATOM     32  O   UNL A   1      36.862  32.289  31.563  1.00  0.00    -0.246 OA
BRANCH  31  33
ATOM     33  C   UNL A   1      37.716  30.599  30.162  1.00  0.00     0.060 A 
ATOM     34  C   UNL A   1      38.573  30.009  31.081  1.00  0.00     0.016 A 
ATOM     35  C   UNL A   1      37.990  30.523  28.797  1.00  0.00     0.016 A 
ATOM     36  C   UNL A   1      39.771  29.451  30.651  1.00  0.00     0.010 A 
ATOM     37  C   UNL A   1      39.167  29.892  28.365  1.00  0.00     0.010 A 
ATOM     38  C   UNL A   1      40.108  29.411  29.293  1.00  0.00    -0.014 A 
BRANCH  38  39
ATOM     39  C   UNL A   1      41.477  28.973  28.884  1.00  0.00     0.031 A 
ATOM     40  C   UNL A   1      41.713  27.559  28.404  1.00  0.00     0.074 A 
ATOM     41  C   UNL A   1      42.504  29.848  28.856  1.00  0.00     0.049 A 
ATOM     42  N   UNL A   1      42.839  26.961  28.100  1.00  0.00    -0.248 NA
ATOM     43  C   UNL A   1      40.526  26.704  28.244  1.00  0.00     0.031 C 
ATOM     44  C   UNL A   1      42.423  31.264  29.217  1.00  0.00     0.029 A 
ATOM     45  N   UNL A   1      43.818  29.678  28.488  1.00  0.00    -0.354 N 
ATOM     46  C   UNL A   1      42.504  25.651  27.778  1.00  0.00     0.074 A 
ATOM     47  C   UNL A   1      41.068  25.539  27.918  1.00  0.00     0.031 C 
ATOM     48  C   UNL A   1      43.615  31.842  29.011  1.00  0.00     0.029 A 
ATOM     49  C   UNL A   1      44.572  30.823  28.592  1.00  0.00     0.049 A 
ATOM     50  H   UNL A   1      44.185  28.818  28.180  1.00  0.00     0.167 HD
ATOM     51  C   UNL A   1      43.316  24.633  27.400  1.00  0.00     0.037 A 
ATOM     52  C   UNL A   1      45.890  31.031  28.413  1.00  0.00     0.037 A 
ATOM     53  C   UNL A   1      44.738  24.751  27.209  1.00  0.00     0.049 A 
ATOM     54  C   UNL A   1      46.775  29.877  28.035  1.00  0.00     0.074 A 
ATOM     55  C   UNL A   1      45.640  23.772  26.824  1.00  0.00     0.029 A 
ATOM     56  N   UNL A   1      45.465  25.918  27.377  1.00  0.00    -0.354 N 
ATOM     57  N   UNL A   1      46.450  28.633  27.788  1.00  0.00    -0.248 NA
ATOM     58  C   UNL A   1      48.214  30.156  27.927  1.00  0.00     0.031 C 
ATOM     59  C   UNL A   1      46.918  24.340  26.792  1.00  0.00     0.029 A 
ATOM     60  C   UNL A   1      46.805  25.683  27.110  1.00  0.00     0.049 A 
ATOM     61  H   UNL A   1      45.086  26.787  27.645  1.00  0.00     0.167 HD
ATOM     62  C   UNL A   1      47.640  27.984  27.479  1.00  0.00     0.074 A 
ATOM     63  C   UNL A   1      48.689  28.979  27.549  1.00  0.00     0.031 C 
ATOM     64  C   UNL A   1      47.841  26.681  27.171  1.00  0.00     0.037 A 
BRANCH  51  65
ATOM     65  C   UNL A   1      42.688  23.283  27.202  1.00  0.00     0.057 A 
ATOM     66  C   UNL A   1      42.455  22.744  25.931  1.00  0.00     0.134 A 
ATOM     67  C   UNL A   1      42.350  22.493  28.311  1.00  0.00     0.134 A 
ATOM     68  F   UNL A   1      42.740  23.453  24.828  1.00  0.00    -0.206 F 
ATOM     69  C   UNL A   1      41.890  21.476  25.770  1.00  0.00     0.040 A 
ATOM     70  C   UNL A   1      41.809  21.215  28.162  1.00  0.00     0.040 A 
ATOM     71  F   UNL A   1      42.554  22.947  29.557  1.00  0.00    -0.206 F 
ATOM     72  C   UNL A   1      41.573  20.705  26.888  1.00  0.00     0.006 A 
ENDBRANCH  51  65
BRANCH  52  73
ATOM     73  C   UNL A   1      46.466  32.383  28.634  1.00  0.00     0.057 A 
ATOM     74  C   UNL A   1      46.918  32.783  29.896  1.00  0.00     0.134 A 
ATOM     75  C   UNL A   1      46.564  33.312  27.590  1.00  0.00     0.134 A 
ATOM     76  F   UNL A   1      46.825  31.950  30.943  1.00  0.00    -0.206 F 
ATOM     77  C   UNL A   1      47.436  34.061  30.115  1.00  0.00     0.040 A 
ATOM     78  C   UNL A   1      47.107  34.581  27.787  1.00  0.00     0.040 A 
ATOM     79  F   UNL A   1      46.145  32.991  26.357  1.00  0.00    -0.206 F 
ATOM     80  C   UNL A   1      47.539  34.961  29.056  1.00  0.00     0.006 A 
ENDBRANCH  52  73
BRANCH  64  81
ATOM     81  C   UNL A   1      49.246  26.265  26.842  1.00  0.00     0.057 A 
ATOM     82  C   UNL A   1      49.757  26.346  25.541  1.00  0.00     0.134 A 
ATOM     83  C   UNL A   1      50.102  25.793  27.845  1.00  0.00     0.134 A 
ATOM     84  F   UNL A   1      48.984  26.775  24.532  1.00  0.00    -0.206 F 
ATOM     85  C   UNL A   1      51.062  25.948  25.245  1.00  0.00     0.040 A 
ATOM     86  C   UNL A   1      51.416  25.416  27.567  1.00  0.00     0.040 A 
ATOM     87  F   UNL A   1      49.676  25.698  29.115  1.00  0.00    -0.206 F 
ATOM     88  C   UNL A   1      51.896  25.486  26.261  1.00  0.00     0.006 A 
ENDBRANCH  64  81
ENDBRANCH  38  39
ENDBRANCH  31  33
ENDBRANCH  30  31
ENDBRANCH  29  30
ENDBRANCH  28  29
ENDBRANCH  27  28
ENDBRANCH   1  27
TORSDOF 17
ENDMDL
MODEL 3
REMARK VINA RESULT:     -11.8      2.194      2.840
REMARK SMILES COc1ccc(CCc2nnc(NC(=O)[C@@H]3[C@@H](C(=O)OCCOC(=O)c4ccc(-c5c6nc(c(-c7c(F)cccc7F)c7ccc([nH]7)c(-c7c(F)cccc7F)c7nc(c(-c8c(F)cccc8F)c8ccc5[nH]8)C=C7)C=C6)cc4)C3(C)C)s2)cc1
REMARK SMILES IDX 18 1 19 2 17 3 16 4 80 5 81 6 82 7 14 8 13 9 15 11 12 12
REMARK SMILES IDX 9 13 10 14 83 15 11 16 8 17 7 18 6 19 3 20 4 21 85 22 5 23
REMARK SMILES IDX 84 24 2 25 1 26 20 27 21 28 22 29 23 30 24 31 25 32 26 33
REMARK SMILES IDX 27 34 79 35 28 36 78 37 29 38 30 39 31 40 72 41 32 42 77 43
REMARK SMILES IDX 71 44 73 45 33 46 76 47 70 48 69 49 34 51 60 52 43 53 59 54
REMARK SMILES IDX 44 55 47 56 58 57 74 58 45 59 46 60 57 62 75 63 48 64 35 65
REMARK SMILES IDX 36 66 41 67 37 68 38 69 40 70 42 71 39 72 61 73 62 74 67 75
REMARK SMILES IDX 63 76 64 77 66 78 68 79 65 80 49 81 50 82 55 83 51 84 52 85
REMARK SMILES IDX 54 86 56 87 53 88
REMARK H PARENT 13 10 73 50 47 61
REMARK Flexibility Score: inf
ROOT
ATOM      1  C   UNL A   1      31.721  29.766  25.731  1.00  0.00     0.310 C 
ATOM      2  O   UNL A   1      31.490  28.975  26.635  1.00  0.00    -0.252 OA
ENDROOT
BRANCH   1   3
ATOM      3  C   UNL A   1      32.179  29.286  24.407  1.00  0.00     0.118 C 
ATOM      4  C   UNL A   1      31.776  27.921  23.952  1.00  0.00     0.100 C 
ATOM      5  C   UNL A   1      33.261  28.245  24.155  1.00  0.00    -0.009 C 
ATOM      6  C   UNL A   1      33.981  27.592  25.306  1.00  0.00     0.013 C 
ATOM      7  C   UNL A   1      34.174  28.521  22.990  1.00  0.00     0.013 C 
BRANCH   4   8
ATOM      8  C   UNL A   1      31.184  27.449  22.668  1.00  0.00     0.230 C 
ATOM      9  N   UNL A   1      31.287  26.228  22.057  1.00  0.00    -0.300 N 
ATOM     10  H   UNL A   1      30.619  26.079  21.349  1.00  0.00     0.172 HD
ATOM     11  O   UNL A   1      30.406  28.237  22.120  1.00  0.00    -0.274 OA
BRANCH   9  12
ATOM     12  C   UNL A   1      32.136  25.185  22.240  1.00  0.00     0.212 A 
ATOM     13  C   UNL A   1      33.033  23.166  23.112  1.00  0.00     0.119 A 
ATOM     14  N   UNL A   1      33.919  23.871  22.442  1.00  0.00    -0.142 NA
ATOM     15  S   UNL A   1      31.441  23.825  23.025  1.00  0.00    -0.080 S 
ATOM     16  N   UNL A   1      33.393  25.035  21.929  1.00  0.00    -0.120 NA
BRANCH  13  17
ATOM     17  C   UNL A   1      33.367  21.961  23.939  1.00  0.00     0.074 C 
BRANCH  17  18
ATOM     18  C   UNL A   1      32.170  20.996  24.101  1.00  0.00     0.043 C 
BRANCH  18  19
ATOM     19  C   UNL A   1      32.524  19.523  24.178  1.00  0.00    -0.047 A 
ATOM     20  C   UNL A   1      33.190  16.786  24.348  1.00  0.00     0.118 A 
ATOM     21  C   UNL A   1      33.142  17.567  25.494  1.00  0.00     0.046 A 
ATOM     22  C   UNL A   1      32.915  17.365  23.110  1.00  0.00     0.046 A 
ATOM     23  C   UNL A   1      32.840  18.924  25.402  1.00  0.00     0.007 A 
ATOM     24  C   UNL A   1      32.586  18.727  23.026  1.00  0.00     0.007 A 
BRANCH  20  25
ATOM     25  O   UNL A   1      33.445  15.459  24.546  1.00  0.00    -0.497 OA
ATOM     26  C   UNL A   1      32.662  14.868  25.576  1.00  0.00     0.278 C 
ENDBRANCH  20  25
ENDBRANCH  18  19
ENDBRANCH  17  18
ENDBRANCH  13  17
ENDBRANCH   9  12
ENDBRANCH   4   8
ENDBRANCH   1   3
BRANCH   1  27
ATOM     27  O   UNL A   1      31.488  31.101  25.757  1.00  0.00    -0.462 OA
BRANCH  27  28
ATOM     28  C   UNL A   1      31.594  31.751  27.035  1.00  0.00     0.274 C 
BRANCH  28  29
ATOM     29  C   UNL A   1      33.063  32.046  27.336  1.00  0.00     0.275 C 
BRANCH  29  30
ATOM     30  O   UNL A   1      33.344  33.452  27.175  1.00  0.00    -0.458 OA
BRANCH  30  31
ATOM     31  C   UNL A   1      33.358  34.161  28.327  1.00  0.00     0.338 C 
ATOM     32  O   UNL A   1      32.484  34.893  28.761  1.00  0.00    -0.246 OA
BRANCH  31  33
ATOM     33  C   UNL A   1      34.592  33.890  29.073  1.00  0.00     0.060 A 
ATOM     34  C   UNL A   1      35.796  34.304  28.520  1.00  0.00     0.016 A 
ATOM     35  C   UNL A   1      34.582  33.055  30.191  1.00  0.00     0.016 A 
ATOM     36  C   UNL A   1      36.993  33.786  29.001  1.00  0.00     0.010 A 
ATOM     37  C   UNL A   1      35.799  32.594  30.717  1.00  0.00     0.010 A 
ATOM     38  C   UNL A   1      37.017  32.897  30.083  1.00  0.00    -0.014 A 
BRANCH  38  39
ATOM     39  C   UNL A   1      38.297  32.220  30.454  1.00  0.00     0.031 A 
ATOM     40  C   UNL A   1      39.186  32.807  31.526  1.00  0.00     0.074 A 
ATOM     41  C   UNL A   1      38.639  31.037  29.902  1.00  0.00     0.049 A 
ATOM     42  N   UNL A   1      40.377  32.426  31.919  1.00  0.00    -0.248 NA
ATOM     43  C   UNL A   1      38.670  33.978  32.252  1.00  0.00     0.031 C 
ATOM     44  C   UNL A   1      37.853  30.304  28.910  1.00  0.00     0.029 A 
ATOM     45  N   UNL A   1      39.733  30.231  30.115  1.00  0.00    -0.354 N 
ATOM     46  C   UNL A   1      40.775  33.342  32.886  1.00  0.00     0.074 A 
ATOM     47  C   UNL A   1      39.697  34.298  33.026  1.00  0.00     0.031 C 
ATOM     48  C   UNL A   1      38.461  29.142  28.633  1.00  0.00     0.029 A 
ATOM     49  C   UNL A   1      39.727  29.084  29.356  1.00  0.00     0.049 A 
ATOM     50  H   UNL A   1      40.452  30.453  30.749  1.00  0.00     0.167 HD
ATOM     51  C   UNL A   1      41.930  33.385  33.594  1.00  0.00     0.037 A 
ATOM     52  C   UNL A   1      40.648  28.112  29.220  1.00  0.00     0.037 A 
ATOM     53  C   UNL A   1      42.984  32.409  33.498  1.00  0.00     0.049 A 
ATOM     54  C   UNL A   1      41.939  28.205  29.985  1.00  0.00     0.074 A 
ATOM     55  C   UNL A   1      44.190  32.371  34.180  1.00  0.00     0.029 A 
ATOM     56  N   UNL A   1      42.956  31.293  32.678  1.00  0.00    -0.354 N 
ATOM     57  N   UNL A   1      42.322  29.107  30.854  1.00  0.00    -0.248 NA
ATOM     58  C   UNL A   1      42.932  27.150  29.735  1.00  0.00     0.031 C 
ATOM     59  C   UNL A   1      44.905  31.250  33.747  1.00  0.00     0.029 A 
ATOM     60  C   UNL A   1      44.126  30.564  32.831  1.00  0.00     0.049 A 
ATOM     61  H   UNL A   1      42.215  31.052  32.076  1.00  0.00     0.167 HD
ATOM     62  C   UNL A   1      43.591  28.721  31.267  1.00  0.00     0.074 A 
ATOM     63  C   UNL A   1      43.903  27.491  30.569  1.00  0.00     0.031 C 
ATOM     64  C   UNL A   1      44.423  29.336  32.142  1.00  0.00     0.037 A 
BRANCH  51  65
ATOM     65  C   UNL A   1      42.135  34.554  34.516  1.00  0.00     0.057 A 
ATOM     66  C   UNL A   1      41.823  34.496  35.880  1.00  0.00     0.134 A 
ATOM     67  C   UNL A   1      42.695  35.745  34.031  1.00  0.00     0.134 A 
ATOM     68  F   UNL A   1      41.270  33.393  36.406  1.00  0.00    -0.206 F 
ATOM     69  C   UNL A   1      42.042  35.588  36.723  1.00  0.00     0.040 A 
ATOM     70  C   UNL A   1      42.942  36.832  34.869  1.00  0.00     0.040 A 
ATOM     71  F   UNL A   1      43.024  35.863  32.736  1.00  0.00    -0.206 F 
ATOM     72  C   UNL A   1      42.611  36.758  36.220  1.00  0.00     0.006 A 
ENDBRANCH  51  65
BRANCH  52  73
ATOM     73  C   UNL A   1      40.405  26.983  28.285  1.00  0.00     0.057 A 
ATOM     74  C   UNL A   1      40.961  26.969  27.002  1.00  0.00     0.134 A 
ATOM     75  C   UNL A   1      39.598  25.897  28.650  1.00  0.00     0.134 A 
ATOM     76  F   UNL A   1      41.719  27.993  26.583  1.00  0.00    -0.206 F 
ATOM     77  C   UNL A   1      40.714  25.923  26.110  1.00  0.00     0.040 A 
ATOM     78  C   UNL A   1      39.368  24.831  27.781  1.00  0.00     0.040 A 
ATOM     79  F   UNL A   1      39.033  25.852  29.866  1.00  0.00    -0.206 F 
ATOM     80  C   UNL A   1      39.922  24.846  26.502  1.00  0.00     0.006 A 
ENDBRANCH  52  73
BRANCH  64  81
ATOM     81  C   UNL A   1      45.733  28.662  32.428  1.00  0.00     0.057 A 
ATOM     82  C   UNL A   1      45.882  27.745  33.476  1.00  0.00     0.134 A 
ATOM     83  C   UNL A   1      46.856  28.923  31.633  1.00  0.00     0.134 A 
ATOM     84  F   UNL A   1      44.849  27.462  34.284  1.00  0.00    -0.206 F 
ATOM     85  C   UNL A   1      47.108  27.131  33.739  1.00  0.00     0.040 A 
ATOM     86  C   UNL A   1      48.080  28.296  31.869  1.00  0.00     0.040 A 
ATOM     87  F   UNL A   1      46.779  29.786  30.608  1.00  0.00    -0.206 F 
ATOM     88  C   UNL A   1      48.210  27.403  32.931  1.00  0.00     0.006 A 
ENDBRANCH  64  81
ENDBRANCH  38  39
ENDBRANCH  31  33
ENDBRANCH  30  31
ENDBRANCH  29  30
ENDBRANCH  28  29
ENDBRANCH  27  28
ENDBRANCH   1  27
TORSDOF 17
ENDMDL
