MODEL 1
REMARK VINA RESULT:     -11.3      0.000      0.000
REMARK SMILES CC(=O)N/N=C/c1ccc(O[C@H](C)C(=O)OCCOC(=O)c2ccc(-c3c4nc(c(-c5c(F)cccc5F)c5ccc([nH]5)c(-c5c(F)cccc5F)c5nc(c(-c6c(F)cccc6F)c6ccc3[nH]6)C=C5)C=C4)cc2)cc1
REMARK SMILES IDX 17 1 16 2 14 3 15 4 12 5 13 6 11 7 10 8 7 9 8 10 77 11 9 12
REMARK SMILES IDX 76 13 6 14 5 15 4 16 1 17 2 18 3 19 18 21 19 22 20 23 21 24
REMARK SMILES IDX 22 25 23 26 75 27 24 28 74 29 25 30 26 31 27 32 68 33 28 34
REMARK SMILES IDX 73 35 67 36 69 37 29 38 72 39 66 40 65 41 30 43 56 44 39 45
REMARK SMILES IDX 55 46 40 47 43 48 54 49 70 50 41 51 42 52 53 54 71 55 44 56
REMARK SMILES IDX 31 57 32 58 37 59 33 60 34 61 36 62 38 63 35 64 57 65 58 66
REMARK SMILES IDX 63 67 59 68 60 69 62 70 64 71 61 72 45 73 46 74 51 75 47 76
REMARK SMILES IDX 48 77 50 78 52 79 49 80
REMARK H PARENT 4 20 69 42 43 53
REMARK Flexibility Score: inf
ROOT
ATOM      1  C   UNL A   1      45.095  21.286  24.599  1.00  0.00     0.274 C 
ENDROOT
BRANCH   1   2
ATOM      2  O   UNL A   1      44.115  20.296  24.218  1.00  0.00    -0.459 OA
BRANCH   2   3
ATOM      3  C   UNL A   1      44.099  19.179  24.991  1.00  0.00     0.347 C 
ATOM      4  O   UNL A   1      44.982  18.324  24.968  1.00  0.00    -0.248 OA
BRANCH   3   5
ATOM      5  C   UNL A   1      42.838  19.030  25.876  1.00  0.00     0.279 C 
ATOM      6  C   UNL A   1      43.079  17.958  26.941  1.00  0.00     0.066 C 
BRANCH   5   7
ATOM      7  O   UNL A   1      42.275  20.153  26.553  1.00  0.00    -0.479 OA
BRANCH   7   8
ATOM      8  C   UNL A   1      40.956  20.444  26.366  1.00  0.00     0.120 A 
ATOM      9  C   UNL A   1      38.466  21.427  25.637  1.00  0.00    -0.005 A 
ATOM     10  C   UNL A   1      38.786  20.097  25.378  1.00  0.00     0.013 A 
ATOM     11  C   UNL A   1      39.319  22.233  26.387  1.00  0.00     0.013 A 
ATOM     12  C   UNL A   1      40.007  19.591  25.812  1.00  0.00     0.047 A 
ATOM     13  C   UNL A   1      40.577  21.738  26.735  1.00  0.00     0.047 A 
BRANCH   9  14
ATOM     14  C   UNL A   1      37.257  21.965  25.010  1.00  0.00     0.141 C 
ATOM     15  N   UNL A   1      36.081  21.820  25.523  1.00  0.00    -0.181 NA
BRANCH  15  16
ATOM     16  N   UNL A   1      35.021  22.326  24.826  1.00  0.00    -0.247 N 
ATOM     17  C   UNL A   1      33.577  20.288  24.775  1.00  0.00     0.116 C 
ATOM     18  C   UNL A   1      33.854  21.725  24.419  1.00  0.00     0.236 C 
ATOM     19  O   UNL A   1      33.034  22.372  23.764  1.00  0.00    -0.274 OA
ATOM     20  H   UNL A   1      35.107  23.274  24.574  1.00  0.00     0.193 HD
ENDBRANCH  15  16
ENDBRANCH   9  14
ENDBRANCH   7   8
ENDBRANCH   5   7
ENDBRANCH   3   5
ENDBRANCH   2   3
ENDBRANCH   1   2
BRANCH   1  21
ATOM     21  C   UNL A   1      44.902  22.657  23.931  1.00  0.00     0.275 C 
BRANCH  21  22
ATOM     22  O   UNL A   1      44.024  23.526  24.674  1.00  0.00    -0.458 OA
BRANCH  22  23
ATOM     23  C   UNL A   1      44.592  24.688  25.079  1.00  0.00     0.338 C 
ATOM     24  O   UNL A   1      45.608  25.194  24.627  1.00  0.00    -0.246 OA
BRANCH  23  25
ATOM     25  C   UNL A   1      43.716  25.409  26.026  1.00  0.00     0.060 A 
ATOM     26  C   UNL A   1      44.034  26.749  26.282  1.00  0.00     0.016 A 
ATOM     27  C   UNL A   1      42.659  24.798  26.704  1.00  0.00     0.016 A 
ATOM     28  C   UNL A   1      43.322  27.478  27.225  1.00  0.00     0.010 A 
ATOM     29  C   UNL A   1      41.955  25.526  27.674  1.00  0.00     0.010 A 
ATOM     30  C   UNL A   1      42.304  26.860  27.956  1.00  0.00    -0.014 A 
BRANCH  30  31
ATOM     31  C   UNL A   1      41.749  27.589  29.120  1.00  0.00     0.031 A 
ATOM     32  C   UNL A   1      42.452  27.489  30.442  1.00  0.00     0.074 A 
ATOM     33  C   UNL A   1      40.699  28.415  28.974  1.00  0.00     0.049 A 
ATOM     34  N   UNL A   1      42.187  28.090  31.574  1.00  0.00    -0.248 NA
ATOM     35  C   UNL A   1      43.618  26.593  30.493  1.00  0.00     0.031 C 
ATOM     36  C   UNL A   1      39.964  28.636  27.731  1.00  0.00     0.029 A 
ATOM     37  N   UNL A   1      40.077  29.231  29.885  1.00  0.00    -0.354 N 
ATOM     38  C   UNL A   1      43.143  27.639  32.473  1.00  0.00     0.074 A 
ATOM     39  C   UNL A   1      43.980  26.694  31.763  1.00  0.00     0.031 C 
ATOM     40  C   UNL A   1      38.984  29.527  27.957  1.00  0.00     0.029 A 
ATOM     41  C   UNL A   1      39.013  29.924  29.365  1.00  0.00     0.049 A 
ATOM     42  H   UNL A   1      40.367  29.312  30.822  1.00  0.00     0.167 HD
ATOM     43  C   UNL A   1      43.314  27.983  33.771  1.00  0.00     0.037 A 
ATOM     44  C   UNL A   1      38.153  30.771  29.959  1.00  0.00     0.037 A 
ATOM     45  C   UNL A   1      42.484  28.923  34.477  1.00  0.00     0.049 A 
ATOM     46  C   UNL A   1      38.340  31.116  31.412  1.00  0.00     0.074 A 
ATOM     47  C   UNL A   1      42.580  29.345  35.791  1.00  0.00     0.029 A 
ATOM     48  N   UNL A   1      41.396  29.583  33.924  1.00  0.00    -0.354 N 
ATOM     49  N   UNL A   1      39.255  30.694  32.251  1.00  0.00    -0.248 NA
ATOM     50  C   UNL A   1      37.381  32.064  31.996  1.00  0.00     0.031 C 
ATOM     51  C   UNL A   1      41.523  30.227  36.045  1.00  0.00     0.029 A 
ATOM     52  C   UNL A   1      40.798  30.394  34.875  1.00  0.00     0.049 A 
ATOM     53  H   UNL A   1      41.093  29.490  32.991  1.00  0.00     0.167 HD
ATOM     54  C   UNL A   1      38.995  31.337  33.456  1.00  0.00     0.074 A 
ATOM     55  C   UNL A   1      37.846  32.191  33.231  1.00  0.00     0.031 C 
ATOM     56  C   UNL A   1      39.649  31.232  34.639  1.00  0.00     0.037 A 
BRANCH  43  57
ATOM     57  C   UNL A   1      44.420  27.291  34.515  1.00  0.00     0.057 A 
ATOM     58  C   UNL A   1      44.250  26.029  35.098  1.00  0.00     0.134 A 
ATOM     59  C   UNL A   1      45.665  27.913  34.671  1.00  0.00     0.134 A 
ATOM     60  F   UNL A   1      43.075  25.388  35.004  1.00  0.00    -0.206 F 
ATOM     61  C   UNL A   1      45.266  25.426  35.842  1.00  0.00     0.040 A 
ATOM     62  C   UNL A   1      46.697  27.309  35.390  1.00  0.00     0.040 A 
ATOM     63  F   UNL A   1      45.895  29.122  34.137  1.00  0.00    -0.206 F 
ATOM     64  C   UNL A   1      46.496  26.066  35.986  1.00  0.00     0.006 A 
ENDBRANCH  43  57
BRANCH  44  65
ATOM     65  C   UNL A   1      37.032  31.345  29.176  1.00  0.00     0.057 A 
ATOM     66  C   UNL A   1      35.895  30.592  28.867  1.00  0.00     0.134 A 
ATOM     67  C   UNL A   1      37.071  32.672  28.728  1.00  0.00     0.134 A 
ATOM     68  F   UNL A   1      35.808  29.309  29.247  1.00  0.00    -0.206 F 
ATOM     69  C   UNL A   1      34.836  31.136  28.134  1.00  0.00     0.040 A 
ATOM     70  C   UNL A   1      36.012  33.235  28.015  1.00  0.00     0.040 A 
ATOM     71  F   UNL A   1      38.135  33.444  28.993  1.00  0.00    -0.206 F 
ATOM     72  C   UNL A   1      34.892  32.465  27.714  1.00  0.00     0.006 A 
ENDBRANCH  44  65
BRANCH  56  73
ATOM     73  C   UNL A   1      39.149  32.079  35.774  1.00  0.00     0.057 A 
ATOM     74  C   UNL A   1      39.565  33.406  35.946  1.00  0.00     0.134 A 
ATOM     75  C   UNL A   1      38.225  31.567  36.693  1.00  0.00     0.134 A 
ATOM     76  F   UNL A   1      40.457  33.954  35.107  1.00  0.00    -0.206 F 
ATOM     77  C   UNL A   1      39.102  34.183  37.010  1.00  0.00     0.040 A 
ATOM     78  C   UNL A   1      37.735  32.342  37.745  1.00  0.00     0.040 A 
ATOM     79  F   UNL A   1      37.778  30.308  36.581  1.00  0.00    -0.206 F 
ATOM     80  C   UNL A   1      38.181  33.652  37.911  1.00  0.00     0.006 A 
ENDBRANCH  56  73
ENDBRANCH  30  31
ENDBRANCH  23  25
ENDBRANCH  22  23
ENDBRANCH  21  22
ENDBRANCH   1  21
TORSDOF 15
ENDMDL
MODEL 2
REMARK VINA RESULT:     -11.1      1.186      1.981
REMARK SMILES CC(=O)N/N=C/c1ccc(O[C@H](C)C(=O)OCCOC(=O)c2ccc(-c3c4nc(c(-c5c(F)cccc5F)c5ccc([nH]5)c(-c5c(F)cccc5F)c5nc(c(-c6c(F)cccc6F)c6ccc3[nH]6)C=C5)C=C4)cc2)cc1
REMARK SMILES IDX 17 1 16 2 14 3 15 4 12 5 13 6 11 7 10 8 7 9 8 10 77 11 9 12
REMARK SMILES IDX 76 13 6 14 5 15 4 16 1 17 2 18 3 19 18 21 19 22 20 23 21 24
REMARK SMILES IDX 22 25 23 26 75 27 24 28 74 29 25 30 26 31 27 32 68 33 28 34
REMARK SMILES IDX 73 35 67 36 69 37 29 38 72 39 66 40 65 41 30 43 56 44 39 45
REMARK SMILES IDX 55 46 40 47 43 48 54 49 70 50 41 51 42 52 53 54 71 55 44 56
REMARK SMILES IDX 31 57 32 58 37 59 33 60 34 61 36 62 38 63 35 64 57 65 58 66
REMARK SMILES IDX 63 67 59 68 60 69 62 70 64 71 61 72 45 73 46 74 51 75 47 76
REMARK SMILES IDX 48 77 50 78 52 79 49 80
REMARK H PARENT 4 20 69 42 43 53
REMARK Flexibility Score: inf
ROOT
ATOM      1  C   UNL A   1      43.839  21.256  25.766  1.00  0.00     0.274 C 
ENDROOT
BRANCH   1   2
ATOM      2  O   UNL A   1      42.530  20.794  25.369  1.00  0.00    -0.459 OA
BRANCH   2   3
ATOM      3  C   UNL A   1      41.774  20.284  26.376  1.00  0.00     0.347 C 
ATOM      4  O   UNL A   1      42.047  19.243  26.970  1.00  0.00    -0.248 OA
BRANCH   3   5
ATOM      5  C   UNL A   1      40.492  21.093  26.689  1.00  0.00     0.279 C 
ATOM      6  C   UNL A   1      40.669  21.853  28.004  1.00  0.00     0.066 C 
BRANCH   5   7
ATOM      7  O   UNL A   1      39.962  22.027  25.749  1.00  0.00    -0.479 OA
BRANCH   7   8
ATOM      8  C   UNL A   1      38.611  22.200  25.678  1.00  0.00     0.120 A 
ATOM      9  C   UNL A   1      35.848  22.151  25.924  1.00  0.00    -0.005 A 
ATOM     10  C   UNL A   1      36.546  23.320  26.213  1.00  0.00     0.013 A 
ATOM     11  C   UNL A   1      36.498  21.049  25.373  1.00  0.00     0.013 A 
ATOM     12  C   UNL A   1      37.923  23.361  26.017  1.00  0.00     0.047 A 
ATOM     13  C   UNL A   1      37.891  21.074  25.269  1.00  0.00     0.047 A 
BRANCH   9  14
ATOM     14  C   UNL A   1      34.437  22.093  26.311  1.00  0.00     0.141 C 
ATOM     15  N   UNL A   1      33.952  22.785  27.286  1.00  0.00    -0.181 NA
BRANCH  15  16
ATOM     16  N   UNL A   1      32.630  22.616  27.585  1.00  0.00    -0.247 N 
ATOM     17  C   UNL A   1      31.654  24.285  26.001  1.00  0.00     0.116 C 
ATOM     18  C   UNL A   1      31.516  23.246  27.084  1.00  0.00     0.236 C 
ATOM     19  O   UNL A   1      30.402  22.953  27.526  1.00  0.00    -0.274 OA
ATOM     20  H   UNL A   1      32.445  21.933  28.269  1.00  0.00     0.193 HD
ENDBRANCH  15  16
ENDBRANCH   9  14
ENDBRANCH   7   8
ENDBRANCH   5   7
ENDBRANCH   3   5
ENDBRANCH   2   3
ENDBRANCH   1   2
BRANCH   1  21
ATOM     21  C   UNL A   1      44.488  22.243  24.781  1.00  0.00     0.275 C 
BRANCH  21  22
ATOM     22  O   UNL A   1      43.727  23.457  24.620  1.00  0.00    -0.458 OA
BRANCH  22  23
ATOM     23  C   UNL A   1      44.357  24.577  25.053  1.00  0.00     0.338 C 
ATOM     24  O   UNL A   1      45.412  25.025  24.629  1.00  0.00    -0.246 OA
BRANCH  23  25
ATOM     25  C   UNL A   1      43.507  25.338  25.991  1.00  0.00     0.060 A 
ATOM     26  C   UNL A   1      43.907  26.649  26.281  1.00  0.00     0.016 A 
ATOM     27  C   UNL A   1      42.394  24.788  26.631  1.00  0.00     0.016 A 
ATOM     28  C   UNL A   1      43.221  27.408  27.220  1.00  0.00     0.010 A 
ATOM     29  C   UNL A   1      41.715  25.545  27.597  1.00  0.00     0.010 A 
ATOM     30  C   UNL A   1      42.145  26.847  27.913  1.00  0.00    -0.014 A 
BRANCH  30  31
ATOM     31  C   UNL A   1      41.609  27.592  29.076  1.00  0.00     0.031 A 
ATOM     32  C   UNL A   1      42.327  27.498  30.392  1.00  0.00     0.074 A 
ATOM     33  C   UNL A   1      40.565  28.425  28.935  1.00  0.00     0.049 A 
ATOM     34  N   UNL A   1      42.080  28.111  31.520  1.00  0.00    -0.248 NA
ATOM     35  C   UNL A   1      43.485  26.592  30.437  1.00  0.00     0.031 C 
ATOM     36  C   UNL A   1      39.817  28.641  27.698  1.00  0.00     0.029 A 
ATOM     37  N   UNL A   1      39.961  29.255  29.845  1.00  0.00    -0.354 N 
ATOM     38  C   UNL A   1      43.042  27.660  32.413  1.00  0.00     0.074 A 
ATOM     39  C   UNL A   1      43.863  26.701  31.702  1.00  0.00     0.031 C 
ATOM     40  C   UNL A   1      38.848  29.543  27.928  1.00  0.00     0.029 A 
ATOM     41  C   UNL A   1      38.896  29.952  29.331  1.00  0.00     0.049 A 
ATOM     42  H   UNL A   1      40.262  29.342  30.779  1.00  0.00     0.167 HD
ATOM     43  C   UNL A   1      43.232  28.014  33.706  1.00  0.00     0.037 A 
ATOM     44  C   UNL A   1      38.051  30.813  29.928  1.00  0.00     0.037 A 
ATOM     45  C   UNL A   1      42.417  28.968  34.412  1.00  0.00     0.049 A 
ATOM     46  C   UNL A   1      38.257  31.169  31.375  1.00  0.00     0.074 A 
ATOM     47  C   UNL A   1      42.532  29.400  35.721  1.00  0.00     0.029 A 
ATOM     48  N   UNL A   1      41.329  29.632  33.866  1.00  0.00    -0.354 N 
ATOM     49  N   UNL A   1      39.178  30.747  32.207  1.00  0.00    -0.248 NA
ATOM     50  C   UNL A   1      37.313  32.130  31.961  1.00  0.00     0.031 C 
ATOM     51  C   UNL A   1      41.485  30.294  35.980  1.00  0.00     0.029 A 
ATOM     52  C   UNL A   1      40.749  30.457  34.817  1.00  0.00     0.049 A 
ATOM     53  H   UNL A   1      41.015  29.533  32.938  1.00  0.00     0.167 HD
ATOM     54  C   UNL A   1      38.938  31.402  33.409  1.00  0.00     0.074 A 
ATOM     55  C   UNL A   1      37.794  32.264  33.190  1.00  0.00     0.031 C 
ATOM     56  C   UNL A   1      39.605  31.302  34.586  1.00  0.00     0.037 A 
BRANCH  43  57
ATOM     57  C   UNL A   1      44.339  27.319  34.443  1.00  0.00     0.057 A 
ATOM     58  C   UNL A   1      44.141  26.108  35.118  1.00  0.00     0.134 A 
ATOM     59  C   UNL A   1      45.618  27.888  34.499  1.00  0.00     0.134 A 
ATOM     60  F   UNL A   1      42.935  25.521  35.122  1.00  0.00    -0.206 F 
ATOM     61  C   UNL A   1      45.164  25.506  35.854  1.00  0.00     0.040 A 
ATOM     62  C   UNL A   1      46.656  27.283  35.209  1.00  0.00     0.040 A 
ATOM     63  F   UNL A   1      45.876  29.046  33.874  1.00  0.00    -0.206 F 
ATOM     64  C   UNL A   1      46.427  26.094  35.897  1.00  0.00     0.006 A 
ENDBRANCH  43  57
BRANCH  44  65
ATOM     65  C   UNL A   1      36.926  31.389  29.152  1.00  0.00     0.057 A 
ATOM     66  C   UNL A   1      35.788  30.636  28.843  1.00  0.00     0.134 A 
ATOM     67  C   UNL A   1      36.962  32.718  28.711  1.00  0.00     0.134 A 
ATOM     68  F   UNL A   1      35.705  29.351  29.218  1.00  0.00    -0.206 F 
ATOM     69  C   UNL A   1      34.726  31.183  28.119  1.00  0.00     0.040 A 
ATOM     70  C   UNL A   1      35.899  33.284  28.005  1.00  0.00     0.040 A 
ATOM     71  F   UNL A   1      38.025  33.490  28.975  1.00  0.00    -0.206 F 
ATOM     72  C   UNL A   1      34.778  32.513  27.704  1.00  0.00     0.006 A 
ENDBRANCH  44  65
BRANCH  56  73
ATOM     73  C   UNL A   1      39.125  32.164  35.718  1.00  0.00     0.057 A 
ATOM     74  C   UNL A   1      38.246  31.680  36.696  1.00  0.00     0.134 A 
ATOM     75  C   UNL A   1      39.565  33.488  35.843  1.00  0.00     0.134 A 
ATOM     76  F   UNL A   1      37.778  30.425  36.629  1.00  0.00    -0.206 F 
ATOM     77  C   UNL A   1      37.797  32.493  37.740  1.00  0.00     0.040 A 
ATOM     78  C   UNL A   1      39.145  34.301  36.896  1.00  0.00     0.040 A 
ATOM     79  F   UNL A   1      40.415  34.011  34.947  1.00  0.00    -0.206 F 
ATOM     80  C   UNL A   1      38.251  33.806  37.844  1.00  0.00     0.006 A 
ENDBRANCH  56  73
ENDBRANCH  30  31
ENDBRANCH  23  25
ENDBRANCH  22  23
ENDBRANCH  21  22
ENDBRANCH   1  21
TORSDOF 15
ENDMDL
MODEL 3
REMARK VINA RESULT:     -10.9      5.726     11.731
REMARK SMILES CC(=O)N/N=C/c1ccc(O[C@H](C)C(=O)OCCOC(=O)c2ccc(-c3c4nc(c(-c5c(F)cccc5F)c5ccc([nH]5)c(-c5c(F)cccc5F)c5nc(c(-c6c(F)cccc6F)c6ccc3[nH]6)C=C5)C=C4)cc2)cc1
REMARK SMILES IDX 17 1 16 2 14 3 15 4 12 5 13 6 11 7 10 8 7 9 8 10 77 11 9 12
REMARK SMILES IDX 76 13 6 14 5 15 4 16 1 17 2 18 3 19 18 21 19 22 20 23 21 24
REMARK SMILES IDX 22 25 23 26 75 27 24 28 74 29 25 30 26 31 27 32 68 33 28 34
REMARK SMILES IDX 73 35 67 36 69 37 29 38 72 39 66 40 65 41 30 43 56 44 39 45
REMARK SMILES IDX 55 46 40 47 43 48 54 49 70 50 41 51 42 52 53 54 71 55 44 56
REMARK SMILES IDX 31 57 32 58 37 59 33 60 34 61 36 62 38 63 35 64 57 65 58 66
REMARK SMILES IDX 63 67 59 68 60 69 62 70 64 71 61 72 45 73 46 74 51 75 47 76
REMARK SMILES IDX 48 77 50 78 52 79 49 80
REMARK H PARENT 4 20 69 42 43 53
REMARK Flexibility Score: inf
ROOT
ATOM      1  C   UNL A   1      34.000  34.938  32.832  1.00  0.00     0.274 C 
ENDROOT
BRANCH   1   2
ATOM      2  O   UNL A   1      32.892  34.947  31.906  1.00  0.00    -0.459 OA
BRANCH   2   3
ATOM      3  C   UNL A   1      32.878  35.993  31.039  1.00  0.00     0.347 C 
ATOM      4  O   UNL A   1      32.527  37.129  31.351  1.00  0.00    -0.248 OA
BRANCH   3   5
ATOM      5  C   UNL A   1      33.290  35.631  29.592  1.00  0.00     0.279 C 
ATOM      6  C   UNL A   1      33.297  36.893  28.726  1.00  0.00     0.066 C 
BRANCH   5   7
ATOM      7  O   UNL A   1      34.513  34.948  29.321  1.00  0.00    -0.479 OA
BRANCH   7   8
ATOM      8  C   UNL A   1      34.480  33.794  28.595  1.00  0.00     0.120 A 
ATOM      9  C   UNL A   1      34.611  31.214  27.585  1.00  0.00    -0.005 A 
ATOM     10  C   UNL A   1      33.384  31.869  27.648  1.00  0.00     0.013 A 
ATOM     11  C   UNL A   1      35.794  31.885  27.883  1.00  0.00     0.013 A 
ATOM     12  C   UNL A   1      33.335  33.188  28.086  1.00  0.00     0.047 A 
ATOM     13  C   UNL A   1      35.720  33.177  28.408  1.00  0.00     0.047 A 
BRANCH   9  14
ATOM     14  C   UNL A   1      34.596  29.779  27.291  1.00  0.00     0.141 C 
ATOM     15  N   UNL A   1      33.896  29.269  26.335  1.00  0.00    -0.181 NA
BRANCH  15  16
ATOM     16  N   UNL A   1      33.926  27.912  26.183  1.00  0.00    -0.247 N 
ATOM     17  C   UNL A   1      31.516  27.416  26.621  1.00  0.00     0.116 C 
ATOM     18  C   UNL A   1      32.923  26.980  26.306  1.00  0.00     0.236 C 
ATOM     19  O   UNL A   1      33.184  25.784  26.153  1.00  0.00    -0.274 OA
ATOM     20  H   UNL A   1      34.807  27.542  25.949  1.00  0.00     0.193 HD
ENDBRANCH  15  16
ENDBRANCH   9  14
ENDBRANCH   7   8
ENDBRANCH   5   7
ENDBRANCH   3   5
ENDBRANCH   2   3
ENDBRANCH   1   2
BRANCH   1  21
ATOM     21  C   UNL A   1      34.666  33.564  33.009  1.00  0.00     0.275 C 
BRANCH  21  22
ATOM     22  O   UNL A   1      36.088  33.594  32.771  1.00  0.00    -0.458 OA
BRANCH  22  23
ATOM     23  C   UNL A   1      36.790  32.641  33.432  1.00  0.00     0.338 C 
ATOM     24  O   UNL A   1      36.644  32.314  34.600  1.00  0.00    -0.246 OA
BRANCH  23  25
ATOM     25  C   UNL A   1      37.647  31.872  32.507  1.00  0.00     0.060 A 
ATOM     26  C   UNL A   1      38.812  31.312  33.048  1.00  0.00     0.016 A 
ATOM     27  C   UNL A   1      37.379  31.749  31.143  1.00  0.00     0.016 A 
ATOM     28  C   UNL A   1      39.723  30.650  32.236  1.00  0.00     0.010 A 
ATOM     29  C   UNL A   1      38.310  31.102  30.317  1.00  0.00     0.010 A 
ATOM     30  C   UNL A   1      39.497  30.576  30.858  1.00  0.00    -0.014 A 
BRANCH  30  31
ATOM     31  C   UNL A   1      40.607  30.093  30.002  1.00  0.00     0.031 A 
ATOM     32  C   UNL A   1      41.759  31.014  29.720  1.00  0.00     0.074 A 
ATOM     33  C   UNL A   1      40.639  28.820  29.574  1.00  0.00     0.049 A 
ATOM     34  N   UNL A   1      42.864  30.785  29.057  1.00  0.00    -0.248 NA
ATOM     35  C   UNL A   1      41.653  32.376  30.266  1.00  0.00     0.031 C 
ATOM     36  C   UNL A   1      39.606  27.818  29.826  1.00  0.00     0.029 A 
ATOM     37  N   UNL A   1      41.589  28.152  28.846  1.00  0.00    -0.354 N 
ATOM     38  C   UNL A   1      43.579  31.974  29.097  1.00  0.00     0.074 A 
ATOM     39  C   UNL A   1      42.772  32.930  29.826  1.00  0.00     0.031 C 
ATOM     40  C   UNL A   1      39.976  26.659  29.255  1.00  0.00     0.029 A 
ATOM     41  C   UNL A   1      41.261  26.845  28.583  1.00  0.00     0.049 A 
ATOM     42  H   UNL A   1      42.427  28.569  28.540  1.00  0.00     0.167 HD
ATOM     43  C   UNL A   1      44.799  32.246  28.577  1.00  0.00     0.037 A 
ATOM     44  C   UNL A   1      41.918  25.910  27.872  1.00  0.00     0.037 A 
ATOM     45  C   UNL A   1      45.602  31.296  27.852  1.00  0.00     0.049 A 
ATOM     46  C   UNL A   1      43.258  26.241  27.274  1.00  0.00     0.074 A 
ATOM     47  C   UNL A   1      46.855  31.472  27.293  1.00  0.00     0.029 A 
ATOM     48  N   UNL A   1      45.223  29.989  27.581  1.00  0.00    -0.354 N 
ATOM     49  N   UNL A   1      43.933  27.365  27.328  1.00  0.00    -0.248 NA
ATOM     50  C   UNL A   1      43.933  25.171  26.528  1.00  0.00     0.031 C 
ATOM     51  C   UNL A   1      47.215  30.283  26.645  1.00  0.00     0.029 A 
ATOM     52  C   UNL A   1      46.208  29.352  26.844  1.00  0.00     0.049 A 
ATOM     53  H   UNL A   1      44.378  29.575  27.871  1.00  0.00     0.167 HD
ATOM     54  C   UNL A   1      45.118  27.132  26.639  1.00  0.00     0.074 A 
ATOM     55  C   UNL A   1      45.076  25.754  26.194  1.00  0.00     0.031 C 
ATOM     56  C   UNL A   1      46.148  27.982  26.400  1.00  0.00     0.037 A 
BRANCH  43  57
ATOM     57  C   UNL A   1      45.307  33.650  28.739  1.00  0.00     0.057 A 
ATOM     58  C   UNL A   1      46.086  34.038  29.836  1.00  0.00     0.134 A 
ATOM     59  C   UNL A   1      44.984  34.632  27.795  1.00  0.00     0.134 A 
ATOM     60  F   UNL A   1      46.412  33.151  30.788  1.00  0.00    -0.206 F 
ATOM     61  C   UNL A   1      46.497  35.362  30.007  1.00  0.00     0.040 A 
ATOM     62  C   UNL A   1      45.411  35.953  27.941  1.00  0.00     0.040 A 
ATOM     63  F   UNL A   1      44.242  34.327  26.720  1.00  0.00    -0.206 F 
ATOM     64  C   UNL A   1      46.160  36.323  29.055  1.00  0.00     0.006 A 
ENDBRANCH  43  57
BRANCH  44  65
ATOM     65  C   UNL A   1      41.306  24.572  27.683  1.00  0.00     0.057 A 
ATOM     66  C   UNL A   1      40.270  24.364  26.766  1.00  0.00     0.134 A 
ATOM     67  C   UNL A   1      41.758  23.464  28.411  1.00  0.00     0.134 A 
ATOM     68  F   UNL A   1      39.779  25.390  26.057  1.00  0.00    -0.206 F 
ATOM     69  C   UNL A   1      39.700  23.102  26.584  1.00  0.00     0.040 A 
ATOM     70  C   UNL A   1      41.213  22.194  28.223  1.00  0.00     0.040 A 
ATOM     71  F   UNL A   1      42.749  23.600  29.303  1.00  0.00    -0.206 F 
ATOM     72  C   UNL A   1      40.178  22.011  27.309  1.00  0.00     0.006 A 
ENDBRANCH  44  65
BRANCH  56  73
ATOM     73  C   UNL A   1      47.323  27.435  25.641  1.00  0.00     0.057 A 
ATOM     74  C   UNL A   1      47.437  27.577  24.251  1.00  0.00     0.134 A 
ATOM     75  C   UNL A   1      48.361  26.776  26.311  1.00  0.00     0.134 A 
ATOM     76  F   UNL A   1      46.472  28.187  23.548  1.00  0.00    -0.206 F 
ATOM     77  C   UNL A   1      48.528  27.055  23.553  1.00  0.00     0.040 A 
ATOM     78  C   UNL A   1      49.469  26.275  25.627  1.00  0.00     0.040 A 
ATOM     79  F   UNL A   1      48.319  26.615  27.641  1.00  0.00    -0.206 F 
ATOM     80  C   UNL A   1      49.550  26.406  24.242  1.00  0.00     0.006 A 
ENDBRANCH  56  73
ENDBRANCH  30  31
ENDBRANCH  23  25
ENDBRANCH  22  23
ENDBRANCH  21  22
ENDBRANCH   1  21
TORSDOF 15
ENDMDL
