MODEL 1
REMARK VINA RESULT:     -11.3      0.000      0.000
REMARK SMILES C[C@@H]1CCCN(C(=O)c2ccncc2/C=C/C(=O)OCCOC(=O)c2ccc(-c3c4nc(c(-c5c(F)cccc5F)c5ccc([nH]5)c(-c5c(F)cccc5F)c5nc(c(-c6c(F)cccc6F)c6ccc3[nH]6)C=C5)C=C4)cc2)[C@@H]1C
REMARK SMILES IDX 20 1 19 2 17 3 18 4 16 5 15 6 14 7 9 8 10 9 11 10 13 11
REMARK SMILES IDX 12 12 7 13 8 14 6 15 1 16 2 17 3 18 79 19 4 20 80 21 5 22
REMARK SMILES IDX 21 23 22 24 23 25 24 26 25 27 26 28 78 29 27 30 77 31 28 32
REMARK SMILES IDX 29 33 30 34 71 35 31 36 76 37 70 38 72 39 32 40 75 41 69 42
REMARK SMILES IDX 68 43 33 45 59 46 42 47 58 48 43 49 46 50 57 51 73 52 44 53
REMARK SMILES IDX 45 54 56 56 74 57 47 58 34 59 35 60 40 61 36 62 37 63 39 64
REMARK SMILES IDX 41 65 38 66 60 67 61 68 66 69 62 70 63 71 65 72 67 73 64 74
REMARK SMILES IDX 48 75 49 76 54 77 50 78 51 79 53 80 55 81 52 82
REMARK H PARENT 72 44 46 55
REMARK Flexibility Score: inf
ROOT
ATOM      1  C   UNL A   1      40.201  22.047  26.780  1.00  0.00     0.275 C 
ENDROOT
BRANCH   1   2
ATOM      2  O   UNL A   1      39.182  21.862  25.780  1.00  0.00    -0.459 OA
BRANCH   2   3
ATOM      3  C   UNL A   1      38.125  22.702  25.854  1.00  0.00     0.330 C 
ATOM      4  O   UNL A   1      38.171  23.908  26.054  1.00  0.00    -0.247 OA
BRANCH   3   5
ATOM      5  C   UNL A   1      36.836  22.025  25.603  1.00  0.00     0.094 C 
ATOM      6  C   UNL A   1      36.025  22.244  24.555  1.00  0.00     0.018 C 
BRANCH   6   7
ATOM      7  C   UNL A   1      34.736  21.546  24.420  1.00  0.00     0.006 A 
ATOM      8  C   UNL A   1      33.621  22.098  23.774  1.00  0.00     0.050 A 
ATOM      9  C   UNL A   1      32.450  21.352  23.599  1.00  0.00     0.034 A 
ATOM     10  C   UNL A   1      32.396  20.093  24.162  1.00  0.00     0.112 A 
ATOM     11  C   UNL A   1      34.552  20.275  24.960  1.00  0.00     0.119 A 
ATOM     12  N   UNL A   1      33.414  19.546  24.855  1.00  0.00    -0.264 NA
BRANCH   8  13
ATOM     13  C   UNL A   1      33.694  23.447  23.183  1.00  0.00     0.254 C 
ATOM     14  O   UNL A   1      34.582  23.603  22.351  1.00  0.00    -0.269 OA
BRANCH  13  15
ATOM     15  N   UNL A   1      32.792  24.430  23.611  1.00  0.00    -0.336 N 
ATOM     16  C   UNL A   1      31.709  24.067  26.498  1.00  0.00     0.010 C 
ATOM     17  C   UNL A   1      31.905  25.387  25.738  1.00  0.00     0.008 C 
ATOM     18  C   UNL A   1      30.621  25.792  25.002  1.00  0.00     0.007 C 
ATOM     19  C   UNL A   1      33.095  25.346  24.739  1.00  0.00     0.085 C 
ATOM     20  C   UNL A   1      30.335  24.872  23.822  1.00  0.00     0.022 C 
ATOM     21  C   UNL A   1      34.416  25.149  25.493  1.00  0.00     0.031 C 
ATOM     22  C   UNL A   1      31.541  24.743  22.898  1.00  0.00     0.120 C 
ENDBRANCH  13  15
ENDBRANCH   8  13
ENDBRANCH   6   7
ENDBRANCH   3   5
ENDBRANCH   2   3
ENDBRANCH   1   2
BRANCH   1  23
ATOM     23  C   UNL A   1      41.477  22.636  26.171  1.00  0.00     0.275 C 
BRANCH  23  24
ATOM     24  O   UNL A   1      41.955  23.772  26.916  1.00  0.00    -0.458 OA
BRANCH  24  25
ATOM     25  C   UNL A   1      41.721  24.976  26.342  1.00  0.00     0.338 C 
ATOM     26  O   UNL A   1      41.698  25.235  25.151  1.00  0.00    -0.246 OA
BRANCH  25  27
ATOM     27  C   UNL A   1      41.367  25.965  27.376  1.00  0.00     0.060 A 
ATOM     28  C   UNL A   1      42.171  27.103  27.493  1.00  0.00     0.016 A 
ATOM     29  C   UNL A   1      40.312  25.749  28.265  1.00  0.00     0.016 A 
ATOM     30  C   UNL A   1      41.929  28.028  28.506  1.00  0.00     0.010 A 
ATOM     31  C   UNL A   1      40.071  26.677  29.284  1.00  0.00     0.010 A 
ATOM     32  C   UNL A   1      40.886  27.814  29.418  1.00  0.00    -0.014 A 
BRANCH  32  33
ATOM     33  C   UNL A   1      40.681  28.768  30.536  1.00  0.00     0.031 A 
ATOM     34  C   UNL A   1      39.611  29.818  30.441  1.00  0.00     0.074 A 
ATOM     35  C   UNL A   1      41.440  28.676  31.643  1.00  0.00     0.049 A 
ATOM     36  N   UNL A   1      39.295  30.756  31.297  1.00  0.00    -0.248 NA
ATOM     37  C   UNL A   1      38.790  29.811  29.221  1.00  0.00     0.031 C 
ATOM     38  C   UNL A   1      42.490  27.683  31.864  1.00  0.00     0.029 A 
ATOM     39  N   UNL A   1      41.441  29.430  32.789  1.00  0.00    -0.354 N 
ATOM     40  C   UNL A   1      38.244  31.455  30.720  1.00  0.00     0.074 A 
ATOM     41  C   UNL A   1      37.990  30.849  29.430  1.00  0.00     0.031 C 
ATOM     42  C   UNL A   1      43.036  27.890  33.075  1.00  0.00     0.029 A 
ATOM     43  C   UNL A   1      42.396  29.046  33.697  1.00  0.00     0.049 A 
ATOM     44  H   UNL A   1      40.818  30.176  32.944  1.00  0.00     0.167 HD
ATOM     45  C   UNL A   1      37.549  32.503  31.223  1.00  0.00     0.037 A 
ATOM     46  C   UNL A   1      42.729  29.578  34.888  1.00  0.00     0.037 A 
ATOM     47  C   UNL A   1      37.794  33.102  32.510  1.00  0.00     0.049 A 
ATOM     48  C   UNL A   1      41.976  30.775  35.401  1.00  0.00     0.074 A 
ATOM     49  C   UNL A   1      37.128  34.155  33.114  1.00  0.00     0.029 A 
ATOM     50  N   UNL A   1      38.790  32.704  33.388  1.00  0.00    -0.354 N 
ATOM     51  N   UNL A   1      40.972  31.416  34.854  1.00  0.00    -0.248 NA
ATOM     52  C   UNL A   1      42.405  31.322  36.696  1.00  0.00     0.031 C 
ATOM     53  C   UNL A   1      37.745  34.418  34.342  1.00  0.00     0.029 A 
ATOM     54  C   UNL A   1      38.770  33.504  34.520  1.00  0.00     0.049 A 
ATOM     55  H   UNL A   1      39.418  31.962  33.232  1.00  0.00     0.167 HD
ATOM     56  C   UNL A   1      40.636  32.427  35.745  1.00  0.00     0.074 A 
ATOM     57  C   UNL A   1      41.535  32.305  36.875  1.00  0.00     0.031 C 
ATOM     58  C   UNL A   1      39.669  33.370  35.638  1.00  0.00     0.037 A 
BRANCH  45  59
ATOM     59  C   UNL A   1      36.462  33.085  30.369  1.00  0.00     0.057 A 
ATOM     60  C   UNL A   1      36.745  33.940  29.295  1.00  0.00     0.134 A 
ATOM     61  C   UNL A   1      35.121  32.756  30.599  1.00  0.00     0.134 A 
ATOM     62  F   UNL A   1      38.009  34.303  29.030  1.00  0.00    -0.206 F 
ATOM     63  C   UNL A   1      35.728  34.463  28.493  1.00  0.00     0.040 A 
ATOM     64  C   UNL A   1      34.097  33.256  29.791  1.00  0.00     0.040 A 
ATOM     65  F   UNL A   1      34.784  31.939  31.607  1.00  0.00    -0.206 F 
ATOM     66  C   UNL A   1      34.401  34.116  28.737  1.00  0.00     0.006 A 
ENDBRANCH  45  59
BRANCH  46  67
ATOM     67  C   UNL A   1      43.839  28.989  35.676  1.00  0.00     0.057 A 
ATOM     68  C   UNL A   1      45.163  29.405  35.487  1.00  0.00     0.134 A 
ATOM     69  C   UNL A   1      43.604  27.990  36.627  1.00  0.00     0.134 A 
ATOM     70  F   UNL A   1      45.452  30.340  34.572  1.00  0.00    -0.206 F 
ATOM     71  C   UNL A   1      46.215  28.839  36.209  1.00  0.00     0.040 A 
ATOM     72  C   UNL A   1      44.643  27.432  37.373  1.00  0.00     0.040 A 
ATOM     73  F   UNL A   1      42.359  27.549  36.853  1.00  0.00    -0.206 F 
ATOM     74  C   UNL A   1      45.955  27.854  37.161  1.00  0.00     0.006 A 
ENDBRANCH  46  67
BRANCH  58  75
ATOM     75  C   UNL A   1      39.517  34.329  36.780  1.00  0.00     0.057 A 
ATOM     76  C   UNL A   1      38.805  33.990  37.937  1.00  0.00     0.134 A 
ATOM     77  C   UNL A   1      40.117  35.593  36.736  1.00  0.00     0.134 A 
ATOM     78  F   UNL A   1      38.194  32.799  38.036  1.00  0.00    -0.206 F 
ATOM     79  C   UNL A   1      38.681  34.882  39.004  1.00  0.00     0.040 A 
ATOM     80  C   UNL A   1      40.019  36.485  37.804  1.00  0.00     0.040 A 
ATOM     81  F   UNL A   1      40.819  35.976  35.658  1.00  0.00    -0.206 F 
ATOM     82  C   UNL A   1      39.294  36.131  38.940  1.00  0.00     0.006 A 
ENDBRANCH  58  75
ENDBRANCH  32  33
ENDBRANCH  25  27
ENDBRANCH  24  25
ENDBRANCH  23  24
ENDBRANCH   1  23
TORSDOF 14
ENDMDL
MODEL 2
REMARK VINA RESULT:     -11.3      4.372      8.175
REMARK SMILES C[C@@H]1CCCN(C(=O)c2ccncc2/C=C/C(=O)OCCOC(=O)c2ccc(-c3c4nc(c(-c5c(F)cccc5F)c5ccc([nH]5)c(-c5c(F)cccc5F)c5nc(c(-c6c(F)cccc6F)c6ccc3[nH]6)C=C5)C=C4)cc2)[C@@H]1C
REMARK SMILES IDX 20 1 19 2 17 3 18 4 16 5 15 6 14 7 9 8 10 9 11 10 13 11
REMARK SMILES IDX 12 12 7 13 8 14 6 15 1 16 2 17 3 18 79 19 4 20 80 21 5 22
REMARK SMILES IDX 21 23 22 24 23 25 24 26 25 27 26 28 78 29 27 30 77 31 28 32
REMARK SMILES IDX 29 33 30 34 71 35 31 36 76 37 70 38 72 39 32 40 75 41 69 42
REMARK SMILES IDX 68 43 33 45 59 46 42 47 58 48 43 49 46 50 57 51 73 52 44 53
REMARK SMILES IDX 45 54 56 56 74 57 47 58 34 59 35 60 40 61 36 62 37 63 39 64
REMARK SMILES IDX 41 65 38 66 60 67 61 68 66 69 62 70 63 71 65 72 67 73 64 74
REMARK SMILES IDX 48 75 49 76 54 77 50 78 51 79 53 80 55 81 52 82
REMARK H PARENT 72 44 46 55
REMARK Flexibility Score: inf
ROOT
ATOM      1  C   UNL A   1      38.672  20.229  25.252  1.00  0.00     0.275 C 
ENDROOT
BRANCH   1   2
ATOM      2  O   UNL A   1      38.916  21.590  25.654  1.00  0.00    -0.459 OA
BRANCH   2   3
ATOM      3  C   UNL A   1      37.825  22.384  25.737  1.00  0.00     0.330 C 
ATOM      4  O   UNL A   1      37.780  23.504  26.226  1.00  0.00    -0.247 OA
BRANCH   3   5
ATOM      5  C   UNL A   1      36.631  21.787  25.104  1.00  0.00     0.094 C 
ATOM      6  C   UNL A   1      35.403  22.329  25.075  1.00  0.00     0.018 C 
BRANCH   6   7
ATOM      7  C   UNL A   1      34.266  21.629  24.454  1.00  0.00     0.006 A 
ATOM      8  C   UNL A   1      33.402  22.227  23.527  1.00  0.00     0.050 A 
ATOM      9  C   UNL A   1      32.392  21.486  22.903  1.00  0.00     0.034 A 
ATOM     10  C   UNL A   1      32.217  20.174  23.297  1.00  0.00     0.112 A 
ATOM     11  C   UNL A   1      33.977  20.306  24.782  1.00  0.00     0.119 A 
ATOM     12  N   UNL A   1      32.975  19.574  24.236  1.00  0.00    -0.264 NA
BRANCH   8  13
ATOM     13  C   UNL A   1      33.600  23.632  23.121  1.00  0.00     0.254 C 
ATOM     14  O   UNL A   1      34.571  23.832  22.399  1.00  0.00    -0.269 OA
BRANCH  13  15
ATOM     15  N   UNL A   1      32.710  24.609  23.588  1.00  0.00    -0.336 N 
ATOM     16  C   UNL A   1      31.701  24.201  26.495  1.00  0.00     0.010 C 
ATOM     17  C   UNL A   1      31.880  25.533  25.752  1.00  0.00     0.008 C 
ATOM     18  C   UNL A   1      30.578  25.951  25.055  1.00  0.00     0.007 C 
ATOM     19  C   UNL A   1      33.044  25.507  24.722  1.00  0.00     0.085 C 
ATOM     20  C   UNL A   1      30.261  25.051  23.869  1.00  0.00     0.022 C 
ATOM     21  C   UNL A   1      34.383  25.296  25.439  1.00  0.00     0.031 C 
ATOM     22  C   UNL A   1      31.442  24.935  22.912  1.00  0.00     0.120 C 
ENDBRANCH  13  15
ENDBRANCH   8  13
ENDBRANCH   6   7
ENDBRANCH   3   5
ENDBRANCH   2   3
ENDBRANCH   1   2
BRANCH   1  23
ATOM     23  C   UNL A   1      39.590  19.257  26.000  1.00  0.00     0.275 C 
BRANCH  23  24
ATOM     24  O   UNL A   1      40.899  19.186  25.405  1.00  0.00    -0.458 OA
BRANCH  24  25
ATOM     25  C   UNL A   1      41.933  19.282  26.275  1.00  0.00     0.338 C 
ATOM     26  O   UNL A   1      42.718  18.403  26.590  1.00  0.00    -0.246 OA
BRANCH  25  27
ATOM     27  C   UNL A   1      42.074  20.675  26.734  1.00  0.00     0.060 A 
ATOM     28  C   UNL A   1      42.426  21.642  25.787  1.00  0.00     0.016 A 
ATOM     29  C   UNL A   1      41.939  21.019  28.081  1.00  0.00     0.016 A 
ATOM     30  C   UNL A   1      42.652  22.958  26.184  1.00  0.00     0.010 A 
ATOM     31  C   UNL A   1      42.170  22.340  28.479  1.00  0.00     0.010 A 
ATOM     32  C   UNL A   1      42.540  23.314  27.535  1.00  0.00    -0.014 A 
BRANCH  32  33
ATOM     33  C   UNL A   1      42.852  24.701  27.957  1.00  0.00     0.031 A 
ATOM     34  C   UNL A   1      44.281  25.128  28.139  1.00  0.00     0.074 A 
ATOM     35  C   UNL A   1      41.855  25.582  28.154  1.00  0.00     0.049 A 
ATOM     36  N   UNL A   1      44.756  26.284  28.526  1.00  0.00    -0.248 NA
ATOM     37  C   UNL A   1      45.310  24.119  27.846  1.00  0.00     0.031 C 
ATOM     38  C   UNL A   1      40.431  25.296  27.983  1.00  0.00     0.029 A 
ATOM     39  N   UNL A   1      41.890  26.898  28.541  1.00  0.00    -0.354 N 
ATOM     40  C   UNL A   1      46.137  26.143  28.530  1.00  0.00     0.074 A 
ATOM     41  C   UNL A   1      46.423  24.781  28.130  1.00  0.00     0.031 C 
ATOM     42  C   UNL A   1      39.727  26.406  28.264  1.00  0.00     0.029 A 
ATOM     43  C   UNL A   1      40.646  27.467  28.665  1.00  0.00     0.049 A 
ATOM     44  H   UNL A   1      42.727  27.387  28.714  1.00  0.00     0.167 HD
ATOM     45  C   UNL A   1      47.080  27.066  28.834  1.00  0.00     0.037 A 
ATOM     46  C   UNL A   1      40.290  28.699  29.073  1.00  0.00     0.037 A 
ATOM     47  C   UNL A   1      46.796  28.423  29.224  1.00  0.00     0.049 A 
ATOM     48  C   UNL A   1      41.355  29.690  29.455  1.00  0.00     0.074 A 
ATOM     49  C   UNL A   1      47.687  29.438  29.531  1.00  0.00     0.029 A 
ATOM     50  N   UNL A   1      45.523  28.953  29.367  1.00  0.00    -0.354 N 
ATOM     51  N   UNL A   1      42.658  29.550  29.438  1.00  0.00    -0.248 NA
ATOM     52  C   UNL A   1      40.898  31.010  29.915  1.00  0.00     0.031 C 
ATOM     53  C   UNL A   1      46.952  30.571  29.896  1.00  0.00     0.029 A 
ATOM     54  C   UNL A   1      45.604  30.274  29.779  1.00  0.00     0.049 A 
ATOM     55  H   UNL A   1      44.685  28.464  29.200  1.00  0.00     0.167 HD
ATOM     56  C   UNL A   1      43.177  30.767  29.863  1.00  0.00     0.074 A 
ATOM     57  C   UNL A   1      42.047  31.637  30.119  1.00  0.00     0.031 C 
ATOM     58  C   UNL A   1      44.472  31.130  30.027  1.00  0.00     0.037 A 
BRANCH  45  59
ATOM     59  C   UNL A   1      48.514  26.633  28.774  1.00  0.00     0.057 A 
ATOM     60  C   UNL A   1      49.159  26.060  29.878  1.00  0.00     0.134 A 
ATOM     61  C   UNL A   1      49.248  26.758  27.587  1.00  0.00     0.134 A 
ATOM     62  F   UNL A   1      48.515  25.924  31.046  1.00  0.00    -0.206 F 
ATOM     63  C   UNL A   1      50.490  25.642  29.807  1.00  0.00     0.040 A 
ATOM     64  C   UNL A   1      50.572  26.325  27.499  1.00  0.00     0.040 A 
ATOM     65  F   UNL A   1      48.687  27.294  26.494  1.00  0.00    -0.206 F 
ATOM     66  C   UNL A   1      51.198  25.770  28.614  1.00  0.00     0.006 A 
ENDBRANCH  45  59
BRANCH  46  67
ATOM     67  C   UNL A   1      38.855  29.064  29.153  1.00  0.00     0.057 A 
ATOM     68  C   UNL A   1      38.167  29.554  28.036  1.00  0.00     0.134 A 
ATOM     69  C   UNL A   1      38.140  28.941  30.350  1.00  0.00     0.134 A 
ATOM     70  F   UNL A   1      38.806  29.717  26.869  1.00  0.00    -0.206 F 
ATOM     71  C   UNL A   1      36.822  29.919  28.110  1.00  0.00     0.040 A 
ATOM     72  C   UNL A   1      36.789  29.281  30.433  1.00  0.00     0.040 A 
ATOM     73  F   UNL A   1      38.742  28.479  31.455  1.00  0.00    -0.206 F 
ATOM     74  C   UNL A   1      36.127  29.777  29.310  1.00  0.00     0.006 A 
ENDBRANCH  46  67
BRANCH  58  75
ATOM     75  C   UNL A   1      44.738  32.533  30.480  1.00  0.00     0.057 A 
ATOM     76  C   UNL A   1      44.887  32.855  31.835  1.00  0.00     0.134 A 
ATOM     77  C   UNL A   1      44.881  33.569  29.549  1.00  0.00     0.134 A 
ATOM     78  F   UNL A   1      44.748  31.911  32.777  1.00  0.00    -0.206 F 
ATOM     79  C   UNL A   1      45.151  34.162  32.248  1.00  0.00     0.040 A 
ATOM     80  C   UNL A   1      45.167  34.875  29.948  1.00  0.00     0.040 A 
ATOM     81  F   UNL A   1      44.758  33.326  28.235  1.00  0.00    -0.206 F 
ATOM     82  C   UNL A   1      45.298  35.175  31.303  1.00  0.00     0.006 A 
ENDBRANCH  58  75
ENDBRANCH  32  33
ENDBRANCH  25  27
ENDBRANCH  24  25
ENDBRANCH  23  24
ENDBRANCH   1  23
TORSDOF 14
ENDMDL
MODEL 3
REMARK VINA RESULT:     -11.3      4.946      7.142
REMARK SMILES C[C@@H]1CCCN(C(=O)c2ccncc2/C=C/C(=O)OCCOC(=O)c2ccc(-c3c4nc(c(-c5c(F)cccc5F)c5ccc([nH]5)c(-c5c(F)cccc5F)c5nc(c(-c6c(F)cccc6F)c6ccc3[nH]6)C=C5)C=C4)cc2)[C@@H]1C
REMARK SMILES IDX 20 1 19 2 17 3 18 4 16 5 15 6 14 7 9 8 10 9 11 10 13 11
REMARK SMILES IDX 12 12 7 13 8 14 6 15 1 16 2 17 3 18 79 19 4 20 80 21 5 22
REMARK SMILES IDX 21 23 22 24 23 25 24 26 25 27 26 28 78 29 27 30 77 31 28 32
REMARK SMILES IDX 29 33 30 34 71 35 31 36 76 37 70 38 72 39 32 40 75 41 69 42
REMARK SMILES IDX 68 43 33 45 59 46 42 47 58 48 43 49 46 50 57 51 73 52 44 53
REMARK SMILES IDX 45 54 56 56 74 57 47 58 34 59 35 60 40 61 36 62 37 63 39 64
REMARK SMILES IDX 41 65 38 66 60 67 61 68 66 69 62 70 63 71 65 72 67 73 64 74
REMARK SMILES IDX 48 75 49 76 54 77 50 78 51 79 53 80 55 81 52 82
REMARK H PARENT 72 44 46 55
REMARK Flexibility Score: inf
ROOT
ATOM      1  C   UNL A   1      38.829  20.499  25.345  1.00  0.00     0.275 C 
ENDROOT
BRANCH   1   2
ATOM      2  O   UNL A   1      38.939  21.761  26.030  1.00  0.00    -0.459 OA
BRANCH   2   3
ATOM      3  C   UNL A   1      37.936  22.641  25.807  1.00  0.00     0.330 C 
ATOM      4  O   UNL A   1      37.961  23.841  26.041  1.00  0.00    -0.247 OA
BRANCH   3   5
ATOM      5  C   UNL A   1      36.759  22.019  25.167  1.00  0.00     0.094 C 
ATOM      6  C   UNL A   1      35.476  22.339  25.403  1.00  0.00     0.018 C 
BRANCH   6   7
ATOM      7  C   UNL A   1      34.370  21.625  24.742  1.00  0.00     0.006 A 
ATOM      8  C   UNL A   1      33.544  22.207  23.772  1.00  0.00     0.050 A 
ATOM      9  C   UNL A   1      32.565  21.452  23.115  1.00  0.00     0.034 A 
ATOM     10  C   UNL A   1      32.380  20.144  23.517  1.00  0.00     0.112 A 
ATOM     11  C   UNL A   1      34.074  20.305  25.074  1.00  0.00     0.119 A 
ATOM     12  N   UNL A   1      33.100  19.560  24.495  1.00  0.00    -0.264 NA
BRANCH   8  13
ATOM     13  C   UNL A   1      33.751  23.607  23.357  1.00  0.00     0.254 C 
ATOM     14  O   UNL A   1      34.803  23.823  22.764  1.00  0.00    -0.269 OA
BRANCH  13  15
ATOM     15  N   UNL A   1      32.779  24.565  23.676  1.00  0.00    -0.336 N 
ATOM     16  C   UNL A   1      31.371  24.162  26.413  1.00  0.00     0.010 C 
ATOM     17  C   UNL A   1      31.622  25.490  25.684  1.00  0.00     0.008 C 
ATOM     18  C   UNL A   1      30.425  25.865  24.800  1.00  0.00     0.007 C 
ATOM     19  C   UNL A   1      32.923  25.484  24.834  1.00  0.00     0.085 C 
ATOM     20  C   UNL A   1      30.305  24.944  23.594  1.00  0.00     0.022 C 
ATOM     21  C   UNL A   1      34.149  25.317  25.739  1.00  0.00     0.031 C 
ATOM     22  C   UNL A   1      31.615  24.850  22.820  1.00  0.00     0.120 C 
ENDBRANCH  13  15
ENDBRANCH   8  13
ENDBRANCH   6   7
ENDBRANCH   3   5
ENDBRANCH   2   3
ENDBRANCH   1   2
BRANCH   1  23
ATOM     23  C   UNL A   1      39.592  19.397  26.088  1.00  0.00     0.275 C 
BRANCH  23  24
ATOM     24  O   UNL A   1      40.785  19.001  25.384  1.00  0.00    -0.458 OA
BRANCH  24  25
ATOM     25  C   UNL A   1      41.925  19.052  26.113  1.00  0.00     0.338 C 
ATOM     26  O   UNL A   1      42.681  18.130  26.370  1.00  0.00    -0.246 OA
BRANCH  25  27
ATOM     27  C   UNL A   1      42.222  20.448  26.483  1.00  0.00     0.060 A 
ATOM     28  C   UNL A   1      42.533  21.343  25.455  1.00  0.00     0.016 A 
ATOM     29  C   UNL A   1      42.269  20.857  27.817  1.00  0.00     0.016 A 
ATOM     30  C   UNL A   1      42.900  22.653  25.757  1.00  0.00     0.010 A 
ATOM     31  C   UNL A   1      42.641  22.171  28.121  1.00  0.00     0.010 A 
ATOM     32  C   UNL A   1      42.971  23.072  27.093  1.00  0.00    -0.014 A 
BRANCH  32  33
ATOM     33  C   UNL A   1      43.432  24.446  27.407  1.00  0.00     0.031 A 
ATOM     34  C   UNL A   1      42.444  25.487  27.852  1.00  0.00     0.074 A 
ATOM     35  C   UNL A   1      44.739  24.753  27.315  1.00  0.00     0.049 A 
ATOM     36  N   UNL A   1      42.645  26.746  28.147  1.00  0.00    -0.248 NA
ATOM     37  C   UNL A   1      41.046  25.052  27.982  1.00  0.00     0.031 C 
ATOM     38  C   UNL A   1      45.796  23.822  26.921  1.00  0.00     0.029 A 
ATOM     39  N   UNL A   1      45.397  25.934  27.547  1.00  0.00    -0.354 N 
ATOM     40  C   UNL A   1      41.402  27.257  28.491  1.00  0.00     0.074 A 
ATOM     41  C   UNL A   1      40.447  26.178  28.346  1.00  0.00     0.031 C 
ATOM     42  C   UNL A   1      46.974  24.470  26.939  1.00  0.00     0.029 A 
ATOM     43  C   UNL A   1      46.748  25.864  27.313  1.00  0.00     0.049 A 
ATOM     44  H   UNL A   1      44.943  26.753  27.851  1.00  0.00     0.167 HD
ATOM     45  C   UNL A   1      41.086  28.510  28.897  1.00  0.00     0.037 A 
ATOM     46  C   UNL A   1      47.693  26.821  27.376  1.00  0.00     0.037 A 
ATOM     47  C   UNL A   1      42.036  29.582  29.050  1.00  0.00     0.049 A 
ATOM     48  C   UNL A   1      47.307  28.217  27.779  1.00  0.00     0.074 A 
ATOM     49  C   UNL A   1      41.812  30.880  29.476  1.00  0.00     0.029 A 
ATOM     50  N   UNL A   1      43.391  29.479  28.774  1.00  0.00    -0.354 N 
ATOM     51  N   UNL A   1      46.131  28.684  28.120  1.00  0.00    -0.248 NA
ATOM     52  C   UNL A   1      48.382  29.220  27.805  1.00  0.00     0.031 C 
ATOM     53  C   UNL A   1      43.026  31.574  29.422  1.00  0.00     0.029 A 
ATOM     54  C   UNL A   1      44.012  30.698  29.001  1.00  0.00     0.049 A 
ATOM     55  H   UNL A   1      43.845  28.663  28.465  1.00  0.00     0.167 HD
ATOM     56  C   UNL A   1      46.326  30.026  28.419  1.00  0.00     0.074 A 
ATOM     57  C   UNL A   1      47.737  30.295  28.233  1.00  0.00     0.031 C 
ATOM     58  C   UNL A   1      45.418  30.951  28.814  1.00  0.00     0.037 A 
BRANCH  45  59
ATOM     59  C   UNL A   1      39.643  28.797  29.190  1.00  0.00     0.057 A 
ATOM     60  C   UNL A   1      39.112  28.672  30.480  1.00  0.00     0.134 A 
ATOM     61  C   UNL A   1      38.785  29.239  28.175  1.00  0.00     0.134 A 
ATOM     62  F   UNL A   1      39.879  28.241  31.492  1.00  0.00    -0.206 F 
ATOM     63  C   UNL A   1      37.771  28.959  30.746  1.00  0.00     0.040 A 
ATOM     64  C   UNL A   1      37.448  29.549  28.434  1.00  0.00     0.040 A 
ATOM     65  F   UNL A   1      39.233  29.385  26.920  1.00  0.00    -0.206 F 
ATOM     66  C   UNL A   1      36.938  29.405  29.722  1.00  0.00     0.006 A 
ENDBRANCH  45  59
BRANCH  46  67
ATOM     67  C   UNL A   1      49.099  26.493  27.037  1.00  0.00     0.057 A 
ATOM     68  C   UNL A   1      49.554  26.531  25.714  1.00  0.00     0.134 A 
ATOM     69  C   UNL A   1      50.017  26.124  28.027  1.00  0.00     0.134 A 
ATOM     70  F   UNL A   1      48.714  26.853  24.721  1.00  0.00    -0.206 F 
ATOM     71  C   UNL A   1      50.871  26.202  25.385  1.00  0.00     0.040 A 
ATOM     72  C   UNL A   1      51.342  25.815  27.716  1.00  0.00     0.040 A 
ATOM     73  F   UNL A   1      49.642  26.068  29.312  1.00  0.00    -0.206 F 
ATOM     74  C   UNL A   1      51.771  25.849  26.390  1.00  0.00     0.006 A 
ENDBRANCH  46  67
BRANCH  58  75
ATOM     75  C   UNL A   1      45.926  32.333  29.094  1.00  0.00     0.057 A 
ATOM     76  C   UNL A   1      46.415  32.698  30.355  1.00  0.00     0.134 A 
ATOM     77  C   UNL A   1      45.958  33.301  28.083  1.00  0.00     0.134 A 
ATOM     78  F   UNL A   1      46.398  31.821  31.370  1.00  0.00    -0.206 F 
ATOM     79  C   UNL A   1      46.901  33.982  30.605  1.00  0.00     0.040 A 
ATOM     80  C   UNL A   1      46.461  34.581  28.313  1.00  0.00     0.040 A 
ATOM     81  F   UNL A   1      45.511  33.014  26.851  1.00  0.00    -0.206 F 
ATOM     82  C   UNL A   1      46.930  34.926  29.580  1.00  0.00     0.006 A 
ENDBRANCH  58  75
ENDBRANCH  32  33
ENDBRANCH  25  27
ENDBRANCH  24  25
ENDBRANCH  23  24
ENDBRANCH   1  23
TORSDOF 14
ENDMDL
