MODEL 1
REMARK VINA RESULT:      -9.6      0.000      0.000
REMARK SMILES COC(=O)c1ccc(N2C[C@@H](C(=O)OCCOC(=O)c3ccc(-c4c5nc(c(-c6c(F)cccc6F)c6ccc([nH]6)c(-c6c(F)cccc6F)c6nc(c(-c7c(F)cccc7F)c7ccc4[nH]7)C=C6)C=C5)cc3)CC2=O)cc1
REMARK SMILES IDX 15 1 14 2 12 3 13 4 11 5 9 6 10 7 75 8 74 9 76 10 8 11 5 12
REMARK SMILES IDX 6 13 78 14 7 15 77 16 3 17 4 18 2 19 1 20 16 21 17 22 18 23
REMARK SMILES IDX 19 24 20 25 21 26 73 27 22 28 72 29 23 30 24 31 25 32 66 33
REMARK SMILES IDX 26 34 71 35 65 36 67 37 27 38 70 39 64 40 63 41 28 43 54 44
REMARK SMILES IDX 37 45 53 46 38 47 41 48 52 49 68 50 39 51 40 52 51 54 69 55
REMARK SMILES IDX 42 56 29 57 30 58 35 59 31 60 32 61 34 62 36 63 33 64 55 65
REMARK SMILES IDX 56 66 61 67 57 68 58 69 60 70 62 71 59 72 43 73 44 74 49 75
REMARK SMILES IDX 45 76 46 77 48 78 50 79 47 80
REMARK H PARENT 67 42 41 53
REMARK Flexibility Score: inf
ROOT
ATOM      1  C   UNL A   1      33.206  36.620  30.386  1.00  0.00     0.274 C 
ENDROOT
BRANCH   1   2
ATOM      2  O   UNL A   1      33.999  35.712  31.175  1.00  0.00    -0.462 OA
BRANCH   2   3
ATOM      3  C   UNL A   1      33.923  35.847  32.520  1.00  0.00     0.311 C 
ATOM      4  O   UNL A   1      32.970  36.324  33.125  1.00  0.00    -0.252 OA
BRANCH   3   5
ATOM      5  C   UNL A   1      35.132  35.314  33.238  1.00  0.00     0.128 C 
ATOM      6  N   UNL A   1      36.290  33.337  33.617  1.00  0.00    -0.312 N 
ATOM      7  C   UNL A   1      35.568  34.029  32.581  1.00  0.00     0.141 C 
ATOM      8  C   UNL A   1      35.953  33.818  34.886  1.00  0.00     0.227 C 
ATOM      9  C   UNL A   1      34.993  34.966  34.710  1.00  0.00     0.117 C 
ATOM     10  O   UNL A   1      36.338  33.420  35.975  1.00  0.00    -0.274 OA
BRANCH   6  11
ATOM     11  C   UNL A   1      37.063  32.189  33.344  1.00  0.00     0.044 A 
ATOM     12  C   UNL A   1      38.541  29.831  32.969  1.00  0.00     0.060 A 
ATOM     13  C   UNL A   1      37.227  29.912  32.506  1.00  0.00     0.018 A 
ATOM     14  C   UNL A   1      39.134  30.941  33.576  1.00  0.00     0.018 A 
ATOM     15  C   UNL A   1      36.486  31.077  32.715  1.00  0.00     0.027 A 
ATOM     16  C   UNL A   1      38.403  32.121  33.740  1.00  0.00     0.027 A 
BRANCH  12  17
ATOM     17  C   UNL A   1      39.259  28.547  32.817  1.00  0.00     0.337 C 
ATOM     18  O   UNL A   1      38.737  27.454  32.969  1.00  0.00    -0.246 OA
BRANCH  17  19
ATOM     19  O   UNL A   1      40.573  28.794  32.592  1.00  0.00    -0.465 OA
ATOM     20  C   UNL A   1      41.454  28.164  33.522  1.00  0.00     0.282 C 
ENDBRANCH  17  19
ENDBRANCH  12  17
ENDBRANCH   6  11
ENDBRANCH   3   5
ENDBRANCH   2   3
ENDBRANCH   1   2
BRANCH   1  21
ATOM     21  C   UNL A   1      32.948  36.037  28.993  1.00  0.00     0.275 C 
BRANCH  21  22
ATOM     22  O   UNL A   1      32.453  34.684  29.056  1.00  0.00    -0.458 OA
BRANCH  22  23
ATOM     23  C   UNL A   1      33.014  33.827  28.173  1.00  0.00     0.338 C 
ATOM     24  O   UNL A   1      32.591  33.509  27.074  1.00  0.00    -0.246 OA
BRANCH  23  25
ATOM     25  C   UNL A   1      34.338  33.408  28.653  1.00  0.00     0.060 A 
ATOM     26  C   UNL A   1      35.459  33.997  28.067  1.00  0.00     0.016 A 
ATOM     27  C   UNL A   1      34.485  32.378  29.579  1.00  0.00     0.016 A 
ATOM     28  C   UNL A   1      36.734  33.540  28.368  1.00  0.00     0.010 A 
ATOM     29  C   UNL A   1      35.772  31.942  29.913  1.00  0.00     0.010 A 
ATOM     30  C   UNL A   1      36.903  32.512  29.300  1.00  0.00    -0.014 A 
BRANCH  30  31
ATOM     31  C   UNL A   1      38.269  32.035  29.611  1.00  0.00     0.031 A 
ATOM     32  C   UNL A   1      38.727  30.694  29.120  1.00  0.00     0.074 A 
ATOM     33  C   UNL A   1      39.103  32.827  30.309  1.00  0.00     0.049 A 
ATOM     34  N   UNL A   1      39.837  30.055  29.384  1.00  0.00    -0.248 NA
ATOM     35  C   UNL A   1      37.816  29.977  28.215  1.00  0.00     0.031 C 
ATOM     36  C   UNL A   1      38.789  34.176  30.785  1.00  0.00     0.029 A 
ATOM     37  N   UNL A   1      40.387  32.612  30.740  1.00  0.00    -0.354 N 
ATOM     38  C   UNL A   1      39.748  28.848  28.704  1.00  0.00     0.074 A 
ATOM     39  C   UNL A   1      38.471  28.839  28.021  1.00  0.00     0.031 C 
ATOM     40  C   UNL A   1      39.852  34.670  31.437  1.00  0.00     0.029 A 
ATOM     41  C   UNL A   1      40.896  33.651  31.480  1.00  0.00     0.049 A 
ATOM     42  H   UNL A   1      40.894  31.793  30.539  1.00  0.00     0.167 HD
ATOM     43  C   UNL A   1      40.651  27.841  28.656  1.00  0.00     0.037 A 
ATOM     44  C   UNL A   1      42.057  33.754  32.152  1.00  0.00     0.037 A 
ATOM     45  C   UNL A   1      41.930  27.870  29.318  1.00  0.00     0.049 A 
ATOM     46  C   UNL A   1      43.012  32.596  32.140  1.00  0.00     0.074 A 
ATOM     47  C   UNL A   1      42.923  26.906  29.320  1.00  0.00     0.029 A 
ATOM     48  N   UNL A   1      42.393  28.924  30.093  1.00  0.00    -0.354 N 
ATOM     49  N   UNL A   1      42.908  31.448  31.516  1.00  0.00    -0.248 NA
ATOM     50  C   UNL A   1      44.239  32.740  32.934  1.00  0.00     0.031 C 
ATOM     51  C   UNL A   1      43.971  27.360  30.130  1.00  0.00     0.029 A 
ATOM     52  C   UNL A   1      43.647  28.624  30.598  1.00  0.00     0.049 A 
ATOM     53  H   UNL A   1      41.901  29.761  30.259  1.00  0.00     0.167 HD
ATOM     54  C   UNL A   1      44.059  30.738  31.831  1.00  0.00     0.074 A 
ATOM     55  C   UNL A   1      44.855  31.592  32.688  1.00  0.00     0.031 C 
ATOM     56  C   UNL A   1      44.422  29.490  31.449  1.00  0.00     0.037 A 
BRANCH  43  57
ATOM     57  C   UNL A   1      40.275  26.608  27.890  1.00  0.00     0.057 A 
ATOM     58  C   UNL A   1      40.755  26.357  26.600  1.00  0.00     0.134 A 
ATOM     59  C   UNL A   1      39.440  25.643  28.470  1.00  0.00     0.134 A 
ATOM     60  F   UNL A   1      41.545  27.250  25.984  1.00  0.00    -0.206 F 
ATOM     61  C   UNL A   1      40.406  25.199  25.904  1.00  0.00     0.040 A 
ATOM     62  C   UNL A   1      39.102  24.469  27.793  1.00  0.00     0.040 A 
ATOM     63  F   UNL A   1      38.948  25.820  29.705  1.00  0.00    -0.206 F 
ATOM     64  C   UNL A   1      39.582  24.248  26.504  1.00  0.00     0.006 A 
ENDBRANCH  43  57
BRANCH  44  65
ATOM     65  C   UNL A   1      42.357  34.984  32.927  1.00  0.00     0.057 A 
ATOM     66  C   UNL A   1      41.881  35.152  34.231  1.00  0.00     0.134 A 
ATOM     67  C   UNL A   1      43.127  36.018  32.381  1.00  0.00     0.134 A 
ATOM     68  F   UNL A   1      41.119  34.205  34.799  1.00  0.00    -0.206 F 
ATOM     69  C   UNL A   1      42.152  36.309  34.963  1.00  0.00     0.040 A 
ATOM     70  C   UNL A   1      43.428  37.169  33.111  1.00  0.00     0.040 A 
ATOM     71  F   UNL A   1      43.615  35.916  31.136  1.00  0.00    -0.206 F 
ATOM     72  C   UNL A   1      42.934  37.318  34.405  1.00  0.00     0.006 A 
ENDBRANCH  44  65
BRANCH  56  73
ATOM     73  C   UNL A   1      45.748  28.988  31.937  1.00  0.00     0.057 A 
ATOM     74  C   UNL A   1      45.862  28.250  33.122  1.00  0.00     0.134 A 
ATOM     75  C   UNL A   1      46.913  29.212  31.195  1.00  0.00     0.134 A 
ATOM     76  F   UNL A   1      44.783  28.015  33.884  1.00  0.00    -0.206 F 
ATOM     77  C   UNL A   1      47.096  27.768  33.561  1.00  0.00     0.040 A 
ATOM     78  C   UNL A   1      48.148  28.717  31.612  1.00  0.00     0.040 A 
ATOM     79  F   UNL A   1      46.867  29.907  30.048  1.00  0.00    -0.206 F 
ATOM     80  C   UNL A   1      48.242  27.995  32.801  1.00  0.00     0.006 A 
ENDBRANCH  56  73
ENDBRANCH  30  31
ENDBRANCH  23  25
ENDBRANCH  22  23
ENDBRANCH  21  22
ENDBRANCH   1  21
TORSDOF 14
ENDMDL
MODEL 2
REMARK VINA RESULT:      -9.4      3.817     10.184
REMARK SMILES COC(=O)c1ccc(N2C[C@@H](C(=O)OCCOC(=O)c3ccc(-c4c5nc(c(-c6c(F)cccc6F)c6ccc([nH]6)c(-c6c(F)cccc6F)c6nc(c(-c7c(F)cccc7F)c7ccc4[nH]7)C=C6)C=C5)cc3)CC2=O)cc1
REMARK SMILES IDX 15 1 14 2 12 3 13 4 11 5 9 6 10 7 75 8 74 9 76 10 8 11 5 12
REMARK SMILES IDX 6 13 78 14 7 15 77 16 3 17 4 18 2 19 1 20 16 21 17 22 18 23
REMARK SMILES IDX 19 24 20 25 21 26 73 27 22 28 72 29 23 30 24 31 25 32 66 33
REMARK SMILES IDX 26 34 71 35 65 36 67 37 27 38 70 39 64 40 63 41 28 43 54 44
REMARK SMILES IDX 37 45 53 46 38 47 41 48 52 49 68 50 39 51 40 52 51 54 69 55
REMARK SMILES IDX 42 56 29 57 30 58 35 59 31 60 32 61 34 62 36 63 33 64 55 65
REMARK SMILES IDX 56 66 61 67 57 68 58 69 60 70 62 71 59 72 43 73 44 74 49 75
REMARK SMILES IDX 45 76 46 77 48 78 50 79 47 80
REMARK H PARENT 67 42 41 53
REMARK Flexibility Score: inf
ROOT
ATOM      1  C   UNL A   1      46.260  23.222  24.327  1.00  0.00     0.274 C 
ENDROOT
BRANCH   1   2
ATOM      2  O   UNL A   1      46.446  24.614  24.646  1.00  0.00    -0.462 OA
BRANCH   2   3
ATOM      3  C   UNL A   1      46.945  24.897  25.872  1.00  0.00     0.311 C 
ATOM      4  O   UNL A   1      47.246  24.063  26.718  1.00  0.00    -0.252 OA
BRANCH   3   5
ATOM      5  C   UNL A   1      47.137  26.370  26.108  1.00  0.00     0.128 C 
ATOM      6  N   UNL A   1      45.999  28.248  26.864  1.00  0.00    -0.312 N 
ATOM      7  C   UNL A   1      46.134  26.840  27.131  1.00  0.00     0.141 C 
ATOM      8  C   UNL A   1      46.423  28.568  25.571  1.00  0.00     0.227 C 
ATOM      9  C   UNL A   1      46.955  27.312  24.930  1.00  0.00     0.117 C 
ATOM     10  O   UNL A   1      46.394  29.653  25.010  1.00  0.00    -0.274 OA
BRANCH   6  11
ATOM     11  C   UNL A   1      45.324  29.112  27.752  1.00  0.00     0.044 A 
ATOM     12  C   UNL A   1      43.880  30.677  29.583  1.00  0.00     0.060 A 
ATOM     13  C   UNL A   1      45.083  30.083  29.969  1.00  0.00     0.018 A 
ATOM     14  C   UNL A   1      43.422  30.530  28.271  1.00  0.00     0.018 A 
ATOM     15  C   UNL A   1      45.787  29.286  29.064  1.00  0.00     0.027 A 
ATOM     16  C   UNL A   1      44.155  29.770  27.356  1.00  0.00     0.027 A 
BRANCH  12  17
ATOM     17  C   UNL A   1      43.115  31.432  30.599  1.00  0.00     0.337 C 
ATOM     18  O   UNL A   1      43.480  31.580  31.755  1.00  0.00    -0.246 OA
BRANCH  17  19
ATOM     19  O   UNL A   1      41.932  31.823  30.067  1.00  0.00    -0.465 OA
ATOM     20  C   UNL A   1      41.679  33.225  30.169  1.00  0.00     0.282 C 
ENDBRANCH  17  19
ENDBRANCH  12  17
ENDBRANCH   6  11
ENDBRANCH   3   5
ENDBRANCH   2   3
ENDBRANCH   1   2
BRANCH   1  21
ATOM     21  C   UNL A   1      44.819  22.961  23.876  1.00  0.00     0.275 C 
BRANCH  21  22
ATOM     22  O   UNL A   1      43.898  23.923  24.428  1.00  0.00    -0.458 OA
BRANCH  22  23
ATOM     23  C   UNL A   1      42.913  23.400  25.193  1.00  0.00     0.338 C 
ATOM     24  O   UNL A   1      42.502  22.251  25.192  1.00  0.00    -0.246 OA
BRANCH  23  25
ATOM     25  C   UNL A   1      42.466  24.390  26.181  1.00  0.00     0.060 A 
ATOM     26  C   UNL A   1      43.006  25.675  26.106  1.00  0.00     0.016 A 
ATOM     27  C   UNL A   1      41.619  24.040  27.231  1.00  0.00     0.016 A 
ATOM     28  C   UNL A   1      42.740  26.611  27.095  1.00  0.00     0.010 A 
ATOM     29  C   UNL A   1      41.319  24.995  28.209  1.00  0.00     0.010 A 
ATOM     30  C   UNL A   1      41.887  26.281  28.153  1.00  0.00    -0.014 A 
BRANCH  30  31
ATOM     31  C   UNL A   1      41.613  27.290  29.202  1.00  0.00     0.031 A 
ATOM     32  C   UNL A   1      42.475  27.355  30.427  1.00  0.00     0.074 A 
ATOM     33  C   UNL A   1      40.605  28.165  29.029  1.00  0.00     0.049 A 
ATOM     34  N   UNL A   1      42.325  28.085  31.502  1.00  0.00    -0.248 NA
ATOM     35  C   UNL A   1      43.659  26.483  30.447  1.00  0.00     0.031 C 
ATOM     36  C   UNL A   1      39.739  28.237  27.850  1.00  0.00     0.029 A 
ATOM     37  N   UNL A   1      40.138  29.161  29.847  1.00  0.00    -0.354 N 
ATOM     38  C   UNL A   1      43.377  27.740  32.340  1.00  0.00     0.074 A 
ATOM     39  C   UNL A   1      44.153  26.730  31.652  1.00  0.00     0.031 C 
ATOM     40  C   UNL A   1      38.850  29.228  28.019  1.00  0.00     0.029 A 
ATOM     41  C   UNL A   1      39.042  29.816  29.340  1.00  0.00     0.049 A 
ATOM     42  H   UNL A   1      40.548  29.386  30.713  1.00  0.00     0.167 HD
ATOM     43  C   UNL A   1      43.665  28.226  33.570  1.00  0.00     0.037 A 
ATOM     44  C   UNL A   1      38.256  30.756  29.895  1.00  0.00     0.037 A 
ATOM     45  C   UNL A   1      42.901  29.250  34.234  1.00  0.00     0.049 A 
ATOM     46  C   UNL A   1      38.557  31.228  31.289  1.00  0.00     0.074 A 
ATOM     47  C   UNL A   1      43.118  29.820  35.476  1.00  0.00     0.029 A 
ATOM     48  N   UNL A   1      41.772  29.860  33.705  1.00  0.00    -0.354 N 
ATOM     49  N   UNL A   1      39.537  30.878  32.085  1.00  0.00    -0.248 NA
ATOM     50  C   UNL A   1      37.635  32.215  31.867  1.00  0.00     0.031 C 
ATOM     51  C   UNL A   1      42.097  30.747  35.716  1.00  0.00     0.029 A 
ATOM     52  C   UNL A   1      41.268  30.784  34.606  1.00  0.00     0.049 A 
ATOM     53  H   UNL A   1      41.387  29.664  32.820  1.00  0.00     0.167 HD
ATOM     54  C   UNL A   1      39.359  31.609  33.252  1.00  0.00     0.074 A 
ATOM     55  C   UNL A   1      38.186  32.435  33.052  1.00  0.00     0.031 C 
ATOM     56  C   UNL A   1      40.099  31.595  34.386  1.00  0.00     0.037 A 
BRANCH  43  57
ATOM     57  C   UNL A   1      44.836  27.630  34.293  1.00  0.00     0.057 A 
ATOM     58  C   UNL A   1      44.686  26.612  35.241  1.00  0.00     0.134 A 
ATOM     59  C   UNL A   1      46.137  28.067  34.012  1.00  0.00     0.134 A 
ATOM     60  F   UNL A   1      43.465  26.161  35.566  1.00  0.00    -0.206 F 
ATOM     61  C   UNL A   1      45.787  26.058  35.897  1.00  0.00     0.040 A 
ATOM     62  C   UNL A   1      47.249  27.506  34.644  1.00  0.00     0.040 A 
ATOM     63  F   UNL A   1      46.351  29.039  33.112  1.00  0.00    -0.206 F 
ATOM     64  C   UNL A   1      47.074  26.501  35.593  1.00  0.00     0.006 A 
ENDBRANCH  43  57
BRANCH  44  65
ATOM     65  C   UNL A   1      37.086  31.278  29.147  1.00  0.00     0.057 A 
ATOM     66  C   UNL A   1      35.940  30.499  28.958  1.00  0.00     0.134 A 
ATOM     67  C   UNL A   1      37.086  32.570  28.605  1.00  0.00     0.134 A 
ATOM     68  F   UNL A   1      35.890  29.246  29.435  1.00  0.00    -0.206 F 
ATOM     69  C   UNL A   1      34.839  30.980  28.249  1.00  0.00     0.040 A 
ATOM     70  C   UNL A   1      35.982  33.073  27.916  1.00  0.00     0.040 A 
ATOM     71  F   UNL A   1      38.153  33.368  28.754  1.00  0.00    -0.206 F 
ATOM     72  C   UNL A   1      34.856  32.274  27.732  1.00  0.00     0.006 A 
ENDBRANCH  44  65
BRANCH  56  73
ATOM     73  C   UNL A   1      39.671  32.517  35.488  1.00  0.00     0.057 A 
ATOM     74  C   UNL A   1      38.718  32.132  36.439  1.00  0.00     0.134 A 
ATOM     75  C   UNL A   1      40.245  33.787  35.619  1.00  0.00     0.134 A 
ATOM     76  F   UNL A   1      38.121  30.934  36.358  1.00  0.00    -0.206 F 
ATOM     77  C   UNL A   1      38.338  32.988  37.475  1.00  0.00     0.040 A 
ATOM     78  C   UNL A   1      39.890  34.643  36.662  1.00  0.00     0.040 A 
ATOM     79  F   UNL A   1      41.168  34.211  34.743  1.00  0.00    -0.206 F 
ATOM     80  C   UNL A   1      38.931  34.244  37.592  1.00  0.00     0.006 A 
ENDBRANCH  56  73
ENDBRANCH  30  31
ENDBRANCH  23  25
ENDBRANCH  22  23
ENDBRANCH  21  22
ENDBRANCH   1  21
TORSDOF 14
ENDMDL
MODEL 3
REMARK VINA RESULT:      -9.1      4.574     10.978
REMARK SMILES COC(=O)c1ccc(N2C[C@@H](C(=O)OCCOC(=O)c3ccc(-c4c5nc(c(-c6c(F)cccc6F)c6ccc([nH]6)c(-c6c(F)cccc6F)c6nc(c(-c7c(F)cccc7F)c7ccc4[nH]7)C=C6)C=C5)cc3)CC2=O)cc1
REMARK SMILES IDX 15 1 14 2 12 3 13 4 11 5 9 6 10 7 75 8 74 9 76 10 8 11 5 12
REMARK SMILES IDX 6 13 78 14 7 15 77 16 3 17 4 18 2 19 1 20 16 21 17 22 18 23
REMARK SMILES IDX 19 24 20 25 21 26 73 27 22 28 72 29 23 30 24 31 25 32 66 33
REMARK SMILES IDX 26 34 71 35 65 36 67 37 27 38 70 39 64 40 63 41 28 43 54 44
REMARK SMILES IDX 37 45 53 46 38 47 41 48 52 49 68 50 39 51 40 52 51 54 69 55
REMARK SMILES IDX 42 56 29 57 30 58 35 59 31 60 32 61 34 62 36 63 33 64 55 65
REMARK SMILES IDX 56 66 61 67 57 68 58 69 60 70 62 71 59 72 43 73 44 74 49 75
REMARK SMILES IDX 45 76 46 77 48 78 50 79 47 80
REMARK H PARENT 67 42 41 53
REMARK Flexibility Score: inf
ROOT
ATOM      1  C   UNL A   1      43.363  20.582  25.736  1.00  0.00     0.274 C 
ENDROOT
BRANCH   1   2
ATOM      2  O   UNL A   1      42.197  20.960  26.493  1.00  0.00    -0.462 OA
BRANCH   2   3
ATOM      3  C   UNL A   1      41.049  20.298  26.216  1.00  0.00     0.311 C 
ATOM      4  O   UNL A   1      40.986  19.163  25.756  1.00  0.00    -0.252 OA
BRANCH   3   5
ATOM      5  C   UNL A   1      39.814  21.083  26.563  1.00  0.00     0.128 C 
ATOM      6  N   UNL A   1      37.955  22.065  25.576  1.00  0.00    -0.312 N 
ATOM      7  C   UNL A   1      38.791  20.898  25.470  1.00  0.00     0.141 C 
ATOM      8  C   UNL A   1      38.602  23.100  26.258  1.00  0.00     0.227 C 
ATOM      9  C   UNL A   1      39.944  22.588  26.717  1.00  0.00     0.117 C 
ATOM     10  O   UNL A   1      38.202  24.233  26.475  1.00  0.00    -0.274 OA
BRANCH   6  11
ATOM     11  C   UNL A   1      36.733  22.169  24.880  1.00  0.00     0.044 A 
ATOM     12  C   UNL A   1      34.267  22.542  23.588  1.00  0.00     0.060 A 
ATOM     13  C   UNL A   1      35.434  23.065  23.028  1.00  0.00     0.018 A 
ATOM     14  C   UNL A   1      34.336  21.794  24.766  1.00  0.00     0.018 A 
ATOM     15  C   UNL A   1      36.656  22.898  23.685  1.00  0.00     0.027 A 
ATOM     16  C   UNL A   1      35.568  21.590  25.394  1.00  0.00     0.027 A 
BRANCH  12  17
ATOM     17  C   UNL A   1      32.981  22.824  22.914  1.00  0.00     0.337 C 
ATOM     18  O   UNL A   1      32.020  22.073  22.940  1.00  0.00    -0.246 OA
BRANCH  17  19
ATOM     19  O   UNL A   1      33.093  23.973  22.203  1.00  0.00    -0.465 OA
ATOM     20  C   UNL A   1      32.543  25.119  22.852  1.00  0.00     0.282 C 
ENDBRANCH  17  19
ENDBRANCH  12  17
ENDBRANCH   6  11
ENDBRANCH   3   5
ENDBRANCH   2   3
ENDBRANCH   1   2
BRANCH   1  21
ATOM     21  C   UNL A   1      44.059  21.822  25.165  1.00  0.00     0.275 C 
BRANCH  21  22
ATOM     22  O   UNL A   1      43.230  22.998  25.259  1.00  0.00    -0.458 OA
BRANCH  22  23
ATOM     23  C   UNL A   1      43.903  24.169  25.322  1.00  0.00     0.338 C 
ATOM     24  O   UNL A   1      44.798  24.553  24.586  1.00  0.00    -0.246 OA
BRANCH  23  25
ATOM     25  C   UNL A   1      43.303  25.038  26.343  1.00  0.00     0.060 A 
ATOM     26  C   UNL A   1      43.694  26.378  26.371  1.00  0.00     0.016 A 
ATOM     27  C   UNL A   1      42.459  24.529  27.328  1.00  0.00     0.016 A 
ATOM     28  C   UNL A   1      43.281  27.212  27.399  1.00  0.00     0.010 A 
ATOM     29  C   UNL A   1      42.010  25.379  28.344  1.00  0.00     0.010 A 
ATOM     30  C   UNL A   1      42.428  26.722  28.392  1.00  0.00    -0.014 A 
BRANCH  30  31
ATOM     31  C   UNL A   1      41.996  27.624  29.484  1.00  0.00     0.031 A 
ATOM     32  C   UNL A   1      42.748  27.651  30.780  1.00  0.00     0.074 A 
ATOM     33  C   UNL A   1      40.943  28.440  29.288  1.00  0.00     0.049 A 
ATOM     34  N   UNL A   1      42.458  28.282  31.889  1.00  0.00    -0.248 NA
ATOM     35  C   UNL A   1      43.988  26.862  30.840  1.00  0.00     0.031 C 
ATOM     36  C   UNL A   1      40.173  28.546  28.047  1.00  0.00     0.029 A 
ATOM     37  N   UNL A   1      40.339  29.335  30.133  1.00  0.00    -0.354 N 
ATOM     38  C   UNL A   1      43.460  27.944  32.787  1.00  0.00     0.074 A 
ATOM     39  C   UNL A   1      44.363  27.045  32.098  1.00  0.00     0.031 C 
ATOM     40  C   UNL A   1      39.203  29.458  28.210  1.00  0.00     0.029 A 
ATOM     41  C   UNL A   1      39.243  29.952  29.582  1.00  0.00     0.049 A 
ATOM     42  H   UNL A   1      40.659  29.518  31.046  1.00  0.00     0.167 HD
ATOM     43  C   UNL A   1      43.610  28.350  34.070  1.00  0.00     0.037 A 
ATOM     44  C   UNL A   1      38.347  30.791  30.133  1.00  0.00     0.037 A 
ATOM     45  C   UNL A   1      42.722  29.264  34.738  1.00  0.00     0.049 A 
ATOM     46  C   UNL A   1      38.497  31.171  31.578  1.00  0.00     0.074 A 
ATOM     47  C   UNL A   1      42.794  29.749  36.033  1.00  0.00     0.029 A 
ATOM     48  N   UNL A   1      41.598  29.837  34.159  1.00  0.00    -0.354 N 
ATOM     49  N   UNL A   1      39.433  30.826  32.429  1.00  0.00    -0.248 NA
ATOM     50  C   UNL A   1      37.461  32.045  32.144  1.00  0.00     0.031 C 
ATOM     51  C   UNL A   1      41.691  30.583  36.250  1.00  0.00     0.029 A 
ATOM     52  C   UNL A   1      40.955  30.651  35.077  1.00  0.00     0.049 A 
ATOM     53  H   UNL A   1      41.301  29.685  33.232  1.00  0.00     0.167 HD
ATOM     54  C   UNL A   1      39.107  31.449  33.626  1.00  0.00     0.074 A 
ATOM     55  C   UNL A   1      37.896  32.208  33.386  1.00  0.00     0.031 C 
ATOM     56  C   UNL A   1      39.751  31.396  34.816  1.00  0.00     0.037 A 
BRANCH  43  57
ATOM     57  C   UNL A   1      44.760  27.780  34.847  1.00  0.00     0.057 A 
ATOM     58  C   UNL A   1      44.666  26.560  35.527  1.00  0.00     0.134 A 
ATOM     59  C   UNL A   1      45.988  28.452  34.888  1.00  0.00     0.134 A 
ATOM     60  F   UNL A   1      43.512  25.876  35.540  1.00  0.00    -0.206 F 
ATOM     61  C   UNL A   1      45.749  26.036  36.236  1.00  0.00     0.040 A 
ATOM     62  C   UNL A   1      47.085  27.927  35.574  1.00  0.00     0.040 A 
ATOM     63  F   UNL A   1      46.146  29.624  34.255  1.00  0.00    -0.206 F 
ATOM     64  C   UNL A   1      46.965  26.717  36.254  1.00  0.00     0.006 A 
ENDBRANCH  43  57
BRANCH  44  65
ATOM     65  C   UNL A   1      37.206  31.290  29.326  1.00  0.00     0.057 A 
ATOM     66  C   UNL A   1      37.217  32.573  28.772  1.00  0.00     0.134 A 
ATOM     67  C   UNL A   1      36.078  30.493  29.090  1.00  0.00     0.134 A 
ATOM     68  F   UNL A   1      38.260  33.390  28.982  1.00  0.00    -0.206 F 
ATOM     69  C   UNL A   1      36.144  33.052  28.018  1.00  0.00     0.040 A 
ATOM     70  C   UNL A   1      35.010  30.949  28.317  1.00  0.00     0.040 A 
ATOM     71  F   UNL A   1      36.008  29.252  29.593  1.00  0.00    -0.206 F 
ATOM     72  C   UNL A   1      35.039  32.235  27.784  1.00  0.00     0.006 A 
ENDBRANCH  44  65
BRANCH  56  73
ATOM     73  C   UNL A   1      39.168  32.198  35.941  1.00  0.00     0.057 A 
ATOM     74  C   UNL A   1      38.255  31.640  36.845  1.00  0.00     0.134 A 
ATOM     75  C   UNL A   1      39.552  33.529  36.143  1.00  0.00     0.134 A 
ATOM     76  F   UNL A   1      37.837  30.374  36.695  1.00  0.00    -0.206 F 
ATOM     77  C   UNL A   1      37.731  32.386  37.902  1.00  0.00     0.040 A 
ATOM     78  C   UNL A   1      39.051  34.278  37.208  1.00  0.00     0.040 A 
ATOM     79  F   UNL A   1      40.427  34.118  35.314  1.00  0.00    -0.206 F 
ATOM     80  C   UNL A   1      38.135  33.706  38.089  1.00  0.00     0.006 A 
ENDBRANCH  56  73
ENDBRANCH  30  31
ENDBRANCH  23  25
ENDBRANCH  22  23
ENDBRANCH  21  22
ENDBRANCH   1  21
TORSDOF 14
ENDMDL
