MODEL 1
REMARK VINA RESULT:     -10.8      0.000      0.000
REMARK SMILES O=C(C[N@@H+](Cc1nc(-c2ccco2)no1)CC(F)(F)F)OCCOC(=O)c1ccc(-c2c3nc(c(-c4c(F)cccc4F)c4ccc([nH]4)c(-c4c(F)cccc4F)c4nc(c(-c5c(F)cccc5F)c5ccc2[nH]5)C=C4)C=C3)cc1
REMARK SMILES IDX 22 1 21 2 2 3 1 4 3 5 4 6 5 8 6 9 7 10 15 11 8 12 14 13 9 14
REMARK SMILES IDX 10 15 13 16 11 17 12 18 16 19 17 20 18 21 19 22 20 23 23 24
REMARK SMILES IDX 24 25 25 26 26 27 27 28 28 29 80 30 29 31 79 32 30 33 31 34
REMARK SMILES IDX 32 35 73 36 33 37 78 38 72 39 74 40 34 41 77 42 71 43 70 44
REMARK SMILES IDX 35 46 61 47 44 48 60 49 45 50 48 51 59 52 75 53 46 54 47 55
REMARK SMILES IDX 58 57 76 58 49 59 36 60 37 61 42 62 38 63 39 64 41 65 43 66
REMARK SMILES IDX 40 67 62 68 63 69 68 70 64 71 65 72 67 73 69 74 66 75 50 76
REMARK SMILES IDX 51 77 56 78 52 79 53 80 55 81 57 82 54 83
REMARK H PARENT 4 7 74 45 48 56
REMARK Flexibility Score: inf
ROOT
ATOM      1  C   UNL A   1      43.520  20.362  25.667  1.00  0.00     0.274 C 
ENDROOT
BRANCH   1   2
ATOM      2  O   UNL A   1      42.268  21.073  25.636  1.00  0.00    -0.458 OA
BRANCH   2   3
ATOM      3  C   UNL A   1      41.227  20.776  26.450  1.00  0.00     0.361 C 
ATOM      4  O   UNL A   1      40.918  19.608  26.685  1.00  0.00    -0.245 OA
BRANCH   3   5
ATOM      5  C   UNL A   1      40.427  21.923  27.030  1.00  0.00     0.387 C 
BRANCH   5   6
ATOM      6  N   UNL A   1      39.495  22.552  26.065  1.00  0.00    -0.310 N 
ATOM      7  H   UNL A   1      40.047  22.898  25.280  1.00  0.00     0.349 HD
BRANCH   6   8
ATOM      8  C   UNL A   1      38.538  21.551  25.525  1.00  0.00     0.364 C 
BRANCH   8   9
ATOM      9  C   UNL A   1      37.210  22.094  25.145  1.00  0.00     0.282 A 
ATOM     10  N   UNL A   1      36.103  22.104  25.850  1.00  0.00    -0.183 NA
ATOM     11  O   UNL A   1      37.083  22.638  23.907  1.00  0.00    -0.333 OA
ATOM     12  C   UNL A   1      35.217  22.612  24.969  1.00  0.00     0.238 A 
ATOM     13  N   UNL A   1      35.733  22.944  23.775  1.00  0.00    -0.053 NA
BRANCH  12  14
ATOM     14  C   UNL A   1      33.770  22.764  25.255  1.00  0.00     0.174 A 
ATOM     15  C   UNL A   1      32.279  21.625  25.188  1.00  0.00     0.054 A 
ATOM     16  O   UNL A   1      33.160  24.364  26.104  1.00  0.00    -0.461 OA
ATOM     17  C   UNL A   1      30.725  22.568  26.038  1.00  0.00     0.043 A 
ATOM     18  C   UNL A   1      31.321  24.266  26.596  1.00  0.00     0.196 A 
ENDBRANCH  12  14
ENDBRANCH   8   9
ENDBRANCH   6   8
BRANCH   6  19
ATOM     19  C   UNL A   1      38.808  23.744  26.645  1.00  0.00     0.380 C 
BRANCH  19  20
ATOM     20  C   UNL A   1      39.545  25.009  27.160  1.00  0.00     0.438 C 
ATOM     21  F   UNL A   1      40.572  25.389  26.376  1.00  0.00    -0.165 F 
ATOM     22  F   UNL A   1      38.681  26.052  27.218  1.00  0.00    -0.165 F 
ATOM     23  F   UNL A   1      40.013  24.827  28.417  1.00  0.00    -0.165 F 
ENDBRANCH  19  20
ENDBRANCH   6  19
ENDBRANCH   5   6
ENDBRANCH   3   5
ENDBRANCH   2   3
ENDBRANCH   1   2
BRANCH   1  24
ATOM     24  C   UNL A   1      44.642  21.115  24.934  1.00  0.00     0.275 C 
BRANCH  24  25
ATOM     25  O   UNL A   1      45.403  21.987  25.807  1.00  0.00    -0.458 OA
BRANCH  25  26
ATOM     26  C   UNL A   1      45.435  23.303  25.459  1.00  0.00     0.338 C 
ATOM     27  O   UNL A   1      45.802  23.739  24.380  1.00  0.00    -0.246 OA
BRANCH  26  28
ATOM     28  C   UNL A   1      44.758  24.155  26.483  1.00  0.00     0.060 A 
ATOM     29  C   UNL A   1      45.114  25.507  26.517  1.00  0.00     0.016 A 
ATOM     30  C   UNL A   1      43.783  23.691  27.378  1.00  0.00     0.016 A 
ATOM     31  C   UNL A   1      44.479  26.394  27.399  1.00  0.00     0.010 A 
ATOM     32  C   UNL A   1      43.109  24.591  28.241  1.00  0.00     0.010 A 
ATOM     33  C   UNL A   1      43.407  25.973  28.223  1.00  0.00    -0.014 A 
BRANCH  33  34
ATOM     34  C   UNL A   1      42.411  27.120  29.119  1.00  0.00     0.031 A 
ATOM     35  C   UNL A   1      43.360  26.930  30.681  1.00  0.00     0.074 A 
ATOM     36  C   UNL A   1      40.959  28.347  28.689  1.00  0.00     0.049 A 
ATOM     37  N   UNL A   1      43.206  27.689  31.754  1.00  0.00    -0.248 NA
ATOM     38  C   UNL A   1      44.404  25.917  30.900  1.00  0.00     0.031 C 
ATOM     39  C   UNL A   1      40.163  28.870  27.289  1.00  0.00     0.029 A 
ATOM     40  N   UNL A   1      40.172  29.391  29.479  1.00  0.00    -0.354 N 
ATOM     41  C   UNL A   1      43.967  27.223  32.760  1.00  0.00     0.074 A 
ATOM     42  C   UNL A   1      44.741  26.143  32.178  1.00  0.00     0.031 C 
ATOM     43  C   UNL A   1      39.147  29.704  27.539  1.00  0.00     0.029 A 
ATOM     44  C   UNL A   1      39.083  29.975  28.939  1.00  0.00     0.049 A 
ATOM     45  H   UNL A   1      40.461  29.639  30.387  1.00  0.00     0.167 HD
ATOM     46  C   UNL A   1      43.927  27.716  34.018  1.00  0.00     0.037 A 
ATOM     47  C   UNL A   1      38.176  30.682  29.628  1.00  0.00     0.037 A 
ATOM     48  C   UNL A   1      42.965  28.719  34.497  1.00  0.00     0.049 A 
ATOM     49  C   UNL A   1      38.450  30.938  31.094  1.00  0.00     0.074 A 
ATOM     50  C   UNL A   1      42.893  29.260  35.769  1.00  0.00     0.029 A 
ATOM     51  N   UNL A   1      41.898  29.308  33.778  1.00  0.00    -0.354 N 
ATOM     52  N   UNL A   1      39.424  30.481  31.866  1.00  0.00    -0.248 NA
ATOM     53  C   UNL A   1      37.547  31.874  31.751  1.00  0.00     0.031 C 
ATOM     54  C   UNL A   1      41.763  30.084  35.845  1.00  0.00     0.029 A 
ATOM     55  C   UNL A   1      41.140  30.153  34.601  1.00  0.00     0.049 A 
ATOM     56  H   UNL A   1      41.713  29.146  32.825  1.00  0.00     0.167 HD
ATOM     57  C   UNL A   1      39.268  31.092  33.105  1.00  0.00     0.074 A 
ATOM     58  C   UNL A   1      38.120  31.987  32.941  1.00  0.00     0.031 C 
ATOM     59  C   UNL A   1      39.964  30.973  34.276  1.00  0.00     0.037 A 
BRANCH  46  60
ATOM     60  C   UNL A   1      44.945  27.135  34.945  1.00  0.00     0.057 A 
ATOM     61  C   UNL A   1      44.658  25.983  35.692  1.00  0.00     0.134 A 
ATOM     62  C   UNL A   1      46.197  27.728  35.128  1.00  0.00     0.134 A 
ATOM     63  F   UNL A   1      43.473  25.365  35.562  1.00  0.00    -0.206 F 
ATOM     64  C   UNL A   1      45.559  25.474  36.626  1.00  0.00     0.040 A 
ATOM     65  C   UNL A   1      47.120  27.210  36.038  1.00  0.00     0.040 A 
ATOM     66  F   UNL A   1      46.542  28.825  34.437  1.00  0.00    -0.206 F 
ATOM     67  C   UNL A   1      46.795  26.089  36.801  1.00  0.00     0.006 A 
ENDBRANCH  46  60
BRANCH  47  68
ATOM     68  C   UNL A   1      37.032  31.213  28.870  1.00  0.00     0.057 A 
ATOM     69  C   UNL A   1      35.878  30.448  28.697  1.00  0.00     0.134 A 
ATOM     70  C   UNL A   1      36.987  32.564  28.498  1.00  0.00     0.134 A 
ATOM     71  F   UNL A   1      35.865  29.156  29.056  1.00  0.00    -0.206 F 
ATOM     72  C   UNL A   1      34.706  31.012  28.195  1.00  0.00     0.040 A 
ATOM     73  C   UNL A   1      35.816  33.145  28.016  1.00  0.00     0.040 A 
ATOM     74  F   UNL A   1      38.058  33.352  28.672  1.00  0.00    -0.206 F 
ATOM     75  C   UNL A   1      34.669  32.367  27.869  1.00  0.00     0.006 A 
ENDBRANCH  47  68
BRANCH  59  76
ATOM     76  C   UNL A   1      39.439  31.865  35.394  1.00  0.00     0.057 A 
ATOM     77  C   UNL A   1      38.473  31.425  36.316  1.00  0.00     0.134 A 
ATOM     78  C   UNL A   1      39.873  33.193  35.513  1.00  0.00     0.134 A 
ATOM     79  F   UNL A   1      37.989  30.176  36.250  1.00  0.00    -0.206 F 
ATOM     80  C   UNL A   1      37.920  32.288  37.269  1.00  0.00     0.040 A 
ATOM     81  C   UNL A   1      39.360  34.050  36.491  1.00  0.00     0.040 A 
ATOM     82  F   UNL A   1      40.801  33.683  34.678  1.00  0.00    -0.206 F 
ATOM     83  C   UNL A   1      38.367  33.604  37.360  1.00  0.00     0.006 A 
ENDBRANCH  59  76
ENDBRANCH  33  34
ENDBRANCH  26  28
ENDBRANCH  25  26
ENDBRANCH  24  25
ENDBRANCH   1  24
TORSDOF 17
ENDMDL
MODEL 2
REMARK VINA RESULT:     -10.3      4.254      7.096
REMARK SMILES O=C(C[N@@H+](Cc1nc(-c2ccco2)no1)CC(F)(F)F)OCCOC(=O)c1ccc(-c2c3nc(c(-c4c(F)cccc4F)c4ccc([nH]4)c(-c4c(F)cccc4F)c4nc(c(-c5c(F)cccc5F)c5ccc2[nH]5)C=C4)C=C3)cc1
REMARK SMILES IDX 22 1 21 2 2 3 1 4 3 5 4 6 5 8 6 9 7 10 15 11 8 12 14 13 9 14
REMARK SMILES IDX 10 15 13 16 11 17 12 18 16 19 17 20 18 21 19 22 20 23 23 24
REMARK SMILES IDX 24 25 25 26 26 27 27 28 28 29 80 30 29 31 79 32 30 33 31 34
REMARK SMILES IDX 32 35 73 36 33 37 78 38 72 39 74 40 34 41 77 42 71 43 70 44
REMARK SMILES IDX 35 46 61 47 44 48 60 49 45 50 48 51 59 52 75 53 46 54 47 55
REMARK SMILES IDX 58 57 76 58 49 59 36 60 37 61 42 62 38 63 39 64 41 65 43 66
REMARK SMILES IDX 40 67 62 68 63 69 68 70 64 71 65 72 67 73 69 74 66 75 50 76
REMARK SMILES IDX 51 77 56 78 52 79 53 80 55 81 57 82 54 83
REMARK H PARENT 4 7 74 45 48 56
REMARK Flexibility Score: inf
ROOT
ATOM      1  C   UNL A   1      37.767  20.845  25.058  1.00  0.00     0.274 C 
ENDROOT
BRANCH   1   2
ATOM      2  O   UNL A   1      36.404  20.381  25.015  1.00  0.00    -0.458 OA
BRANCH   2   3
ATOM      3  C   UNL A   1      35.352  21.132  25.418  1.00  0.00     0.361 C 
ATOM      4  O   UNL A   1      35.315  21.617  26.548  1.00  0.00    -0.245 OA
BRANCH   3   5
ATOM      5  C   UNL A   1      34.203  21.324  24.452  1.00  0.00     0.387 C 
BRANCH   5   6
ATOM      6  N   UNL A   1      32.940  20.682  24.888  1.00  0.00    -0.310 N 
ATOM      7  H   UNL A   1      32.994  20.543  25.897  1.00  0.00     0.349 HD
BRANCH   6   8
ATOM      8  C   UNL A   1      31.778  21.570  24.627  1.00  0.00     0.364 C 
BRANCH   8   9
ATOM      9  C   UNL A   1      31.739  22.810  25.440  1.00  0.00     0.282 A 
ATOM     10  N   UNL A   1      32.173  24.007  25.121  1.00  0.00    -0.183 NA
ATOM     11  O   UNL A   1      31.210  22.728  26.689  1.00  0.00    -0.333 OA
ATOM     12  C   UNL A   1      31.977  24.689  26.268  1.00  0.00     0.238 A 
ATOM     13  N   UNL A   1      31.413  23.980  27.259  1.00  0.00    -0.053 NA
BRANCH  12  14
ATOM     14  C   UNL A   1      32.380  26.103  26.463  1.00  0.00     0.174 A 
ATOM     15  C   UNL A   1      33.824  27.159  25.893  1.00  0.00     0.054 A 
ATOM     16  O   UNL A   1      31.143  27.313  27.272  1.00  0.00    -0.461 OA
ATOM     17  C   UNL A   1      33.434  29.070  26.364  1.00  0.00     0.043 A 
ATOM     18  C   UNL A   1      31.754  29.118  27.218  1.00  0.00     0.196 A 
ENDBRANCH  12  14
ENDBRANCH   8   9
ENDBRANCH   6   8
BRANCH   6  19
ATOM     19  C   UNL A   1      32.766  19.324  24.291  1.00  0.00     0.380 C 
BRANCH  19  20
ATOM     20  C   UNL A   1      32.938  17.998  25.080  1.00  0.00     0.438 C 
ATOM     21  F   UNL A   1      32.610  18.102  26.383  1.00  0.00    -0.165 F 
ATOM     22  F   UNL A   1      32.145  17.039  24.545  1.00  0.00    -0.165 F 
ATOM     23  F   UNL A   1      34.208  17.538  24.996  1.00  0.00    -0.165 F 
ENDBRANCH  19  20
ENDBRANCH   6  19
ENDBRANCH   5   6
ENDBRANCH   3   5
ENDBRANCH   2   3
ENDBRANCH   1   2
BRANCH   1  24
ATOM     24  C   UNL A   1      38.779  19.692  25.152  1.00  0.00     0.275 C 
BRANCH  24  25
ATOM     25  O   UNL A   1      39.488  19.662  26.417  1.00  0.00    -0.458 OA
BRANCH  25  26
ATOM     26  C   UNL A   1      40.838  19.817  26.350  1.00  0.00     0.338 C 
ATOM     27  O   UNL A   1      41.615  19.030  25.833  1.00  0.00    -0.246 OA
BRANCH  26  28
ATOM     28  C   UNL A   1      41.253  21.181  26.795  1.00  0.00     0.060 A 
ATOM     29  C   UNL A   1      41.285  22.184  25.820  1.00  0.00     0.016 A 
ATOM     30  C   UNL A   1      41.581  21.516  28.118  1.00  0.00     0.016 A 
ATOM     31  C   UNL A   1      41.596  23.508  26.163  1.00  0.00     0.010 A 
ATOM     32  C   UNL A   1      41.854  22.859  28.476  1.00  0.00     0.010 A 
ATOM     33  C   UNL A   1      41.808  23.891  27.510  1.00  0.00    -0.014 A 
BRANCH  33  34
ATOM     34  C   UNL A   1      41.914  25.584  27.995  1.00  0.00     0.031 A 
ATOM     35  C   UNL A   1      43.532  25.859  27.169  1.00  0.00     0.074 A 
ATOM     36  C   UNL A   1      40.740  26.860  28.886  1.00  0.00     0.049 A 
ATOM     37  N   UNL A   1      44.109  27.039  27.018  1.00  0.00    -0.248 NA
ATOM     38  C   UNL A   1      44.355  24.791  26.579  1.00  0.00     0.031 C 
ATOM     39  C   UNL A   1      39.141  26.881  29.442  1.00  0.00     0.029 A 
ATOM     40  N   UNL A   1      40.833  28.348  29.216  1.00  0.00    -0.354 N 
ATOM     41  C   UNL A   1      45.331  26.887  26.476  1.00  0.00     0.074 A 
ATOM     42  C   UNL A   1      45.434  25.473  26.169  1.00  0.00     0.031 C 
ATOM     43  C   UNL A   1      38.815  28.017  30.069  1.00  0.00     0.029 A 
ATOM     44  C   UNL A   1      39.913  28.928  30.012  1.00  0.00     0.049 A 
ATOM     45  H   UNL A   1      41.570  28.887  28.846  1.00  0.00     0.167 HD
ATOM     46  C   UNL A   1      46.210  27.902  26.316  1.00  0.00     0.037 A 
ATOM     47  C   UNL A   1      40.048  30.134  30.581  1.00  0.00     0.037 A 
ATOM     48  C   UNL A   1      46.018  29.268  26.827  1.00  0.00     0.049 A 
ATOM     49  C   UNL A   1      41.268  30.951  30.217  1.00  0.00     0.074 A 
ATOM     50  C   UNL A   1      46.882  30.338  26.679  1.00  0.00     0.029 A 
ATOM     51  N   UNL A   1      44.942  29.758  27.603  1.00  0.00    -0.354 N 
ATOM     52  N   UNL A   1      42.316  30.623  29.478  1.00  0.00    -0.248 NA
ATOM     53  C   UNL A   1      41.273  32.327  30.697  1.00  0.00     0.031 C 
ATOM     54  C   UNL A   1      46.388  31.422  27.417  1.00  0.00     0.029 A 
ATOM     55  C   UNL A   1      45.158  31.092  27.981  1.00  0.00     0.049 A 
ATOM     56  H   UNL A   1      44.145  29.233  27.845  1.00  0.00     0.167 HD
ATOM     57  C   UNL A   1      43.106  31.764  29.381  1.00  0.00     0.074 A 
ATOM     58  C   UNL A   1      42.366  32.796  30.111  1.00  0.00     0.031 C 
ATOM     59  C   UNL A   1      44.306  31.995  28.767  1.00  0.00     0.037 A 
BRANCH  46  60
ATOM     60  C   UNL A   1      47.457  27.534  25.581  1.00  0.00     0.057 A 
ATOM     61  C   UNL A   1      48.600  27.113  26.275  1.00  0.00     0.134 A 
ATOM     62  C   UNL A   1      47.544  27.624  24.188  1.00  0.00     0.134 A 
ATOM     63  F   UNL A   1      48.581  27.004  27.614  1.00  0.00    -0.206 F 
ATOM     64  C   UNL A   1      49.800  26.847  25.617  1.00  0.00     0.040 A 
ATOM     65  C   UNL A   1      48.731  27.331  23.515  1.00  0.00     0.040 A 
ATOM     66  F   UNL A   1      46.485  28.009  23.460  1.00  0.00    -0.206 F 
ATOM     67  C   UNL A   1      49.867  26.957  24.232  1.00  0.00     0.006 A 
ENDBRANCH  46  60
BRANCH  47  68
ATOM     68  C   UNL A   1      38.950  30.585  31.451  1.00  0.00     0.057 A 
ATOM     69  C   UNL A   1      39.010  30.389  32.832  1.00  0.00     0.134 A 
ATOM     70  C   UNL A   1      37.933  31.409  30.948  1.00  0.00     0.134 A 
ATOM     71  F   UNL A   1      39.976  29.625  33.362  1.00  0.00    -0.206 F 
ATOM     72  C   UNL A   1      38.106  31.012  33.690  1.00  0.00     0.040 A 
ATOM     73  C   UNL A   1      37.037  32.056  31.797  1.00  0.00     0.040 A 
ATOM     74  F   UNL A   1      37.848  31.657  29.633  1.00  0.00    -0.206 F 
ATOM     75  C   UNL A   1      37.127  31.860  33.174  1.00  0.00     0.006 A 
ENDBRANCH  47  68
BRANCH  59  76
ATOM     76  C   UNL A   1      44.801  33.429  28.909  1.00  0.00     0.057 A 
ATOM     77  C   UNL A   1      44.453  34.438  27.995  1.00  0.00     0.134 A 
ATOM     78  C   UNL A   1      45.672  33.785  29.948  1.00  0.00     0.134 A 
ATOM     79  F   UNL A   1      43.645  34.168  26.958  1.00  0.00    -0.206 F 
ATOM     80  C   UNL A   1      45.001  35.723  28.075  1.00  0.00     0.040 A 
ATOM     81  C   UNL A   1      46.189  35.078  30.065  1.00  0.00     0.040 A 
ATOM     82  F   UNL A   1      46.040  32.880  30.867  1.00  0.00    -0.206 F 
ATOM     83  C   UNL A   1      45.869  36.047  29.115  1.00  0.00     0.006 A 
ENDBRANCH  59  76
ENDBRANCH  33  34
ENDBRANCH  26  28
ENDBRANCH  25  26
ENDBRANCH  24  25
ENDBRANCH   1  24
TORSDOF 17
ENDMDL
MODEL 3
REMARK VINA RESULT:     -10.1      4.120      9.248
REMARK SMILES O=C(C[N@@H+](Cc1nc(-c2ccco2)no1)CC(F)(F)F)OCCOC(=O)c1ccc(-c2c3nc(c(-c4c(F)cccc4F)c4ccc([nH]4)c(-c4c(F)cccc4F)c4nc(c(-c5c(F)cccc5F)c5ccc2[nH]5)C=C4)C=C3)cc1
REMARK SMILES IDX 22 1 21 2 2 3 1 4 3 5 4 6 5 8 6 9 7 10 15 11 8 12 14 13 9 14
REMARK SMILES IDX 10 15 13 16 11 17 12 18 16 19 17 20 18 21 19 22 20 23 23 24
REMARK SMILES IDX 24 25 25 26 26 27 27 28 28 29 80 30 29 31 79 32 30 33 31 34
REMARK SMILES IDX 32 35 73 36 33 37 78 38 72 39 74 40 34 41 77 42 71 43 70 44
REMARK SMILES IDX 35 46 61 47 44 48 60 49 45 50 48 51 59 52 75 53 46 54 47 55
REMARK SMILES IDX 58 57 76 58 49 59 36 60 37 61 42 62 38 63 39 64 41 65 43 66
REMARK SMILES IDX 40 67 62 68 63 69 68 70 64 71 65 72 67 73 69 74 66 75 50 76
REMARK SMILES IDX 51 77 56 78 52 79 53 80 55 81 57 82 54 83
REMARK H PARENT 4 7 74 45 48 56
REMARK Flexibility Score: inf
ROOT
ATOM      1  C   UNL A   1      31.639  30.712  26.772  1.00  0.00     0.274 C 
ENDROOT
BRANCH   1   2
ATOM      2  O   UNL A   1      32.019  29.451  26.187  1.00  0.00    -0.458 OA
BRANCH   2   3
ATOM      3  C   UNL A   1      31.972  28.278  26.862  1.00  0.00     0.361 C 
ATOM      4  O   UNL A   1      31.379  28.187  27.936  1.00  0.00    -0.245 OA
BRANCH   3   5
ATOM      5  C   UNL A   1      32.706  27.090  26.277  1.00  0.00     0.387 C 
BRANCH   5   6
ATOM      6  N   UNL A   1      31.812  26.016  25.785  1.00  0.00    -0.310 N 
ATOM      7  H   UNL A   1      30.889  26.169  26.192  1.00  0.00     0.349 HD
BRANCH   6   8
ATOM      8  C   UNL A   1      31.660  26.088  24.309  1.00  0.00     0.364 C 
BRANCH   8   9
ATOM      9  C   UNL A   1      30.558  26.959  23.831  1.00  0.00     0.282 A 
ATOM     10  N   UNL A   1      30.631  28.185  23.370  1.00  0.00    -0.183 NA
ATOM     11  O   UNL A   1      29.295  26.461  23.883  1.00  0.00    -0.333 OA
ATOM     12  C   UNL A   1      29.329  28.497  23.202  1.00  0.00     0.238 A 
ATOM     13  N   UNL A   1      28.468  27.512  23.503  1.00  0.00    -0.053 NA
BRANCH  12  14
ATOM     14  C   UNL A   1      28.854  29.830  22.759  1.00  0.00     0.174 A 
ATOM     15  C   UNL A   1      28.781  31.537  23.538  1.00  0.00     0.054 A 
ATOM     16  O   UNL A   1      28.384  30.080  20.924  1.00  0.00    -0.461 OA
ATOM     17  C   UNL A   1      28.261  32.857  22.120  1.00  0.00     0.043 A 
ATOM     18  C   UNL A   1      28.029  31.906  20.509  1.00  0.00     0.196 A 
ENDBRANCH  12  14
ENDBRANCH   8   9
ENDBRANCH   6   8
BRANCH   6  19
ATOM     19  C   UNL A   1      32.249  24.666  26.249  1.00  0.00     0.380 C 
BRANCH  19  20
ATOM     20  C   UNL A   1      31.279  23.492  26.551  1.00  0.00     0.438 C 
ATOM     21  F   UNL A   1      31.666  22.730  27.593  1.00  0.00    -0.165 F 
ATOM     22  F   UNL A   1      30.049  23.978  26.847  1.00  0.00    -0.165 F 
ATOM     23  F   UNL A   1      31.126  22.691  25.471  1.00  0.00    -0.165 F 
ENDBRANCH  19  20
ENDBRANCH   6  19
ENDBRANCH   5   6
ENDBRANCH   3   5
ENDBRANCH   2   3
ENDBRANCH   1   2
BRANCH   1  24
ATOM     24  C   UNL A   1      32.852  31.541  27.223  1.00  0.00     0.275 C 
BRANCH  24  25
ATOM     25  O   UNL A   1      32.654  32.968  27.061  1.00  0.00    -0.458 OA
BRANCH  25  26
ATOM     26  C   UNL A   1      33.204  33.761  28.022  1.00  0.00     0.338 C 
ATOM     27  O   UNL A   1      32.660  34.723  28.540  1.00  0.00    -0.246 OA
BRANCH  26  28
ATOM     28  C   UNL A   1      34.485  33.188  28.535  1.00  0.00     0.060 A 
ATOM     29  C   UNL A   1      34.399  32.337  29.642  1.00  0.00     0.016 A 
ATOM     30  C   UNL A   1      35.744  33.428  27.964  1.00  0.00     0.016 A 
ATOM     31  C   UNL A   1      35.542  31.700  30.147  1.00  0.00     0.010 A 
ATOM     32  C   UNL A   1      36.894  32.755  28.445  1.00  0.00     0.010 A 
ATOM     33  C   UNL A   1      36.802  31.831  29.511  1.00  0.00    -0.014 A 
BRANCH  33  34
ATOM     34  C   UNL A   1      38.180  30.822  29.950  1.00  0.00     0.031 A 
ATOM     35  C   UNL A   1      38.256  31.444  31.678  1.00  0.00     0.074 A 
ATOM     36  C   UNL A   1      39.199  29.397  29.096  1.00  0.00     0.049 A 
ATOM     37  N   UNL A   1      39.018  30.932  32.630  1.00  0.00    -0.248 NA
ATOM     38  C   UNL A   1      37.467  32.576  32.188  1.00  0.00     0.031 C 
ATOM     39  C   UNL A   1      39.101  28.502  27.662  1.00  0.00     0.029 A 
ATOM     40  N   UNL A   1      40.340  28.483  29.541  1.00  0.00    -0.354 N 
ATOM     41  C   UNL A   1      38.927  31.680  33.744  1.00  0.00     0.074 A 
ATOM     42  C   UNL A   1      37.911  32.673  33.449  1.00  0.00     0.031 C 
ATOM     43  C   UNL A   1      40.121  27.651  27.499  1.00  0.00     0.029 A 
ATOM     44  C   UNL A   1      40.968  27.693  28.648  1.00  0.00     0.049 A 
ATOM     45  H   UNL A   1      40.619  28.473  30.486  1.00  0.00     0.167 HD
ATOM     46  C   UNL A   1      39.686  31.478  34.844  1.00  0.00     0.037 A 
ATOM     47  C   UNL A   1      42.136  27.074  28.866  1.00  0.00     0.037 A 
ATOM     48  C   UNL A   1      40.796  30.519  34.935  1.00  0.00     0.049 A 
ATOM     49  C   UNL A   1      42.739  27.177  30.250  1.00  0.00     0.074 A 
ATOM     50  C   UNL A   1      41.591  30.270  36.040  1.00  0.00     0.029 A 
ATOM     51  N   UNL A   1      41.306  29.686  33.911  1.00  0.00    -0.354 N 
ATOM     52  N   UNL A   1      42.343  27.886  31.295  1.00  0.00    -0.248 NA
ATOM     53  C   UNL A   1      43.898  26.328  30.499  1.00  0.00     0.031 C 
ATOM     54  C   UNL A   1      42.607  29.379  35.673  1.00  0.00     0.029 A 
ATOM     55  C   UNL A   1      42.432  28.976  34.351  1.00  0.00     0.049 A 
ATOM     56  H   UNL A   1      40.920  29.613  33.008  1.00  0.00     0.167 HD
ATOM     57  C   UNL A   1      43.192  27.553  32.346  1.00  0.00     0.074 A 
ATOM     58  C   UNL A   1      44.092  26.538  31.793  1.00  0.00     0.031 C 
ATOM     59  C   UNL A   1      43.263  27.996  33.638  1.00  0.00     0.037 A 
BRANCH  46  60
ATOM     60  C   UNL A   1      39.333  32.345  36.009  1.00  0.00     0.057 A 
ATOM     61  C   UNL A   1      39.952  33.591  36.187  1.00  0.00     0.134 A 
ATOM     62  C   UNL A   1      38.407  31.939  36.975  1.00  0.00     0.134 A 
ATOM     63  F   UNL A   1      40.849  34.039  35.294  1.00  0.00    -0.206 F 
ATOM     64  C   UNL A   1      39.702  34.378  37.311  1.00  0.00     0.040 A 
ATOM     65  C   UNL A   1      38.127  32.732  38.089  1.00  0.00     0.040 A 
ATOM     66  F   UNL A   1      37.770  30.765  36.861  1.00  0.00    -0.206 F 
ATOM     67  C   UNL A   1      38.787  33.947  38.266  1.00  0.00     0.006 A 
ENDBRANCH  46  60
BRANCH  47  68
ATOM     68  C   UNL A   1      42.686  26.280  27.755  1.00  0.00     0.057 A 
ATOM     69  C   UNL A   1      42.254  24.972  27.535  1.00  0.00     0.134 A 
ATOM     70  C   UNL A   1      43.480  26.885  26.770  1.00  0.00     0.134 A 
ATOM     71  F   UNL A   1      41.476  24.358  28.438  1.00  0.00    -0.206 F 
ATOM     72  C   UNL A   1      42.578  24.291  26.362  1.00  0.00     0.040 A 
ATOM     73  C   UNL A   1      43.792  26.224  25.584  1.00  0.00     0.040 A 
ATOM     74  F   UNL A   1      43.896  28.151  26.916  1.00  0.00    -0.206 F 
ATOM     75  C   UNL A   1      43.334  24.924  25.377  1.00  0.00     0.006 A 
ENDBRANCH  47  68
BRANCH  59  76
ATOM     76  C   UNL A   1      44.364  27.328  34.453  1.00  0.00     0.057 A 
ATOM     77  C   UNL A   1      44.160  26.124  35.148  1.00  0.00     0.134 A 
ATOM     78  C   UNL A   1      45.624  27.929  34.578  1.00  0.00     0.134 A 
ATOM     79  F   UNL A   1      42.972  25.503  35.098  1.00  0.00    -0.206 F 
ATOM     80  C   UNL A   1      45.144  25.580  35.980  1.00  0.00     0.040 A 
ATOM     81  C   UNL A   1      46.630  27.370  35.371  1.00  0.00     0.040 A 
ATOM     82  F   UNL A   1      45.899  29.074  33.937  1.00  0.00    -0.206 F 
ATOM     83  C   UNL A   1      46.386  26.202  36.090  1.00  0.00     0.006 A 
ENDBRANCH  59  76
ENDBRANCH  33  34
ENDBRANCH  26  28
ENDBRANCH  25  26
ENDBRANCH  24  25
ENDBRANCH   1  24
TORSDOF 17
ENDMDL
