MODEL 1
REMARK VINA RESULT:     -11.1      0.000      0.000
REMARK SMILES Cc1cc(C(=O)OCCOC(=O)c2ccc(-c3c4nc(c(-c5c(F)cccc5F)c5ccc([nH]5)c(-c5c(F)cccc5F)c5nc(c(-c6c(F)cccc6F)c6ccc3[nH]6)C=C5)C=C4)cc2)c(NC(=O)c2nc(C(C)(C)C)n[nH]2)s1
REMARK SMILES IDX 8 1 7 2 5 3 6 4 4 5 1 6 2 7 3 8 80 9 67 10 68 11 69 12 70 14
REMARK SMILES IDX 71 15 72 16 79 17 73 18 78 19 74 21 75 22 76 23 77 24 9 25
REMARK SMILES IDX 10 26 11 27 12 28 13 29 14 30 66 31 15 32 65 33 16 34 17 35
REMARK SMILES IDX 18 36 59 37 19 38 64 39 58 40 60 41 20 42 63 43 57 44 56 45
REMARK SMILES IDX 21 47 47 48 30 49 46 50 31 51 34 52 45 53 61 54 32 55 33 56
REMARK SMILES IDX 44 58 62 59 35 60 22 61 23 62 28 63 24 64 25 65 27 66 29 67
REMARK SMILES IDX 26 68 48 69 49 70 54 71 50 72 51 73 53 74 55 75 52 76 36 77
REMARK SMILES IDX 37 78 42 79 38 80 39 81 41 82 43 83 40 84
REMARK H PARENT 68 13 79 20 60 46 34 57
REMARK Flexibility Score: inf
ROOT
ATOM      1  C   UNL A   1      31.971  29.693  26.407  1.00  0.00     0.275 C 
ENDROOT
BRANCH   1   2
ATOM      2  O   UNL A   1      31.285  28.812  25.495  1.00  0.00    -0.458 OA
BRANCH   2   3
ATOM      3  C   UNL A   1      31.197  27.499  25.850  1.00  0.00     0.341 C 
ATOM      4  O   UNL A   1      31.063  27.094  27.003  1.00  0.00    -0.246 OA
BRANCH   3   5
ATOM      5  C   UNL A   1      31.226  26.596  24.699  1.00  0.00     0.095 A 
ATOM      6  C   UNL A   1      31.982  25.809  21.058  1.00  0.00     0.056 C 
ATOM      7  C   UNL A   1      31.573  25.893  22.486  1.00  0.00     0.004 A 
ATOM      8  C   UNL A   1      31.700  26.933  23.379  1.00  0.00     0.033 A 
ATOM      9  S   UNL A   1      30.810  24.562  23.208  1.00  0.00    -0.122 S 
ATOM     10  C   UNL A   1      30.787  25.275  24.741  1.00  0.00     0.110 A 
BRANCH  10  11
ATOM     11  N   UNL A   1      30.352  24.589  25.864  1.00  0.00    -0.310 N 
ATOM     12  C   UNL A   1      30.820  23.484  26.554  1.00  0.00     0.293 C 
ATOM     13  H   UNL A   1      29.532  24.969  26.255  1.00  0.00     0.171 HD
ATOM     14  O   UNL A   1      30.174  23.162  27.555  1.00  0.00    -0.265 OA
BRANCH  12  15
ATOM     15  C   UNL A   1      32.002  22.763  26.156  1.00  0.00     0.214 A 
ATOM     16  N   UNL A   1      33.218  23.262  26.013  1.00  0.00    -0.207 NA
ATOM     17  N   UNL A   1      32.016  21.462  25.756  1.00  0.00    -0.255 N 
ATOM     18  C   UNL A   1      33.954  22.191  25.549  1.00  0.00     0.156 A 
ATOM     19  N   UNL A   1      33.245  21.062  25.402  1.00  0.00    -0.158 NA
ATOM     20  H   UNL A   1      31.219  20.885  25.729  1.00  0.00     0.192 HD
BRANCH  18  21
ATOM     21  C   UNL A   1      35.416  22.294  25.167  1.00  0.00     0.024 C 
ATOM     22  C   UNL A   1      36.108  23.341  26.061  1.00  0.00     0.019 C 
ATOM     23  C   UNL A   1      36.130  20.940  25.343  1.00  0.00     0.019 C 
ATOM     24  C   UNL A   1      35.588  22.728  23.694  1.00  0.00     0.019 C 
ENDBRANCH  18  21
ENDBRANCH  12  15
ENDBRANCH  10  11
ENDBRANCH   3   5
ENDBRANCH   2   3
ENDBRANCH   1   2
BRANCH   1  25
ATOM     25  C   UNL A   1      33.492  29.501  26.352  1.00  0.00     0.275 C 
BRANCH  25  26
ATOM     26  O   UNL A   1      34.049  29.344  27.670  1.00  0.00    -0.458 OA
BRANCH  26  27
ATOM     27  C   UNL A   1      34.791  30.387  28.113  1.00  0.00     0.338 C 
ATOM     28  O   UNL A   1      34.382  31.498  28.409  1.00  0.00    -0.246 OA
BRANCH  27  29
ATOM     29  C   UNL A   1      36.168  29.932  28.397  1.00  0.00     0.060 A 
ATOM     30  C   UNL A   1      37.108  30.086  27.375  1.00  0.00     0.016 A 
ATOM     31  C   UNL A   1      36.548  29.375  29.622  1.00  0.00     0.016 A 
ATOM     32  C   UNL A   1      38.441  29.746  27.589  1.00  0.00     0.010 A 
ATOM     33  C   UNL A   1      37.884  29.000  29.825  1.00  0.00     0.010 A 
ATOM     34  C   UNL A   1      38.839  29.203  28.814  1.00  0.00    -0.014 A 
BRANCH  34  35
ATOM     35  C   UNL A   1      40.248  28.772  28.973  1.00  0.00     0.031 A 
ATOM     36  C   UNL A   1      41.221  29.687  29.652  1.00  0.00     0.074 A 
ATOM     37  C   UNL A   1      40.635  27.539  28.597  1.00  0.00     0.049 A 
ATOM     38  N   UNL A   1      42.494  29.510  29.899  1.00  0.00    -0.248 NA
ATOM     39  C   UNL A   1      40.683  30.970  30.128  1.00  0.00     0.031 C 
ATOM     40  C   UNL A   1      39.760  26.517  28.032  1.00  0.00     0.029 A 
ATOM     41  N   UNL A   1      41.867  26.933  28.659  1.00  0.00    -0.354 N 
ATOM     42  C   UNL A   1      42.908  30.655  30.566  1.00  0.00     0.074 A 
ATOM     43  C   UNL A   1      41.756  31.527  30.668  1.00  0.00     0.031 C 
ATOM     44  C   UNL A   1      40.480  25.405  27.801  1.00  0.00     0.029 A 
ATOM     45  C   UNL A   1      41.874  25.652  28.164  1.00  0.00     0.049 A 
ATOM     46  H   UNL A   1      42.667  27.376  29.023  1.00  0.00     0.167 HD
ATOM     47  C   UNL A   1      44.139  30.954  31.042  1.00  0.00     0.037 A 
ATOM     48  C   UNL A   1      42.895  24.786  28.007  1.00  0.00     0.037 A 
ATOM     49  C   UNL A   1      45.289  30.098  30.918  1.00  0.00     0.049 A 
ATOM     50  C   UNL A   1      44.281  25.194  28.435  1.00  0.00     0.074 A 
ATOM     51  C   UNL A   1      46.588  30.334  31.333  1.00  0.00     0.029 A 
ATOM     52  N   UNL A   1      45.281  28.843  30.325  1.00  0.00    -0.354 N 
ATOM     53  N   UNL A   1      44.675  26.290  29.038  1.00  0.00    -0.248 NA
ATOM     54  C   UNL A   1      45.369  24.246  28.148  1.00  0.00     0.031 C 
ATOM     55  C   UNL A   1      47.378  29.248  30.940  1.00  0.00     0.029 A 
ATOM     56  C   UNL A   1      46.559  28.308  30.335  1.00  0.00     0.049 A 
ATOM     57  H   UNL A   1      44.485  28.399  29.954  1.00  0.00     0.167 HD
ATOM     58  C   UNL A   1      46.044  26.151  29.229  1.00  0.00     0.074 A 
ATOM     59  C   UNL A   1      46.414  24.859  28.689  1.00  0.00     0.031 C 
ATOM     60  C   UNL A   1      46.917  27.016  29.801  1.00  0.00     0.037 A 
BRANCH  47  61
ATOM     61  C   UNL A   1      44.312  32.299  31.679  1.00  0.00     0.057 A 
ATOM     62  C   UNL A   1      44.162  32.497  33.057  1.00  0.00     0.134 A 
ATOM     63  C   UNL A   1      44.632  33.416  30.895  1.00  0.00     0.134 A 
ATOM     64  F   UNL A   1      43.837  31.473  33.860  1.00  0.00    -0.206 F 
ATOM     65  C   UNL A   1      44.297  33.763  33.630  1.00  0.00     0.040 A 
ATOM     66  C   UNL A   1      44.796  34.681  31.461  1.00  0.00     0.040 A 
ATOM     67  F   UNL A   1      44.790  33.294  29.569  1.00  0.00    -0.206 F 
ATOM     68  C   UNL A   1      44.621  34.858  32.830  1.00  0.00     0.006 A 
ENDBRANCH  47  61
BRANCH  48  69
ATOM     69  C   UNL A   1      42.663  23.460  27.377  1.00  0.00     0.057 A 
ATOM     70  C   UNL A   1      42.301  22.342  28.138  1.00  0.00     0.134 A 
ATOM     71  C   UNL A   1      42.850  23.268  26.002  1.00  0.00     0.134 A 
ATOM     72  F   UNL A   1      42.139  22.449  29.464  1.00  0.00    -0.206 F 
ATOM     73  C   UNL A   1      42.154  21.079  27.559  1.00  0.00     0.040 A 
ATOM     74  C   UNL A   1      42.678  22.017  25.406  1.00  0.00     0.040 A 
ATOM     75  F   UNL A   1      43.208  24.293  25.216  1.00  0.00    -0.206 F 
ATOM     76  C   UNL A   1      42.339  20.916  26.187  1.00  0.00     0.006 A 
ENDBRANCH  48  69
BRANCH  60  77
ATOM     77  C   UNL A   1      48.353  26.588  29.910  1.00  0.00     0.057 A 
ATOM     78  C   UNL A   1      49.309  26.942  28.949  1.00  0.00     0.134 A 
ATOM     79  C   UNL A   1      48.794  25.854  31.018  1.00  0.00     0.134 A 
ATOM     80  F   UNL A   1      48.952  27.634  27.856  1.00  0.00    -0.206 F 
ATOM     81  C   UNL A   1      50.647  26.566  29.078  1.00  0.00     0.040 A 
ATOM     82  C   UNL A   1      50.135  25.497  31.173  1.00  0.00     0.040 A 
ATOM     83  F   UNL A   1      47.934  25.490  31.981  1.00  0.00    -0.206 F 
ATOM     84  C   UNL A   1      51.066  25.848  30.198  1.00  0.00     0.006 A 
ENDBRANCH  60  77
ENDBRANCH  34  35
ENDBRANCH  27  29
ENDBRANCH  26  27
ENDBRANCH  25  26
ENDBRANCH   1  25
TORSDOF 14
ENDMDL
MODEL 2
REMARK VINA RESULT:     -11.1      3.642      4.961
REMARK SMILES Cc1cc(C(=O)OCCOC(=O)c2ccc(-c3c4nc(c(-c5c(F)cccc5F)c5ccc([nH]5)c(-c5c(F)cccc5F)c5nc(c(-c6c(F)cccc6F)c6ccc3[nH]6)C=C5)C=C4)cc2)c(NC(=O)c2nc(C(C)(C)C)n[nH]2)s1
REMARK SMILES IDX 8 1 7 2 5 3 6 4 4 5 1 6 2 7 3 8 80 9 67 10 68 11 69 12 70 14
REMARK SMILES IDX 71 15 72 16 79 17 73 18 78 19 74 21 75 22 76 23 77 24 9 25
REMARK SMILES IDX 10 26 11 27 12 28 13 29 14 30 66 31 15 32 65 33 16 34 17 35
REMARK SMILES IDX 18 36 59 37 19 38 64 39 58 40 60 41 20 42 63 43 57 44 56 45
REMARK SMILES IDX 21 47 47 48 30 49 46 50 31 51 34 52 45 53 61 54 32 55 33 56
REMARK SMILES IDX 44 58 62 59 35 60 22 61 23 62 28 63 24 64 25 65 27 66 29 67
REMARK SMILES IDX 26 68 48 69 49 70 54 71 50 72 51 73 53 74 55 75 52 76 36 77
REMARK SMILES IDX 37 78 42 79 38 80 39 81 41 82 43 83 40 84
REMARK H PARENT 68 13 79 20 60 46 34 57
REMARK Flexibility Score: inf
ROOT
ATOM      1  C   UNL A   1      31.750  31.325  26.868  1.00  0.00     0.275 C 
ENDROOT
BRANCH   1   2
ATOM      2  O   UNL A   1      32.553  30.209  27.304  1.00  0.00    -0.458 OA
BRANCH   2   3
ATOM      3  C   UNL A   1      32.046  28.961  27.090  1.00  0.00     0.341 C 
ATOM      4  O   UNL A   1      31.447  28.297  27.932  1.00  0.00    -0.246 OA
BRANCH   3   5
ATOM      5  C   UNL A   1      32.245  28.496  25.717  1.00  0.00     0.095 A 
ATOM      6  C   UNL A   1      34.026  28.578  22.361  1.00  0.00     0.056 C 
ATOM      7  C   UNL A   1      33.166  28.393  23.560  1.00  0.00     0.004 A 
ATOM      8  C   UNL A   1      33.238  28.993  24.797  1.00  0.00     0.033 A 
ATOM      9  S   UNL A   1      31.863  27.313  23.484  1.00  0.00    -0.122 S 
ATOM     10  C   UNL A   1      31.479  27.498  25.121  1.00  0.00     0.110 A 
BRANCH  10  11
ATOM     11  N   UNL A   1      30.497  26.738  25.735  1.00  0.00    -0.310 N 
ATOM     12  C   UNL A   1      30.408  25.410  26.114  1.00  0.00     0.293 C 
ATOM     13  H   UNL A   1      29.685  27.255  25.949  1.00  0.00     0.171 HD
ATOM     14  O   UNL A   1      29.361  25.080  26.679  1.00  0.00    -0.265 OA
BRANCH  12  15
ATOM     15  C   UNL A   1      31.474  24.466  25.893  1.00  0.00     0.214 A 
ATOM     16  N   UNL A   1      31.853  23.963  24.730  1.00  0.00    -0.207 NA
ATOM     17  N   UNL A   1      32.188  23.861  26.881  1.00  0.00    -0.255 N 
ATOM     18  C   UNL A   1      32.843  23.067  25.073  1.00  0.00     0.156 A 
ATOM     19  N   UNL A   1      33.088  22.999  26.390  1.00  0.00    -0.158 NA
ATOM     20  H   UNL A   1      32.058  24.035  27.841  1.00  0.00     0.192 HD
BRANCH  18  21
ATOM     21  C   UNL A   1      33.544  22.182  24.063  1.00  0.00     0.024 C 
ATOM     22  C   UNL A   1      32.527  21.688  23.018  1.00  0.00     0.019 C 
ATOM     23  C   UNL A   1      34.667  22.951  23.340  1.00  0.00     0.019 C 
ATOM     24  C   UNL A   1      34.182  20.947  24.739  1.00  0.00     0.019 C 
ENDBRANCH  18  21
ENDBRANCH  12  15
ENDBRANCH  10  11
ENDBRANCH   3   5
ENDBRANCH   2   3
ENDBRANCH   1   2
BRANCH   1  25
ATOM     25  C   UNL A   1      32.543  32.638  26.879  1.00  0.00     0.275 C 
BRANCH  25  26
ATOM     26  O   UNL A   1      32.096  33.512  27.932  1.00  0.00    -0.458 OA
BRANCH  26  27
ATOM     27  C   UNL A   1      32.994  34.445  28.330  1.00  0.00     0.338 C 
ATOM     28  O   UNL A   1      32.799  35.646  28.435  1.00  0.00    -0.246 OA
BRANCH  27  29
ATOM     29  C   UNL A   1      34.212  33.779  28.835  1.00  0.00     0.060 A 
ATOM     30  C   UNL A   1      34.029  32.715  29.722  1.00  0.00     0.016 A 
ATOM     31  C   UNL A   1      35.502  34.166  28.461  1.00  0.00     0.016 A 
ATOM     32  C   UNL A   1      35.123  31.992  30.188  1.00  0.00     0.010 A 
ATOM     33  C   UNL A   1      36.607  33.458  28.958  1.00  0.00     0.010 A 
ATOM     34  C   UNL A   1      36.419  32.356  29.809  1.00  0.00    -0.014 A 
BRANCH  34  35
ATOM     35  C   UNL A   1      37.562  31.618  30.396  1.00  0.00     0.031 A 
ATOM     36  C   UNL A   1      37.924  31.850  31.831  1.00  0.00     0.074 A 
ATOM     37  C   UNL A   1      38.214  30.683  29.681  1.00  0.00     0.049 A 
ATOM     38  N   UNL A   1      38.880  31.311  32.544  1.00  0.00    -0.248 NA
ATOM     39  C   UNL A   1      37.087  32.809  32.565  1.00  0.00     0.031 C 
ATOM     40  C   UNL A   1      37.885  30.284  28.316  1.00  0.00     0.029 A 
ATOM     41  N   UNL A   1      39.279  29.883  30.019  1.00  0.00    -0.354 N 
ATOM     42  C   UNL A   1      38.756  31.860  33.813  1.00  0.00     0.074 A 
ATOM     43  C   UNL A   1      37.643  32.786  33.767  1.00  0.00     0.031 C 
ATOM     44  C   UNL A   1      38.727  29.310  27.931  1.00  0.00     0.029 A 
ATOM     45  C   UNL A   1      39.679  29.045  29.007  1.00  0.00     0.049 A 
ATOM     46  H   UNL A   1      39.711  29.908  30.903  1.00  0.00     0.167 HD
ATOM     47  C   UNL A   1      39.506  31.618  34.913  1.00  0.00     0.037 A 
ATOM     48  C   UNL A   1      40.710  28.178  28.953  1.00  0.00     0.037 A 
ATOM     49  C   UNL A   1      40.626  30.715  34.951  1.00  0.00     0.049 A 
ATOM     50  C   UNL A   1      41.605  28.019  30.155  1.00  0.00     0.074 A 
ATOM     51  C   UNL A   1      41.472  30.435  36.010  1.00  0.00     0.029 A 
ATOM     52  N   UNL A   1      41.063  29.951  33.878  1.00  0.00    -0.354 N 
ATOM     53  N   UNL A   1      41.503  28.562  31.344  1.00  0.00    -0.248 NA
ATOM     54  C   UNL A   1      42.769  27.133  30.002  1.00  0.00     0.031 C 
ATOM     55  C   UNL A   1      42.456  29.548  35.562  1.00  0.00     0.029 A 
ATOM     56  C   UNL A   1      42.187  29.226  34.242  1.00  0.00     0.049 A 
ATOM     57  H   UNL A   1      40.638  29.928  32.991  1.00  0.00     0.167 HD
ATOM     58  C   UNL A   1      42.565  28.063  32.087  1.00  0.00     0.074 A 
ATOM     59  C   UNL A   1      43.296  27.163  31.219  1.00  0.00     0.031 C 
ATOM     60  C   UNL A   1      42.904  28.326  33.372  1.00  0.00     0.037 A 
BRANCH  47  61
ATOM     61  C   UNL A   1      39.173  32.401  36.147  1.00  0.00     0.057 A 
ATOM     62  C   UNL A   1      39.720  33.664  36.398  1.00  0.00     0.134 A 
ATOM     63  C   UNL A   1      38.291  31.875  37.099  1.00  0.00     0.134 A 
ATOM     64  F   UNL A   1      40.586  34.216  35.535  1.00  0.00    -0.206 F 
ATOM     65  C   UNL A   1      39.422  34.367  37.568  1.00  0.00     0.040 A 
ATOM     66  C   UNL A   1      37.965  32.580  38.259  1.00  0.00     0.040 A 
ATOM     67  F   UNL A   1      37.732  30.669  36.918  1.00  0.00    -0.206 F 
ATOM     68  C   UNL A   1      38.538  33.826  38.498  1.00  0.00     0.006 A 
ENDBRANCH  47  61
BRANCH  48  69
ATOM     69  C   UNL A   1      40.987  27.420  27.705  1.00  0.00     0.057 A 
ATOM     70  C   UNL A   1      40.519  26.113  27.524  1.00  0.00     0.134 A 
ATOM     71  C   UNL A   1      41.774  27.967  26.683  1.00  0.00     0.134 A 
ATOM     72  F   UNL A   1      39.788  25.517  28.477  1.00  0.00    -0.206 F 
ATOM     73  C   UNL A   1      40.839  25.372  26.383  1.00  0.00     0.040 A 
ATOM     74  C   UNL A   1      42.077  27.249  25.526  1.00  0.00     0.040 A 
ATOM     75  F   UNL A   1      42.264  29.210  26.797  1.00  0.00    -0.206 F 
ATOM     76  C   UNL A   1      41.617  25.943  25.378  1.00  0.00     0.006 A 
ENDBRANCH  48  69
BRANCH  60  77
ATOM     77  C   UNL A   1      44.097  27.609  33.939  1.00  0.00     0.057 A 
ATOM     78  C   UNL A   1      45.378  28.175  33.929  1.00  0.00     0.134 A 
ATOM     79  C   UNL A   1      43.950  26.357  34.549  1.00  0.00     0.134 A 
ATOM     80  F   UNL A   1      45.592  29.366  33.350  1.00  0.00    -0.206 F 
ATOM     81  C   UNL A   1      46.473  27.513  34.488  1.00  0.00     0.040 A 
ATOM     82  C   UNL A   1      45.031  25.698  35.138  1.00  0.00     0.040 A 
ATOM     83  F   UNL A   1      42.749  25.761  34.603  1.00  0.00    -0.206 F 
ATOM     84  C   UNL A   1      46.300  26.274  35.103  1.00  0.00     0.006 A 
ENDBRANCH  60  77
ENDBRANCH  34  35
ENDBRANCH  27  29
ENDBRANCH  26  27
ENDBRANCH  25  26
ENDBRANCH   1  25
TORSDOF 14
ENDMDL
MODEL 3
REMARK VINA RESULT:     -11.0      1.812      3.763
REMARK SMILES Cc1cc(C(=O)OCCOC(=O)c2ccc(-c3c4nc(c(-c5c(F)cccc5F)c5ccc([nH]5)c(-c5c(F)cccc5F)c5nc(c(-c6c(F)cccc6F)c6ccc3[nH]6)C=C5)C=C4)cc2)c(NC(=O)c2nc(C(C)(C)C)n[nH]2)s1
REMARK SMILES IDX 8 1 7 2 5 3 6 4 4 5 1 6 2 7 3 8 80 9 67 10 68 11 69 12 70 14
REMARK SMILES IDX 71 15 72 16 79 17 73 18 78 19 74 21 75 22 76 23 77 24 9 25
REMARK SMILES IDX 10 26 11 27 12 28 13 29 14 30 66 31 15 32 65 33 16 34 17 35
REMARK SMILES IDX 18 36 59 37 19 38 64 39 58 40 60 41 20 42 63 43 57 44 56 45
REMARK SMILES IDX 21 47 47 48 30 49 46 50 31 51 34 52 45 53 61 54 32 55 33 56
REMARK SMILES IDX 44 58 62 59 35 60 22 61 23 62 28 63 24 64 25 65 27 66 29 67
REMARK SMILES IDX 26 68 48 69 49 70 54 71 50 72 51 73 53 74 55 75 52 76 36 77
REMARK SMILES IDX 37 78 42 79 38 80 39 81 41 82 43 83 40 84
REMARK H PARENT 68 13 79 20 60 46 34 57
REMARK Flexibility Score: inf
ROOT
ATOM      1  C   UNL A   1      31.760  28.175  27.536  1.00  0.00     0.275 C 
ENDROOT
BRANCH   1   2
ATOM      2  O   UNL A   1      32.306  27.061  26.802  1.00  0.00    -0.458 OA
BRANCH   2   3
ATOM      3  C   UNL A   1      31.417  26.216  26.207  1.00  0.00     0.341 C 
ATOM      4  O   UNL A   1      30.227  26.133  26.501  1.00  0.00    -0.246 OA
BRANCH   3   5
ATOM      5  C   UNL A   1      32.015  25.433  25.125  1.00  0.00     0.095 A 
ATOM      6  C   UNL A   1      32.360  22.262  23.057  1.00  0.00     0.056 C 
ATOM      7  C   UNL A   1      32.428  23.581  23.742  1.00  0.00     0.004 A 
ATOM      8  C   UNL A   1      31.674  24.074  24.783  1.00  0.00     0.033 A 
ATOM      9  S   UNL A   1      33.591  24.711  23.246  1.00  0.00    -0.122 S 
ATOM     10  C   UNL A   1      33.011  25.917  24.280  1.00  0.00     0.110 A 
BRANCH  10  11
ATOM     11  N   UNL A   1      33.518  27.207  24.261  1.00  0.00    -0.310 N 
ATOM     12  C   UNL A   1      33.029  28.423  23.817  1.00  0.00     0.293 C 
ATOM     13  H   UNL A   1      34.422  27.272  24.647  1.00  0.00     0.171 HD
ATOM     14  O   UNL A   1      33.769  29.396  23.993  1.00  0.00    -0.265 OA
BRANCH  12  15
ATOM     15  C   UNL A   1      31.731  28.564  23.210  1.00  0.00     0.214 A 
ATOM     16  N   UNL A   1      30.856  29.530  23.436  1.00  0.00    -0.207 NA
ATOM     17  N   UNL A   1      31.159  27.645  22.384  1.00  0.00    -0.255 N 
ATOM     18  C   UNL A   1      29.764  29.160  22.678  1.00  0.00     0.156 A 
ATOM     19  N   UNL A   1      29.930  28.015  22.001  1.00  0.00    -0.158 NA
ATOM     20  H   UNL A   1      31.597  26.810  22.102  1.00  0.00     0.192 HD
BRANCH  18  21
ATOM     21  C   UNL A   1      28.464  29.937  22.667  1.00  0.00     0.024 C 
ATOM     22  C   UNL A   1      28.574  31.139  23.624  1.00  0.00     0.019 C 
ATOM     23  C   UNL A   1      28.143  30.456  21.252  1.00  0.00     0.019 C 
ATOM     24  C   UNL A   1      27.277  29.061  23.126  1.00  0.00     0.019 C 
ENDBRANCH  18  21
ENDBRANCH  12  15
ENDBRANCH  10  11
ENDBRANCH   3   5
ENDBRANCH   2   3
ENDBRANCH   1   2
BRANCH   1  25
ATOM     25  C   UNL A   1      32.516  29.477  27.246  1.00  0.00     0.275 C 
BRANCH  25  26
ATOM     26  O   UNL A   1      33.940  29.293  27.360  1.00  0.00    -0.458 OA
BRANCH  26  27
ATOM     27  C   UNL A   1      34.610  30.314  27.947  1.00  0.00     0.338 C 
ATOM     28  O   UNL A   1      34.136  31.373  28.325  1.00  0.00    -0.246 OA
BRANCH  27  29
ATOM     29  C   UNL A   1      35.986  29.885  28.270  1.00  0.00     0.060 A 
ATOM     30  C   UNL A   1      36.943  30.020  27.260  1.00  0.00     0.016 A 
ATOM     31  C   UNL A   1      36.351  29.370  29.517  1.00  0.00     0.016 A 
ATOM     32  C   UNL A   1      38.276  29.703  27.509  1.00  0.00     0.010 A 
ATOM     33  C   UNL A   1      37.687  29.018  29.756  1.00  0.00     0.010 A 
ATOM     34  C   UNL A   1      38.658  29.202  28.756  1.00  0.00    -0.014 A 
BRANCH  34  35
ATOM     35  C   UNL A   1      40.069  28.793  28.953  1.00  0.00     0.031 A 
ATOM     36  C   UNL A   1      41.005  29.717  29.670  1.00  0.00     0.074 A 
ATOM     37  C   UNL A   1      40.488  27.571  28.577  1.00  0.00     0.049 A 
ATOM     38  N   UNL A   1      42.273  29.559  29.954  1.00  0.00    -0.248 NA
ATOM     39  C   UNL A   1      40.431  30.985  30.143  1.00  0.00     0.031 C 
ATOM     40  C   UNL A   1      39.648  26.540  27.975  1.00  0.00     0.029 A 
ATOM     41  N   UNL A   1      41.728  26.986  28.669  1.00  0.00    -0.354 N 
ATOM     42  C   UNL A   1      42.647  30.704  30.644  1.00  0.00     0.074 A 
ATOM     43  C   UNL A   1      41.477  31.555  30.721  1.00  0.00     0.031 C 
ATOM     44  C   UNL A   1      40.394  25.444  27.755  1.00  0.00     0.029 A 
ATOM     45  C   UNL A   1      41.772  25.710  28.162  1.00  0.00     0.049 A 
ATOM     46  H   UNL A   1      42.509  27.438  29.062  1.00  0.00     0.167 HD
ATOM     47  C   UNL A   1      43.858  31.019  31.160  1.00  0.00     0.037 A 
ATOM     48  C   UNL A   1      42.812  24.864  28.027  1.00  0.00     0.037 A 
ATOM     49  C   UNL A   1      45.026  30.183  31.062  1.00  0.00     0.049 A 
ATOM     50  C   UNL A   1      44.178  25.290  28.501  1.00  0.00     0.074 A 
ATOM     51  C   UNL A   1      46.307  30.437  31.519  1.00  0.00     0.029 A 
ATOM     52  N   UNL A   1      45.057  28.935  30.457  1.00  0.00    -0.354 N 
ATOM     53  N   UNL A   1      44.535  26.386  29.126  1.00  0.00    -0.248 NA
ATOM     54  C   UNL A   1      45.290  24.364  28.238  1.00  0.00     0.031 C 
ATOM     55  C   UNL A   1      47.127  29.369  31.139  1.00  0.00     0.029 A 
ATOM     56  C   UNL A   1      46.343  28.422  30.500  1.00  0.00     0.049 A 
ATOM     57  H   UNL A   1      44.280  28.482  30.058  1.00  0.00     0.167 HD
ATOM     58  C   UNL A   1      45.899  26.268  29.358  1.00  0.00     0.074 A 
ATOM     59  C   UNL A   1      46.307  24.989  28.816  1.00  0.00     0.031 C 
ATOM     60  C   UNL A   1      46.739  27.142  29.964  1.00  0.00     0.037 A 
BRANCH  47  61
ATOM     61  C   UNL A   1      43.988  32.360  31.816  1.00  0.00     0.057 A 
ATOM     62  C   UNL A   1      44.329  33.512  31.098  1.00  0.00     0.134 A 
ATOM     63  C   UNL A   1      43.770  32.496  33.193  1.00  0.00     0.134 A 
ATOM     64  F   UNL A   1      44.570  33.446  29.780  1.00  0.00    -0.206 F 
ATOM     65  C   UNL A   1      44.475  34.748  31.730  1.00  0.00     0.040 A 
ATOM     66  C   UNL A   1      43.887  33.731  33.832  1.00  0.00     0.040 A 
ATOM     67  F   UNL A   1      43.439  31.431  33.940  1.00  0.00    -0.206 F 
ATOM     68  C   UNL A   1      44.248  34.860  33.101  1.00  0.00     0.006 A 
ENDBRANCH  47  61
BRANCH  48  69
ATOM     69  C   UNL A   1      42.622  23.540  27.377  1.00  0.00     0.057 A 
ATOM     70  C   UNL A   1      42.343  22.390  28.126  1.00  0.00     0.134 A 
ATOM     71  C   UNL A   1      42.768  23.385  25.992  1.00  0.00     0.134 A 
ATOM     72  F   UNL A   1      42.224  22.463  29.459  1.00  0.00    -0.206 F 
ATOM     73  C   UNL A   1      42.237  21.134  27.525  1.00  0.00     0.040 A 
ATOM     74  C   UNL A   1      42.636  22.139  25.376  1.00  0.00     0.040 A 
ATOM     75  F   UNL A   1      43.047  24.443  25.217  1.00  0.00    -0.206 F 
ATOM     76  C   UNL A   1      42.379  21.007  26.144  1.00  0.00     0.006 A 
ENDBRANCH  48  69
BRANCH  60  77
ATOM     77  C   UNL A   1      48.178  26.737  30.112  1.00  0.00     0.057 A 
ATOM     78  C   UNL A   1      48.631  25.984  31.203  1.00  0.00     0.134 A 
ATOM     79  C   UNL A   1      49.114  27.061  29.121  1.00  0.00     0.134 A 
ATOM     80  F   UNL A   1      47.790  25.649  32.194  1.00  0.00    -0.206 F 
ATOM     81  C   UNL A   1      49.964  25.585  31.312  1.00  0.00     0.040 A 
ATOM     82  C   UNL A   1      50.443  26.643  29.204  1.00  0.00     0.040 A 
ATOM     83  F   UNL A   1      48.747  27.772  28.044  1.00  0.00    -0.206 F 
ATOM     84  C   UNL A   1      50.874  25.908  30.306  1.00  0.00     0.006 A 
ENDBRANCH  60  77
ENDBRANCH  34  35
ENDBRANCH  27  29
ENDBRANCH  26  27
ENDBRANCH  25  26
ENDBRANCH   1  25
TORSDOF 14
ENDMDL
