MODEL 1
REMARK VINA RESULT:     -11.4      0.000      0.000
REMARK SMILES COc1ccc(CCNC(=O)c2cccnc2C(=O)OCCOC(=O)c2ccc(-c3c4nc(c(-c5c(F)cccc5F)c5ccc([nH]5)c(-c5c(F)cccc5F)c5nc(c(-c6c(F)cccc6F)c6ccc3[nH]6)C=C5)C=C4)cc2)cc1OC
REMARK SMILES IDX 20 1 18 2 19 3 17 4 12 5 13 6 14 7 16 8 15 9 10 10 9 11
REMARK SMILES IDX 11 13 8 14 7 15 6 16 3 17 4 18 81 19 5 20 80 21 2 22 1 23
REMARK SMILES IDX 82 24 83 25 21 26 22 27 23 28 24 29 25 30 26 31 27 32 79 33
REMARK SMILES IDX 28 34 78 35 29 36 30 37 31 38 72 39 32 40 77 41 71 42 73 43
REMARK SMILES IDX 33 44 76 45 70 46 69 47 34 49 60 50 43 51 59 52 44 53 47 54
REMARK SMILES IDX 58 55 74 56 45 57 46 58 57 60 75 61 48 62 35 63 36 64 41 65
REMARK SMILES IDX 37 66 38 67 40 68 42 69 39 70 61 71 62 72 67 73 63 74 64 75
REMARK SMILES IDX 66 76 68 77 65 78 49 79 50 80 55 81 51 82 52 83 54 84 56 85
REMARK SMILES IDX 53 86
REMARK H PARENT 9 12 73 48 47 59
REMARK Flexibility Score: inf
ROOT
ATOM      1  O   UNL A   1      31.213  30.496  25.363  1.00  0.00    -0.457 OA
ENDROOT
BRANCH   1   2
ATOM      2  C   UNL A   1      31.834  29.459  24.740  1.00  0.00     0.357 C 
ATOM      3  O   UNL A   1      33.027  29.396  24.478  1.00  0.00    -0.244 OA
BRANCH   2   4
ATOM      4  C   UNL A   1      30.898  28.311  24.542  1.00  0.00     0.161 A 
ATOM      5  C   UNL A   1      30.922  27.146  25.298  1.00  0.00     0.073 A 
ATOM      6  C   UNL A   1      29.954  26.167  25.029  1.00  0.00     0.018 A 
ATOM      7  C   UNL A   1      29.050  26.346  23.986  1.00  0.00     0.021 A 
ATOM      8  N   UNL A   1      29.989  28.511  23.535  1.00  0.00    -0.248 NA
ATOM      9  C   UNL A   1      29.105  27.527  23.273  1.00  0.00     0.112 A 
BRANCH   5  10
ATOM     10  C   UNL A   1      31.809  26.986  26.460  1.00  0.00     0.253 C 
ATOM     11  N   UNL A   1      32.994  26.304  26.345  1.00  0.00    -0.352 N 
ATOM     12  H   UNL A   1      33.434  26.096  27.201  1.00  0.00     0.163 HD
ATOM     13  O   UNL A   1      31.450  27.422  27.550  1.00  0.00    -0.269 OA
BRANCH  11  14
ATOM     14  C   UNL A   1      33.707  25.837  25.160  1.00  0.00     0.121 C 
BRANCH  14  15
ATOM     15  C   UNL A   1      34.614  24.639  25.454  1.00  0.00     0.057 C 
BRANCH  15  16
ATOM     16  C   UNL A   1      33.910  23.313  25.300  1.00  0.00    -0.042 A 
ATOM     17  C   UNL A   1      32.589  20.843  25.048  1.00  0.00     0.160 A 
ATOM     18  C   UNL A   1      33.958  20.950  24.766  1.00  0.00     0.051 A 
ATOM     19  C   UNL A   1      31.875  21.967  25.481  1.00  0.00     0.160 A 
ATOM     20  C   UNL A   1      34.609  22.179  24.877  1.00  0.00     0.008 A 
ATOM     21  C   UNL A   1      32.548  23.190  25.613  1.00  0.00     0.054 A 
BRANCH  17  22
ATOM     22  O   UNL A   1      31.981  19.616  24.991  1.00  0.00    -0.493 OA
ATOM     23  C   UNL A   1      32.816  18.564  25.471  1.00  0.00     0.278 C 
ENDBRANCH  17  22
BRANCH  19  24
ATOM     24  O   UNL A   1      30.552  22.039  25.827  1.00  0.00    -0.493 OA
ATOM     25  C   UNL A   1      30.201  22.936  26.872  1.00  0.00     0.278 C 
ENDBRANCH  19  24
ENDBRANCH  15  16
ENDBRANCH  14  15
ENDBRANCH  11  14
ENDBRANCH   5  10
ENDBRANCH   2   4
ENDBRANCH   1   2
BRANCH   1  26
ATOM     26  C   UNL A   1      31.805  30.924  26.606  1.00  0.00     0.275 C 
BRANCH  26  27
ATOM     27  C   UNL A   1      31.568  32.418  26.850  1.00  0.00     0.275 C 
BRANCH  27  28
ATOM     28  O   UNL A   1      32.787  33.175  26.732  1.00  0.00    -0.458 OA
BRANCH  28  29
ATOM     29  C   UNL A   1      33.202  33.761  27.880  1.00  0.00     0.338 C 
ATOM     30  O   UNL A   1      32.603  34.588  28.548  1.00  0.00    -0.246 OA
BRANCH  29  31
ATOM     31  C   UNL A   1      34.469  33.155  28.321  1.00  0.00     0.060 A 
ATOM     32  C   UNL A   1      34.403  31.859  28.829  1.00  0.00     0.016 A 
ATOM     33  C   UNL A   1      35.676  33.857  28.333  1.00  0.00     0.016 A 
ATOM     34  C   UNL A   1      35.535  31.254  29.365  1.00  0.00     0.010 A 
ATOM     35  C   UNL A   1      36.819  33.247  28.873  1.00  0.00     0.010 A 
ATOM     36  C   UNL A   1      36.751  31.948  29.407  1.00  0.00    -0.014 A 
BRANCH  36  37
ATOM     37  C   UNL A   1      37.913  31.305  30.073  1.00  0.00     0.031 A 
ATOM     38  C   UNL A   1      38.189  31.567  31.527  1.00  0.00     0.074 A 
ATOM     39  C   UNL A   1      38.666  30.416  29.397  1.00  0.00     0.049 A 
ATOM     40  N   UNL A   1      39.138  31.085  32.289  1.00  0.00    -0.248 NA
ATOM     41  C   UNL A   1      37.274  32.490  32.216  1.00  0.00     0.031 C 
ATOM     42  C   UNL A   1      38.472  30.039  27.997  1.00  0.00     0.029 A 
ATOM     43  N   UNL A   1      39.730  29.652  29.807  1.00  0.00    -0.354 N 
ATOM     44  C   UNL A   1      38.946  31.655  33.541  1.00  0.00     0.074 A 
ATOM     45  C   UNL A   1      37.800  32.533  33.433  1.00  0.00     0.031 C 
ATOM     46  C   UNL A   1      39.372  29.098  27.670  1.00  0.00     0.029 A 
ATOM     47  C   UNL A   1      40.227  28.833  28.823  1.00  0.00     0.049 A 
ATOM     48  H   UNL A   1      40.101  29.689  30.717  1.00  0.00     0.167 HD
ATOM     49  C   UNL A   1      39.655  31.460  34.679  1.00  0.00     0.037 A 
ATOM     50  C   UNL A   1      41.261  27.970  28.847  1.00  0.00     0.037 A 
ATOM     51  C   UNL A   1      40.784  30.573  34.796  1.00  0.00     0.049 A 
ATOM     52  C   UNL A   1      42.050  27.796  30.115  1.00  0.00     0.074 A 
ATOM     53  C   UNL A   1      41.570  30.318  35.907  1.00  0.00     0.029 A 
ATOM     54  N   UNL A   1      41.281  29.789  33.768  1.00  0.00    -0.354 N 
ATOM     55  N   UNL A   1      41.869  28.358  31.286  1.00  0.00    -0.248 NA
ATOM     56  C   UNL A   1      43.191  26.870  30.062  1.00  0.00     0.031 C 
ATOM     57  C   UNL A   1      42.561  29.400  35.543  1.00  0.00     0.029 A 
ATOM     58  C   UNL A   1      42.370  29.056  34.214  1.00  0.00     0.049 A 
ATOM     59  H   UNL A   1      40.917  29.758  32.854  1.00  0.00     0.167 HD
ATOM     60  C   UNL A   1      42.862  27.845  32.110  1.00  0.00     0.074 A 
ATOM     61  C   UNL A   1      43.628  26.910  31.313  1.00  0.00     0.031 C 
ATOM     62  C   UNL A   1      43.121  28.129  33.410  1.00  0.00     0.037 A 
BRANCH  49  63
ATOM     63  C   UNL A   1      39.243  32.243  35.890  1.00  0.00     0.057 A 
ATOM     64  C   UNL A   1      38.351  31.723  36.837  1.00  0.00     0.134 A 
ATOM     65  C   UNL A   1      39.772  33.517  36.128  1.00  0.00     0.134 A 
ATOM     66  F   UNL A   1      37.798  30.513  36.658  1.00  0.00    -0.206 F 
ATOM     67  C   UNL A   1      37.988  32.451  37.971  1.00  0.00     0.040 A 
ATOM     68  C   UNL A   1      39.432  34.246  37.269  1.00  0.00     0.040 A 
ATOM     69  F   UNL A   1      40.634  34.069  35.262  1.00  0.00    -0.206 F 
ATOM     70  C   UNL A   1      38.534  33.714  38.192  1.00  0.00     0.006 A 
ENDBRANCH  49  63
BRANCH  50  71
ATOM     71  C   UNL A   1      41.622  27.209  27.626  1.00  0.00     0.057 A 
ATOM     72  C   UNL A   1      41.155  25.906  27.419  1.00  0.00     0.134 A 
ATOM     73  C   UNL A   1      42.461  27.758  26.649  1.00  0.00     0.134 A 
ATOM     74  F   UNL A   1      40.371  25.316  28.333  1.00  0.00    -0.206 F 
ATOM     75  C   UNL A   1      41.521  25.170  26.290  1.00  0.00     0.040 A 
ATOM     76  C   UNL A   1      42.814  27.044  25.504  1.00  0.00     0.040 A 
ATOM     77  F   UNL A   1      42.943  29.001  26.792  1.00  0.00    -0.206 F 
ATOM     78  C   UNL A   1      42.350  25.743  25.326  1.00  0.00     0.006 A 
ENDBRANCH  50  71
BRANCH  62  79
ATOM     79  C   UNL A   1      44.265  27.400  34.048  1.00  0.00     0.057 A 
ATOM     80  C   UNL A   1      44.094  26.148  34.652  1.00  0.00     0.134 A 
ATOM     81  C   UNL A   1      45.552  27.952  34.050  1.00  0.00     0.134 A 
ATOM     82  F   UNL A   1      42.883  25.575  34.696  1.00  0.00    -0.206 F 
ATOM     83  C   UNL A   1      45.158  25.483  35.261  1.00  0.00     0.040 A 
ATOM     84  C   UNL A   1      46.629  27.285  34.637  1.00  0.00     0.040 A 
ATOM     85  F   UNL A   1      45.784  29.144  33.482  1.00  0.00    -0.206 F 
ATOM     86  C   UNL A   1      46.432  26.050  35.252  1.00  0.00     0.006 A 
ENDBRANCH  62  79
ENDBRANCH  36  37
ENDBRANCH  29  31
ENDBRANCH  28  29
ENDBRANCH  27  28
ENDBRANCH  26  27
ENDBRANCH   1  26
TORSDOF 17
ENDMDL
MODEL 2
REMARK VINA RESULT:     -11.3      1.083      2.357
REMARK SMILES COc1ccc(CCNC(=O)c2cccnc2C(=O)OCCOC(=O)c2ccc(-c3c4nc(c(-c5c(F)cccc5F)c5ccc([nH]5)c(-c5c(F)cccc5F)c5nc(c(-c6c(F)cccc6F)c6ccc3[nH]6)C=C5)C=C4)cc2)cc1OC
REMARK SMILES IDX 20 1 18 2 19 3 17 4 12 5 13 6 14 7 16 8 15 9 10 10 9 11
REMARK SMILES IDX 11 13 8 14 7 15 6 16 3 17 4 18 81 19 5 20 80 21 2 22 1 23
REMARK SMILES IDX 82 24 83 25 21 26 22 27 23 28 24 29 25 30 26 31 27 32 79 33
REMARK SMILES IDX 28 34 78 35 29 36 30 37 31 38 72 39 32 40 77 41 71 42 73 43
REMARK SMILES IDX 33 44 76 45 70 46 69 47 34 49 60 50 43 51 59 52 44 53 47 54
REMARK SMILES IDX 58 55 74 56 45 57 46 58 57 60 75 61 48 62 35 63 36 64 41 65
REMARK SMILES IDX 37 66 38 67 40 68 42 69 39 70 61 71 62 72 67 73 63 74 64 75
REMARK SMILES IDX 66 76 68 77 65 78 49 79 50 80 55 81 51 82 52 83 54 84 56 85
REMARK SMILES IDX 53 86
REMARK H PARENT 9 12 73 48 47 59
REMARK Flexibility Score: inf
ROOT
ATOM      1  O   UNL A   1      31.954  30.238  26.710  1.00  0.00    -0.457 OA
ENDROOT
BRANCH   1   2
ATOM      2  C   UNL A   1      32.560  29.372  25.854  1.00  0.00     0.357 C 
ATOM      3  O   UNL A   1      33.717  29.447  25.465  1.00  0.00    -0.244 OA
BRANCH   2   4
ATOM      4  C   UNL A   1      31.677  28.205  25.554  1.00  0.00     0.161 A 
ATOM      5  C   UNL A   1      31.007  28.024  24.350  1.00  0.00     0.073 A 
ATOM      6  C   UNL A   1      30.246  26.856  24.191  1.00  0.00     0.018 A 
ATOM      7  C   UNL A   1      30.120  25.954  25.244  1.00  0.00     0.021 A 
ATOM      8  N   UNL A   1      31.588  27.304  26.584  1.00  0.00    -0.248 NA
ATOM      9  C   UNL A   1      30.807  26.218  26.412  1.00  0.00     0.112 A 
BRANCH   5  10
ATOM     10  C   UNL A   1      31.206  28.920  23.202  1.00  0.00     0.253 C 
ATOM     11  N   UNL A   1      32.389  28.911  22.506  1.00  0.00    -0.352 N 
ATOM     12  H   UNL A   1      32.500  29.656  21.873  1.00  0.00     0.163 HD
ATOM     13  O   UNL A   1      30.322  29.718  22.906  1.00  0.00    -0.269 OA
BRANCH  11  14
ATOM     14  C   UNL A   1      33.509  27.976  22.554  1.00  0.00     0.121 C 
BRANCH  14  15
ATOM     15  C   UNL A   1      33.130  26.579  22.051  1.00  0.00     0.057 C 
BRANCH  15  16
ATOM     16  C   UNL A   1      33.256  25.514  23.113  1.00  0.00    -0.042 A 
ATOM     17  C   UNL A   1      33.455  23.532  25.098  1.00  0.00     0.160 A 
ATOM     18  C   UNL A   1      34.114  24.759  25.249  1.00  0.00     0.051 A 
ATOM     19  C   UNL A   1      32.673  23.295  23.961  1.00  0.00     0.160 A 
ATOM     20  C   UNL A   1      34.028  25.737  24.257  1.00  0.00     0.008 A 
ATOM     21  C   UNL A   1      32.573  24.297  22.984  1.00  0.00     0.054 A 
BRANCH  17  22
ATOM     22  O   UNL A   1      33.504  22.608  26.109  1.00  0.00    -0.493 OA
ATOM     23  C   UNL A   1      34.799  22.031  26.266  1.00  0.00     0.278 C 
ENDBRANCH  17  22
BRANCH  19  24
ATOM     24  O   UNL A   1      31.941  22.176  23.664  1.00  0.00    -0.493 OA
ATOM     25  C   UNL A   1      32.158  21.575  22.394  1.00  0.00     0.278 C 
ENDBRANCH  19  24
ENDBRANCH  15  16
ENDBRANCH  14  15
ENDBRANCH  11  14
ENDBRANCH   5  10
ENDBRANCH   2   4
ENDBRANCH   1   2
BRANCH   1  26
ATOM     26  C   UNL A   1      31.263  31.344  26.096  1.00  0.00     0.275 C 
BRANCH  26  27
ATOM     27  C   UNL A   1      31.402  32.621  26.930  1.00  0.00     0.275 C 
BRANCH  27  28
ATOM     28  O   UNL A   1      32.725  33.182  26.824  1.00  0.00    -0.458 OA
BRANCH  28  29
ATOM     29  C   UNL A   1      33.165  33.806  27.942  1.00  0.00     0.338 C 
ATOM     30  O   UNL A   1      32.585  34.662  28.589  1.00  0.00    -0.246 OA
BRANCH  29  31
ATOM     31  C   UNL A   1      34.435  33.206  28.383  1.00  0.00     0.060 A 
ATOM     32  C   UNL A   1      34.385  31.886  28.829  1.00  0.00     0.016 A 
ATOM     33  C   UNL A   1      35.625  33.931  28.455  1.00  0.00     0.016 A 
ATOM     34  C   UNL A   1      35.518  31.280  29.361  1.00  0.00     0.010 A 
ATOM     35  C   UNL A   1      36.770  33.319  28.992  1.00  0.00     0.010 A 
ATOM     36  C   UNL A   1      36.718  31.995  29.463  1.00  0.00    -0.014 A 
BRANCH  36  37
ATOM     37  C   UNL A   1      37.878  31.345  30.124  1.00  0.00     0.031 A 
ATOM     38  C   UNL A   1      38.155  31.598  31.580  1.00  0.00     0.074 A 
ATOM     39  C   UNL A   1      38.628  30.458  29.443  1.00  0.00     0.049 A 
ATOM     40  N   UNL A   1      39.103  31.108  32.339  1.00  0.00    -0.248 NA
ATOM     41  C   UNL A   1      37.243  32.519  32.275  1.00  0.00     0.031 C 
ATOM     42  C   UNL A   1      38.433  30.090  28.040  1.00  0.00     0.029 A 
ATOM     43  N   UNL A   1      39.691  29.690  29.848  1.00  0.00    -0.354 N 
ATOM     44  C   UNL A   1      38.913  31.671  33.595  1.00  0.00     0.074 A 
ATOM     45  C   UNL A   1      37.769  32.553  33.492  1.00  0.00     0.031 C 
ATOM     46  C   UNL A   1      39.331  29.149  27.707  1.00  0.00     0.029 A 
ATOM     47  C   UNL A   1      40.186  28.875  28.859  1.00  0.00     0.049 A 
ATOM     48  H   UNL A   1      40.062  29.720  30.758  1.00  0.00     0.167 HD
ATOM     49  C   UNL A   1      39.623  31.468  34.731  1.00  0.00     0.037 A 
ATOM     50  C   UNL A   1      41.217  28.009  28.877  1.00  0.00     0.037 A 
ATOM     51  C   UNL A   1      40.749  30.578  34.842  1.00  0.00     0.049 A 
ATOM     52  C   UNL A   1      42.007  27.826  30.143  1.00  0.00     0.074 A 
ATOM     53  C   UNL A   1      41.535  30.313  35.951  1.00  0.00     0.029 A 
ATOM     54  N   UNL A   1      41.244  29.799  33.809  1.00  0.00    -0.354 N 
ATOM     55  N   UNL A   1      41.828  28.381  31.317  1.00  0.00    -0.248 NA
ATOM     56  C   UNL A   1      43.146  26.898  30.084  1.00  0.00     0.031 C 
ATOM     57  C   UNL A   1      42.524  29.395  35.581  1.00  0.00     0.029 A 
ATOM     58  C   UNL A   1      42.331  29.060  34.250  1.00  0.00     0.049 A 
ATOM     59  H   UNL A   1      40.879  29.774  32.894  1.00  0.00     0.167 HD
ATOM     60  C   UNL A   1      42.819  27.861  32.138  1.00  0.00     0.074 A 
ATOM     61  C   UNL A   1      43.582  26.928  31.335  1.00  0.00     0.031 C 
ATOM     62  C   UNL A   1      43.079  28.136  33.440  1.00  0.00     0.037 A 
BRANCH  49  63
ATOM     63  C   UNL A   1      39.213  32.244  35.947  1.00  0.00     0.057 A 
ATOM     64  C   UNL A   1      39.675  33.544  36.184  1.00  0.00     0.134 A 
ATOM     65  C   UNL A   1      38.317  31.695  36.872  1.00  0.00     0.134 A 
ATOM     66  F   UNL A   1      40.547  34.120  35.342  1.00  0.00    -0.206 F 
ATOM     67  C   UNL A   1      39.271  34.266  37.309  1.00  0.00     0.040 A 
ATOM     68  C   UNL A   1      37.890  32.415  37.989  1.00  0.00     0.040 A 
ATOM     69  F   UNL A   1      37.834  30.456  36.700  1.00  0.00    -0.206 F 
ATOM     70  C   UNL A   1      38.372  33.703  38.212  1.00  0.00     0.006 A 
ENDBRANCH  49  63
BRANCH  50  71
ATOM     71  C   UNL A   1      41.576  27.255  27.651  1.00  0.00     0.057 A 
ATOM     72  C   UNL A   1      42.411  27.810  26.675  1.00  0.00     0.134 A 
ATOM     73  C   UNL A   1      41.072  25.970  27.416  1.00  0.00     0.134 A 
ATOM     74  F   UNL A   1      42.902  29.048  26.832  1.00  0.00    -0.206 F 
ATOM     75  C   UNL A   1      42.722  27.120  25.502  1.00  0.00     0.040 A 
ATOM     76  C   UNL A   1      41.395  25.259  26.260  1.00  0.00     0.040 A 
ATOM     77  F   UNL A   1      40.264  25.385  28.312  1.00  0.00    -0.206 F 
ATOM     78  C   UNL A   1      42.216  25.837  25.295  1.00  0.00     0.006 A 
ENDBRANCH  50  71
BRANCH  62  79
ATOM     79  C   UNL A   1      44.222  27.401  34.073  1.00  0.00     0.057 A 
ATOM     80  C   UNL A   1      45.514  27.940  34.110  1.00  0.00     0.134 A 
ATOM     81  C   UNL A   1      44.027  26.144  34.659  1.00  0.00     0.134 A 
ATOM     82  F   UNL A   1      45.768  29.133  33.552  1.00  0.00    -0.206 F 
ATOM     83  C   UNL A   1      46.578  27.244  34.683  1.00  0.00     0.040 A 
ATOM     84  C   UNL A   1      45.079  25.447  35.255  1.00  0.00     0.040 A 
ATOM     85  F   UNL A   1      42.813  25.575  34.663  1.00  0.00    -0.206 F 
ATOM     86  C   UNL A   1      46.361  25.993  35.261  1.00  0.00     0.006 A 
ENDBRANCH  62  79
ENDBRANCH  36  37
ENDBRANCH  29  31
ENDBRANCH  28  29
ENDBRANCH  27  28
ENDBRANCH  26  27
ENDBRANCH   1  26
TORSDOF 17
ENDMDL
MODEL 3
REMARK VINA RESULT:     -11.1      4.160      9.308
REMARK SMILES COc1ccc(CCNC(=O)c2cccnc2C(=O)OCCOC(=O)c2ccc(-c3c4nc(c(-c5c(F)cccc5F)c5ccc([nH]5)c(-c5c(F)cccc5F)c5nc(c(-c6c(F)cccc6F)c6ccc3[nH]6)C=C5)C=C4)cc2)cc1OC
REMARK SMILES IDX 20 1 18 2 19 3 17 4 12 5 13 6 14 7 16 8 15 9 10 10 9 11
REMARK SMILES IDX 11 13 8 14 7 15 6 16 3 17 4 18 81 19 5 20 80 21 2 22 1 23
REMARK SMILES IDX 82 24 83 25 21 26 22 27 23 28 24 29 25 30 26 31 27 32 79 33
REMARK SMILES IDX 28 34 78 35 29 36 30 37 31 38 72 39 32 40 77 41 71 42 73 43
REMARK SMILES IDX 33 44 76 45 70 46 69 47 34 49 60 50 43 51 59 52 44 53 47 54
REMARK SMILES IDX 58 55 74 56 45 57 46 58 57 60 75 61 48 62 35 63 36 64 41 65
REMARK SMILES IDX 37 66 38 67 40 68 42 69 39 70 61 71 62 72 67 73 63 74 64 75
REMARK SMILES IDX 66 76 68 77 65 78 49 79 50 80 55 81 51 82 52 83 54 84 56 85
REMARK SMILES IDX 53 86
REMARK H PARENT 9 12 73 48 47 59
REMARK Flexibility Score: inf
ROOT
ATOM      1  O   UNL A   1      37.109  20.924  24.348  1.00  0.00    -0.457 OA
ENDROOT
BRANCH   1   2
ATOM      2  C   UNL A   1      36.212  21.593  25.119  1.00  0.00     0.357 C 
ATOM      3  O   UNL A   1      36.407  21.990  26.259  1.00  0.00    -0.244 OA
BRANCH   2   4
ATOM      4  C   UNL A   1      34.981  21.931  24.343  1.00  0.00     0.161 A 
ATOM      5  C   UNL A   1      33.742  21.337  24.549  1.00  0.00     0.073 A 
ATOM      6  C   UNL A   1      32.661  21.784  23.774  1.00  0.00     0.018 A 
ATOM      7  C   UNL A   1      32.859  22.744  22.786  1.00  0.00     0.021 A 
ATOM      8  N   UNL A   1      35.178  22.902  23.395  1.00  0.00    -0.248 NA
ATOM      9  C   UNL A   1      34.126  23.271  22.635  1.00  0.00     0.112 A 
BRANCH   5  10
ATOM     10  C   UNL A   1      33.501  20.393  25.650  1.00  0.00     0.253 C 
ATOM     11  N   UNL A   1      33.461  20.831  26.949  1.00  0.00    -0.352 N 
ATOM     12  H   UNL A   1      33.470  20.116  27.626  1.00  0.00     0.163 HD
ATOM     13  O   UNL A   1      33.392  19.197  25.398  1.00  0.00    -0.269 OA
BRANCH  11  14
ATOM     14  C   UNL A   1      33.405  22.186  27.491  1.00  0.00     0.121 C 
BRANCH  14  15
ATOM     15  C   UNL A   1      32.087  22.895  27.167  1.00  0.00     0.057 C 
BRANCH  15  16
ATOM     16  C   UNL A   1      32.283  24.197  26.429  1.00  0.00    -0.042 A 
ATOM     17  C   UNL A   1      32.630  26.610  25.025  1.00  0.00     0.160 A 
ATOM     18  C   UNL A   1      33.739  25.847  25.415  1.00  0.00     0.051 A 
ATOM     19  C   UNL A   1      31.336  26.159  25.315  1.00  0.00     0.160 A 
ATOM     20  C   UNL A   1      33.567  24.658  26.125  1.00  0.00     0.008 A 
ATOM     21  C   UNL A   1      31.177  24.949  26.006  1.00  0.00     0.054 A 
BRANCH  17  22
ATOM     22  O   UNL A   1      32.817  27.743  24.279  1.00  0.00    -0.493 OA
ATOM     23  C   UNL A   1      32.771  28.934  25.063  1.00  0.00     0.278 C 
ENDBRANCH  17  22
BRANCH  19  24
ATOM     24  O   UNL A   1      30.147  26.754  24.987  1.00  0.00    -0.493 OA
ATOM     25  C   UNL A   1      29.400  26.174  23.926  1.00  0.00     0.278 C 
ENDBRANCH  19  24
ENDBRANCH  15  16
ENDBRANCH  14  15
ENDBRANCH  11  14
ENDBRANCH   5  10
ENDBRANCH   2   4
ENDBRANCH   1   2
BRANCH   1  26
ATOM     26  C   UNL A   1      37.772  19.811  24.981  1.00  0.00     0.275 C 
BRANCH  26  27
ATOM     27  C   UNL A   1      39.202  20.174  25.392  1.00  0.00     0.275 C 
BRANCH  27  28
ATOM     28  O   UNL A   1      39.971  19.003  25.725  1.00  0.00    -0.458 OA
BRANCH  28  29
ATOM     29  C   UNL A   1      41.282  19.238  25.968  1.00  0.00     0.338 C 
ATOM     30  O   UNL A   1      42.229  18.524  25.679  1.00  0.00    -0.246 OA
BRANCH  29  31
ATOM     31  C   UNL A   1      41.452  20.586  26.534  1.00  0.00     0.060 A 
ATOM     32  C   UNL A   1      41.780  21.605  25.643  1.00  0.00     0.016 A 
ATOM     33  C   UNL A   1      41.390  20.841  27.906  1.00  0.00     0.016 A 
ATOM     34  C   UNL A   1      42.062  22.885  26.109  1.00  0.00     0.010 A 
ATOM     35  C   UNL A   1      41.673  22.133  28.377  1.00  0.00     0.010 A 
ATOM     36  C   UNL A   1      42.027  23.158  27.482  1.00  0.00    -0.014 A 
BRANCH  36  37
ATOM     37  C   UNL A   1      42.427  24.511  27.948  1.00  0.00     0.031 A 
ATOM     38  C   UNL A   1      43.882  24.881  28.029  1.00  0.00     0.074 A 
ATOM     39  C   UNL A   1      41.484  25.436  28.210  1.00  0.00     0.049 A 
ATOM     40  N   UNL A   1      44.428  26.015  28.390  1.00  0.00    -0.248 NA
ATOM     41  C   UNL A   1      44.849  23.841  27.651  1.00  0.00     0.031 C 
ATOM     42  C   UNL A   1      40.040  25.216  28.122  1.00  0.00     0.029 A 
ATOM     43  N   UNL A   1      41.602  26.752  28.580  1.00  0.00    -0.354 N 
ATOM     44  C   UNL A   1      45.800  25.822  28.298  1.00  0.00     0.074 A 
ATOM     45  C   UNL A   1      46.005  24.456  27.863  1.00  0.00     0.031 C 
ATOM     46  C   UNL A   1      39.406  26.365  28.407  1.00  0.00     0.029 A 
ATOM     47  C   UNL A   1      40.394  27.389  28.733  1.00  0.00     0.049 A 
ATOM     48  H   UNL A   1      42.468  27.196  28.724  1.00  0.00     0.167 HD
ATOM     49  C   UNL A   1      46.799  26.703  28.546  1.00  0.00     0.037 A 
ATOM     50  C   UNL A   1      40.116  28.654  29.101  1.00  0.00     0.037 A 
ATOM     51  C   UNL A   1      46.600  28.068  28.960  1.00  0.00     0.049 A 
ATOM     52  C   UNL A   1      41.244  29.602  29.400  1.00  0.00     0.074 A 
ATOM     53  C   UNL A   1      47.552  29.033  29.243  1.00  0.00     0.029 A 
ATOM     54  N   UNL A   1      45.362  28.665  29.141  1.00  0.00    -0.354 N 
ATOM     55  N   UNL A   1      42.537  29.399  29.329  1.00  0.00    -0.248 NA
ATOM     56  C   UNL A   1      40.871  30.956  29.837  1.00  0.00     0.031 C 
ATOM     57  C   UNL A   1      46.891  30.206  29.623  1.00  0.00     0.029 A 
ATOM     58  C   UNL A   1      45.525  29.982  29.541  1.00  0.00     0.049 A 
ATOM     59  H   UNL A   1      44.495  28.220  29.006  1.00  0.00     0.167 HD
ATOM     60  C   UNL A   1      43.131  30.599  29.696  1.00  0.00     0.074 A 
ATOM     61  C   UNL A   1      42.058  31.532  29.968  1.00  0.00     0.031 C 
ATOM     62  C   UNL A   1      44.448  30.899  29.806  1.00  0.00     0.037 A 
BRANCH  49  63
ATOM     63  C   UNL A   1      48.206  26.208  28.398  1.00  0.00     0.057 A 
ATOM     64  C   UNL A   1      48.901  26.310  27.186  1.00  0.00     0.134 A 
ATOM     65  C   UNL A   1      48.885  25.656  29.491  1.00  0.00     0.134 A 
ATOM     66  F   UNL A   1      48.301  26.816  26.098  1.00  0.00    -0.206 F 
ATOM     67  C   UNL A   1      50.219  25.864  27.063  1.00  0.00     0.040 A 
ATOM     68  C   UNL A   1      50.209  25.226  29.385  1.00  0.00     0.040 A 
ATOM     69  F   UNL A   1      48.278  25.535  30.680  1.00  0.00    -0.206 F 
ATOM     70  C   UNL A   1      50.878  25.325  28.166  1.00  0.00     0.006 A 
ENDBRANCH  49  63
BRANCH  50  71
ATOM     71  C   UNL A   1      38.707  29.100  29.220  1.00  0.00     0.057 A 
ATOM     72  C   UNL A   1      38.014  29.000  30.432  1.00  0.00     0.134 A 
ATOM     73  C   UNL A   1      38.012  29.615  28.119  1.00  0.00     0.134 A 
ATOM     74  F   UNL A   1      38.618  28.490  31.515  1.00  0.00    -0.206 F 
ATOM     75  C   UNL A   1      36.676  29.383  30.543  1.00  0.00     0.040 A 
ATOM     76  C   UNL A   1      36.682  30.025  28.221  1.00  0.00     0.040 A 
ATOM     77  F   UNL A   1      38.620  29.732  26.930  1.00  0.00    -0.206 F 
ATOM     78  C   UNL A   1      36.008  29.903  29.434  1.00  0.00     0.006 A 
ENDBRANCH  50  71
BRANCH  62  79
ATOM     79  C   UNL A   1      44.792  32.299  30.216  1.00  0.00     0.057 A 
ATOM     80  C   UNL A   1      44.943  33.325  29.275  1.00  0.00     0.134 A 
ATOM     81  C   UNL A   1      44.965  32.627  31.567  1.00  0.00     0.134 A 
ATOM     82  F   UNL A   1      44.804  33.071  27.965  1.00  0.00    -0.206 F 
ATOM     83  C   UNL A   1      45.282  34.623  29.660  1.00  0.00     0.040 A 
ATOM     84  C   UNL A   1      45.283  33.926  31.966  1.00  0.00     0.040 A 
ATOM     85  F   UNL A   1      44.828  31.692  32.518  1.00  0.00    -0.206 F 
ATOM     86  C   UNL A   1      45.450  34.927  31.010  1.00  0.00     0.006 A 
ENDBRANCH  62  79
ENDBRANCH  36  37
ENDBRANCH  29  31
ENDBRANCH  28  29
ENDBRANCH  27  28
ENDBRANCH  26  27
ENDBRANCH   1  26
TORSDOF 17
ENDMDL
