MODEL 1
REMARK VINA RESULT:     -11.2      0.000      0.000
REMARK SMILES Cn1ccc(NC(=O)[C@@H]2CCCC[C@@H]2C(=O)OCCOC(=O)c2ccc(-c3c4nc(c(-c5c(F)cccc5F)c5ccc([nH]5)c(-c5c(F)cccc5F)c5nc(c(-c6c(F)cccc6F)c6ccc3[nH]6)C=C5)C=C4)cc2)n1
REMARK SMILES IDX 18 1 17 2 15 3 16 4 14 5 9 6 10 7 11 8 13 9 12 10 7 11 6 12
REMARK SMILES IDX 8 14 5 15 1 16 2 17 3 18 77 19 4 20 19 21 20 22 21 23 22 24
REMARK SMILES IDX 23 25 24 26 76 27 25 28 75 29 26 30 27 31 28 32 69 33 29 34
REMARK SMILES IDX 74 35 68 36 70 37 30 38 73 39 67 40 66 41 31 43 57 44 40 45
REMARK SMILES IDX 56 46 41 47 44 48 55 49 71 50 42 51 43 52 54 54 72 55 45 56
REMARK SMILES IDX 32 57 33 58 38 59 34 60 35 61 37 62 39 63 36 64 58 65 59 66
REMARK SMILES IDX 64 67 60 68 61 69 63 70 65 71 62 72 46 73 47 74 52 75 48 76
REMARK SMILES IDX 49 77 51 78 53 79 50 80
REMARK H PARENT 6 13 70 42 44 53
REMARK Flexibility Score: inf
ROOT
ATOM      1  C   UNL A   1      32.381  30.400  26.032  1.00  0.00     0.274 C 
ENDROOT
BRANCH   1   2
ATOM      2  O   UNL A   1      31.416  29.327  26.079  1.00  0.00    -0.462 OA
BRANCH   2   3
ATOM      3  C   UNL A   1      31.695  28.236  25.329  1.00  0.00     0.309 C 
ATOM      4  O   UNL A   1      31.835  27.102  25.781  1.00  0.00    -0.252 OA
BRANCH   3   5
ATOM      5  C   UNL A   1      31.860  28.527  23.846  1.00  0.00     0.111 C 
ATOM      6  C   UNL A   1      30.852  27.896  22.856  1.00  0.00     0.093 C 
ATOM      7  C   UNL A   1      31.356  26.515  22.375  1.00  0.00     0.014 C 
ATOM      8  C   UNL A   1      32.771  26.570  21.811  1.00  0.00     0.001 C 
ATOM      9  C   UNL A   1      33.319  28.449  23.371  1.00  0.00     0.016 C 
ATOM     10  C   UNL A   1      33.738  27.081  22.863  1.00  0.00     0.001 C 
BRANCH   6  11
ATOM     11  C   UNL A   1      29.399  27.754  23.355  1.00  0.00     0.229 C 
ATOM     12  N   UNL A   1      28.492  28.766  23.302  1.00  0.00    -0.309 N 
ATOM     13  H   UNL A   1      27.626  28.566  23.727  1.00  0.00     0.171 HD
ATOM     14  O   UNL A   1      28.997  26.692  23.851  1.00  0.00    -0.274 OA
BRANCH  12  15
ATOM     15  C   UNL A   1      28.588  30.018  22.755  1.00  0.00     0.154 A 
ATOM     16  C   UNL A   1      28.927  33.449  23.116  1.00  0.00     0.173 C 
ATOM     17  N   UNL A   1      28.788  32.114  22.584  1.00  0.00    -0.274 N 
ATOM     18  C   UNL A   1      28.186  31.743  21.421  1.00  0.00     0.110 A 
ATOM     19  N   UNL A   1      29.154  31.069  23.343  1.00  0.00    -0.155 NA
ATOM     20  C   UNL A   1      28.067  30.373  21.489  1.00  0.00     0.068 A 
ENDBRANCH  12  15
ENDBRANCH   6  11
ENDBRANCH   3   5
ENDBRANCH   2   3
ENDBRANCH   1   2
BRANCH   1  21
ATOM     21  C   UNL A   1      33.007  30.615  27.405  1.00  0.00     0.275 C 
BRANCH  21  22
ATOM     22  O   UNL A   1      34.395  30.250  27.336  1.00  0.00    -0.458 OA
BRANCH  22  23
ATOM     23  C   UNL A   1      35.183  30.730  28.323  1.00  0.00     0.338 C 
ATOM     24  O   UNL A   1      34.899  31.607  29.129  1.00  0.00    -0.246 OA
BRANCH  23  25
ATOM     25  C   UNL A   1      36.470  30.002  28.347  1.00  0.00     0.060 A 
ATOM     26  C   UNL A   1      36.939  29.408  29.519  1.00  0.00     0.016 A 
ATOM     27  C   UNL A   1      37.285  30.024  27.215  1.00  0.00     0.016 A 
ATOM     28  C   UNL A   1      38.254  28.950  29.596  1.00  0.00     0.010 A 
ATOM     29  C   UNL A   1      38.562  29.454  27.263  1.00  0.00     0.010 A 
ATOM     30  C   UNL A   1      39.081  28.945  28.466  1.00  0.00    -0.014 A 
BRANCH  30  31
ATOM     31  C   UNL A   1      40.488  28.448  28.534  1.00  0.00     0.031 A 
ATOM     32  C   UNL A   1      41.611  29.395  28.872  1.00  0.00     0.074 A 
ATOM     33  C   UNL A   1      40.784  27.156  28.282  1.00  0.00     0.049 A 
ATOM     34  N   UNL A   1      42.898  29.256  28.680  1.00  0.00    -0.248 NA
ATOM     35  C   UNL A   1      41.234  30.677  29.488  1.00  0.00     0.031 C 
ATOM     36  C   UNL A   1      39.817  26.096  27.996  1.00  0.00     0.029 A 
ATOM     37  N   UNL A   1      42.000  26.515  28.226  1.00  0.00    -0.354 N 
ATOM     38  C   UNL A   1      43.472  30.463  29.060  1.00  0.00     0.074 A 
ATOM     39  C   UNL A   1      42.397  31.314  29.525  1.00  0.00     0.031 C 
ATOM     40  C   UNL A   1      40.468  24.933  27.844  1.00  0.00     0.029 A 
ATOM     41  C   UNL A   1      41.902  25.183  27.905  1.00  0.00     0.049 A 
ATOM     42  H   UNL A   1      42.857  26.967  28.399  1.00  0.00     0.167 HD
ATOM     43  C   UNL A   1      44.775  30.829  29.007  1.00  0.00     0.037 A 
ATOM     44  C   UNL A   1      42.853  24.272  27.623  1.00  0.00     0.037 A 
ATOM     45  C   UNL A   1      45.853  29.951  28.633  1.00  0.00     0.049 A 
ATOM     46  C   UNL A   1      44.291  24.692  27.584  1.00  0.00     0.074 A 
ATOM     47  C   UNL A   1      47.208  30.226  28.560  1.00  0.00     0.029 A 
ATOM     48  N   UNL A   1      45.700  28.614  28.302  1.00  0.00    -0.354 N 
ATOM     49  N   UNL A   1      44.811  25.871  27.817  1.00  0.00    -0.248 NA
ATOM     50  C   UNL A   1      45.269  23.664  27.202  1.00  0.00     0.031 C 
ATOM     51  C   UNL A   1      47.874  29.059  28.171  1.00  0.00     0.029 A 
ATOM     52  C   UNL A   1      46.935  28.050  28.029  1.00  0.00     0.049 A 
ATOM     53  H   UNL A   1      44.840  28.135  28.265  1.00  0.00     0.167 HD
ATOM     54  C   UNL A   1      46.173  25.732  27.599  1.00  0.00     0.074 A 
ATOM     55  C   UNL A   1      46.405  24.347  27.246  1.00  0.00     0.031 C 
ATOM     56  C   UNL A   1      47.146  26.673  27.672  1.00  0.00     0.037 A 
BRANCH  43  57
ATOM     57  C   UNL A   1      45.113  32.255  29.325  1.00  0.00     0.057 A 
ATOM     58  C   UNL A   1      45.048  33.273  28.368  1.00  0.00     0.134 A 
ATOM     59  C   UNL A   1      45.452  32.620  30.636  1.00  0.00     0.134 A 
ATOM     60  F   UNL A   1      44.741  32.989  27.094  1.00  0.00    -0.206 F 
ATOM     61  C   UNL A   1      45.320  34.602  28.699  1.00  0.00     0.040 A 
ATOM     62  C   UNL A   1      45.707  33.947  30.984  1.00  0.00     0.040 A 
ATOM     63  F   UNL A   1      45.526  31.692  31.603  1.00  0.00    -0.206 F 
ATOM     64  C   UNL A   1      45.643  34.943  30.013  1.00  0.00     0.006 A 
ENDBRANCH  43  57
BRANCH  44  65
ATOM     65  C   UNL A   1      42.455  22.883  27.285  1.00  0.00     0.057 A 
ATOM     66  C   UNL A   1      42.139  21.961  28.288  1.00  0.00     0.134 A 
ATOM     67  C   UNL A   1      42.354  22.456  25.956  1.00  0.00     0.134 A 
ATOM     68  F   UNL A   1      42.243  22.304  29.579  1.00  0.00    -0.206 F 
ATOM     69  C   UNL A   1      41.731  20.662  27.980  1.00  0.00     0.040 A 
ATOM     70  C   UNL A   1      41.923  21.170  25.632  1.00  0.00     0.040 A 
ATOM     71  F   UNL A   1      42.643  23.297  24.951  1.00  0.00    -0.206 F 
ATOM     72  C   UNL A   1      41.611  20.267  26.647  1.00  0.00     0.006 A 
ENDBRANCH  44  65
BRANCH  56  73
ATOM     73  C   UNL A   1      48.543  26.226  27.371  1.00  0.00     0.057 A 
ATOM     74  C   UNL A   1      49.362  25.674  28.362  1.00  0.00     0.134 A 
ATOM     75  C   UNL A   1      49.066  26.337  26.078  1.00  0.00     0.134 A 
ATOM     76  F   UNL A   1      48.919  25.557  29.623  1.00  0.00    -0.206 F 
ATOM     77  C   UNL A   1      50.665  25.262  28.081  1.00  0.00     0.040 A 
ATOM     78  C   UNL A   1      50.362  25.913  25.781  1.00  0.00     0.040 A 
ATOM     79  F   UNL A   1      48.328  26.855  25.086  1.00  0.00    -0.206 F 
ATOM     80  C   UNL A   1      51.167  25.379  26.786  1.00  0.00     0.006 A 
ENDBRANCH  56  73
ENDBRANCH  30  31
ENDBRANCH  23  25
ENDBRANCH  22  23
ENDBRANCH  21  22
ENDBRANCH   1  21
TORSDOF 13
ENDMDL
MODEL 2
REMARK VINA RESULT:     -11.1      4.745      8.392
REMARK SMILES Cn1ccc(NC(=O)[C@@H]2CCCC[C@@H]2C(=O)OCCOC(=O)c2ccc(-c3c4nc(c(-c5c(F)cccc5F)c5ccc([nH]5)c(-c5c(F)cccc5F)c5nc(c(-c6c(F)cccc6F)c6ccc3[nH]6)C=C5)C=C4)cc2)n1
REMARK SMILES IDX 18 1 17 2 15 3 16 4 14 5 9 6 10 7 11 8 13 9 12 10 7 11 6 12
REMARK SMILES IDX 8 14 5 15 1 16 2 17 3 18 77 19 4 20 19 21 20 22 21 23 22 24
REMARK SMILES IDX 23 25 24 26 76 27 25 28 75 29 26 30 27 31 28 32 69 33 29 34
REMARK SMILES IDX 74 35 68 36 70 37 30 38 73 39 67 40 66 41 31 43 57 44 40 45
REMARK SMILES IDX 56 46 41 47 44 48 55 49 71 50 42 51 43 52 54 54 72 55 45 56
REMARK SMILES IDX 32 57 33 58 38 59 34 60 35 61 37 62 39 63 36 64 58 65 59 66
REMARK SMILES IDX 64 67 60 68 61 69 63 70 65 71 62 72 46 73 47 74 52 75 48 76
REMARK SMILES IDX 49 77 51 78 53 79 50 80
REMARK H PARENT 6 13 70 42 44 53
REMARK Flexibility Score: inf
ROOT
ATOM      1  C   UNL A   1      32.932  29.328  24.572  1.00  0.00     0.274 C 
ENDROOT
BRANCH   1   2
ATOM      2  O   UNL A   1      32.764  27.943  24.200  1.00  0.00    -0.462 OA
BRANCH   2   3
ATOM      3  C   UNL A   1      33.178  27.024  25.103  1.00  0.00     0.309 C 
ATOM      4  O   UNL A   1      34.163  27.158  25.825  1.00  0.00    -0.252 OA
BRANCH   3   5
ATOM      5  C   UNL A   1      32.328  25.763  25.140  1.00  0.00     0.111 C 
ATOM      6  C   UNL A   1      32.377  24.808  23.924  1.00  0.00     0.093 C 
ATOM      7  C   UNL A   1      31.294  25.194  22.887  1.00  0.00     0.014 C 
ATOM      8  C   UNL A   1      29.902  25.289  23.499  1.00  0.00     0.001 C 
ATOM      9  C   UNL A   1      30.909  26.005  25.676  1.00  0.00     0.016 C 
ATOM     10  C   UNL A   1      29.883  26.328  24.605  1.00  0.00     0.001 C 
BRANCH   6  11
ATOM     11  C   UNL A   1      33.736  24.681  23.206  1.00  0.00     0.229 C 
ATOM     12  N   UNL A   1      34.688  23.781  23.571  1.00  0.00    -0.309 N 
ATOM     13  H   UNL A   1      35.539  23.859  23.081  1.00  0.00     0.171 HD
ATOM     14  O   UNL A   1      34.028  25.423  22.258  1.00  0.00    -0.274 OA
BRANCH  12  15
ATOM     15  C   UNL A   1      34.656  22.783  24.509  1.00  0.00     0.154 A 
ATOM     16  C   UNL A   1      33.278  19.855  25.751  1.00  0.00     0.173 C 
ATOM     17  N   UNL A   1      34.090  21.029  25.542  1.00  0.00    -0.274 N 
ATOM     18  C   UNL A   1      34.717  21.783  26.487  1.00  0.00     0.110 A 
ATOM     19  N   UNL A   1      34.160  21.564  24.313  1.00  0.00    -0.155 NA
ATOM     20  C   UNL A   1      35.125  22.925  25.836  1.00  0.00     0.068 A 
ENDBRANCH  12  15
ENDBRANCH   6  11
ENDBRANCH   3   5
ENDBRANCH   2   3
ENDBRANCH   1   2
BRANCH   1  21
ATOM     21  C   UNL A   1      31.733  29.813  25.377  1.00  0.00     0.275 C 
BRANCH  21  22
ATOM     22  O   UNL A   1      32.137  29.981  26.745  1.00  0.00    -0.458 OA
BRANCH  22  23
ATOM     23  C   UNL A   1      32.715  31.163  27.050  1.00  0.00     0.338 C 
ATOM     24  O   UNL A   1      32.207  32.274  26.965  1.00  0.00    -0.246 OA
BRANCH  23  25
ATOM     25  C   UNL A   1      34.082  30.943  27.572  1.00  0.00     0.060 A 
ATOM     26  C   UNL A   1      34.552  29.657  27.838  1.00  0.00     0.016 A 
ATOM     27  C   UNL A   1      34.861  32.045  27.926  1.00  0.00     0.016 A 
ATOM     28  C   UNL A   1      35.732  29.476  28.559  1.00  0.00     0.010 A 
ATOM     29  C   UNL A   1      36.102  31.854  28.543  1.00  0.00     0.010 A 
ATOM     30  C   UNL A   1      36.537  30.567  28.906  1.00  0.00    -0.014 A 
BRANCH  30  31
ATOM     31  C   UNL A   1      37.807  30.386  29.670  1.00  0.00     0.031 A 
ATOM     32  C   UNL A   1      38.938  29.581  29.081  1.00  0.00     0.074 A 
ATOM     33  C   UNL A   1      37.965  30.920  30.899  1.00  0.00     0.049 A 
ATOM     34  N   UNL A   1      39.972  29.044  29.678  1.00  0.00    -0.248 NA
ATOM     35  C   UNL A   1      38.887  29.328  27.632  1.00  0.00     0.031 C 
ATOM     36  C   UNL A   1      36.998  31.772  31.593  1.00  0.00     0.029 A 
ATOM     37  N   UNL A   1      39.011  30.821  31.787  1.00  0.00    -0.354 N 
ATOM     38  C   UNL A   1      40.639  28.315  28.702  1.00  0.00     0.074 A 
ATOM     39  C   UNL A   1      39.911  28.502  27.464  1.00  0.00     0.031 C 
ATOM     40  C   UNL A   1      37.512  32.155  32.771  1.00  0.00     0.029 A 
ATOM     41  C   UNL A   1      38.791  31.485  32.969  1.00  0.00     0.049 A 
ATOM     42  H   UNL A   1      39.836  30.321  31.594  1.00  0.00     0.167 HD
ATOM     43  C   UNL A   1      41.746  27.546  28.834  1.00  0.00     0.037 A 
ATOM     44  C   UNL A   1      39.499  31.507  34.113  1.00  0.00     0.037 A 
ATOM     45  C   UNL A   1      42.520  27.435  30.043  1.00  0.00     0.049 A 
ATOM     46  C   UNL A   1      40.730  30.661  34.237  1.00  0.00     0.074 A 
ATOM     47  C   UNL A   1      43.665  26.691  30.273  1.00  0.00     0.029 A 
ATOM     48  N   UNL A   1      42.247  28.119  31.218  1.00  0.00    -0.354 N 
ATOM     49  N   UNL A   1      41.279  29.871  33.348  1.00  0.00    -0.248 NA
ATOM     50  C   UNL A   1      41.417  30.679  35.537  1.00  0.00     0.031 C 
ATOM     51  C   UNL A   1      44.077  26.912  31.591  1.00  0.00     0.029 A 
ATOM     52  C   UNL A   1      43.204  27.817  32.173  1.00  0.00     0.049 A 
ATOM     53  H   UNL A   1      41.486  28.728  31.353  1.00  0.00     0.167 HD
ATOM     54  C   UNL A   1      42.366  29.288  33.982  1.00  0.00     0.074 A 
ATOM     55  C   UNL A   1      42.420  29.839  35.320  1.00  0.00     0.031 C 
ATOM     56  C   UNL A   1      43.237  28.367  33.502  1.00  0.00     0.037 A 
BRANCH  43  57
ATOM     57  C   UNL A   1      42.172  26.727  27.652  1.00  0.00     0.057 A 
ATOM     58  C   UNL A   1      41.727  25.418  27.447  1.00  0.00     0.134 A 
ATOM     59  C   UNL A   1      43.001  27.291  26.671  1.00  0.00     0.134 A 
ATOM     60  F   UNL A   1      40.943  24.816  28.355  1.00  0.00    -0.206 F 
ATOM     61  C   UNL A   1      42.099  24.690  26.315  1.00  0.00     0.040 A 
ATOM     62  C   UNL A   1      43.364  26.582  25.525  1.00  0.00     0.040 A 
ATOM     63  F   UNL A   1      43.458  28.545  26.805  1.00  0.00    -0.206 F 
ATOM     64  C   UNL A   1      42.914  25.276  25.345  1.00  0.00     0.006 A 
ENDBRANCH  43  57
BRANCH  44  65
ATOM     65  C   UNL A   1      39.010  32.312  35.260  1.00  0.00     0.057 A 
ATOM     66  C   UNL A   1      38.216  31.736  36.256  1.00  0.00     0.134 A 
ATOM     67  C   UNL A   1      39.349  33.663  35.400  1.00  0.00     0.134 A 
ATOM     68  F   UNL A   1      37.838  30.453  36.163  1.00  0.00    -0.206 F 
ATOM     69  C   UNL A   1      37.779  32.475  37.357  1.00  0.00     0.040 A 
ATOM     70  C   UNL A   1      38.941  34.407  36.507  1.00  0.00     0.040 A 
ATOM     71  F   UNL A   1      40.109  34.270  34.476  1.00  0.00    -0.206 F 
ATOM     72  C   UNL A   1      38.151  33.813  37.489  1.00  0.00     0.006 A 
ENDBRANCH  44  65
BRANCH  56  73
ATOM     73  C   UNL A   1      44.319  27.910  34.430  1.00  0.00     0.057 A 
ATOM     74  C   UNL A   1      45.539  28.590  34.519  1.00  0.00     0.134 A 
ATOM     75  C   UNL A   1      44.132  26.792  35.249  1.00  0.00     0.134 A 
ATOM     76  F   UNL A   1      45.780  29.660  33.746  1.00  0.00    -0.206 F 
ATOM     77  C   UNL A   1      46.548  28.160  35.381  1.00  0.00     0.040 A 
ATOM     78  C   UNL A   1      45.128  26.362  36.127  1.00  0.00     0.040 A 
ATOM     79  F   UNL A   1      42.983  26.102  35.211  1.00  0.00    -0.206 F 
ATOM     80  C   UNL A   1      46.342  27.044  36.191  1.00  0.00     0.006 A 
ENDBRANCH  56  73
ENDBRANCH  30  31
ENDBRANCH  23  25
ENDBRANCH  22  23
ENDBRANCH  21  22
ENDBRANCH   1  21
TORSDOF 13
ENDMDL
MODEL 3
REMARK VINA RESULT:     -11.0      4.657      8.680
REMARK SMILES Cn1ccc(NC(=O)[C@@H]2CCCC[C@@H]2C(=O)OCCOC(=O)c2ccc(-c3c4nc(c(-c5c(F)cccc5F)c5ccc([nH]5)c(-c5c(F)cccc5F)c5nc(c(-c6c(F)cccc6F)c6ccc3[nH]6)C=C5)C=C4)cc2)n1
REMARK SMILES IDX 18 1 17 2 15 3 16 4 14 5 9 6 10 7 11 8 13 9 12 10 7 11 6 12
REMARK SMILES IDX 8 14 5 15 1 16 2 17 3 18 77 19 4 20 19 21 20 22 21 23 22 24
REMARK SMILES IDX 23 25 24 26 76 27 25 28 75 29 26 30 27 31 28 32 69 33 29 34
REMARK SMILES IDX 74 35 68 36 70 37 30 38 73 39 67 40 66 41 31 43 57 44 40 45
REMARK SMILES IDX 56 46 41 47 44 48 55 49 71 50 42 51 43 52 54 54 72 55 45 56
REMARK SMILES IDX 32 57 33 58 38 59 34 60 35 61 37 62 39 63 36 64 58 65 59 66
REMARK SMILES IDX 64 67 60 68 61 69 63 70 65 71 62 72 46 73 47 74 52 75 48 76
REMARK SMILES IDX 49 77 51 78 53 79 50 80
REMARK H PARENT 6 13 70 42 44 53
REMARK Flexibility Score: inf
ROOT
ATOM      1  C   UNL A   1      35.967  20.580  25.005  1.00  0.00     0.274 C 
ENDROOT
BRANCH   1   2
ATOM      2  O   UNL A   1      35.654  21.740  24.204  1.00  0.00    -0.462 OA
BRANCH   2   3
ATOM      3  C   UNL A   1      34.537  22.422  24.548  1.00  0.00     0.309 C 
ATOM      4  O   UNL A   1      34.231  23.523  24.096  1.00  0.00    -0.252 OA
BRANCH   3   5
ATOM      5  C   UNL A   1      33.677  21.722  25.588  1.00  0.00     0.111 C 
ATOM      6  C   UNL A   1      32.336  21.098  25.134  1.00  0.00     0.093 C 
ATOM      7  C   UNL A   1      31.188  22.129  25.258  1.00  0.00     0.014 C 
ATOM      8  C   UNL A   1      31.103  22.748  26.647  1.00  0.00     0.001 C 
ATOM      9  C   UNL A   1      33.579  22.494  26.912  1.00  0.00     0.016 C 
ATOM     10  C   UNL A   1      32.403  23.451  26.992  1.00  0.00     0.001 C 
BRANCH   6  11
ATOM     11  C   UNL A   1      32.309  20.486  23.719  1.00  0.00     0.229 C 
ATOM     12  N   UNL A   1      32.700  19.211  23.452  1.00  0.00    -0.309 N 
ATOM     13  H   UNL A   1      32.709  18.973  22.496  1.00  0.00     0.171 HD
ATOM     14  O   UNL A   1      31.938  21.153  22.742  1.00  0.00    -0.274 OA
BRANCH  12  15
ATOM     15  C   UNL A   1      33.085  18.203  24.297  1.00  0.00     0.154 A 
ATOM     16  C   UNL A   1      35.382  15.799  25.276  1.00  0.00     0.173 C 
ATOM     17  N   UNL A   1      34.232  16.665  25.182  1.00  0.00    -0.274 N 
ATOM     18  C   UNL A   1      32.956  16.396  25.576  1.00  0.00     0.110 A 
ATOM     19  N   UNL A   1      34.341  17.826  24.517  1.00  0.00    -0.155 NA
ATOM     20  C   UNL A   1      32.185  17.401  25.038  1.00  0.00     0.068 A 
ENDBRANCH  12  15
ENDBRANCH   6  11
ENDBRANCH   3   5
ENDBRANCH   2   3
ENDBRANCH   1   2
BRANCH   1  21
ATOM     21  C   UNL A   1      37.466  20.308  24.988  1.00  0.00     0.275 C 
BRANCH  21  22
ATOM     22  O   UNL A   1      38.150  21.490  25.434  1.00  0.00    -0.458 OA
BRANCH  22  23
ATOM     23  C   UNL A   1      39.294  21.288  26.123  1.00  0.00     0.338 C 
ATOM     24  O   UNL A   1      39.926  20.242  26.208  1.00  0.00    -0.246 OA
BRANCH  23  25
ATOM     25  C   UNL A   1      39.740  22.550  26.752  1.00  0.00     0.060 A 
ATOM     26  C   UNL A   1      39.266  23.784  26.305  1.00  0.00     0.016 A 
ATOM     27  C   UNL A   1      40.748  22.511  27.716  1.00  0.00     0.016 A 
ATOM     28  C   UNL A   1      39.876  24.965  26.727  1.00  0.00     0.010 A 
ATOM     29  C   UNL A   1      41.275  23.703  28.225  1.00  0.00     0.010 A 
ATOM     30  C   UNL A   1      40.876  24.948  27.708  1.00  0.00    -0.014 A 
BRANCH  30  31
ATOM     31  C   UNL A   1      41.530  26.206  28.174  1.00  0.00     0.031 A 
ATOM     32  C   UNL A   1      40.740  27.228  28.953  1.00  0.00     0.074 A 
ATOM     33  C   UNL A   1      42.826  26.462  27.900  1.00  0.00     0.049 A 
ATOM     34  N   UNL A   1      41.008  28.489  29.174  1.00  0.00    -0.248 NA
ATOM     35  C   UNL A   1      39.470  26.774  29.543  1.00  0.00     0.031 C 
ATOM     36  C   UNL A   1      43.749  25.561  27.209  1.00  0.00     0.029 A 
ATOM     37  N   UNL A   1      43.593  27.570  28.174  1.00  0.00    -0.354 N 
ATOM     38  C   UNL A   1      39.903  29.002  29.841  1.00  0.00     0.074 A 
ATOM     39  C   UNL A   1      38.971  27.908  30.019  1.00  0.00     0.031 C 
ATOM     40  C   UNL A   1      44.964  26.127  27.157  1.00  0.00     0.029 A 
ATOM     41  C   UNL A   1      44.880  27.475  27.703  1.00  0.00     0.049 A 
ATOM     42  H   UNL A   1      43.253  28.355  28.660  1.00  0.00     0.167 HD
ATOM     43  C   UNL A   1      39.681  30.274  30.250  1.00  0.00     0.037 A 
ATOM     44  C   UNL A   1      45.869  28.387  27.651  1.00  0.00     0.037 A 
ATOM     45  C   UNL A   1      40.646  31.339  30.155  1.00  0.00     0.049 A 
ATOM     46  C   UNL A   1      45.611  29.786  28.122  1.00  0.00     0.074 A 
ATOM     47  C   UNL A   1      40.520  32.660  30.553  1.00  0.00     0.029 A 
ATOM     48  N   UNL A   1      41.931  31.195  29.657  1.00  0.00    -0.354 N 
ATOM     49  N   UNL A   1      44.517  30.295  28.631  1.00  0.00    -0.248 NA
ATOM     50  C   UNL A   1      46.712  30.748  27.972  1.00  0.00     0.031 C 
ATOM     51  C   UNL A   1      41.724  33.318  30.282  1.00  0.00     0.029 A 
ATOM     52  C   UNL A   1      42.609  32.400  29.741  1.00  0.00     0.049 A 
ATOM     53  H   UNL A   1      42.307  30.360  29.295  1.00  0.00     0.167 HD
ATOM     54  C   UNL A   1      44.791  31.636  28.851  1.00  0.00     0.074 A 
ATOM     55  C   UNL A   1      46.165  31.857  28.451  1.00  0.00     0.031 C 
ATOM     56  C   UNL A   1      43.973  32.604  29.331  1.00  0.00     0.037 A 
BRANCH  43  57
ATOM     57  C   UNL A   1      38.328  30.604  30.805  1.00  0.00     0.057 A 
ATOM     58  C   UNL A   1      38.033  30.511  32.168  1.00  0.00     0.134 A 
ATOM     59  C   UNL A   1      37.319  31.080  29.954  1.00  0.00     0.134 A 
ATOM     60  F   UNL A   1      38.950  30.050  33.032  1.00  0.00    -0.206 F 
ATOM     61  C   UNL A   1      36.779  30.869  32.668  1.00  0.00     0.040 A 
ATOM     62  C   UNL A   1      36.069  31.461  30.444  1.00  0.00     0.040 A 
ATOM     63  F   UNL A   1      37.540  31.199  28.636  1.00  0.00    -0.206 F 
ATOM     64  C   UNL A   1      35.795  31.353  31.805  1.00  0.00     0.006 A 
ENDBRANCH  43  57
BRANCH  44  65
ATOM     65  C   UNL A   1      47.178  28.011  27.061  1.00  0.00     0.057 A 
ATOM     66  C   UNL A   1      48.242  27.603  27.872  1.00  0.00     0.134 A 
ATOM     67  C   UNL A   1      47.385  28.023  25.677  1.00  0.00     0.134 A 
ATOM     68  F   UNL A   1      48.111  27.596  29.206  1.00  0.00    -0.206 F 
ATOM     69  C   UNL A   1      49.467  27.214  27.326  1.00  0.00     0.040 A 
ATOM     70  C   UNL A   1      48.594  27.614  25.115  1.00  0.00     0.040 A 
ATOM     71  F   UNL A   1      46.401  28.405  24.848  1.00  0.00    -0.206 F 
ATOM     72  C   UNL A   1      49.641  27.209  25.942  1.00  0.00     0.006 A 
ENDBRANCH  44  65
BRANCH  56  73
ATOM     73  C   UNL A   1      44.550  33.979  29.453  1.00  0.00     0.057 A 
ATOM     74  C   UNL A   1      44.444  34.910  28.412  1.00  0.00     0.134 A 
ATOM     75  C   UNL A   1      45.204  34.380  30.623  1.00  0.00     0.134 A 
ATOM     76  F   UNL A   1      43.842  34.577  27.261  1.00  0.00    -0.206 F 
ATOM     77  C   UNL A   1      44.987  36.190  28.525  1.00  0.00     0.040 A 
ATOM     78  C   UNL A   1      45.736  35.662  30.754  1.00  0.00     0.040 A 
ATOM     79  F   UNL A   1      45.333  33.533  31.655  1.00  0.00    -0.206 F 
ATOM     80  C   UNL A   1      45.633  36.570  29.701  1.00  0.00     0.006 A 
ENDBRANCH  56  73
ENDBRANCH  30  31
ENDBRANCH  23  25
ENDBRANCH  22  23
ENDBRANCH  21  22
ENDBRANCH   1  21
TORSDOF 13
ENDMDL
