MODEL 1
REMARK VINA RESULT:     -11.1      0.000      0.000
REMARK SMILES [NH3+][C@H](C(=O)OCCOC(=O)c1ccc(-c2c3nc(c(-c4c(F)cccc4F)c4ccc([nH]4)c(-c4c(F)cccc4F)c4nc(c(-c5c(F)cccc5F)c5ccc2[nH]5)C=C4)C=C3)cc1)c1cc(F)c(Cl)c(Cl)c1
REMARK SMILES IDX 7 1 6 2 5 3 3 4 4 5 2 6 1 7 65 11 66 12 73 13 67 14 71 15
REMARK SMILES IDX 68 16 69 17 72 18 70 19 8 20 9 21 10 22 11 23 12 24 64 25
REMARK SMILES IDX 13 26 63 27 14 28 15 29 16 30 57 31 17 32 62 33 56 34 58 35
REMARK SMILES IDX 18 36 61 37 55 38 54 39 19 41 45 42 28 43 44 44 29 45 32 46
REMARK SMILES IDX 43 47 59 48 30 49 31 50 42 52 60 53 33 54 20 55 21 56 26 57
REMARK SMILES IDX 22 58 23 59 25 60 27 61 24 62 46 63 47 64 52 65 48 66 49 67
REMARK SMILES IDX 51 68 53 69 50 70 34 71 35 72 40 73 36 74 37 75 39 76 41 77
REMARK SMILES IDX 38 78
REMARK H PARENT 1 8 1 9 1 10 58 40 32 51
REMARK Flexibility Score: inf
ROOT
ATOM      1  C   UNL A   1      44.894  21.799  25.621  1.00  0.00     0.275 C 
ENDROOT
BRANCH   1   2
ATOM      2  C   UNL A   1      44.484  20.455  25.007  1.00  0.00     0.274 C 
BRANCH   2   3
ATOM      3  O   UNL A   1      43.058  20.267  25.076  1.00  0.00    -0.457 OA
BRANCH   3   4
ATOM      4  C   UNL A   1      42.618  19.253  25.878  1.00  0.00     0.369 C 
ATOM      5  O   UNL A   1      42.942  18.077  25.748  1.00  0.00    -0.245 OA
BRANCH   4   6
ATOM      6  C   UNL A   1      41.689  19.763  27.007  1.00  0.00     0.323 C 
BRANCH   6   7
ATOM      7  N   UNL A   1      42.358  20.686  27.945  1.00  0.00    -0.342 N 
ATOM      8  H   UNL A   1      42.954  20.155  28.579  1.00  0.00     0.345 HD
ATOM      9  H   UNL A   1      41.654  21.192  28.484  1.00  0.00     0.345 HD
ATOM     10  H   UNL A   1      42.926  21.351  27.420  1.00  0.00     0.345 HD
ENDBRANCH   6   7
BRANCH   6  11
ATOM     11  C   UNL A   1      40.406  20.359  26.468  1.00  0.00     0.025 A 
ATOM     12  C   UNL A   1      39.506  19.556  25.751  1.00  0.00     0.051 A 
ATOM     13  C   UNL A   1      40.085  21.711  26.664  1.00  0.00     0.032 A 
ATOM     14  C   UNL A   1      38.337  20.104  25.224  1.00  0.00     0.143 A 
ATOM     15  C   UNL A   1      38.908  22.256  26.129  1.00  0.00     0.063 A 
ATOM     16  F   UNL A   1      37.516  19.299  24.532  1.00  0.00    -0.205 F 
ATOM     17  C   UNL A   1      38.028  21.452  25.400  1.00  0.00     0.095 A 
ATOM     18  Cl  UNL A   1      38.618  23.938  26.402  1.00  0.00    -0.083 Cl
ATOM     19  Cl  UNL A   1      36.572  22.071  24.706  1.00  0.00    -0.079 Cl
ENDBRANCH   6  11
ENDBRANCH   4   6
ENDBRANCH   3   4
ENDBRANCH   2   3
ENDBRANCH   1   2
BRANCH   1  20
ATOM     20  O   UNL A   1      43.757  22.628  25.933  1.00  0.00    -0.458 OA
BRANCH  20  21
ATOM     21  C   UNL A   1      43.834  23.903  25.490  1.00  0.00     0.338 C 
ATOM     22  O   UNL A   1      44.245  24.288  24.408  1.00  0.00    -0.246 OA
BRANCH  21  23
ATOM     23  C   UNL A   1      43.197  24.808  26.460  1.00  0.00     0.060 A 
ATOM     24  C   UNL A   1      43.641  26.131  26.507  1.00  0.00     0.016 A 
ATOM     25  C   UNL A   1      42.259  24.340  27.379  1.00  0.00     0.016 A 
ATOM     26  C   UNL A   1      43.183  26.986  27.500  1.00  0.00     0.010 A 
ATOM     27  C   UNL A   1      41.778  25.211  28.363  1.00  0.00     0.010 A 
ATOM     28  C   UNL A   1      42.253  26.531  28.441  1.00  0.00    -0.014 A 
BRANCH  28  29
ATOM     29  C   UNL A   1      41.819  27.439  29.528  1.00  0.00     0.031 A 
ATOM     30  C   UNL A   1      42.562  27.457  30.832  1.00  0.00     0.074 A 
ATOM     31  C   UNL A   1      40.786  28.277  29.325  1.00  0.00     0.049 A 
ATOM     32  N   UNL A   1      42.285  28.107  31.932  1.00  0.00    -0.248 NA
ATOM     33  C   UNL A   1      43.778  26.631  30.908  1.00  0.00     0.031 C 
ATOM     34  C   UNL A   1      40.024  28.392  28.081  1.00  0.00     0.029 A 
ATOM     35  N   UNL A   1      40.203  29.194  30.161  1.00  0.00    -0.354 N 
ATOM     36  C   UNL A   1      43.272  27.748  32.841  1.00  0.00     0.074 A 
ATOM     37  C   UNL A   1      44.151  26.818  32.166  1.00  0.00     0.031 C 
ATOM     38  C   UNL A   1      39.079  29.333  28.232  1.00  0.00     0.029 A 
ATOM     39  C   UNL A   1      39.134  29.846  29.597  1.00  0.00     0.049 A 
ATOM     40  H   UNL A   1      40.519  29.366  31.078  1.00  0.00     0.167 HD
ATOM     41  C   UNL A   1      43.427  28.160  34.121  1.00  0.00     0.037 A 
ATOM     42  C   UNL A   1      38.278  30.735  30.132  1.00  0.00     0.037 A 
ATOM     43  C   UNL A   1      42.563  29.106  34.779  1.00  0.00     0.049 A 
ATOM     44  C   UNL A   1      38.445  31.142  31.568  1.00  0.00     0.074 A 
ATOM     45  C   UNL A   1      42.636  29.587  36.075  1.00  0.00     0.029 A 
ATOM     46  N   UNL A   1      41.473  29.722  34.184  1.00  0.00    -0.354 N 
ATOM     47  N   UNL A   1      39.358  30.767  32.431  1.00  0.00    -0.248 NA
ATOM     48  C   UNL A   1      37.456  32.085  32.109  1.00  0.00     0.031 C 
ATOM     49  C   UNL A   1      41.572  30.473  36.273  1.00  0.00     0.029 A 
ATOM     50  C   UNL A   1      40.857  30.569  35.090  1.00  0.00     0.049 A 
ATOM     51  H   UNL A   1      41.180  29.578  33.256  1.00  0.00     0.167 HD
ATOM     52  C   UNL A   1      39.061  31.434  33.611  1.00  0.00     0.074 A 
ATOM     53  C   UNL A   1      37.893  32.249  33.349  1.00  0.00     0.031 C 
ATOM     54  C   UNL A   1      39.696  31.372  34.807  1.00  0.00     0.037 A 
BRANCH  41  55
ATOM     55  C   UNL A   1      44.555  27.560  34.904  1.00  0.00     0.057 A 
ATOM     56  C   UNL A   1      45.811  28.173  34.981  1.00  0.00     0.134 A 
ATOM     57  C   UNL A   1      44.372  26.365  35.611  1.00  0.00     0.134 A 
ATOM     58  F   UNL A   1      46.055  29.311  34.314  1.00  0.00    -0.206 F 
ATOM     59  C   UNL A   1      46.853  27.607  35.720  1.00  0.00     0.040 A 
ATOM     60  C   UNL A   1      45.399  25.801  36.369  1.00  0.00     0.040 A 
ATOM     61  F   UNL A   1      43.191  25.729  35.579  1.00  0.00    -0.206 F 
ATOM     62  C   UNL A   1      46.645  26.420  36.421  1.00  0.00     0.006 A 
ENDBRANCH  41  55
BRANCH  42  63
ATOM     63  C   UNL A   1      37.167  31.274  29.311  1.00  0.00     0.057 A 
ATOM     64  C   UNL A   1      36.012  30.522  29.072  1.00  0.00     0.134 A 
ATOM     65  C   UNL A   1      37.231  32.557  28.754  1.00  0.00     0.134 A 
ATOM     66  F   UNL A   1      35.902  29.279  29.562  1.00  0.00    -0.206 F 
ATOM     67  C   UNL A   1      34.962  31.024  28.300  1.00  0.00     0.040 A 
ATOM     68  C   UNL A   1      36.180  33.080  28.000  1.00  0.00     0.040 A 
ATOM     69  F   UNL A   1      38.312  33.326  28.950  1.00  0.00    -0.206 F 
ATOM     70  C   UNL A   1      35.043  32.309  27.768  1.00  0.00     0.006 A 
ENDBRANCH  42  63
BRANCH  54  71
ATOM     71  C   UNL A   1      39.148  32.225  35.910  1.00  0.00     0.057 A 
ATOM     72  C   UNL A   1      38.228  31.723  36.838  1.00  0.00     0.134 A 
ATOM     73  C   UNL A   1      39.567  33.552  36.062  1.00  0.00     0.134 A 
ATOM     74  F   UNL A   1      37.778  30.463  36.735  1.00  0.00    -0.206 F 
ATOM     75  C   UNL A   1      37.731  32.517  37.872  1.00  0.00     0.040 A 
ATOM     76  C   UNL A   1      39.091  34.350  37.101  1.00  0.00     0.040 A 
ATOM     77  F   UNL A   1      40.451  34.089  35.207  1.00  0.00    -0.206 F 
ATOM     78  C   UNL A   1      38.167  33.835  38.008  1.00  0.00     0.006 A 
ENDBRANCH  54  71
ENDBRANCH  28  29
ENDBRANCH  21  23
ENDBRANCH  20  21
ENDBRANCH   1  20
TORSDOF 13
ENDMDL
MODEL 2
REMARK VINA RESULT:     -10.8      5.872     11.582
REMARK SMILES [NH3+][C@H](C(=O)OCCOC(=O)c1ccc(-c2c3nc(c(-c4c(F)cccc4F)c4ccc([nH]4)c(-c4c(F)cccc4F)c4nc(c(-c5c(F)cccc5F)c5ccc2[nH]5)C=C4)C=C3)cc1)c1cc(F)c(Cl)c(Cl)c1
REMARK SMILES IDX 7 1 6 2 5 3 3 4 4 5 2 6 1 7 65 11 66 12 73 13 67 14 71 15
REMARK SMILES IDX 68 16 69 17 72 18 70 19 8 20 9 21 10 22 11 23 12 24 64 25
REMARK SMILES IDX 13 26 63 27 14 28 15 29 16 30 57 31 17 32 62 33 56 34 58 35
REMARK SMILES IDX 18 36 61 37 55 38 54 39 19 41 45 42 28 43 44 44 29 45 32 46
REMARK SMILES IDX 43 47 59 48 30 49 31 50 42 52 60 53 33 54 20 55 21 56 26 57
REMARK SMILES IDX 22 58 23 59 25 60 27 61 24 62 46 63 47 64 52 65 48 66 49 67
REMARK SMILES IDX 51 68 53 69 50 70 34 71 35 72 40 73 36 74 37 75 39 76 41 77
REMARK SMILES IDX 38 78
REMARK H PARENT 1 8 1 9 1 10 58 40 32 51
REMARK Flexibility Score: inf
ROOT
ATOM      1  C   UNL A   1      35.191  34.682  32.243  1.00  0.00     0.275 C 
ENDROOT
BRANCH   1   2
ATOM      2  C   UNL A   1      33.841  35.266  31.812  1.00  0.00     0.274 C 
BRANCH   2   3
ATOM      3  O   UNL A   1      33.321  34.577  30.659  1.00  0.00    -0.457 OA
BRANCH   3   4
ATOM      4  C   UNL A   1      33.227  35.306  29.508  1.00  0.00     0.369 C 
ATOM      5  O   UNL A   1      32.528  36.305  29.377  1.00  0.00    -0.245 OA
BRANCH   4   6
ATOM      6  C   UNL A   1      34.143  34.751  28.390  1.00  0.00     0.323 C 
BRANCH   6   7
ATOM      7  N   UNL A   1      35.574  34.748  28.751  1.00  0.00    -0.342 N 
ATOM      8  H   UNL A   1      36.061  34.038  28.204  1.00  0.00     0.345 HD
ATOM      9  H   UNL A   1      35.674  34.539  29.745  1.00  0.00     0.345 HD
ATOM     10  H   UNL A   1      35.977  35.665  28.554  1.00  0.00     0.345 HD
ENDBRANCH   6   7
BRANCH   6  11
ATOM     11  C   UNL A   1      33.694  33.389  27.905  1.00  0.00     0.025 A 
ATOM     12  C   UNL A   1      32.438  33.239  27.297  1.00  0.00     0.051 A 
ATOM     13  C   UNL A   1      34.507  32.253  28.049  1.00  0.00     0.032 A 
ATOM     14  C   UNL A   1      32.004  31.983  26.876  1.00  0.00     0.143 A 
ATOM     15  C   UNL A   1      34.062  30.992  27.626  1.00  0.00     0.063 A 
ATOM     16  F   UNL A   1      30.789  31.888  26.314  1.00  0.00    -0.205 F 
ATOM     17  C   UNL A   1      32.802  30.850  27.038  1.00  0.00     0.095 A 
ATOM     18  Cl  UNL A   1      35.125  29.653  27.874  1.00  0.00    -0.083 Cl
ATOM     19  Cl  UNL A   1      32.196  29.321  26.511  1.00  0.00    -0.079 Cl
ENDBRANCH   6  11
ENDBRANCH   4   6
ENDBRANCH   3   4
ENDBRANCH   2   3
ENDBRANCH   1   2
BRANCH   1  20
ATOM     20  O   UNL A   1      35.439  33.388  31.658  1.00  0.00    -0.458 OA
BRANCH  20  21
ATOM     21  C   UNL A   1      36.058  32.499  32.467  1.00  0.00     0.338 C 
ATOM     22  O   UNL A   1      35.746  32.190  33.605  1.00  0.00    -0.246 OA
BRANCH  21  23
ATOM     23  C   UNL A   1      37.121  31.804  31.725  1.00  0.00     0.060 A 
ATOM     24  C   UNL A   1      38.100  31.133  32.461  1.00  0.00     0.016 A 
ATOM     25  C   UNL A   1      37.218  31.900  30.337  1.00  0.00     0.016 A 
ATOM     26  C   UNL A   1      39.206  30.591  31.820  1.00  0.00     0.010 A 
ATOM     27  C   UNL A   1      38.319  31.330  29.690  1.00  0.00     0.010 A 
ATOM     28  C   UNL A   1      39.328  30.690  30.430  1.00  0.00    -0.014 A 
BRANCH  28  29
ATOM     29  C   UNL A   1      40.542  30.156  29.769  1.00  0.00     0.031 A 
ATOM     30  C   UNL A   1      41.743  31.036  29.583  1.00  0.00     0.074 A 
ATOM     31  C   UNL A   1      40.577  28.869  29.378  1.00  0.00     0.049 A 
ATOM     32  N   UNL A   1      42.860  30.787  28.950  1.00  0.00    -0.248 NA
ATOM     33  C   UNL A   1      41.677  32.376  30.188  1.00  0.00     0.031 C 
ATOM     34  C   UNL A   1      39.493  27.902  29.559  1.00  0.00     0.029 A 
ATOM     35  N   UNL A   1      41.565  28.153  28.753  1.00  0.00    -0.354 N 
ATOM     36  C   UNL A   1      43.618  31.946  29.053  1.00  0.00     0.074 A 
ATOM     37  C   UNL A   1      42.833  32.901  29.804  1.00  0.00     0.031 C 
ATOM     38  C   UNL A   1      39.879  26.715  29.064  1.00  0.00     0.029 A 
ATOM     39  C   UNL A   1      41.212  26.854  28.484  1.00  0.00     0.049 A 
ATOM     40  H   UNL A   1      42.442  28.535  28.518  1.00  0.00     0.167 HD
ATOM     41  C   UNL A   1      44.858  32.187  28.565  1.00  0.00     0.037 A 
ATOM     42  C   UNL A   1      41.877  25.892  27.818  1.00  0.00     0.037 A 
ATOM     43  C   UNL A   1      45.645  31.223  27.840  1.00  0.00     0.049 A 
ATOM     44  C   UNL A   1      43.232  26.199  27.247  1.00  0.00     0.074 A 
ATOM     45  C   UNL A   1      46.913  31.371  27.304  1.00  0.00     0.029 A 
ATOM     46  N   UNL A   1      45.240  29.927  27.562  1.00  0.00    -0.354 N 
ATOM     47  N   UNL A   1      43.924  27.310  27.316  1.00  0.00    -0.248 NA
ATOM     48  C   UNL A   1      43.892  25.123  26.495  1.00  0.00     0.031 C 
ATOM     49  C   UNL A   1      47.263  30.171  26.675  1.00  0.00     0.029 A 
ATOM     50  C   UNL A   1      46.228  29.267  26.849  1.00  0.00     0.049 A 
ATOM     51  H   UNL A   1      44.379  29.533  27.829  1.00  0.00     0.167 HD
ATOM     52  C   UNL A   1      45.103  27.065  26.628  1.00  0.00     0.074 A 
ATOM     53  C   UNL A   1      45.041  25.695  26.162  1.00  0.00     0.031 C 
ATOM     54  C   UNL A   1      46.144  27.903  26.396  1.00  0.00     0.037 A 
BRANCH  41  55
ATOM     55  C   UNL A   1      45.423  33.559  28.770  1.00  0.00     0.057 A 
ATOM     56  C   UNL A   1      45.201  34.596  27.856  1.00  0.00     0.134 A 
ATOM     57  C   UNL A   1      46.179  33.852  29.912  1.00  0.00     0.134 A 
ATOM     58  F   UNL A   1      44.498  34.376  26.735  1.00  0.00    -0.206 F 
ATOM     59  C   UNL A   1      45.728  35.873  28.062  1.00  0.00     0.040 A 
ATOM     60  C   UNL A   1      46.694  35.129  30.138  1.00  0.00     0.040 A 
ATOM     61  F   UNL A   1      46.427  32.901  30.826  1.00  0.00    -0.206 F 
ATOM     62  C   UNL A   1      46.472  36.143  29.210  1.00  0.00     0.006 A 
ENDBRANCH  41  55
BRANCH  42  63
ATOM     63  C   UNL A   1      41.253  24.561  27.628  1.00  0.00     0.057 A 
ATOM     64  C   UNL A   1      40.229  24.367  26.695  1.00  0.00     0.134 A 
ATOM     65  C   UNL A   1      41.672  23.450  28.370  1.00  0.00     0.134 A 
ATOM     66  F   UNL A   1      39.771  25.398  25.971  1.00  0.00    -0.206 F 
ATOM     67  C   UNL A   1      39.638  23.116  26.511  1.00  0.00     0.040 A 
ATOM     68  C   UNL A   1      41.106  22.189  28.180  1.00  0.00     0.040 A 
ATOM     69  F   UNL A   1      42.651  23.574  29.278  1.00  0.00    -0.206 F 
ATOM     70  C   UNL A   1      40.081  22.022  27.251  1.00  0.00     0.006 A 
ENDBRANCH  42  63
BRANCH  54  71
ATOM     71  C   UNL A   1      47.301  27.348  25.624  1.00  0.00     0.057 A 
ATOM     72  C   UNL A   1      47.390  27.488  24.234  1.00  0.00     0.134 A 
ATOM     73  C   UNL A   1      48.351  26.694  26.280  1.00  0.00     0.134 A 
ATOM     74  F   UNL A   1      46.408  28.093  23.547  1.00  0.00    -0.206 F 
ATOM     75  C   UNL A   1      48.476  26.982  23.520  1.00  0.00     0.040 A 
ATOM     76  C   UNL A   1      49.451  26.200  25.580  1.00  0.00     0.040 A 
ATOM     77  F   UNL A   1      48.326  26.533  27.612  1.00  0.00    -0.206 F 
ATOM     78  C   UNL A   1      49.514  26.340  24.195  1.00  0.00     0.006 A 
ENDBRANCH  54  71
ENDBRANCH  28  29
ENDBRANCH  21  23
ENDBRANCH  20  21
ENDBRANCH   1  20
TORSDOF 13
ENDMDL
MODEL 3
REMARK VINA RESULT:     -10.6      1.072      1.924
REMARK SMILES [NH3+][C@H](C(=O)OCCOC(=O)c1ccc(-c2c3nc(c(-c4c(F)cccc4F)c4ccc([nH]4)c(-c4c(F)cccc4F)c4nc(c(-c5c(F)cccc5F)c5ccc2[nH]5)C=C4)C=C3)cc1)c1cc(F)c(Cl)c(Cl)c1
REMARK SMILES IDX 7 1 6 2 5 3 3 4 4 5 2 6 1 7 65 11 66 12 73 13 67 14 71 15
REMARK SMILES IDX 68 16 69 17 72 18 70 19 8 20 9 21 10 22 11 23 12 24 64 25
REMARK SMILES IDX 13 26 63 27 14 28 15 29 16 30 57 31 17 32 62 33 56 34 58 35
REMARK SMILES IDX 18 36 61 37 55 38 54 39 19 41 45 42 28 43 44 44 29 45 32 46
REMARK SMILES IDX 43 47 59 48 30 49 31 50 42 52 60 53 33 54 20 55 21 56 26 57
REMARK SMILES IDX 22 58 23 59 25 60 27 61 24 62 46 63 47 64 52 65 48 66 49 67
REMARK SMILES IDX 51 68 53 69 50 70 34 71 35 72 40 73 36 74 37 75 39 76 41 77
REMARK SMILES IDX 38 78
REMARK H PARENT 1 8 1 9 1 10 58 40 32 51
REMARK Flexibility Score: inf
ROOT
ATOM      1  C   UNL A   1      44.499  22.677  24.197  1.00  0.00     0.275 C 
ENDROOT
BRANCH   1   2
ATOM      2  C   UNL A   1      44.222  21.459  25.085  1.00  0.00     0.274 C 
BRANCH   2   3
ATOM      3  O   UNL A   1      42.809  21.285  25.302  1.00  0.00    -0.457 OA
BRANCH   3   4
ATOM      4  C   UNL A   1      42.443  20.259  26.125  1.00  0.00     0.369 C 
ATOM      5  O   UNL A   1      42.778  19.090  25.964  1.00  0.00    -0.245 OA
BRANCH   4   6
ATOM      6  C   UNL A   1      41.586  20.746  27.319  1.00  0.00     0.323 C 
BRANCH   6   7
ATOM      7  N   UNL A   1      42.368  21.451  28.354  1.00  0.00    -0.342 N 
ATOM      8  H   UNL A   1      41.922  22.342  28.569  1.00  0.00     0.345 HD
ATOM      9  H   UNL A   1      43.314  21.618  28.010  1.00  0.00     0.345 HD
ATOM     10  H   UNL A   1      42.410  20.878  29.198  1.00  0.00     0.345 HD
ENDBRANCH   6   7
BRANCH   6  11
ATOM     11  C   UNL A   1      40.396  21.568  26.872  1.00  0.00     0.025 A 
ATOM     12  C   UNL A   1      40.257  22.895  27.306  1.00  0.00     0.051 A 
ATOM     13  C   UNL A   1      39.411  21.035  26.025  1.00  0.00     0.032 A 
ATOM     14  C   UNL A   1      39.148  23.649  26.924  1.00  0.00     0.143 A 
ATOM     15  C   UNL A   1      38.297  21.799  25.648  1.00  0.00     0.063 A 
ATOM     16  F   UNL A   1      39.052  24.909  27.378  1.00  0.00    -0.205 F 
ATOM     17  C   UNL A   1      38.158  23.114  26.101  1.00  0.00     0.095 A 
ATOM     18  Cl  UNL A   1      37.127  21.042  24.626  1.00  0.00    -0.083 Cl
ATOM     19  Cl  UNL A   1      36.802  24.097  25.680  1.00  0.00    -0.079 Cl
ENDBRANCH   6  11
ENDBRANCH   4   6
ENDBRANCH   3   4
ENDBRANCH   2   3
ENDBRANCH   1   2
BRANCH   1  20
ATOM     20  O   UNL A   1      43.784  23.849  24.637  1.00  0.00    -0.458 OA
BRANCH  20  21
ATOM     21  C   UNL A   1      44.559  24.871  25.065  1.00  0.00     0.338 C 
ATOM     22  O   UNL A   1      45.644  25.213  24.626  1.00  0.00    -0.246 OA
BRANCH  21  23
ATOM     23  C   UNL A   1      43.839  25.652  26.082  1.00  0.00     0.060 A 
ATOM     24  C   UNL A   1      44.100  27.022  26.160  1.00  0.00     0.016 A 
ATOM     25  C   UNL A   1      43.003  25.034  27.013  1.00  0.00     0.016 A 
ATOM     26  C   UNL A   1      43.564  27.777  27.194  1.00  0.00     0.010 A 
ATOM     27  C   UNL A   1      42.442  25.802  28.039  1.00  0.00     0.010 A 
ATOM     28  C   UNL A   1      42.736  27.172  28.147  1.00  0.00    -0.014 A 
BRANCH  28  29
ATOM     29  C   UNL A   1      42.219  27.981  29.275  1.00  0.00     0.031 A 
ATOM     30  C   UNL A   1      42.970  28.021  30.574  1.00  0.00     0.074 A 
ATOM     31  C   UNL A   1      41.101  28.711  29.115  1.00  0.00     0.049 A 
ATOM     32  N   UNL A   1      42.637  28.589  31.704  1.00  0.00    -0.248 NA
ATOM     33  C   UNL A   1      44.267  27.327  30.606  1.00  0.00     0.031 C 
ATOM     34  C   UNL A   1      40.318  28.798  27.882  1.00  0.00     0.029 A 
ATOM     35  N   UNL A   1      40.433  29.524  29.995  1.00  0.00    -0.354 N 
ATOM     36  C   UNL A   1      43.666  28.299  32.590  1.00  0.00     0.074 A 
ATOM     37  C   UNL A   1      44.632  27.498  31.870  1.00  0.00     0.031 C 
ATOM     38  C   UNL A   1      39.280  29.626  28.080  1.00  0.00     0.029 A 
ATOM     39  C   UNL A   1      39.295  30.082  29.467  1.00  0.00     0.049 A 
ATOM     40  H   UNL A   1      40.738  29.689  30.916  1.00  0.00     0.167 HD
ATOM     41  C   UNL A   1      43.789  28.668  33.886  1.00  0.00     0.037 A 
ATOM     42  C   UNL A   1      38.354  30.851  30.045  1.00  0.00     0.037 A 
ATOM     43  C   UNL A   1      42.837  29.488  34.591  1.00  0.00     0.049 A 
ATOM     44  C   UNL A   1      38.492  31.210  31.497  1.00  0.00     0.074 A 
ATOM     45  C   UNL A   1      42.872  29.917  35.906  1.00  0.00     0.029 A 
ATOM     46  N   UNL A   1      41.682  30.009  34.029  1.00  0.00    -0.354 N 
ATOM     47  N   UNL A   1      39.449  30.898  32.337  1.00  0.00    -0.248 NA
ATOM     48  C   UNL A   1      37.414  32.018  32.084  1.00  0.00     0.031 C 
ATOM     49  C   UNL A   1      41.722  30.675  36.149  1.00  0.00     0.029 A 
ATOM     50  C   UNL A   1      40.989  30.745  34.976  1.00  0.00     0.049 A 
ATOM     51  H   UNL A   1      41.395  29.876  33.097  1.00  0.00     0.167 HD
ATOM     52  C   UNL A   1      39.095  31.477  33.547  1.00  0.00     0.074 A 
ATOM     53  C   UNL A   1      37.845  32.174  33.328  1.00  0.00     0.031 C 
ATOM     54  C   UNL A   1      39.746  31.432  34.736  1.00  0.00     0.037 A 
BRANCH  41  55
ATOM     55  C   UNL A   1      44.983  28.160  34.635  1.00  0.00     0.057 A 
ATOM     56  C   UNL A   1      44.957  26.949  35.337  1.00  0.00     0.134 A 
ATOM     57  C   UNL A   1      46.183  28.882  34.633  1.00  0.00     0.134 A 
ATOM     58  F   UNL A   1      43.833  26.218  35.391  1.00  0.00    -0.206 F 
ATOM     59  C   UNL A   1      46.079  26.482  36.026  1.00  0.00     0.040 A 
ATOM     60  C   UNL A   1      47.317  28.416  35.301  1.00  0.00     0.040 A 
ATOM     61  F   UNL A   1      46.274  30.050  33.979  1.00  0.00    -0.206 F 
ATOM     62  C   UNL A   1      47.265  27.215  36.004  1.00  0.00     0.006 A 
ENDBRANCH  41  55
BRANCH  42  63
ATOM     63  C   UNL A   1      37.184  31.303  29.256  1.00  0.00     0.057 A 
ATOM     64  C   UNL A   1      36.090  30.460  29.032  1.00  0.00     0.134 A 
ATOM     65  C   UNL A   1      37.128  32.593  28.713  1.00  0.00     0.134 A 
ATOM     66  F   UNL A   1      36.096  29.207  29.509  1.00  0.00    -0.206 F 
ATOM     67  C   UNL A   1      34.985  30.880  28.290  1.00  0.00     0.040 A 
ATOM     68  C   UNL A   1      36.020  33.034  27.989  1.00  0.00     0.040 A 
ATOM     69  F   UNL A   1      38.146  33.448  28.895  1.00  0.00    -0.206 F 
ATOM     70  C   UNL A   1      34.946  32.173  27.772  1.00  0.00     0.006 A 
ENDBRANCH  42  63
BRANCH  54  71
ATOM     71  C   UNL A   1      39.122  32.173  35.878  1.00  0.00     0.057 A 
ATOM     72  C   UNL A   1      39.359  33.538  36.083  1.00  0.00     0.134 A 
ATOM     73  C   UNL A   1      38.254  31.523  36.763  1.00  0.00     0.134 A 
ATOM     74  F   UNL A   1      40.194  34.212  35.277  1.00  0.00    -0.206 F 
ATOM     75  C   UNL A   1      38.766  34.227  37.141  1.00  0.00     0.040 A 
ATOM     76  C   UNL A   1      37.640  32.206  37.812  1.00  0.00     0.040 A 
ATOM     77  F   UNL A   1      37.983  30.218  36.615  1.00  0.00    -0.206 F 
ATOM     78  C   UNL A   1      37.899  33.561  38.006  1.00  0.00     0.006 A 
ENDBRANCH  54  71
ENDBRANCH  28  29
ENDBRANCH  21  23
ENDBRANCH  20  21
ENDBRANCH   1  20
TORSDOF 13
ENDMDL
