MODEL 1
REMARK VINA RESULT:     -12.2      0.000      0.000
REMARK SMILES O=C(CC(=O)c1ccccc1)Nc1cccc(C(=O)OCCOC(=O)c2ccc(-c3c4nc(c(-c5c(F)cccc5F)c5ccc([nH]5)c(-c5c(F)cccc5F)c5nc(c(-c6c(F)cccc6F)c6ccc3[nH]6)C=C5)C=C4)cc2)c1
REMARK SMILES IDX 21 1 20 2 18 3 19 4 17 5 13 6 14 7 80 8 15 9 16 10 12 11
REMARK SMILES IDX 1 12 2 13 3 15 4 16 5 17 6 18 7 19 11 20 8 21 10 22 9 23
REMARK SMILES IDX 22 24 23 25 24 26 25 27 26 28 27 29 79 30 28 31 78 32 29 33
REMARK SMILES IDX 30 34 31 35 72 36 32 37 77 38 71 39 73 40 33 41 76 42 70 43
REMARK SMILES IDX 69 44 34 46 60 47 43 48 59 49 44 50 47 51 58 52 74 53 45 54
REMARK SMILES IDX 46 55 57 57 75 58 48 59 35 60 36 61 41 62 37 63 38 64 40 65
REMARK SMILES IDX 42 66 39 67 61 68 62 69 67 70 63 71 64 72 66 73 68 74 65 75
REMARK SMILES IDX 49 76 50 77 55 78 51 79 52 80 54 81 56 82 53 83
REMARK H PARENT 12 14 73 45 47 56
REMARK Flexibility Score: inf
ROOT
ATOM      1  C   UNL A   1      42.755  20.705  26.051  1.00  0.00     0.275 C 
ENDROOT
BRANCH   1   2
ATOM      2  O   UNL A   1      41.363  20.896  25.728  1.00  0.00    -0.458 OA
BRANCH   2   3
ATOM      3  C   UNL A   1      40.508  21.079  26.768  1.00  0.00     0.338 C 
ATOM      4  O   UNL A   1      40.659  20.717  27.915  1.00  0.00    -0.246 OA
BRANCH   3   5
ATOM      5  C   UNL A   1      39.373  21.924  26.318  1.00  0.00     0.062 A 
ATOM      6  C   UNL A   1      37.312  22.179  25.085  1.00  0.00     0.042 A 
ATOM      7  C   UNL A   1      37.287  23.540  25.408  1.00  0.00     0.026 A 
ATOM      8  C   UNL A   1      38.392  21.392  25.485  1.00  0.00     0.041 A 
ATOM      9  C   UNL A   1      38.253  24.070  26.262  1.00  0.00     0.003 A 
ATOM     10  C   UNL A   1      39.264  23.248  26.758  1.00  0.00     0.016 A 
BRANCH   6  11
ATOM     11  N   UNL A   1      36.172  21.634  24.462  1.00  0.00    -0.326 N 
ATOM     12  O   UNL A   1      34.814  21.392  26.344  1.00  0.00    -0.274 OA
ATOM     13  C   UNL A   1      34.981  21.384  25.127  1.00  0.00     0.232 C 
ATOM     14  H   UNL A   1      36.224  21.420  23.502  1.00  0.00     0.169 HD
BRANCH  13  15
ATOM     15  C   UNL A   1      33.807  21.159  24.222  1.00  0.00     0.181 C 
BRANCH  15  16
ATOM     16  C   UNL A   1      32.745  20.229  24.744  1.00  0.00     0.172 C 
ATOM     17  O   UNL A   1      31.712  20.676  25.243  1.00  0.00    -0.294 OA
BRANCH  16  18
ATOM     18  C   UNL A   1      32.901  18.751  24.645  1.00  0.00     0.018 A 
ATOM     19  C   UNL A   1      32.769  18.013  25.827  1.00  0.00     0.012 A 
ATOM     20  C   UNL A   1      33.269  18.097  23.463  1.00  0.00     0.012 A 
ATOM     21  C   UNL A   1      33.001  16.636  25.829  1.00  0.00     0.001 A 
ATOM     22  C   UNL A   1      33.521  16.721  23.475  1.00  0.00     0.001 A 
ATOM     23  C   UNL A   1      33.386  15.993  24.655  1.00  0.00     0.000 A 
ENDBRANCH  16  18
ENDBRANCH  15  16
ENDBRANCH  13  15
ENDBRANCH   6  11
ENDBRANCH   3   5
ENDBRANCH   2   3
ENDBRANCH   1   2
BRANCH   1  24
ATOM     24  C   UNL A   1      43.620  21.704  25.283  1.00  0.00     0.275 C 
BRANCH  24  25
ATOM     25  O   UNL A   1      42.915  22.952  25.152  1.00  0.00    -0.458 OA
BRANCH  25  26
ATOM     26  C   UNL A   1      43.672  24.070  25.218  1.00  0.00     0.338 C 
ATOM     27  O   UNL A   1      44.636  24.368  24.535  1.00  0.00    -0.246 OA
BRANCH  26  28
ATOM     28  C   UNL A   1      43.095  24.974  26.223  1.00  0.00     0.060 A 
ATOM     29  C   UNL A   1      43.446  26.317  26.170  1.00  0.00     0.016 A 
ATOM     30  C   UNL A   1      42.320  24.497  27.274  1.00  0.00     0.016 A 
ATOM     31  C   UNL A   1      43.106  27.182  27.201  1.00  0.00     0.010 A 
ATOM     32  C   UNL A   1      41.885  25.392  28.262  1.00  0.00     0.010 A 
ATOM     33  C   UNL A   1      42.297  26.739  28.251  1.00  0.00    -0.014 A 
BRANCH  33  34
ATOM     34  C   UNL A   1      41.902  27.680  29.336  1.00  0.00     0.031 A 
ATOM     35  C   UNL A   1      42.686  27.726  30.620  1.00  0.00     0.074 A 
ATOM     36  C   UNL A   1      40.850  28.507  29.172  1.00  0.00     0.049 A 
ATOM     37  N   UNL A   1      42.399  28.329  31.746  1.00  0.00    -0.248 NA
ATOM     38  C   UNL A   1      43.959  26.987  30.644  1.00  0.00     0.031 C 
ATOM     39  C   UNL A   1      40.032  28.615  27.960  1.00  0.00     0.029 A 
ATOM     40  N   UNL A   1      40.285  29.421  30.028  1.00  0.00    -0.354 N 
ATOM     41  C   UNL A   1      43.420  27.995  32.627  1.00  0.00     0.074 A 
ATOM     42  C   UNL A   1      44.335  27.136  31.906  1.00  0.00     0.031 C 
ATOM     43  C   UNL A   1      39.096  29.557  28.140  1.00  0.00     0.029 A 
ATOM     44  C   UNL A   1      39.180  30.052  29.509  1.00  0.00     0.049 A 
ATOM     45  H   UNL A   1      40.638  29.606  30.929  1.00  0.00     0.167 HD
ATOM     46  C   UNL A   1      43.574  28.369  33.920  1.00  0.00     0.037 A 
ATOM     47  C   UNL A   1      38.296  30.891  30.080  1.00  0.00     0.037 A 
ATOM     48  C   UNL A   1      42.686  29.264  34.617  1.00  0.00     0.049 A 
ATOM     49  C   UNL A   1      38.460  31.250  31.529  1.00  0.00     0.074 A 
ATOM     50  C   UNL A   1      42.768  29.718  35.922  1.00  0.00     0.029 A 
ATOM     51  N   UNL A   1      41.559  29.851  34.060  1.00  0.00    -0.354 N 
ATOM     52  N   UNL A   1      39.401  30.889  32.368  1.00  0.00    -0.248 NA
ATOM     53  C   UNL A   1      37.429  32.115  32.117  1.00  0.00     0.031 C 
ATOM     54  C   UNL A   1      41.669  30.546  36.168  1.00  0.00     0.029 A 
ATOM     55  C   UNL A   1      40.927  30.647  35.002  1.00  0.00     0.049 A 
ATOM     56  H   UNL A   1      41.254  29.721  33.134  1.00  0.00     0.167 HD
ATOM     57  C   UNL A   1      39.082  31.490  33.578  1.00  0.00     0.074 A 
ATOM     58  C   UNL A   1      37.874  32.259  33.357  1.00  0.00     0.031 C 
ATOM     59  C   UNL A   1      39.727  31.407  34.765  1.00  0.00     0.037 A 
BRANCH  46  60
ATOM     60  C   UNL A   1      44.726  27.779  34.682  1.00  0.00     0.057 A 
ATOM     61  C   UNL A   1      45.999  28.362  34.685  1.00  0.00     0.134 A 
ATOM     62  C   UNL A   1      44.542  26.627  35.459  1.00  0.00     0.134 A 
ATOM     63  F   UNL A   1      46.247  29.458  33.953  1.00  0.00    -0.206 F 
ATOM     64  C   UNL A   1      47.052  27.808  35.416  1.00  0.00     0.040 A 
ATOM     65  C   UNL A   1      45.579  26.080  36.214  1.00  0.00     0.040 A 
ATOM     66  F   UNL A   1      43.345  26.022  35.505  1.00  0.00    -0.206 F 
ATOM     67  C   UNL A   1      46.842  26.668  36.189  1.00  0.00     0.006 A 
ENDBRANCH  46  60
BRANCH  47  68
ATOM     68  C   UNL A   1      37.140  31.399  29.297  1.00  0.00     0.057 A 
ATOM     69  C   UNL A   1      37.151  32.681  28.737  1.00  0.00     0.134 A 
ATOM     70  C   UNL A   1      35.996  30.616  29.093  1.00  0.00     0.134 A 
ATOM     71  F   UNL A   1      38.206  33.489  28.918  1.00  0.00    -0.206 F 
ATOM     72  C   UNL A   1      36.062  33.171  28.010  1.00  0.00     0.040 A 
ATOM     73  C   UNL A   1      34.915  31.080  28.344  1.00  0.00     0.040 A 
ATOM     74  F   UNL A   1      35.922  29.379  29.604  1.00  0.00    -0.206 F 
ATOM     75  C   UNL A   1      34.943  32.365  27.806  1.00  0.00     0.006 A 
ENDBRANCH  47  68
BRANCH  59  76
ATOM     76  C   UNL A   1      39.155  32.194  35.907  1.00  0.00     0.057 A 
ATOM     77  C   UNL A   1      39.500  33.534  36.125  1.00  0.00     0.134 A 
ATOM     78  C   UNL A   1      38.232  31.611  36.783  1.00  0.00     0.134 A 
ATOM     79  F   UNL A   1      40.392  34.145  35.330  1.00  0.00    -0.206 F 
ATOM     80  C   UNL A   1      38.962  34.260  37.190  1.00  0.00     0.040 A 
ATOM     81  C   UNL A   1      37.669  32.334  37.835  1.00  0.00     0.040 A 
ATOM     82  F   UNL A   1      37.855  30.333  36.625  1.00  0.00    -0.206 F 
ATOM     83  C   UNL A   1      38.039  33.661  38.045  1.00  0.00     0.006 A 
ENDBRANCH  59  76
ENDBRANCH  33  34
ENDBRANCH  26  28
ENDBRANCH  25  26
ENDBRANCH  24  25
ENDBRANCH   1  24
TORSDOF 15
ENDMDL
MODEL 2
REMARK VINA RESULT:     -11.7      5.807     10.825
REMARK SMILES O=C(CC(=O)c1ccccc1)Nc1cccc(C(=O)OCCOC(=O)c2ccc(-c3c4nc(c(-c5c(F)cccc5F)c5ccc([nH]5)c(-c5c(F)cccc5F)c5nc(c(-c6c(F)cccc6F)c6ccc3[nH]6)C=C5)C=C4)cc2)c1
REMARK SMILES IDX 21 1 20 2 18 3 19 4 17 5 13 6 14 7 80 8 15 9 16 10 12 11
REMARK SMILES IDX 1 12 2 13 3 15 4 16 5 17 6 18 7 19 11 20 8 21 10 22 9 23
REMARK SMILES IDX 22 24 23 25 24 26 25 27 26 28 27 29 79 30 28 31 78 32 29 33
REMARK SMILES IDX 30 34 31 35 72 36 32 37 77 38 71 39 73 40 33 41 76 42 70 43
REMARK SMILES IDX 69 44 34 46 60 47 43 48 59 49 44 50 47 51 58 52 74 53 45 54
REMARK SMILES IDX 46 55 57 57 75 58 48 59 35 60 36 61 41 62 37 63 38 64 40 65
REMARK SMILES IDX 42 66 39 67 61 68 62 69 67 70 63 71 64 72 66 73 68 74 65 75
REMARK SMILES IDX 49 76 50 77 55 78 51 79 52 80 54 81 56 82 53 83
REMARK H PARENT 12 14 73 45 47 56
REMARK Flexibility Score: inf
ROOT
ATOM      1  C   UNL A   1      33.868  34.428  29.131  1.00  0.00     0.275 C 
ENDROOT
BRANCH   1   2
ATOM      2  O   UNL A   1      33.946  33.257  28.295  1.00  0.00    -0.458 OA
BRANCH   2   3
ATOM      3  C   UNL A   1      32.824  32.909  27.613  1.00  0.00     0.338 C 
ATOM      4  O   UNL A   1      31.913  33.637  27.279  1.00  0.00    -0.246 OA
BRANCH   3   5
ATOM      5  C   UNL A   1      32.925  31.484  27.209  1.00  0.00     0.062 A 
ATOM      6  C   UNL A   1      32.019  29.566  26.053  1.00  0.00     0.042 A 
ATOM      7  C   UNL A   1      33.080  28.783  26.522  1.00  0.00     0.026 A 
ATOM      8  C   UNL A   1      31.912  30.897  26.455  1.00  0.00     0.041 A 
ATOM      9  C   UNL A   1      34.109  29.373  27.254  1.00  0.00     0.003 A 
ATOM     10  C   UNL A   1      34.055  30.734  27.551  1.00  0.00     0.016 A 
BRANCH   6  11
ATOM     11  N   UNL A   1      31.164  28.998  25.090  1.00  0.00    -0.326 N 
ATOM     12  O   UNL A   1      32.585  29.099  23.242  1.00  0.00    -0.274 OA
ATOM     13  C   UNL A   1      31.555  28.715  23.789  1.00  0.00     0.232 C 
ATOM     14  H   UNL A   1      30.238  28.789  25.354  1.00  0.00     0.169 HD
BRANCH  13  15
ATOM     15  C   UNL A   1      30.628  27.793  23.055  1.00  0.00     0.181 C 
BRANCH  15  16
ATOM     16  C   UNL A   1      29.166  28.144  23.120  1.00  0.00     0.172 C 
ATOM     17  O   UNL A   1      28.339  27.314  23.500  1.00  0.00    -0.294 OA
BRANCH  16  18
ATOM     18  C   UNL A   1      28.685  29.506  22.756  1.00  0.00     0.018 A 
ATOM     19  C   UNL A   1      29.210  30.080  21.592  1.00  0.00     0.012 A 
ATOM     20  C   UNL A   1      27.828  30.259  23.568  1.00  0.00     0.012 A 
ATOM     21  C   UNL A   1      28.882  31.392  21.242  1.00  0.00     0.001 A 
ATOM     22  C   UNL A   1      27.520  31.579  23.224  1.00  0.00     0.001 A 
ATOM     23  C   UNL A   1      28.045  32.143  22.064  1.00  0.00     0.000 A 
ENDBRANCH  16  18
ENDBRANCH  15  16
ENDBRANCH  13  15
ENDBRANCH   6  11
ENDBRANCH   3   5
ENDBRANCH   2   3
ENDBRANCH   1   2
BRANCH   1  24
ATOM     24  C   UNL A   1      34.391  34.117  30.533  1.00  0.00     0.275 C 
BRANCH  24  25
ATOM     25  O   UNL A   1      34.536  32.693  30.688  1.00  0.00    -0.458 OA
BRANCH  25  26
ATOM     26  C   UNL A   1      35.347  32.286  31.690  1.00  0.00     0.338 C 
ATOM     27  O   UNL A   1      35.159  32.367  32.892  1.00  0.00    -0.246 OA
BRANCH  26  28
ATOM     28  C   UNL A   1      36.517  31.614  31.109  1.00  0.00     0.060 A 
ATOM     29  C   UNL A   1      37.401  30.980  31.974  1.00  0.00     0.016 A 
ATOM     30  C   UNL A   1      36.813  31.707  29.754  1.00  0.00     0.016 A 
ATOM     31  C   UNL A   1      38.625  30.507  31.519  1.00  0.00     0.010 A 
ATOM     32  C   UNL A   1      38.000  31.135  29.274  1.00  0.00     0.010 A 
ATOM     33  C   UNL A   1      38.932  30.553  30.156  1.00  0.00    -0.014 A 
BRANCH  33  34
ATOM     34  C   UNL A   1      40.230  30.010  29.666  1.00  0.00     0.031 A 
ATOM     35  C   UNL A   1      41.439  30.902  29.579  1.00  0.00     0.074 A 
ATOM     36  C   UNL A   1      40.336  28.713  29.311  1.00  0.00     0.049 A 
ATOM     37  N   UNL A   1      42.596  30.677  29.010  1.00  0.00    -0.248 NA
ATOM     38  C   UNL A   1      41.329  32.228  30.209  1.00  0.00     0.031 C 
ATOM     39  C   UNL A   1      39.265  27.717  29.397  1.00  0.00     0.029 A 
ATOM     40  N   UNL A   1      41.400  28.006  28.807  1.00  0.00    -0.354 N 
ATOM     41  C   UNL A   1      43.328  31.849  29.159  1.00  0.00     0.074 A 
ATOM     42  C   UNL A   1      42.484  32.784  29.873  1.00  0.00     0.031 C 
ATOM     43  C   UNL A   1      39.732  26.528  28.990  1.00  0.00     0.029 A 
ATOM     44  C   UNL A   1      41.103  26.694  28.522  1.00  0.00     0.049 A 
ATOM     45  H   UNL A   1      42.291  28.401  28.662  1.00  0.00     0.167 HD
ATOM     46  C   UNL A   1      44.585  32.119  28.735  1.00  0.00     0.037 A 
ATOM     47  C   UNL A   1      41.826  25.743  27.903  1.00  0.00     0.037 A 
ATOM     48  C   UNL A   1      45.437  31.168  28.068  1.00  0.00     0.049 A 
ATOM     49  C   UNL A   1      43.199  26.081  27.396  1.00  0.00     0.074 A 
ATOM     50  C   UNL A   1      46.734  31.340  27.616  1.00  0.00     0.029 A 
ATOM     51  N   UNL A   1      45.081  29.861  27.769  1.00  0.00    -0.354 N 
ATOM     52  N   UNL A   1      43.862  27.207  27.497  1.00  0.00    -0.248 NA
ATOM     53  C   UNL A   1      43.915  25.024  26.670  1.00  0.00     0.031 C 
ATOM     54  C   UNL A   1      47.148  30.151  27.007  1.00  0.00     0.029 A 
ATOM     55  C   UNL A   1      46.126  29.223  27.121  1.00  0.00     0.049 A 
ATOM     56  H   UNL A   1      44.213  29.449  27.985  1.00  0.00     0.167 HD
ATOM     57  C   UNL A   1      45.075  26.993  26.859  1.00  0.00     0.074 A 
ATOM     58  C   UNL A   1      45.066  25.620  26.395  1.00  0.00     0.031 C 
ATOM     59  C   UNL A   1      46.101  27.856  26.668  1.00  0.00     0.037 A 
BRANCH  46  60
ATOM     60  C   UNL A   1      45.105  33.513  28.940  1.00  0.00     0.057 A 
ATOM     61  C   UNL A   1      45.860  33.872  30.063  1.00  0.00     0.134 A 
ATOM     62  C   UNL A   1      44.878  34.501  27.972  1.00  0.00     0.134 A 
ATOM     63  F   UNL A   1      46.103  32.979  31.033  1.00  0.00    -0.206 F 
ATOM     64  C   UNL A   1      46.351  35.170  30.227  1.00  0.00     0.040 A 
ATOM     65  C   UNL A   1      45.385  35.793  28.112  1.00  0.00     0.040 A 
ATOM     66  F   UNL A   1      44.167  34.222  26.869  1.00  0.00    -0.206 F 
ATOM     67  C   UNL A   1      46.120  36.132  29.246  1.00  0.00     0.006 A 
ENDBRANCH  46  60
BRANCH  47  68
ATOM     68  C   UNL A   1      41.241  24.397  27.672  1.00  0.00     0.057 A 
ATOM     69  C   UNL A   1      41.669  23.284  28.404  1.00  0.00     0.134 A 
ATOM     70  C   UNL A   1      40.242  24.190  26.712  1.00  0.00     0.134 A 
ATOM     71  F   UNL A   1      42.641  23.411  29.320  1.00  0.00    -0.206 F 
ATOM     72  C   UNL A   1      41.133  22.013  28.183  1.00  0.00     0.040 A 
ATOM     73  C   UNL A   1      39.675  22.932  26.502  1.00  0.00     0.040 A 
ATOM     74  F   UNL A   1      39.787  25.215  25.976  1.00  0.00    -0.206 F 
ATOM     75  C   UNL A   1      40.127  21.837  27.234  1.00  0.00     0.006 A 
ENDBRANCH  47  68
BRANCH  59  76
ATOM     76  C   UNL A   1      47.311  27.329  25.954  1.00  0.00     0.057 A 
ATOM     77  C   UNL A   1      48.366  26.717  26.643  1.00  0.00     0.134 A 
ATOM     78  C   UNL A   1      47.409  27.413  24.560  1.00  0.00     0.134 A 
ATOM     79  F   UNL A   1      48.339  26.621  27.981  1.00  0.00    -0.206 F 
ATOM     80  C   UNL A   1      49.487  26.228  25.971  1.00  0.00     0.040 A 
ATOM     81  C   UNL A   1      48.513  26.905  23.875  1.00  0.00     0.040 A 
ATOM     82  F   UNL A   1      46.429  27.981  23.841  1.00  0.00    -0.206 F 
ATOM     83  C   UNL A   1      49.560  26.316  24.582  1.00  0.00     0.006 A 
ENDBRANCH  59  76
ENDBRANCH  33  34
ENDBRANCH  26  28
ENDBRANCH  25  26
ENDBRANCH  24  25
ENDBRANCH   1  24
TORSDOF 15
ENDMDL
MODEL 3
REMARK VINA RESULT:     -11.7      1.341      2.560
REMARK SMILES O=C(CC(=O)c1ccccc1)Nc1cccc(C(=O)OCCOC(=O)c2ccc(-c3c4nc(c(-c5c(F)cccc5F)c5ccc([nH]5)c(-c5c(F)cccc5F)c5nc(c(-c6c(F)cccc6F)c6ccc3[nH]6)C=C5)C=C4)cc2)c1
REMARK SMILES IDX 21 1 20 2 18 3 19 4 17 5 13 6 14 7 80 8 15 9 16 10 12 11
REMARK SMILES IDX 1 12 2 13 3 15 4 16 5 17 6 18 7 19 11 20 8 21 10 22 9 23
REMARK SMILES IDX 22 24 23 25 24 26 25 27 26 28 27 29 79 30 28 31 78 32 29 33
REMARK SMILES IDX 30 34 31 35 72 36 32 37 77 38 71 39 73 40 33 41 76 42 70 43
REMARK SMILES IDX 69 44 34 46 60 47 43 48 59 49 44 50 47 51 58 52 74 53 45 54
REMARK SMILES IDX 46 55 57 57 75 58 48 59 35 60 36 61 41 62 37 63 38 64 40 65
REMARK SMILES IDX 42 66 39 67 61 68 62 69 67 70 63 71 64 72 66 73 68 74 65 75
REMARK SMILES IDX 49 76 50 77 55 78 51 79 52 80 54 81 56 82 53 83
REMARK H PARENT 12 14 73 45 47 56
REMARK Flexibility Score: inf
ROOT
ATOM      1  C   UNL A   1      41.755  20.352  26.545  1.00  0.00     0.275 C 
ENDROOT
BRANCH   1   2
ATOM      2  O   UNL A   1      40.466  20.993  26.482  1.00  0.00    -0.458 OA
BRANCH   2   3
ATOM      3  C   UNL A   1      39.490  20.348  25.792  1.00  0.00     0.338 C 
ATOM      4  O   UNL A   1      39.462  19.176  25.481  1.00  0.00    -0.246 OA
BRANCH   3   5
ATOM      5  C   UNL A   1      38.357  21.282  25.568  1.00  0.00     0.062 A 
ATOM      6  C   UNL A   1      36.081  21.682  24.868  1.00  0.00     0.042 A 
ATOM      7  C   UNL A   1      36.260  23.055  25.072  1.00  0.00     0.026 A 
ATOM      8  C   UNL A   1      37.153  20.810  25.053  1.00  0.00     0.041 A 
ATOM      9  C   UNL A   1      37.454  23.528  25.613  1.00  0.00     0.003 A 
ATOM     10  C   UNL A   1      38.481  22.633  25.909  1.00  0.00     0.016 A 
BRANCH   6  11
ATOM     11  N   UNL A   1      34.776  21.227  24.595  1.00  0.00    -0.326 N 
ATOM     12  O   UNL A   1      33.934  21.219  26.771  1.00  0.00    -0.274 OA
ATOM     13  C   UNL A   1      33.779  21.134  25.556  1.00  0.00     0.232 C 
ATOM     14  H   UNL A   1      34.559  20.961  23.671  1.00  0.00     0.169 HD
BRANCH  13  15
ATOM     15  C   UNL A   1      32.397  20.985  24.996  1.00  0.00     0.181 C 
BRANCH  15  16
ATOM     16  C   UNL A   1      32.223  21.399  23.559  1.00  0.00     0.172 C 
ATOM     17  O   UNL A   1      32.140  20.553  22.669  1.00  0.00    -0.294 OA
BRANCH  16  18
ATOM     18  C   UNL A   1      32.118  22.836  23.181  1.00  0.00     0.018 A 
ATOM     19  C   UNL A   1      30.954  23.515  23.561  1.00  0.00     0.012 A 
ATOM     20  C   UNL A   1      33.067  23.491  22.388  1.00  0.00     0.012 A 
ATOM     21  C   UNL A   1      30.740  24.834  23.155  1.00  0.00     0.001 A 
ATOM     22  C   UNL A   1      32.840  24.805  21.966  1.00  0.00     0.001 A 
ATOM     23  C   UNL A   1      31.680  25.474  22.350  1.00  0.00     0.000 A 
ENDBRANCH  16  18
ENDBRANCH  15  16
ENDBRANCH  13  15
ENDBRANCH   6  11
ENDBRANCH   3   5
ENDBRANCH   2   3
ENDBRANCH   1   2
BRANCH   1  24
ATOM     24  C   UNL A   1      42.789  21.157  25.758  1.00  0.00     0.275 C 
BRANCH  24  25
ATOM     25  O   UNL A   1      42.200  22.395  25.316  1.00  0.00    -0.458 OA
BRANCH  25  26
ATOM     26  C   UNL A   1      43.023  23.467  25.296  1.00  0.00     0.338 C 
ATOM     27  O   UNL A   1      43.979  23.670  24.569  1.00  0.00    -0.246 OA
BRANCH  26  28
ATOM     28  C   UNL A   1      42.534  24.456  26.267  1.00  0.00     0.060 A 
ATOM     29  C   UNL A   1      43.075  25.735  26.223  1.00  0.00     0.016 A 
ATOM     30  C   UNL A   1      41.650  24.107  27.282  1.00  0.00     0.016 A 
ATOM     31  C   UNL A   1      42.814  26.653  27.232  1.00  0.00     0.010 A 
ATOM     32  C   UNL A   1      41.301  25.067  28.242  1.00  0.00     0.010 A 
ATOM     33  C   UNL A   1      41.901  26.342  28.244  1.00  0.00    -0.014 A 
BRANCH  33  34
ATOM     34  C   UNL A   1      41.594  27.343  29.304  1.00  0.00     0.031 A 
ATOM     35  C   UNL A   1      42.410  27.381  30.568  1.00  0.00     0.074 A 
ATOM     36  C   UNL A   1      40.593  28.231  29.133  1.00  0.00     0.049 A 
ATOM     37  N   UNL A   1      42.188  28.039  31.677  1.00  0.00    -0.248 NA
ATOM     38  C   UNL A   1      43.632  26.562  30.590  1.00  0.00     0.031 C 
ATOM     39  C   UNL A   1      39.755  28.350  27.936  1.00  0.00     0.029 A 
ATOM     40  N   UNL A   1      40.109  29.208  29.969  1.00  0.00    -0.354 N 
ATOM     41  C   UNL A   1      43.207  27.670  32.548  1.00  0.00     0.074 A 
ATOM     42  C   UNL A   1      44.047  26.730  31.838  1.00  0.00     0.031 C 
ATOM     43  C   UNL A   1      38.885  29.356  28.104  1.00  0.00     0.029 A 
ATOM     44  C   UNL A   1      39.034  29.891  29.451  1.00  0.00     0.049 A 
ATOM     45  H   UNL A   1      40.495  29.400  30.855  1.00  0.00     0.167 HD
ATOM     46  C   UNL A   1      43.416  28.077  33.822  1.00  0.00     0.037 A 
ATOM     47  C   UNL A   1      38.219  30.804  30.012  1.00  0.00     0.037 A 
ATOM     48  C   UNL A   1      42.604  29.051  34.507  1.00  0.00     0.049 A 
ATOM     49  C   UNL A   1      38.441  31.202  31.443  1.00  0.00     0.074 A 
ATOM     50  C   UNL A   1      42.747  29.543  35.793  1.00  0.00     0.029 A 
ATOM     51  N   UNL A   1      41.504  29.690  33.954  1.00  0.00    -0.354 N 
ATOM     52  N   UNL A   1      39.377  30.809  32.274  1.00  0.00    -0.248 NA
ATOM     53  C   UNL A   1      37.483  32.152  32.023  1.00  0.00     0.031 C 
ATOM     54  C   UNL A   1      41.709  30.449  36.033  1.00  0.00     0.029 A 
ATOM     55  C   UNL A   1      40.947  30.557  34.881  1.00  0.00     0.049 A 
ATOM     56  H   UNL A   1      41.169  29.549  33.040  1.00  0.00     0.167 HD
ATOM     57  C   UNL A   1      39.126  31.470  33.468  1.00  0.00     0.074 A 
ATOM     58  C   UNL A   1      37.965  32.308  33.247  1.00  0.00     0.031 C 
ATOM     59  C   UNL A   1      39.793  31.385  34.644  1.00  0.00     0.037 A 
BRANCH  46  60
ATOM     60  C   UNL A   1      44.545  27.440  34.580  1.00  0.00     0.057 A 
ATOM     61  C   UNL A   1      44.383  26.256  35.311  1.00  0.00     0.134 A 
ATOM     62  C   UNL A   1      45.828  28.003  34.542  1.00  0.00     0.134 A 
ATOM     63  F   UNL A   1      43.179  25.671  35.400  1.00  0.00    -0.206 F 
ATOM     64  C   UNL A   1      45.450  25.669  35.994  1.00  0.00     0.040 A 
ATOM     65  C   UNL A   1      46.907  27.413  35.199  1.00  0.00     0.040 A 
ATOM     66  F   UNL A   1      46.054  29.134  33.856  1.00  0.00    -0.206 F 
ATOM     67  C   UNL A   1      46.718  26.243  35.933  1.00  0.00     0.006 A 
ENDBRANCH  46  60
BRANCH  47  68
ATOM     68  C   UNL A   1      37.081  31.360  29.237  1.00  0.00     0.057 A 
ATOM     69  C   UNL A   1      35.922  30.609  29.010  1.00  0.00     0.134 A 
ATOM     70  C   UNL A   1      37.125  32.654  28.701  1.00  0.00     0.134 A 
ATOM     71  F   UNL A   1      35.829  29.354  29.473  1.00  0.00    -0.206 F 
ATOM     72  C   UNL A   1      34.852  31.120  28.270  1.00  0.00     0.040 A 
ATOM     73  C   UNL A   1      36.051  33.189  27.988  1.00  0.00     0.040 A 
ATOM     74  F   UNL A   1      38.206  33.425  28.883  1.00  0.00    -0.206 F 
ATOM     75  C   UNL A   1      34.914  32.418  27.764  1.00  0.00     0.006 A 
ENDBRANCH  47  68
BRANCH  59  76
ATOM     76  C   UNL A   1      39.300  32.246  35.769  1.00  0.00     0.057 A 
ATOM     77  C   UNL A   1      39.739  33.566  35.934  1.00  0.00     0.134 A 
ATOM     78  C   UNL A   1      38.360  31.756  36.683  1.00  0.00     0.134 A 
ATOM     79  F   UNL A   1      40.652  34.089  35.102  1.00  0.00    -0.206 F 
ATOM     80  C   UNL A   1      39.275  34.361  36.984  1.00  0.00     0.040 A 
ATOM     81  C   UNL A   1      37.870  32.550  37.721  1.00  0.00     0.040 A 
ATOM     82  F   UNL A   1      37.895  30.502  36.576  1.00  0.00    -0.206 F 
ATOM     83  C   UNL A   1      38.332  33.854  37.877  1.00  0.00     0.006 A 
ENDBRANCH  59  76
ENDBRANCH  33  34
ENDBRANCH  26  28
ENDBRANCH  25  26
ENDBRANCH  24  25
ENDBRANCH   1  24
TORSDOF 15
ENDMDL
