MODEL 1
REMARK VINA RESULT:      -9.3      0.000      0.000
REMARK SMILES CCc1nc(COC)cc(OCC(=O)OCCOC(=O)c2ccc(-c3c4nc(c(-c5c(F)cccc5F)c5ccc([nH]5)c(-c5c(F)cccc5F)c5nc(c(-c6c(F)cccc6F)c6ccc3[nH]6)C=C5)C=C4)cc2)n1
REMARK SMILES IDX 16 1 15 2 13 3 14 4 12 5 11 6 10 7 3 8 4 9 75 10 5 11 9 12
REMARK SMILES IDX 2 13 1 14 6 15 7 16 8 17 17 18 18 19 19 20 20 21 21 22 22 23
REMARK SMILES IDX 74 24 23 25 73 26 24 27 25 28 26 29 67 30 27 31 72 32 66 33
REMARK SMILES IDX 68 34 28 35 71 36 65 37 64 38 29 40 55 41 38 42 54 43 39 44
REMARK SMILES IDX 42 45 53 46 69 47 40 48 41 49 52 51 70 52 43 53 30 54 31 55
REMARK SMILES IDX 36 56 32 57 33 58 35 59 37 60 34 61 56 62 57 63 62 64 58 65
REMARK SMILES IDX 59 66 61 67 63 68 60 69 44 70 45 71 50 72 46 73 47 74 49 75
REMARK SMILES IDX 51 76 48 77
REMARK H PARENT 68 39 42 50
REMARK Flexibility Score: inf
ROOT
ATOM      1  C   UNL A   1      33.152  36.972  30.959  1.00  0.00     0.274 C 
ENDROOT
BRANCH   1   2
ATOM      2  O   UNL A   1      33.340  35.949  31.955  1.00  0.00    -0.460 OA
BRANCH   2   3
ATOM      3  C   UNL A   1      34.144  36.277  33.002  1.00  0.00     0.344 C 
ATOM      4  O   UNL A   1      33.980  37.246  33.734  1.00  0.00    -0.248 OA
BRANCH   3   5
ATOM      5  C   UNL A   1      35.300  35.302  33.190  1.00  0.00     0.353 C 
BRANCH   5   6
ATOM      6  O   UNL A   1      34.964  34.014  33.672  1.00  0.00    -0.466 OA
BRANCH   6   7
ATOM      7  C   UNL A   1      35.965  33.281  34.243  1.00  0.00     0.217 A 
ATOM      8  C   UNL A   1      37.413  33.171  36.010  1.00  0.00     0.132 A 
ATOM      9  N   UNL A   1      38.009  32.064  35.538  1.00  0.00    -0.235 NA
ATOM     10  N   UNL A   1      36.388  33.794  35.407  1.00  0.00    -0.198 NA
ATOM     11  C   UNL A   1      37.593  31.594  34.346  1.00  0.00     0.074 A 
ATOM     12  C   UNL A   1      36.544  32.176  33.662  1.00  0.00     0.094 A 
BRANCH   8  13
ATOM     13  C   UNL A   1      37.903  33.750  37.310  1.00  0.00     0.074 C 
ATOM     14  C   UNL A   1      38.540  32.723  38.238  1.00  0.00     0.012 C 
ENDBRANCH   8  13
BRANCH  11  15
ATOM     15  C   UNL A   1      38.334  30.408  33.770  1.00  0.00     0.216 C 
BRANCH  15  16
ATOM     16  O   UNL A   1      39.751  30.604  33.706  1.00  0.00    -0.378 OA
ATOM     17  C   UNL A   1      40.458  29.846  34.679  1.00  0.00     0.195 C 
ENDBRANCH  15  16
ENDBRANCH  11  15
ENDBRANCH   6   7
ENDBRANCH   5   6
ENDBRANCH   3   5
ENDBRANCH   2   3
ENDBRANCH   1   2
BRANCH   1  18
ATOM     18  C   UNL A   1      33.104  36.388  29.550  1.00  0.00     0.275 C 
BRANCH  18  19
ATOM     19  O   UNL A   1      32.493  35.083  29.558  1.00  0.00    -0.458 OA
BRANCH  19  20
ATOM     20  C   UNL A   1      33.033  34.203  28.693  1.00  0.00     0.338 C 
ATOM     21  O   UNL A   1      32.530  33.777  27.661  1.00  0.00    -0.246 OA
BRANCH  20  22
ATOM     22  C   UNL A   1      34.387  33.799  29.097  1.00  0.00     0.060 A 
ATOM     23  C   UNL A   1      35.478  34.039  28.258  1.00  0.00     0.016 A 
ATOM     24  C   UNL A   1      34.530  33.000  30.234  1.00  0.00     0.016 A 
ATOM     25  C   UNL A   1      36.708  33.441  28.538  1.00  0.00     0.010 A 
ATOM     26  C   UNL A   1      35.775  32.450  30.544  1.00  0.00     0.010 A 
ATOM     27  C   UNL A   1      36.869  32.651  29.690  1.00  0.00    -0.014 A 
BRANCH  27  28
ATOM     28  C   UNL A   1      38.200  32.100  30.043  1.00  0.00     0.031 A 
ATOM     29  C   UNL A   1      38.665  30.773  29.513  1.00  0.00     0.074 A 
ATOM     30  C   UNL A   1      38.984  32.802  30.881  1.00  0.00     0.049 A 
ATOM     31  N   UNL A   1      39.760  30.114  29.797  1.00  0.00    -0.248 NA
ATOM     32  C   UNL A   1      37.793  30.102  28.539  1.00  0.00     0.031 C 
ATOM     33  C   UNL A   1      38.645  34.102  31.461  1.00  0.00     0.029 A 
ATOM     34  N   UNL A   1      40.221  32.516  31.399  1.00  0.00    -0.354 N 
ATOM     35  C   UNL A   1      39.711  28.951  29.039  1.00  0.00     0.074 A 
ATOM     36  C   UNL A   1      38.471  28.987  28.293  1.00  0.00     0.031 C 
ATOM     37  C   UNL A   1      39.649  34.503  32.254  1.00  0.00     0.029 A 
ATOM     38  C   UNL A   1      40.679  33.470  32.272  1.00  0.00     0.049 A 
ATOM     39  H   UNL A   1      40.729  31.705  31.168  1.00  0.00     0.167 HD
ATOM     40  C   UNL A   1      40.622  27.949  28.971  1.00  0.00     0.037 A 
ATOM     41  C   UNL A   1      41.789  33.499  33.031  1.00  0.00     0.037 A 
ATOM     42  C   UNL A   1      41.853  27.907  29.718  1.00  0.00     0.049 A 
ATOM     43  C   UNL A   1      42.753  32.355  32.976  1.00  0.00     0.074 A 
ATOM     44  C   UNL A   1      42.837  26.931  29.709  1.00  0.00     0.029 A 
ATOM     45  N   UNL A   1      42.269  28.883  30.610  1.00  0.00    -0.354 N 
ATOM     46  N   UNL A   1      42.687  31.258  32.263  1.00  0.00    -0.248 NA
ATOM     47  C   UNL A   1      43.940  32.449  33.837  1.00  0.00     0.031 C 
ATOM     48  C   UNL A   1      43.837  27.306  30.613  1.00  0.00     0.029 A 
ATOM     49  C   UNL A   1      43.488  28.527  31.166  1.00  0.00     0.049 A 
ATOM     50  H   UNL A   1      41.773  29.707  30.818  1.00  0.00     0.167 HD
ATOM     51  C   UNL A   1      43.821  30.529  32.588  1.00  0.00     0.074 A 
ATOM     52  C   UNL A   1      44.568  31.317  33.548  1.00  0.00     0.031 C 
ATOM     53  C   UNL A   1      44.207  29.312  32.133  1.00  0.00     0.037 A 
BRANCH  40  54
ATOM     54  C   UNL A   1      40.321  26.801  28.058  1.00  0.00     0.057 A 
ATOM     55  C   UNL A   1      40.890  26.717  26.781  1.00  0.00     0.134 A 
ATOM     56  C   UNL A   1      39.516  25.738  28.483  1.00  0.00     0.134 A 
ATOM     57  F   UNL A   1      41.665  27.708  26.316  1.00  0.00    -0.206 F 
ATOM     58  C   UNL A   1      40.663  25.614  25.956  1.00  0.00     0.040 A 
ATOM     59  C   UNL A   1      39.292  24.624  27.672  1.00  0.00     0.040 A 
ATOM     60  F   UNL A   1      38.947  25.759  29.698  1.00  0.00    -0.206 F 
ATOM     61  C   UNL A   1      39.868  24.560  26.403  1.00  0.00     0.006 A 
ENDBRANCH  40  54
BRANCH  41  62
ATOM     62  C   UNL A   1      42.019  34.652  33.928  1.00  0.00     0.057 A 
ATOM     63  C   UNL A   1      42.648  35.811  33.467  1.00  0.00     0.134 A 
ATOM     64  C   UNL A   1      41.574  34.634  35.256  1.00  0.00     0.134 A 
ATOM     65  F   UNL A   1      43.107  35.876  32.209  1.00  0.00    -0.206 F 
ATOM     66  C   UNL A   1      42.829  36.918  34.297  1.00  0.00     0.040 A 
ATOM     67  C   UNL A   1      41.733  35.739  36.091  1.00  0.00     0.040 A 
ATOM     68  F   UNL A   1      40.958  33.549  35.748  1.00  0.00    -0.206 F 
ATOM     69  C   UNL A   1      42.362  36.886  35.611  1.00  0.00     0.006 A 
ENDBRANCH  41  62
BRANCH  53  70
ATOM     70  C   UNL A   1      45.491  28.770  32.675  1.00  0.00     0.057 A 
ATOM     71  C   UNL A   1      46.717  29.052  32.061  1.00  0.00     0.134 A 
ATOM     72  C   UNL A   1      45.504  27.965  33.820  1.00  0.00     0.134 A 
ATOM     73  F   UNL A   1      46.765  29.804  30.952  1.00  0.00    -0.206 F 
ATOM     74  C   UNL A   1      47.914  28.535  32.558  1.00  0.00     0.040 A 
ATOM     75  C   UNL A   1      46.696  27.454  34.334  1.00  0.00     0.040 A 
ATOM     76  F   UNL A   1      44.361  27.661  34.451  1.00  0.00    -0.206 F 
ATOM     77  C   UNL A   1      47.905  27.736  33.700  1.00  0.00     0.006 A 
ENDBRANCH  53  70
ENDBRANCH  27  28
ENDBRANCH  20  22
ENDBRANCH  19  20
ENDBRANCH  18  19
ENDBRANCH   1  18
TORSDOF 16
ENDMDL
MODEL 2
REMARK VINA RESULT:      -9.2      0.800      2.162
REMARK SMILES CCc1nc(COC)cc(OCC(=O)OCCOC(=O)c2ccc(-c3c4nc(c(-c5c(F)cccc5F)c5ccc([nH]5)c(-c5c(F)cccc5F)c5nc(c(-c6c(F)cccc6F)c6ccc3[nH]6)C=C5)C=C4)cc2)n1
REMARK SMILES IDX 16 1 15 2 13 3 14 4 12 5 11 6 10 7 3 8 4 9 75 10 5 11 9 12
REMARK SMILES IDX 2 13 1 14 6 15 7 16 8 17 17 18 18 19 19 20 20 21 21 22 22 23
REMARK SMILES IDX 74 24 23 25 73 26 24 27 25 28 26 29 67 30 27 31 72 32 66 33
REMARK SMILES IDX 68 34 28 35 71 36 65 37 64 38 29 40 55 41 38 42 54 43 39 44
REMARK SMILES IDX 42 45 53 46 69 47 40 48 41 49 52 51 70 52 43 53 30 54 31 55
REMARK SMILES IDX 36 56 32 57 33 58 35 59 37 60 34 61 56 62 57 63 62 64 58 65
REMARK SMILES IDX 59 66 61 67 63 68 60 69 44 70 45 71 50 72 46 73 47 74 49 75
REMARK SMILES IDX 51 76 48 77
REMARK H PARENT 68 39 42 50
REMARK Flexibility Score: inf
ROOT
ATOM      1  C   UNL A   1      33.122  36.874  31.137  1.00  0.00     0.274 C 
ENDROOT
BRANCH   1   2
ATOM      2  O   UNL A   1      33.394  35.820  32.079  1.00  0.00    -0.460 OA
BRANCH   2   3
ATOM      3  C   UNL A   1      34.209  36.145  33.119  1.00  0.00     0.344 C 
ATOM      4  O   UNL A   1      34.010  37.067  33.903  1.00  0.00    -0.248 OA
BRANCH   3   5
ATOM      5  C   UNL A   1      35.426  35.233  33.227  1.00  0.00     0.353 C 
BRANCH   5   6
ATOM      6  O   UNL A   1      35.195  33.937  33.748  1.00  0.00    -0.466 OA
BRANCH   6   7
ATOM      7  C   UNL A   1      36.218  33.352  34.437  1.00  0.00     0.217 A 
ATOM      8  C   UNL A   1      37.752  31.655  34.401  1.00  0.00     0.132 A 
ATOM      9  N   UNL A   1      38.217  31.960  35.623  1.00  0.00    -0.235 NA
ATOM     10  N   UNL A   1      36.776  32.329  33.772  1.00  0.00    -0.198 NA
ATOM     11  C   UNL A   1      37.612  32.965  36.285  1.00  0.00     0.074 A 
ATOM     12  C   UNL A   1      36.601  33.708  35.709  1.00  0.00     0.094 A 
BRANCH   8  13
ATOM     13  C   UNL A   1      38.372  30.495  33.667  1.00  0.00     0.074 C 
ATOM     14  C   UNL A   1      37.366  29.648  32.897  1.00  0.00     0.012 C 
ENDBRANCH   8  13
BRANCH  11  15
ATOM     15  C   UNL A   1      38.071  33.239  37.700  1.00  0.00     0.216 C 
BRANCH  15  16
ATOM     16  O   UNL A   1      38.838  34.441  37.822  1.00  0.00    -0.378 OA
ATOM     17  C   UNL A   1      38.972  34.876  39.169  1.00  0.00     0.195 C 
ENDBRANCH  15  16
ENDBRANCH  11  15
ENDBRANCH   6   7
ENDBRANCH   5   6
ENDBRANCH   3   5
ENDBRANCH   2   3
ENDBRANCH   1   2
BRANCH   1  18
ATOM     18  C   UNL A   1      32.957  36.337  29.719  1.00  0.00     0.275 C 
BRANCH  18  19
ATOM     19  O   UNL A   1      32.562  34.951  29.739  1.00  0.00    -0.458 OA
BRANCH  19  20
ATOM     20  C   UNL A   1      33.001  34.225  28.694  1.00  0.00     0.338 C 
ATOM     21  O   UNL A   1      32.474  34.119  27.594  1.00  0.00    -0.246 OA
BRANCH  20  22
ATOM     22  C   UNL A   1      34.275  33.555  28.989  1.00  0.00     0.060 A 
ATOM     23  C   UNL A   1      34.445  32.849  30.183  1.00  0.00     0.016 A 
ATOM     24  C   UNL A   1      35.366  33.802  28.152  1.00  0.00     0.016 A 
ATOM     25  C   UNL A   1      35.721  32.428  30.559  1.00  0.00     0.010 A 
ATOM     26  C   UNL A   1      36.632  33.330  28.502  1.00  0.00     0.010 A 
ATOM     27  C   UNL A   1      36.822  32.654  29.716  1.00  0.00    -0.014 A 
BRANCH  27  28
ATOM     28  C   UNL A   1      38.160  32.116  30.066  1.00  0.00     0.031 A 
ATOM     29  C   UNL A   1      38.638  30.794  29.536  1.00  0.00     0.074 A 
ATOM     30  C   UNL A   1      38.939  32.827  30.902  1.00  0.00     0.049 A 
ATOM     31  N   UNL A   1      39.741  30.147  29.817  1.00  0.00    -0.248 NA
ATOM     32  C   UNL A   1      37.770  30.113  28.564  1.00  0.00     0.031 C 
ATOM     33  C   UNL A   1      38.588  34.124  31.481  1.00  0.00     0.029 A 
ATOM     34  N   UNL A   1      40.180  32.554  31.417  1.00  0.00    -0.354 N 
ATOM     35  C   UNL A   1      39.702  28.983  29.060  1.00  0.00     0.074 A 
ATOM     36  C   UNL A   1      38.459  29.005  28.317  1.00  0.00     0.031 C 
ATOM     37  C   UNL A   1      39.590  34.536  32.272  1.00  0.00     0.029 A 
ATOM     38  C   UNL A   1      40.631  33.513  32.288  1.00  0.00     0.049 A 
ATOM     39  H   UNL A   1      40.697  31.749  31.184  1.00  0.00     0.167 HD
ATOM     40  C   UNL A   1      40.623  27.991  28.990  1.00  0.00     0.037 A 
ATOM     41  C   UNL A   1      41.743  33.555  33.044  1.00  0.00     0.037 A 
ATOM     42  C   UNL A   1      41.857  27.962  29.733  1.00  0.00     0.049 A 
ATOM     43  C   UNL A   1      42.719  32.421  32.986  1.00  0.00     0.074 A 
ATOM     44  C   UNL A   1      42.850  26.997  29.721  1.00  0.00     0.029 A 
ATOM     45  N   UNL A   1      42.264  28.943  30.624  1.00  0.00    -0.354 N 
ATOM     46  N   UNL A   1      42.662  31.323  32.274  1.00  0.00    -0.248 NA
ATOM     47  C   UNL A   1      43.907  32.528  33.843  1.00  0.00     0.031 C 
ATOM     48  C   UNL A   1      43.849  27.383  30.623  1.00  0.00     0.029 A 
ATOM     49  C   UNL A   1      43.488  28.600  31.176  1.00  0.00     0.049 A 
ATOM     50  H   UNL A   1      41.761  29.762  30.833  1.00  0.00     0.167 HD
ATOM     51  C   UNL A   1      43.805  30.606  32.596  1.00  0.00     0.074 A 
ATOM     52  C   UNL A   1      44.546  31.402  33.554  1.00  0.00     0.031 C 
ATOM     53  C   UNL A   1      44.202  29.393  32.140  1.00  0.00     0.037 A 
BRANCH  40  54
ATOM     54  C   UNL A   1      40.331  26.839  28.078  1.00  0.00     0.057 A 
ATOM     55  C   UNL A   1      40.905  26.755  26.803  1.00  0.00     0.134 A 
ATOM     56  C   UNL A   1      39.531  25.773  28.503  1.00  0.00     0.134 A 
ATOM     57  F   UNL A   1      41.676  27.749  26.339  1.00  0.00    -0.206 F 
ATOM     58  C   UNL A   1      40.688  25.649  25.980  1.00  0.00     0.040 A 
ATOM     59  C   UNL A   1      39.315  24.655  27.693  1.00  0.00     0.040 A 
ATOM     60  F   UNL A   1      38.957  25.793  29.715  1.00  0.00    -0.206 F 
ATOM     61  C   UNL A   1      39.896  24.592  26.427  1.00  0.00     0.006 A 
ENDBRANCH  40  54
BRANCH  41  62
ATOM     62  C   UNL A   1      41.963  34.711  33.939  1.00  0.00     0.057 A 
ATOM     63  C   UNL A   1      41.577  34.669  35.281  1.00  0.00     0.134 A 
ATOM     64  C   UNL A   1      42.607  35.867  33.481  1.00  0.00     0.134 A 
ATOM     65  F   UNL A   1      40.944  33.592  35.768  1.00  0.00    -0.206 F 
ATOM     66  C   UNL A   1      41.822  35.740  36.141  1.00  0.00     0.040 A 
ATOM     67  C   UNL A   1      42.873  36.937  34.333  1.00  0.00     0.040 A 
ATOM     68  F   UNL A   1      43.006  35.957  32.203  1.00  0.00    -0.206 F 
ATOM     69  C   UNL A   1      42.480  36.874  35.669  1.00  0.00     0.006 A 
ENDBRANCH  41  62
BRANCH  53  70
ATOM     70  C   UNL A   1      45.494  28.864  32.679  1.00  0.00     0.057 A 
ATOM     71  C   UNL A   1      45.529  28.060  33.824  1.00  0.00     0.134 A 
ATOM     72  C   UNL A   1      46.708  29.155  32.048  1.00  0.00     0.134 A 
ATOM     73  F   UNL A   1      44.398  27.762  34.481  1.00  0.00    -0.206 F 
ATOM     74  C   UNL A   1      46.734  27.578  34.336  1.00  0.00     0.040 A 
ATOM     75  C   UNL A   1      47.918  28.668  32.542  1.00  0.00     0.040 A 
ATOM     76  F   UNL A   1      46.737  29.920  30.947  1.00  0.00    -0.206 F 
ATOM     77  C   UNL A   1      47.933  27.879  33.692  1.00  0.00     0.006 A 
ENDBRANCH  53  70
ENDBRANCH  27  28
ENDBRANCH  20  22
ENDBRANCH  19  20
ENDBRANCH  18  19
ENDBRANCH   1  18
TORSDOF 16
ENDMDL
MODEL 3
REMARK VINA RESULT:      -8.9      0.611      6.518
REMARK SMILES CCc1nc(COC)cc(OCC(=O)OCCOC(=O)c2ccc(-c3c4nc(c(-c5c(F)cccc5F)c5ccc([nH]5)c(-c5c(F)cccc5F)c5nc(c(-c6c(F)cccc6F)c6ccc3[nH]6)C=C5)C=C4)cc2)n1
REMARK SMILES IDX 16 1 15 2 13 3 14 4 12 5 11 6 10 7 3 8 4 9 75 10 5 11 9 12
REMARK SMILES IDX 2 13 1 14 6 15 7 16 8 17 17 18 18 19 19 20 20 21 21 22 22 23
REMARK SMILES IDX 74 24 23 25 73 26 24 27 25 28 26 29 67 30 27 31 72 32 66 33
REMARK SMILES IDX 68 34 28 35 71 36 65 37 64 38 29 40 55 41 38 42 54 43 39 44
REMARK SMILES IDX 42 45 53 46 69 47 40 48 41 49 52 51 70 52 43 53 30 54 31 55
REMARK SMILES IDX 36 56 32 57 33 58 35 59 37 60 34 61 56 62 57 63 62 64 58 65
REMARK SMILES IDX 59 66 61 67 63 68 60 69 44 70 45 71 50 72 46 73 47 74 49 75
REMARK SMILES IDX 51 76 48 77
REMARK H PARENT 68 39 42 50
REMARK Flexibility Score: inf
ROOT
ATOM      1  C   UNL A   1      33.207  36.826  30.996  1.00  0.00     0.274 C 
ENDROOT
BRANCH   1   2
ATOM      2  O   UNL A   1      33.492  35.811  31.977  1.00  0.00    -0.460 OA
BRANCH   2   3
ATOM      3  C   UNL A   1      34.246  36.202  33.038  1.00  0.00     0.344 C 
ATOM      4  O   UNL A   1      34.024  37.192  33.728  1.00  0.00    -0.248 OA
BRANCH   3   5
ATOM      5  C   UNL A   1      35.426  35.274  33.302  1.00  0.00     0.353 C 
BRANCH   5   6
ATOM      6  O   UNL A   1      35.113  33.917  33.553  1.00  0.00    -0.466 OA
BRANCH   6   7
ATOM      7  C   UNL A   1      36.065  33.162  34.177  1.00  0.00     0.217 A 
ATOM      8  C   UNL A   1      37.353  32.978  36.058  1.00  0.00     0.132 A 
ATOM      9  N   UNL A   1      37.995  31.895  35.593  1.00  0.00    -0.235 NA
ATOM     10  N   UNL A   1      36.380  33.624  35.395  1.00  0.00    -0.198 NA
ATOM     11  C   UNL A   1      37.689  31.477  34.349  1.00  0.00     0.074 A 
ATOM     12  C   UNL A   1      36.701  32.086  33.602  1.00  0.00     0.094 A 
BRANCH   8  13
ATOM     13  C   UNL A   1      37.722  33.501  37.421  1.00  0.00     0.074 C 
ATOM     14  C   UNL A   1      38.872  34.501  37.404  1.00  0.00     0.012 C 
ENDBRANCH   8  13
BRANCH  11  15
ATOM     15  C   UNL A   1      38.487  30.320  33.791  1.00  0.00     0.216 C 
BRANCH  15  16
ATOM     16  O   UNL A   1      37.710  29.129  33.620  1.00  0.00    -0.378 OA
ATOM     17  C   UNL A   1      38.103  28.373  32.481  1.00  0.00     0.195 C 
ENDBRANCH  15  16
ENDBRANCH  11  15
ENDBRANCH   6   7
ENDBRANCH   5   6
ENDBRANCH   3   5
ENDBRANCH   2   3
ENDBRANCH   1   2
BRANCH   1  18
ATOM     18  C   UNL A   1      32.469  36.256  29.789  1.00  0.00     0.275 C 
BRANCH  18  19
ATOM     19  O   UNL A   1      33.401  35.802  28.787  1.00  0.00    -0.458 OA
BRANCH  19  20
ATOM     20  C   UNL A   1      33.303  34.496  28.477  1.00  0.00     0.338 C 
ATOM     21  O   UNL A   1      32.360  33.932  27.937  1.00  0.00    -0.246 OA
BRANCH  20  22
ATOM     22  C   UNL A   1      34.524  33.757  28.829  1.00  0.00     0.060 A 
ATOM     23  C   UNL A   1      34.547  32.913  29.942  1.00  0.00     0.016 A 
ATOM     24  C   UNL A   1      35.706  34.066  28.151  1.00  0.00     0.016 A 
ATOM     25  C   UNL A   1      35.764  32.412  30.403  1.00  0.00     0.010 A 
ATOM     26  C   UNL A   1      36.916  33.517  28.578  1.00  0.00     0.010 A 
ATOM     27  C   UNL A   1      36.957  32.699  29.718  1.00  0.00    -0.014 A 
BRANCH  27  28
ATOM     28  C   UNL A   1      38.237  32.084  30.146  1.00  0.00     0.031 A 
ATOM     29  C   UNL A   1      39.183  32.801  31.068  1.00  0.00     0.074 A 
ATOM     30  C   UNL A   1      38.558  30.869  29.666  1.00  0.00     0.049 A 
ATOM     31  N   UNL A   1      40.377  32.438  31.464  1.00  0.00    -0.248 NA
ATOM     32  C   UNL A   1      38.730  34.087  31.618  1.00  0.00     0.031 C 
ATOM     33  C   UNL A   1      37.723  30.073  28.765  1.00  0.00     0.029 A 
ATOM     34  N   UNL A   1      39.676  30.098  29.858  1.00  0.00    -0.354 N 
ATOM     35  C   UNL A   1      40.821  33.448  32.308  1.00  0.00     0.074 A 
ATOM     36  C   UNL A   1      39.773  34.447  32.357  1.00  0.00     0.031 C 
ATOM     37  C   UNL A   1      38.356  28.924  28.483  1.00  0.00     0.029 A 
ATOM     38  C   UNL A   1      39.656  28.925  29.147  1.00  0.00     0.049 A 
ATOM     39  H   UNL A   1      40.418  30.361  30.448  1.00  0.00     0.167 HD
ATOM     40  C   UNL A   1      41.993  33.529  32.983  1.00  0.00     0.037 A 
ATOM     41  C   UNL A   1      40.592  27.968  29.013  1.00  0.00     0.037 A 
ATOM     42  C   UNL A   1      43.041  32.541  32.931  1.00  0.00     0.049 A 
ATOM     43  C   UNL A   1      41.899  28.107  29.729  1.00  0.00     0.074 A 
ATOM     44  C   UNL A   1      44.262  32.540  33.585  1.00  0.00     0.029 A 
ATOM     45  N   UNL A   1      42.991  31.377  32.179  1.00  0.00    -0.354 N 
ATOM     46  N   UNL A   1      42.308  29.073  30.514  1.00  0.00    -0.248 NA
ATOM     47  C   UNL A   1      42.879  27.030  29.533  1.00  0.00     0.031 C 
ATOM     48  C   UNL A   1      44.961  31.387  33.210  1.00  0.00     0.029 A 
ATOM     49  C   UNL A   1      44.164  30.658  32.344  1.00  0.00     0.049 A 
ATOM     50  H   UNL A   1      42.235  31.102  31.613  1.00  0.00     0.167 HD
ATOM     51  C   UNL A   1      43.591  28.722  30.907  1.00  0.00     0.074 A 
ATOM     52  C   UNL A   1      43.886  27.446  30.288  1.00  0.00     0.031 C 
ATOM     53  C   UNL A   1      44.449  29.401  31.707  1.00  0.00     0.037 A 
BRANCH  40  54
ATOM     54  C   UNL A   1      42.217  34.737  33.839  1.00  0.00     0.057 A 
ATOM     55  C   UNL A   1      41.983  34.706  35.220  1.00  0.00     0.134 A 
ATOM     56  C   UNL A   1      42.737  35.916  33.294  1.00  0.00     0.134 A 
ATOM     57  F   UNL A   1      41.479  33.605  35.798  1.00  0.00    -0.206 F 
ATOM     58  C   UNL A   1      42.256  35.810  36.029  1.00  0.00     0.040 A 
ATOM     59  C   UNL A   1      43.026  37.024  34.095  1.00  0.00     0.040 A 
ATOM     60  F   UNL A   1      42.986  36.006  31.979  1.00  0.00    -0.206 F 
ATOM     61  C   UNL A   1      42.785  36.972  35.467  1.00  0.00     0.006 A 
ENDBRANCH  40  54
BRANCH  41  62
ATOM     62  C   UNL A   1      40.319  26.809  28.137  1.00  0.00     0.057 A 
ATOM     63  C   UNL A   1      39.475  25.775  28.550  1.00  0.00     0.134 A 
ATOM     64  C   UNL A   1      40.862  26.734  26.848  1.00  0.00     0.134 A 
ATOM     65  F   UNL A   1      38.940  25.790  29.779  1.00  0.00    -0.206 F 
ATOM     66  C   UNL A   1      39.179  24.701  27.709  1.00  0.00     0.040 A 
ATOM     67  C   UNL A   1      40.561  25.675  25.993  1.00  0.00     0.040 A 
ATOM     68  F   UNL A   1      41.672  27.704  26.399  1.00  0.00    -0.206 F 
ATOM     69  C   UNL A   1      39.716  24.654  26.424  1.00  0.00     0.006 A 
ENDBRANCH  41  62
BRANCH  53  70
ATOM     70  C   UNL A   1      45.783  28.768  31.948  1.00  0.00     0.057 A 
ATOM     71  C   UNL A   1      46.883  29.054  31.130  1.00  0.00     0.134 A 
ATOM     72  C   UNL A   1      45.973  27.873  33.007  1.00  0.00     0.134 A 
ATOM     73  F   UNL A   1      46.757  29.892  30.091  1.00  0.00    -0.206 F 
ATOM     74  C   UNL A   1      48.124  28.455  31.346  1.00  0.00     0.040 A 
ATOM     75  C   UNL A   1      47.212  27.277  33.241  1.00  0.00     0.040 A 
ATOM     76  F   UNL A   1      44.956  27.561  33.824  1.00  0.00    -0.206 F 
ATOM     77  C   UNL A   1      48.291  27.565  32.406  1.00  0.00     0.006 A 
ENDBRANCH  53  70
ENDBRANCH  27  28
ENDBRANCH  20  22
ENDBRANCH  19  20
ENDBRANCH  18  19
ENDBRANCH   1  18
TORSDOF 16
ENDMDL
