MODEL 1
REMARK VINA RESULT:     -12.6      0.000      0.000
REMARK SMILES Cc1c(CC(=O)OCCOC(=O)c2ccc(-c3c4nc(c(-c5c(F)cccc5F)c5ccc([nH]5)c(-c5c(F)cccc5F)c5nc(c(-c6c(F)cccc6F)c6ccc3[nH]6)C=C5)C=C4)cc2)c(=O)oc2cc(OCc3c(F)cccc3Cl)ccc12
REMARK SMILES IDX 8 1 7 2 5 3 6 4 4 5 3 6 1 7 2 8 85 9 67 10 70 11 84 12 68 13
REMARK SMILES IDX 69 14 71 15 83 16 72 17 73 18 74 19 75 20 76 21 81 22 77 23
REMARK SMILES IDX 78 24 80 25 82 26 79 27 9 28 10 29 11 30 12 31 13 32 14 33
REMARK SMILES IDX 66 34 15 35 65 36 16 37 17 38 18 39 59 40 19 41 64 42 58 43
REMARK SMILES IDX 60 44 20 45 63 46 57 47 56 48 21 50 47 51 30 52 46 53 31 54
REMARK SMILES IDX 34 55 45 56 61 57 32 58 33 59 44 61 62 62 35 63 22 64 23 65
REMARK SMILES IDX 28 66 24 67 25 68 27 69 29 70 26 71 48 72 49 73 54 74 50 75
REMARK SMILES IDX 51 76 53 77 55 78 52 79 36 80 37 81 42 82 38 83 39 84 41 85
REMARK SMILES IDX 43 86 40 87
REMARK H PARENT 60 49 34 60
REMARK Flexibility Score: inf
ROOT
ATOM      1  C   UNL A   1      31.758  29.722  24.838  1.00  0.00     0.274 C 
ENDROOT
BRANCH   1   2
ATOM      2  O   UNL A   1      30.600  29.002  24.365  1.00  0.00    -0.462 OA
BRANCH   2   3
ATOM      3  C   UNL A   1      30.857  27.969  23.519  1.00  0.00     0.310 C 
ATOM      4  O   UNL A   1      30.009  27.188  23.097  1.00  0.00    -0.252 OA
BRANCH   3   5
ATOM      5  C   UNL A   1      32.302  27.881  23.058  1.00  0.00     0.166 C 
BRANCH   5   6
ATOM      6  C   UNL A   1      33.023  26.590  23.349  1.00  0.00     0.052 A 
ATOM      7  C   UNL A   1      33.697  27.119  25.735  1.00  0.00     0.046 C 
ATOM      8  C   UNL A   1      33.623  26.250  24.511  1.00  0.00    -0.029 A 
ATOM      9  C   UNL A   1      34.275  24.933  24.602  1.00  0.00     0.021 A 
ATOM     10  C   UNL A   1      33.081  25.689  22.166  1.00  0.00     0.340 A 
ATOM     11  C   UNL A   1      34.517  24.229  23.427  1.00  0.00     0.142 A 
ATOM     12  C   UNL A   1      34.672  24.337  25.804  1.00  0.00     0.016 A 
ATOM     13  O   UNL A   1      32.394  25.891  21.170  1.00  0.00    -0.246 OA
ATOM     14  O   UNL A   1      34.031  24.684  22.193  1.00  0.00    -0.422 OA
ATOM     15  C   UNL A   1      35.169  22.996  23.409  1.00  0.00     0.094 A 
ATOM     16  C   UNL A   1      35.256  23.066  25.806  1.00  0.00     0.047 A 
ATOM     17  C   UNL A   1      35.484  22.379  24.613  1.00  0.00     0.123 A 
BRANCH  17  18
ATOM     18  O   UNL A   1      35.911  21.092  24.777  1.00  0.00    -0.489 OA
BRANCH  18  19
ATOM     19  C   UNL A   1      35.053  20.121  25.385  1.00  0.00     0.270 C 
BRANCH  19  20
ATOM     20  C   UNL A   1      34.104  19.325  24.511  1.00  0.00     0.044 A 
ATOM     21  C   UNL A   1      34.497  18.017  24.186  1.00  0.00     0.131 A 
ATOM     22  C   UNL A   1      32.880  19.774  23.998  1.00  0.00     0.050 A 
ATOM     23  F   UNL A   1      35.629  17.517  24.705  1.00  0.00    -0.207 F 
ATOM     24  C   UNL A   1      33.762  17.209  23.324  1.00  0.00     0.040 A 
ATOM     25  C   UNL A   1      32.151  18.977  23.101  1.00  0.00     0.021 A 
ATOM     26  Cl  UNL A   1      32.175  21.289  24.430  1.00  0.00    -0.084 Cl
ATOM     27  C   UNL A   1      32.594  17.701  22.756  1.00  0.00     0.005 A 
ENDBRANCH  19  20
ENDBRANCH  18  19
ENDBRANCH  17  18
ENDBRANCH   5   6
ENDBRANCH   3   5
ENDBRANCH   2   3
ENDBRANCH   1   2
BRANCH   1  28
ATOM     28  C   UNL A   1      31.335  30.873  25.749  1.00  0.00     0.275 C 
BRANCH  28  29
ATOM     29  O   UNL A   1      32.089  30.819  26.973  1.00  0.00    -0.458 OA
BRANCH  29  30
ATOM     30  C   UNL A   1      32.809  31.924  27.264  1.00  0.00     0.338 C 
ATOM     31  O   UNL A   1      32.469  33.091  27.111  1.00  0.00    -0.246 OA
BRANCH  30  32
ATOM     32  C   UNL A   1      34.119  31.553  27.830  1.00  0.00     0.060 A 
ATOM     33  C   UNL A   1      34.481  30.214  28.007  1.00  0.00     0.016 A 
ATOM     34  C   UNL A   1      34.956  32.567  28.303  1.00  0.00     0.016 A 
ATOM     35  C   UNL A   1      35.632  29.893  28.729  1.00  0.00     0.010 A 
ATOM     36  C   UNL A   1      36.155  32.242  28.942  1.00  0.00     0.010 A 
ATOM     37  C   UNL A   1      36.493  30.901  29.190  1.00  0.00    -0.014 A 
BRANCH  37  38
ATOM     38  C   UNL A   1      37.748  30.573  29.920  1.00  0.00     0.031 A 
ATOM     39  C   UNL A   1      38.796  29.694  29.289  1.00  0.00     0.074 A 
ATOM     40  C   UNL A   1      37.937  31.028  31.174  1.00  0.00     0.049 A 
ATOM     41  N   UNL A   1      39.846  29.133  29.836  1.00  0.00    -0.248 NA
ATOM     42  C   UNL A   1      38.638  29.396  27.856  1.00  0.00     0.031 C 
ATOM     43  C   UNL A   1      37.021  31.903  31.908  1.00  0.00     0.029 A 
ATOM     44  N   UNL A   1      38.964  30.807  32.060  1.00  0.00    -0.354 N 
ATOM     45  C   UNL A   1      40.441  28.376  28.834  1.00  0.00     0.074 A 
ATOM     46  C   UNL A   1      39.638  28.552  27.642  1.00  0.00     0.031 C 
ATOM     47  C   UNL A   1      37.537  32.164  33.118  1.00  0.00     0.029 A 
ATOM     48  C   UNL A   1      38.777  31.414  33.277  1.00  0.00     0.049 A 
ATOM     49  H   UNL A   1      39.757  30.265  31.842  1.00  0.00     0.167 HD
ATOM     50  C   UNL A   1      41.552  27.604  28.903  1.00  0.00     0.037 A 
ATOM     51  C   UNL A   1      39.495  31.343  34.413  1.00  0.00     0.037 A 
ATOM     52  C   UNL A   1      42.382  27.467  30.072  1.00  0.00     0.049 A 
ATOM     53  C   UNL A   1      40.711  30.469  34.470  1.00  0.00     0.074 A 
ATOM     54  C   UNL A   1      43.544  26.729  30.223  1.00  0.00     0.029 A 
ATOM     55  N   UNL A   1      42.145  28.092  31.286  1.00  0.00    -0.354 N 
ATOM     56  N   UNL A   1      41.234  29.723  33.530  1.00  0.00    -0.248 NA
ATOM     57  C   UNL A   1      41.422  30.409  35.755  1.00  0.00     0.031 C 
ATOM     58  C   UNL A   1      43.999  26.889  31.537  1.00  0.00     0.029 A 
ATOM     59  C   UNL A   1      43.136  27.750  32.194  1.00  0.00     0.049 A 
ATOM     60  H   UNL A   1      41.387  28.690  31.475  1.00  0.00     0.167 HD
ATOM     61  C   UNL A   1      42.337  29.109  34.105  1.00  0.00     0.074 A 
ATOM     62  C   UNL A   1      42.419  29.582  35.471  1.00  0.00     0.031 C 
ATOM     63  C   UNL A   1      43.201  28.225  33.550  1.00  0.00     0.037 A 
BRANCH  50  64
ATOM     64  C   UNL A   1      41.931  26.822  27.681  1.00  0.00     0.057 A 
ATOM     65  C   UNL A   1      41.481  25.514  27.469  1.00  0.00     0.134 A 
ATOM     66  C   UNL A   1      42.712  27.411  26.677  1.00  0.00     0.134 A 
ATOM     67  F   UNL A   1      40.741  24.891  28.398  1.00  0.00    -0.206 F 
ATOM     68  C   UNL A   1      41.803  24.814  26.304  1.00  0.00     0.040 A 
ATOM     69  C   UNL A   1      43.024  26.727  25.501  1.00  0.00     0.040 A 
ATOM     70  F   UNL A   1      43.169  28.663  26.818  1.00  0.00    -0.206 F 
ATOM     71  C   UNL A   1      42.570  25.424  25.313  1.00  0.00     0.006 A 
ENDBRANCH  50  64
BRANCH  51  72
ATOM     72  C   UNL A   1      39.050  32.104  35.605  1.00  0.00     0.057 A 
ATOM     73  C   UNL A   1      39.419  33.439  35.785  1.00  0.00     0.134 A 
ATOM     74  C   UNL A   1      38.228  31.519  36.578  1.00  0.00     0.134 A 
ATOM     75  F   UNL A   1      40.221  34.044  34.896  1.00  0.00    -0.206 F 
ATOM     76  C   UNL A   1      38.986  34.172  36.892  1.00  0.00     0.040 A 
ATOM     77  C   UNL A   1      37.772  32.244  37.677  1.00  0.00     0.040 A 
ATOM     78  F   UNL A   1      37.839  30.241  36.456  1.00  0.00    -0.206 F 
ATOM     79  C   UNL A   1      38.153  33.575  37.837  1.00  0.00     0.006 A 
ENDBRANCH  51  72
BRANCH  63  80
ATOM     80  C   UNL A   1      44.316  27.732  34.419  1.00  0.00     0.057 A 
ATOM     81  C   UNL A   1      44.187  26.567  35.186  1.00  0.00     0.134 A 
ATOM     82  C   UNL A   1      45.535  28.418  34.477  1.00  0.00     0.134 A 
ATOM     83  F   UNL A   1      43.037  25.876  35.182  1.00  0.00    -0.206 F 
ATOM     84  C   UNL A   1      45.228  26.110  35.994  1.00  0.00     0.040 A 
ATOM     85  C   UNL A   1      46.589  27.961  35.270  1.00  0.00     0.040 A 
ATOM     86  F   UNL A   1      45.721  29.538  33.763  1.00  0.00    -0.206 F 
ATOM     87  C   UNL A   1      46.435  26.807  36.035  1.00  0.00     0.006 A 
ENDBRANCH  63  80
ENDBRANCH  37  38
ENDBRANCH  30  32
ENDBRANCH  29  30
ENDBRANCH  28  29
ENDBRANCH   1  28
TORSDOF 15
ENDMDL
MODEL 2
REMARK VINA RESULT:     -12.4      3.302      6.659
REMARK SMILES Cc1c(CC(=O)OCCOC(=O)c2ccc(-c3c4nc(c(-c5c(F)cccc5F)c5ccc([nH]5)c(-c5c(F)cccc5F)c5nc(c(-c6c(F)cccc6F)c6ccc3[nH]6)C=C5)C=C4)cc2)c(=O)oc2cc(OCc3c(F)cccc3Cl)ccc12
REMARK SMILES IDX 8 1 7 2 5 3 6 4 4 5 3 6 1 7 2 8 85 9 67 10 70 11 84 12 68 13
REMARK SMILES IDX 69 14 71 15 83 16 72 17 73 18 74 19 75 20 76 21 81 22 77 23
REMARK SMILES IDX 78 24 80 25 82 26 79 27 9 28 10 29 11 30 12 31 13 32 14 33
REMARK SMILES IDX 66 34 15 35 65 36 16 37 17 38 18 39 59 40 19 41 64 42 58 43
REMARK SMILES IDX 60 44 20 45 63 46 57 47 56 48 21 50 47 51 30 52 46 53 31 54
REMARK SMILES IDX 34 55 45 56 61 57 32 58 33 59 44 61 62 62 35 63 22 64 23 65
REMARK SMILES IDX 28 66 24 67 25 68 27 69 29 70 26 71 48 72 49 73 54 74 50 75
REMARK SMILES IDX 51 76 53 77 55 78 52 79 36 80 37 81 42 82 38 83 39 84 41 85
REMARK SMILES IDX 43 86 40 87
REMARK H PARENT 60 49 34 60
REMARK Flexibility Score: inf
ROOT
ATOM      1  C   UNL A   1      32.076  30.066  25.540  1.00  0.00     0.274 C 
ENDROOT
BRANCH   1   2
ATOM      2  O   UNL A   1      31.409  28.787  25.505  1.00  0.00    -0.462 OA
BRANCH   2   3
ATOM      3  C   UNL A   1      31.269  28.230  24.273  1.00  0.00     0.310 C 
ATOM      4  O   UNL A   1      30.191  27.962  23.749  1.00  0.00    -0.252 OA
BRANCH   3   5
ATOM      5  C   UNL A   1      32.577  28.017  23.530  1.00  0.00     0.166 C 
BRANCH   5   6
ATOM      6  C   UNL A   1      33.247  26.679  23.720  1.00  0.00     0.052 A 
ATOM      7  C   UNL A   1      34.100  27.069  26.075  1.00  0.00     0.046 C 
ATOM      8  C   UNL A   1      33.902  26.259  24.824  1.00  0.00    -0.029 A 
ATOM      9  C   UNL A   1      34.489  24.909  24.817  1.00  0.00     0.021 A 
ATOM     10  C   UNL A   1      33.182  25.831  22.499  1.00  0.00     0.340 A 
ATOM     11  C   UNL A   1      34.618  24.247  23.600  1.00  0.00     0.142 A 
ATOM     12  C   UNL A   1      34.931  24.242  25.964  1.00  0.00     0.016 A 
ATOM     13  O   UNL A   1      32.443  26.110  21.560  1.00  0.00    -0.246 OA
ATOM     14  O   UNL A   1      34.077  24.780  22.421  1.00  0.00    -0.422 OA
ATOM     15  C   UNL A   1      35.201  22.985  23.489  1.00  0.00     0.094 A 
ATOM     16  C   UNL A   1      35.446  22.944  25.876  1.00  0.00     0.047 A 
ATOM     17  C   UNL A   1      35.560  22.301  24.642  1.00  0.00     0.123 A 
BRANCH  17  18
ATOM     18  O   UNL A   1      35.929  20.988  24.725  1.00  0.00    -0.489 OA
BRANCH  18  19
ATOM     19  C   UNL A   1      35.057  20.032  25.336  1.00  0.00     0.270 C 
BRANCH  19  20
ATOM     20  C   UNL A   1      34.125  19.219  24.459  1.00  0.00     0.044 A 
ATOM     21  C   UNL A   1      34.528  17.908  24.159  1.00  0.00     0.131 A 
ATOM     22  C   UNL A   1      32.906  19.655  23.921  1.00  0.00     0.050 A 
ATOM     23  F   UNL A   1      35.654  17.421  24.701  1.00  0.00    -0.207 F 
ATOM     24  C   UNL A   1      33.809  17.085  23.297  1.00  0.00     0.040 A 
ATOM     25  C   UNL A   1      32.193  18.843  23.025  1.00  0.00     0.021 A 
ATOM     26  Cl  UNL A   1      32.188  21.173  24.321  1.00  0.00    -0.084 Cl
ATOM     27  C   UNL A   1      32.647  17.564  22.705  1.00  0.00     0.005 A 
ENDBRANCH  19  20
ENDBRANCH  18  19
ENDBRANCH  17  18
ENDBRANCH   5   6
ENDBRANCH   3   5
ENDBRANCH   2   3
ENDBRANCH   1   2
BRANCH   1  28
ATOM     28  C   UNL A   1      32.504  30.407  26.965  1.00  0.00     0.275 C 
BRANCH  28  29
ATOM     29  O   UNL A   1      33.880  30.033  27.157  1.00  0.00    -0.458 OA
BRANCH  29  30
ATOM     30  C   UNL A   1      34.556  30.748  28.082  1.00  0.00     0.338 C 
ATOM     31  O   UNL A   1      34.166  31.745  28.677  1.00  0.00    -0.246 OA
BRANCH  30  32
ATOM     32  C   UNL A   1      35.886  30.157  28.322  1.00  0.00     0.060 A 
ATOM     33  C   UNL A   1      36.237  29.642  29.573  1.00  0.00     0.016 A 
ATOM     34  C   UNL A   1      36.842  30.226  27.306  1.00  0.00     0.016 A 
ATOM     35  C   UNL A   1      37.560  29.279  29.830  1.00  0.00     0.010 A 
ATOM     36  C   UNL A   1      38.142  29.772  27.539  1.00  0.00     0.010 A 
ATOM     37  C   UNL A   1      38.526  29.322  28.813  1.00  0.00    -0.014 A 
BRANCH  37  38
ATOM     38  C   UNL A   1      39.930  28.893  29.060  1.00  0.00     0.031 A 
ATOM     39  C   UNL A   1      40.929  29.846  29.662  1.00  0.00     0.074 A 
ATOM     40  C   UNL A   1      40.329  27.655  28.705  1.00  0.00     0.049 A 
ATOM     41  N   UNL A   1      42.231  29.728  29.760  1.00  0.00    -0.248 NA
ATOM     42  C   UNL A   1      40.399  31.102  30.216  1.00  0.00     0.031 C 
ATOM     43  C   UNL A   1      39.470  26.618  28.131  1.00  0.00     0.029 A 
ATOM     44  N   UNL A   1      41.566  27.063  28.769  1.00  0.00    -0.354 N 
ATOM     45  C   UNL A   1      42.679  30.911  30.335  1.00  0.00     0.074 A 
ATOM     46  C   UNL A   1      41.511  31.734  30.568  1.00  0.00     0.031 C 
ATOM     47  C   UNL A   1      40.199  25.512  27.919  1.00  0.00     0.029 A 
ATOM     48  C   UNL A   1      41.589  25.786  28.265  1.00  0.00     0.049 A 
ATOM     49  H   UNL A   1      42.361  27.512  29.140  1.00  0.00     0.167 HD
ATOM     50  C   UNL A   1      43.948  31.277  30.637  1.00  0.00     0.037 A 
ATOM     51  C   UNL A   1      42.615  24.940  28.061  1.00  0.00     0.037 A 
ATOM     52  C   UNL A   1      45.107  30.442  30.454  1.00  0.00     0.049 A 
ATOM     53  C   UNL A   1      44.011  25.374  28.387  1.00  0.00     0.074 A 
ATOM     54  C   UNL A   1      46.428  30.720  30.761  1.00  0.00     0.029 A 
ATOM     55  N   UNL A   1      45.080  29.160  29.929  1.00  0.00    -0.354 N 
ATOM     56  N   UNL A   1      44.425  26.512  28.886  1.00  0.00    -0.248 NA
ATOM     57  C   UNL A   1      45.087  24.414  28.100  1.00  0.00     0.031 C 
ATOM     58  C   UNL A   1      47.206  29.614  30.399  1.00  0.00     0.029 A 
ATOM     59  C   UNL A   1      46.364  28.638  29.895  1.00  0.00     0.049 A 
ATOM     60  H   UNL A   1      44.271  28.690  29.625  1.00  0.00     0.167 HD
ATOM     61  C   UNL A   1      45.805  26.406  28.977  1.00  0.00     0.074 A 
ATOM     62  C   UNL A   1      46.158  25.085  28.499  1.00  0.00     0.031 C 
ATOM     63  C   UNL A   1      46.700  27.325  29.413  1.00  0.00     0.037 A 
BRANCH  50  64
ATOM     64  C   UNL A   1      44.161  32.658  31.181  1.00  0.00     0.057 A 
ATOM     65  C   UNL A   1      44.271  32.905  32.554  1.00  0.00     0.134 A 
ATOM     66  C   UNL A   1      44.316  33.747  30.311  1.00  0.00     0.134 A 
ATOM     67  F   UNL A   1      44.120  31.908  33.438  1.00  0.00    -0.206 F 
ATOM     68  C   UNL A   1      44.516  34.189  33.045  1.00  0.00     0.040 A 
ATOM     69  C   UNL A   1      44.580  35.030  30.790  1.00  0.00     0.040 A 
ATOM     70  F   UNL A   1      44.228  33.575  28.985  1.00  0.00    -0.206 F 
ATOM     71  C   UNL A   1      44.680  35.255  32.161  1.00  0.00     0.006 A 
ENDBRANCH  50  64
BRANCH  51  72
ATOM     72  C   UNL A   1      42.352  23.602  27.479  1.00  0.00     0.057 A 
ATOM     73  C   UNL A   1      42.042  22.511  28.296  1.00  0.00     0.134 A 
ATOM     74  C   UNL A   1      42.383  23.391  26.094  1.00  0.00     0.134 A 
ATOM     75  F   UNL A   1      42.018  22.651  29.629  1.00  0.00    -0.206 F 
ATOM     76  C   UNL A   1      41.770  21.253  27.757  1.00  0.00     0.040 A 
ATOM     77  C   UNL A   1      42.093  22.144  25.542  1.00  0.00     0.040 A 
ATOM     78  F   UNL A   1      42.671  24.402  25.262  1.00  0.00    -0.206 F 
ATOM     79  C   UNL A   1      41.787  21.070  26.375  1.00  0.00     0.006 A 
ENDBRANCH  51  72
BRANCH  63  80
ATOM     80  C   UNL A   1      48.142  26.921  29.407  1.00  0.00     0.057 A 
ATOM     81  C   UNL A   1      48.716  26.239  30.487  1.00  0.00     0.134 A 
ATOM     82  C   UNL A   1      48.959  27.201  28.305  1.00  0.00     0.134 A 
ATOM     83  F   UNL A   1      47.987  25.956  31.577  1.00  0.00    -0.206 F 
ATOM     84  C   UNL A   1      50.060  25.865  30.478  1.00  0.00     0.040 A 
ATOM     85  C   UNL A   1      50.300  26.817  28.278  1.00  0.00     0.040 A 
ATOM     86  F   UNL A   1      48.466  27.849  27.239  1.00  0.00    -0.206 F 
ATOM     87  C   UNL A   1      50.855  26.151  29.369  1.00  0.00     0.006 A 
ENDBRANCH  63  80
ENDBRANCH  37  38
ENDBRANCH  30  32
ENDBRANCH  29  30
ENDBRANCH  28  29
ENDBRANCH   1  28
TORSDOF 15
ENDMDL
MODEL 3
REMARK VINA RESULT:     -12.3      2.745      7.559
REMARK SMILES Cc1c(CC(=O)OCCOC(=O)c2ccc(-c3c4nc(c(-c5c(F)cccc5F)c5ccc([nH]5)c(-c5c(F)cccc5F)c5nc(c(-c6c(F)cccc6F)c6ccc3[nH]6)C=C5)C=C4)cc2)c(=O)oc2cc(OCc3c(F)cccc3Cl)ccc12
REMARK SMILES IDX 8 1 7 2 5 3 6 4 4 5 3 6 1 7 2 8 85 9 67 10 70 11 84 12 68 13
REMARK SMILES IDX 69 14 71 15 83 16 72 17 73 18 74 19 75 20 76 21 81 22 77 23
REMARK SMILES IDX 78 24 80 25 82 26 79 27 9 28 10 29 11 30 12 31 13 32 14 33
REMARK SMILES IDX 66 34 15 35 65 36 16 37 17 38 18 39 59 40 19 41 64 42 58 43
REMARK SMILES IDX 60 44 20 45 63 46 57 47 56 48 21 50 47 51 30 52 46 53 31 54
REMARK SMILES IDX 34 55 45 56 61 57 32 58 33 59 44 61 62 62 35 63 22 64 23 65
REMARK SMILES IDX 28 66 24 67 25 68 27 69 29 70 26 71 48 72 49 73 54 74 50 75
REMARK SMILES IDX 51 76 53 77 55 78 52 79 36 80 37 81 42 82 38 83 39 84 41 85
REMARK SMILES IDX 43 86 40 87
REMARK H PARENT 60 49 34 60
REMARK Flexibility Score: inf
ROOT
ATOM      1  C   UNL A   1      33.444  35.121  28.944  1.00  0.00     0.274 C 
ENDROOT
BRANCH   1   2
ATOM      2  O   UNL A   1      34.586  34.436  29.500  1.00  0.00    -0.462 OA
BRANCH   2   3
ATOM      3  C   UNL A   1      34.595  33.085  29.345  1.00  0.00     0.310 C 
ATOM      4  O   UNL A   1      34.241  32.283  30.205  1.00  0.00    -0.252 OA
BRANCH   3   5
ATOM      5  C   UNL A   1      35.020  32.616  27.963  1.00  0.00     0.166 C 
BRANCH   5   6
ATOM      6  C   UNL A   1      34.445  31.305  27.492  1.00  0.00     0.052 A 
ATOM      7  C   UNL A   1      32.098  32.132  27.005  1.00  0.00     0.046 C 
ATOM      8  C   UNL A   1      33.180  31.090  27.067  1.00  0.00    -0.029 A 
ATOM      9  C   UNL A   1      32.808  29.731  26.640  1.00  0.00     0.021 A 
ATOM     10  C   UNL A   1      35.418  30.184  27.596  1.00  0.00     0.340 A 
ATOM     11  C   UNL A   1      33.652  28.677  26.972  1.00  0.00     0.142 A 
ATOM     12  C   UNL A   1      31.650  29.428  25.917  1.00  0.00     0.016 A 
ATOM     13  O   UNL A   1      36.611  30.386  27.800  1.00  0.00    -0.246 OA
ATOM     14  O   UNL A   1      34.899  28.903  27.572  1.00  0.00    -0.422 OA
ATOM     15  C   UNL A   1      33.361  27.350  26.650  1.00  0.00     0.094 A 
ATOM     16  C   UNL A   1      31.386  28.113  25.520  1.00  0.00     0.047 A 
ATOM     17  C   UNL A   1      32.251  27.073  25.862  1.00  0.00     0.123 A 
BRANCH  17  18
ATOM     18  O   UNL A   1      31.952  25.875  25.276  1.00  0.00    -0.489 OA
BRANCH  18  19
ATOM     19  C   UNL A   1      31.956  24.674  26.053  1.00  0.00     0.270 C 
BRANCH  19  20
ATOM     20  C   UNL A   1      32.546  23.411  25.455  1.00  0.00     0.044 A 
ATOM     21  C   UNL A   1      31.703  22.290  25.399  1.00  0.00     0.131 A 
ATOM     22  C   UNL A   1      33.848  23.262  24.957  1.00  0.00     0.050 A 
ATOM     23  F   UNL A   1      30.428  22.398  25.802  1.00  0.00    -0.207 F 
ATOM     24  C   UNL A   1      32.144  21.047  24.953  1.00  0.00     0.040 A 
ATOM     25  C   UNL A   1      34.308  22.005  24.538  1.00  0.00     0.021 A 
ATOM     26  Cl  UNL A   1      34.954  24.578  24.802  1.00  0.00    -0.084 Cl
ATOM     27  C   UNL A   1      33.463  20.896  24.544  1.00  0.00     0.005 A 
ENDBRANCH  19  20
ENDBRANCH  18  19
ENDBRANCH  17  18
ENDBRANCH   5   6
ENDBRANCH   3   5
ENDBRANCH   2   3
ENDBRANCH   1   2
BRANCH   1  28
ATOM     28  C   UNL A   1      32.902  36.148  29.935  1.00  0.00     0.275 C 
BRANCH  28  29
ATOM     29  O   UNL A   1      32.304  35.469  31.053  1.00  0.00    -0.458 OA
BRANCH  29  30
ATOM     30  C   UNL A   1      32.664  35.922  32.273  1.00  0.00     0.338 C 
ATOM     31  O   UNL A   1      32.116  36.801  32.927  1.00  0.00    -0.246 OA
BRANCH  30  32
ATOM     32  C   UNL A   1      33.848  35.195  32.767  1.00  0.00     0.060 A 
ATOM     33  C   UNL A   1      35.130  35.744  32.669  1.00  0.00     0.016 A 
ATOM     34  C   UNL A   1      33.685  33.888  33.232  1.00  0.00     0.016 A 
ATOM     35  C   UNL A   1      36.248  34.957  32.953  1.00  0.00     0.010 A 
ATOM     36  C   UNL A   1      34.801  33.136  33.606  1.00  0.00     0.010 A 
ATOM     37  C   UNL A   1      36.098  33.649  33.442  1.00  0.00    -0.014 A 
BRANCH  37  38
ATOM     38  C   UNL A   1      37.280  32.815  33.795  1.00  0.00     0.031 A 
ATOM     39  C   UNL A   1      38.011  33.030  35.094  1.00  0.00     0.074 A 
ATOM     40  C   UNL A   1      37.730  31.885  32.930  1.00  0.00     0.049 A 
ATOM     41  N   UNL A   1      39.169  32.554  35.481  1.00  0.00    -0.248 NA
ATOM     42  C   UNL A   1      37.364  33.906  36.084  1.00  0.00     0.031 C 
ATOM     43  C   UNL A   1      37.115  31.550  31.644  1.00  0.00     0.029 A 
ATOM     44  N   UNL A   1      38.822  31.054  33.000  1.00  0.00    -0.354 N 
ATOM     45  C   UNL A   1      39.412  33.111  36.731  1.00  0.00     0.074 A 
ATOM     46  C   UNL A   1      38.281  33.959  37.040  1.00  0.00     0.031 C 
ATOM     47  C   UNL A   1      37.820  30.571  31.061  1.00  0.00     0.029 A 
ATOM     48  C   UNL A   1      38.981  30.264  31.888  1.00  0.00     0.049 A 
ATOM     49  H   UNL A   1      39.431  31.028  33.773  1.00  0.00     0.167 HD
ATOM     50  C   UNL A   1      40.483  32.933  37.542  1.00  0.00     0.037 A 
ATOM     51  C   UNL A   1      39.969  29.418  31.546  1.00  0.00     0.037 A 
ATOM     52  C   UNL A   1      41.586  32.051  37.261  1.00  0.00     0.049 A 
ATOM     53  C   UNL A   1      41.151  29.251  32.453  1.00  0.00     0.074 A 
ATOM     54  C   UNL A   1      42.699  31.785  38.041  1.00  0.00     0.029 A 
ATOM     55  N   UNL A   1      41.708  31.280  36.116  1.00  0.00    -0.354 N 
ATOM     56  N   UNL A   1      41.390  29.820  33.607  1.00  0.00    -0.248 NA
ATOM     57  C   UNL A   1      42.212  28.341  31.995  1.00  0.00     0.031 C 
ATOM     58  C   UNL A   1      43.508  30.871  37.357  1.00  0.00     0.029 A 
ATOM     59  C   UNL A   1      42.883  30.545  36.165  1.00  0.00     0.049 A 
ATOM     60  H   UNL A   1      41.057  31.258  35.378  1.00  0.00     0.167 HD
ATOM     61  C   UNL A   1      42.623  29.335  34.019  1.00  0.00     0.074 A 
ATOM     62  C   UNL A   1      43.075  28.413  32.998  1.00  0.00     0.031 C 
ATOM     63  C   UNL A   1      43.321  29.635  35.141  1.00  0.00     0.037 A 
BRANCH  50  64
ATOM     64  C   UNL A   1      40.530  33.727  38.813  1.00  0.00     0.057 A 
ATOM     65  C   UNL A   1      39.912  33.283  39.988  1.00  0.00     0.134 A 
ATOM     66  C   UNL A   1      41.255  34.926  38.873  1.00  0.00     0.134 A 
ATOM     67  F   UNL A   1      39.195  32.151  39.992  1.00  0.00    -0.206 F 
ATOM     68  C   UNL A   1      40.004  34.010  41.177  1.00  0.00     0.040 A 
ATOM     69  C   UNL A   1      41.368  35.650  40.060  1.00  0.00     0.040 A 
ATOM     70  F   UNL A   1      41.874  35.402  37.784  1.00  0.00    -0.206 F 
ATOM     71  C   UNL A   1      40.740  35.193  41.217  1.00  0.00     0.006 A 
ENDBRANCH  50  64
BRANCH  51  72
ATOM     72  C   UNL A   1      39.893  28.691  30.256  1.00  0.00     0.057 A 
ATOM     73  C   UNL A   1      40.499  29.203  29.106  1.00  0.00     0.134 A 
ATOM     74  C   UNL A   1      39.233  27.460  30.151  1.00  0.00     0.134 A 
ATOM     75  F   UNL A   1      41.127  30.387  29.144  1.00  0.00    -0.206 F 
ATOM     76  C   UNL A   1      40.454  28.516  27.892  1.00  0.00     0.040 A 
ATOM     77  C   UNL A   1      39.198  26.753  28.950  1.00  0.00     0.040 A 
ATOM     78  F   UNL A   1      38.635  26.918  31.223  1.00  0.00    -0.206 F 
ATOM     79  C   UNL A   1      39.808  27.283  27.815  1.00  0.00     0.006 A 
ENDBRANCH  51  72
BRANCH  63  80
ATOM     80  C   UNL A   1      44.636  28.943  35.325  1.00  0.00     0.057 A 
ATOM     81  C   UNL A   1      44.728  27.708  35.978  1.00  0.00     0.134 A 
ATOM     82  C   UNL A   1      45.818  29.508  34.832  1.00  0.00     0.134 A 
ATOM     83  F   UNL A   1      43.631  27.124  36.486  1.00  0.00    -0.206 F 
ATOM     84  C   UNL A   1      45.954  27.065  36.149  1.00  0.00     0.040 A 
ATOM     85  C   UNL A   1      47.048  28.867  34.982  1.00  0.00     0.040 A 
ATOM     86  F   UNL A   1      45.794  30.688  34.195  1.00  0.00    -0.206 F 
ATOM     87  C   UNL A   1      47.119  27.644  35.646  1.00  0.00     0.006 A 
ENDBRANCH  63  80
ENDBRANCH  37  38
ENDBRANCH  30  32
ENDBRANCH  29  30
ENDBRANCH  28  29
ENDBRANCH   1  28
TORSDOF 15
ENDMDL
