MODEL 1
REMARK VINA RESULT:     -11.9      0.000      0.000
REMARK SMILES Cc1onc(-c2cccc(Br)c2)c1C(=O)OCCOC(=O)c1ccc(-c2c3nc(c(-c4c(F)cccc4F)c4ccc([nH]4)c(-c4c(F)cccc4F)c4nc(c(-c5c(F)cccc5F)c5ccc2[nH]5)C=C4)C=C3)cc1
REMARK SMILES IDX 18 1 17 2 16 3 14 4 15 5 13 6 1 7 2 8 3 9 4 10 5 11 6 12
REMARK SMILES IDX 7 13 12 14 8 15 10 16 9 17 11 18 19 19 20 20 21 21 22 22
REMARK SMILES IDX 23 23 75 24 24 25 74 26 25 27 26 28 27 29 68 30 28 31 73 32
REMARK SMILES IDX 67 33 69 34 29 35 72 36 66 37 65 38 30 40 56 41 39 42 55 43
REMARK SMILES IDX 40 44 43 45 54 46 70 47 41 48 42 49 53 51 71 52 44 53 31 54
REMARK SMILES IDX 32 55 37 56 33 57 34 58 36 59 38 60 35 61 57 62 58 63 63 64
REMARK SMILES IDX 59 65 60 66 62 67 64 68 61 69 45 70 46 71 51 72 47 73 48 74
REMARK SMILES IDX 50 75 52 76 49 77
REMARK H PARENT 69 39 43 50
REMARK Flexibility Score: inf
ROOT
ATOM      1  C   UNL A   1      31.414  29.289  25.006  1.00  0.00     0.275 C 
ENDROOT
BRANCH   1   2
ATOM      2  C   UNL A   1      31.405  28.029  25.870  1.00  0.00     0.275 C 
BRANCH   2   3
ATOM      3  O   UNL A   1      31.603  26.866  25.033  1.00  0.00    -0.458 OA
BRANCH   3   4
ATOM      4  C   UNL A   1      32.891  26.524  24.729  1.00  0.00     0.344 C 
ATOM      5  O   UNL A   1      33.800  26.472  25.547  1.00  0.00    -0.246 OA
BRANCH   4   6
ATOM      6  C   UNL A   1      33.069  26.254  23.320  1.00  0.00     0.130 A 
ATOM      7  C   UNL A   1      34.023  28.578  22.607  1.00  0.00     0.092 C 
ATOM      8  C   UNL A   1      33.545  27.189  22.433  1.00  0.00     0.148 A 
ATOM      9  O   UNL A   1      33.653  26.625  21.202  1.00  0.00    -0.360 OA
ATOM     10  N   UNL A   1      33.278  25.287  21.260  1.00  0.00    -0.079 NA
ATOM     11  C   UNL A   1      32.958  25.046  22.539  1.00  0.00     0.128 A 
BRANCH  11  12
ATOM     12  C   UNL A   1      32.686  23.686  23.048  1.00  0.00     0.006 A 
ATOM     13  C   UNL A   1      31.210  23.339  24.041  1.00  0.00     0.010 A 
ATOM     14  C   UNL A   1      34.166  22.809  23.433  1.00  0.00     0.026 A 
ATOM     15  C   UNL A   1      31.404  22.070  25.607  1.00  0.00     0.002 A 
ATOM     16  C   UNL A   1      34.313  21.688  24.788  1.00  0.00     0.018 A 
ATOM     17  C   UNL A   1      33.017  21.322  25.904  1.00  0.00     0.016 A 
ATOM     18  Br  UNL A   1      35.969  20.792  25.001  1.00  0.00    -0.051 Br
ENDBRANCH  11  12
ENDBRANCH   4   6
ENDBRANCH   3   4
ENDBRANCH   2   3
ENDBRANCH   1   2
BRANCH   1  19
ATOM     19  O   UNL A   1      32.555  30.080  25.377  1.00  0.00    -0.458 OA
BRANCH  19  20
ATOM     20  C   UNL A   1      32.318  30.909  26.409  1.00  0.00     0.338 C 
ATOM     21  O   UNL A   1      31.308  31.545  26.653  1.00  0.00    -0.246 OA
BRANCH  20  22
ATOM     22  C   UNL A   1      33.438  30.895  27.334  1.00  0.00     0.060 A 
ATOM     23  C   UNL A   1      34.370  32.397  27.671  1.00  0.00     0.016 A 
ATOM     24  C   UNL A   1      34.225  29.349  27.589  1.00  0.00     0.016 A 
ATOM     25  C   UNL A   1      36.288  32.202  28.292  1.00  0.00     0.010 A 
ATOM     26  C   UNL A   1      35.886  29.184  28.179  1.00  0.00     0.010 A 
ATOM     27  C   UNL A   1      36.956  30.537  28.549  1.00  0.00    -0.014 A 
BRANCH  27  28
ATOM     28  C   UNL A   1      38.239  30.262  29.316  1.00  0.00     0.031 A 
ATOM     29  C   UNL A   1      39.347  29.387  28.769  1.00  0.00     0.074 A 
ATOM     30  C   UNL A   1      38.354  30.638  30.611  1.00  0.00     0.049 A 
ATOM     31  N   UNL A   1      40.392  28.893  29.396  1.00  0.00    -0.248 NA
ATOM     32  C   UNL A   1      39.239  28.947  27.373  1.00  0.00     0.031 C 
ATOM     33  C   UNL A   1      37.302  31.271  31.374  1.00  0.00     0.029 A 
ATOM     34  N   UNL A   1      39.365  30.531  31.542  1.00  0.00    -0.354 N 
ATOM     35  C   UNL A   1      41.022  28.039  28.496  1.00  0.00     0.074 A 
ATOM     36  C   UNL A   1      40.217  28.052  27.291  1.00  0.00     0.031 C 
ATOM     37  C   UNL A   1      37.720  31.626  32.586  1.00  0.00     0.029 A 
ATOM     38  C   UNL A   1      39.063  31.120  32.756  1.00  0.00     0.049 A 
ATOM     39  H   UNL A   1      40.220  30.078  31.360  1.00  0.00     0.167 HD
ATOM     40  C   UNL A   1      42.166  27.324  28.653  1.00  0.00     0.037 A 
ATOM     41  C   UNL A   1      39.740  31.219  33.914  1.00  0.00     0.037 A 
ATOM     42  C   UNL A   1      43.000  27.363  29.833  1.00  0.00     0.049 A 
ATOM     43  C   UNL A   1      41.058  30.535  34.017  1.00  0.00     0.074 A 
ATOM     44  C   UNL A   1      44.225  26.752  30.048  1.00  0.00     0.029 A 
ATOM     45  N   UNL A   1      42.704  28.065  30.995  1.00  0.00    -0.354 N 
ATOM     46  N   UNL A   1      41.648  29.773  33.132  1.00  0.00    -0.248 NA
ATOM     47  C   UNL A   1      41.792  30.693  35.277  1.00  0.00     0.031 C 
ATOM     48  C   UNL A   1      44.658  27.065  31.342  1.00  0.00     0.029 A 
ATOM     49  C   UNL A   1      43.724  27.905  31.923  1.00  0.00     0.049 A 
ATOM     50  H   UNL A   1      41.888  28.597  31.139  1.00  0.00     0.167 HD
ATOM     51  C   UNL A   1      42.825  29.356  33.724  1.00  0.00     0.074 A 
ATOM     52  C   UNL A   1      42.879  29.977  35.034  1.00  0.00     0.031 C 
ATOM     53  C   UNL A   1      43.766  28.521  33.226  1.00  0.00     0.037 A 
BRANCH  40  54
ATOM     54  C   UNL A   1      42.601  26.444  27.507  1.00  0.00     0.057 A 
ATOM     55  C   UNL A   1      43.416  26.923  26.471  1.00  0.00     0.134 A 
ATOM     56  C   UNL A   1      42.228  25.093  27.450  1.00  0.00     0.134 A 
ATOM     57  F   UNL A   1      43.819  28.203  26.462  1.00  0.00    -0.206 F 
ATOM     58  C   UNL A   1      43.799  26.111  25.400  1.00  0.00     0.040 A 
ATOM     59  C   UNL A   1      42.631  24.263  26.400  1.00  0.00     0.040 A 
ATOM     60  F   UNL A   1      41.469  24.553  28.416  1.00  0.00    -0.206 F 
ATOM     61  C   UNL A   1      43.408  24.775  25.364  1.00  0.00     0.006 A 
ENDBRANCH  40  54
BRANCH  41  62
ATOM     62  C   UNL A   1      39.174  32.007  35.043  1.00  0.00     0.057 A 
ATOM     63  C   UNL A   1      39.347  33.395  35.099  1.00  0.00     0.134 A 
ATOM     64  C   UNL A   1      38.392  31.419  36.047  1.00  0.00     0.134 A 
ATOM     65  F   UNL A   1      40.096  34.018  34.176  1.00  0.00    -0.206 F 
ATOM     66  C   UNL A   1      38.767  34.168  36.106  1.00  0.00     0.040 A 
ATOM     67  C   UNL A   1      37.777  32.184  37.041  1.00  0.00     0.040 A 
ATOM     68  F   UNL A   1      38.166  30.097  36.042  1.00  0.00    -0.206 F 
ATOM     69  C   UNL A   1      37.969  33.563  37.074  1.00  0.00     0.006 A 
ENDBRANCH  41  62
BRANCH  53  70
ATOM     70  C   UNL A   1      44.951  28.266  34.104  1.00  0.00     0.057 A 
ATOM     71  C   UNL A   1      46.088  29.084  34.064  1.00  0.00     0.134 A 
ATOM     72  C   UNL A   1      44.962  27.176  34.981  1.00  0.00     0.134 A 
ATOM     73  F   UNL A   1      46.147  30.127  33.222  1.00  0.00    -0.206 F 
ATOM     74  C   UNL A   1      47.206  28.810  34.851  1.00  0.00     0.040 A 
ATOM     75  C   UNL A   1      46.065  26.906  35.790  1.00  0.00     0.040 A 
ATOM     76  F   UNL A   1      43.905  26.353  35.058  1.00  0.00    -0.206 F 
ATOM     77  C   UNL A   1      47.194  27.721  35.721  1.00  0.00     0.006 A 
ENDBRANCH  53  70
ENDBRANCH  27  28
ENDBRANCH  20  22
ENDBRANCH  19  20
ENDBRANCH   1  19
TORSDOF 12
ENDMDL
MODEL 2
REMARK VINA RESULT:     -11.9      3.833      8.591
REMARK SMILES Cc1onc(-c2cccc(Br)c2)c1C(=O)OCCOC(=O)c1ccc(-c2c3nc(c(-c4c(F)cccc4F)c4ccc([nH]4)c(-c4c(F)cccc4F)c4nc(c(-c5c(F)cccc5F)c5ccc2[nH]5)C=C4)C=C3)cc1
REMARK SMILES IDX 18 1 17 2 16 3 14 4 15 5 13 6 1 7 2 8 3 9 4 10 5 11 6 12
REMARK SMILES IDX 7 13 12 14 8 15 10 16 9 17 11 18 19 19 20 20 21 21 22 22
REMARK SMILES IDX 23 23 75 24 24 25 74 26 25 27 26 28 27 29 68 30 28 31 73 32
REMARK SMILES IDX 67 33 69 34 29 35 72 36 66 37 65 38 30 40 56 41 39 42 55 43
REMARK SMILES IDX 40 44 43 45 54 46 70 47 41 48 42 49 53 51 71 52 44 53 31 54
REMARK SMILES IDX 32 55 37 56 33 57 34 58 36 59 38 60 35 61 57 62 58 63 63 64
REMARK SMILES IDX 59 65 60 66 62 67 64 68 61 69 45 70 46 71 51 72 47 73 48 74
REMARK SMILES IDX 50 75 52 76 49 77
REMARK H PARENT 69 39 43 50
REMARK Flexibility Score: inf
ROOT
ATOM      1  C   UNL A   1      35.208  21.011  25.024  1.00  0.00     0.275 C 
ENDROOT
BRANCH   1   2
ATOM      2  C   UNL A   1      35.074  22.268  24.165  1.00  0.00     0.275 C 
BRANCH   2   3
ATOM      3  O   UNL A   1      33.748  22.823  24.323  1.00  0.00    -0.458 OA
BRANCH   3   4
ATOM      4  C   UNL A   1      33.598  23.842  25.222  1.00  0.00     0.344 C 
ATOM      5  O   UNL A   1      34.386  24.769  25.349  1.00  0.00    -0.246 OA
BRANCH   4   6
ATOM      6  C   UNL A   1      32.410  23.687  26.032  1.00  0.00     0.130 A 
ATOM      7  C   UNL A   1      33.410  22.136  27.880  1.00  0.00     0.092 C 
ATOM      8  C   UNL A   1      32.374  22.916  27.168  1.00  0.00     0.148 A 
ATOM      9  O   UNL A   1      31.144  23.014  27.737  1.00  0.00    -0.360 OA
ATOM     10  N   UNL A   1      30.349  23.883  26.998  1.00  0.00    -0.079 NA
ATOM     11  C   UNL A   1      31.115  24.320  25.989  1.00  0.00     0.128 A 
BRANCH  11  12
ATOM     12  C   UNL A   1      30.692  25.409  25.085  1.00  0.00     0.006 A 
ATOM     13  C   UNL A   1      30.739  25.198  23.285  1.00  0.00     0.010 A 
ATOM     14  C   UNL A   1      31.061  27.003  25.740  1.00  0.00     0.026 A 
ATOM     15  C   UNL A   1      31.347  26.774  22.167  1.00  0.00     0.002 A 
ATOM     16  C   UNL A   1      31.567  28.374  24.750  1.00  0.00     0.018 A 
ATOM     17  C   UNL A   1      31.764  28.309  23.013  1.00  0.00     0.016 A 
ATOM     18  Br  UNL A   1      31.858  30.025  25.632  1.00  0.00    -0.051 Br
ENDBRANCH  11  12
ENDBRANCH   4   6
ENDBRANCH   3   4
ENDBRANCH   2   3
ENDBRANCH   1   2
BRANCH   1  19
ATOM     19  O   UNL A   1      36.311  21.198  25.925  1.00  0.00    -0.458 OA
BRANCH  19  20
ATOM     20  C   UNL A   1      37.494  20.822  25.409  1.00  0.00     0.338 C 
ATOM     21  O   UNL A   1      37.739  19.862  24.699  1.00  0.00    -0.246 OA
BRANCH  20  22
ATOM     22  C   UNL A   1      38.517  21.803  25.724  1.00  0.00     0.060 A 
ATOM     23  C   UNL A   1      39.944  21.354  26.724  1.00  0.00     0.016 A 
ATOM     24  C   UNL A   1      38.031  23.487  25.671  1.00  0.00     0.016 A 
ATOM     25  C   UNL A   1      40.878  22.825  27.757  1.00  0.00     0.010 A 
ATOM     26  C   UNL A   1      38.881  24.777  26.536  1.00  0.00     0.010 A 
ATOM     27  C   UNL A   1      40.286  24.529  27.574  1.00  0.00    -0.014 A 
BRANCH  27  28
ATOM     28  C   UNL A   1      41.087  25.743  28.017  1.00  0.00     0.031 A 
ATOM     29  C   UNL A   1      40.491  26.853  28.857  1.00  0.00     0.074 A 
ATOM     30  C   UNL A   1      42.321  25.969  27.509  1.00  0.00     0.049 A 
ATOM     31  N   UNL A   1      40.988  28.041  29.123  1.00  0.00    -0.248 NA
ATOM     32  C   UNL A   1      39.146  26.644  29.404  1.00  0.00     0.031 C 
ATOM     33  C   UNL A   1      42.956  25.142  26.508  1.00  0.00     0.029 A 
ATOM     34  N   UNL A   1      43.263  26.954  27.714  1.00  0.00    -0.354 N 
ATOM     35  C   UNL A   1      39.996  28.736  29.807  1.00  0.00     0.074 A 
ATOM     36  C   UNL A   1      38.853  27.849  29.878  1.00  0.00     0.031 C 
ATOM     37  C   UNL A   1      44.205  25.533  26.268  1.00  0.00     0.029 A 
ATOM     38  C   UNL A   1      44.436  26.752  27.011  1.00  0.00     0.049 A 
ATOM     39  H   UNL A   1      43.115  27.728  28.303  1.00  0.00     0.167 HD
ATOM     40  C   UNL A   1      40.037  29.988  30.335  1.00  0.00     0.037 A 
ATOM     41  C   UNL A   1      45.572  27.465  26.907  1.00  0.00     0.037 A 
ATOM     42  C   UNL A   1      41.201  30.845  30.317  1.00  0.00     0.049 A 
ATOM     43  C   UNL A   1      45.642  28.776  27.607  1.00  0.00     0.074 A 
ATOM     44  C   UNL A   1      41.371  32.086  30.910  1.00  0.00     0.029 A 
ATOM     45  N   UNL A   1      42.402  30.545  29.686  1.00  0.00    -0.354 N 
ATOM     46  N   UNL A   1      44.703  29.387  28.284  1.00  0.00    -0.248 NA
ATOM     47  C   UNL A   1      46.905  29.515  27.511  1.00  0.00     0.031 C 
ATOM     48  C   UNL A   1      42.662  32.545  30.620  1.00  0.00     0.029 A 
ATOM     49  C   UNL A   1      43.314  31.573  29.881  1.00  0.00     0.049 A 
ATOM     50  H   UNL A   1      42.580  29.723  29.174  1.00  0.00     0.167 HD
ATOM     51  C   UNL A   1      45.257  30.584  28.697  1.00  0.00     0.074 A 
ATOM     52  C   UNL A   1      46.626  30.598  28.219  1.00  0.00     0.031 C 
ATOM     53  C   UNL A   1      44.672  31.583  29.396  1.00  0.00     0.037 A 
BRANCH  40  54
ATOM     54  C   UNL A   1      38.786  30.506  31.000  1.00  0.00     0.057 A 
ATOM     55  C   UNL A   1      38.519  30.279  32.358  1.00  0.00     0.134 A 
ATOM     56  C   UNL A   1      37.848  31.266  30.286  1.00  0.00     0.134 A 
ATOM     57  F   UNL A   1      39.373  29.565  33.107  1.00  0.00    -0.206 F 
ATOM     58  C   UNL A   1      37.348  30.741  32.965  1.00  0.00     0.040 A 
ATOM     59  C   UNL A   1      36.689  31.761  30.891  1.00  0.00     0.040 A 
ATOM     60  F   UNL A   1      38.044  31.547  28.988  1.00  0.00    -0.206 F 
ATOM     61  C   UNL A   1      36.430  31.487  32.231  1.00  0.00     0.006 A 
ENDBRANCH  40  54
BRANCH  41  62
ATOM     62  C   UNL A   1      46.718  26.932  26.121  1.00  0.00     0.057 A 
ATOM     63  C   UNL A   1      46.888  27.293  24.779  1.00  0.00     0.134 A 
ATOM     64  C   UNL A   1      47.706  26.120  26.695  1.00  0.00     0.134 A 
ATOM     65  F   UNL A   1      45.972  28.057  24.165  1.00  0.00    -0.206 F 
ATOM     66  C   UNL A   1      47.992  26.867  24.038  1.00  0.00     0.040 A 
ATOM     67  C   UNL A   1      48.832  25.715  25.977  1.00  0.00     0.040 A 
ATOM     68  F   UNL A   1      47.617  25.756  27.983  1.00  0.00    -0.206 F 
ATOM     69  C   UNL A   1      48.975  26.085  24.641  1.00  0.00     0.006 A 
ENDBRANCH  41  62
BRANCH  53  70
ATOM     70  C   UNL A   1      45.539  32.761  29.711  1.00  0.00     0.057 A 
ATOM     71  C   UNL A   1      45.612  33.872  28.860  1.00  0.00     0.134 A 
ATOM     72  C   UNL A   1      46.329  32.771  30.866  1.00  0.00     0.134 A 
ATOM     73  F   UNL A   1      44.901  33.906  27.723  1.00  0.00    -0.206 F 
ATOM     74  C   UNL A   1      46.461  34.944  29.138  1.00  0.00     0.040 A 
ATOM     75  C   UNL A   1      47.163  33.847  31.166  1.00  0.00     0.040 A 
ATOM     76  F   UNL A   1      46.307  31.733  31.715  1.00  0.00    -0.206 F 
ATOM     77  C   UNL A   1      47.236  34.934  30.297  1.00  0.00     0.006 A 
ENDBRANCH  53  70
ENDBRANCH  27  28
ENDBRANCH  20  22
ENDBRANCH  19  20
ENDBRANCH   1  19
TORSDOF 12
ENDMDL
MODEL 3
REMARK VINA RESULT:     -11.6      1.422      2.408
REMARK SMILES Cc1onc(-c2cccc(Br)c2)c1C(=O)OCCOC(=O)c1ccc(-c2c3nc(c(-c4c(F)cccc4F)c4ccc([nH]4)c(-c4c(F)cccc4F)c4nc(c(-c5c(F)cccc5F)c5ccc2[nH]5)C=C4)C=C3)cc1
REMARK SMILES IDX 18 1 17 2 16 3 14 4 15 5 13 6 1 7 2 8 3 9 4 10 5 11 6 12
REMARK SMILES IDX 7 13 12 14 8 15 10 16 9 17 11 18 19 19 20 20 21 21 22 22
REMARK SMILES IDX 23 23 75 24 24 25 74 26 25 27 26 28 27 29 68 30 28 31 73 32
REMARK SMILES IDX 67 33 69 34 29 35 72 36 66 37 65 38 30 40 56 41 39 42 55 43
REMARK SMILES IDX 40 44 43 45 54 46 70 47 41 48 42 49 53 51 71 52 44 53 31 54
REMARK SMILES IDX 32 55 37 56 33 57 34 58 36 59 38 60 35 61 57 62 58 63 63 64
REMARK SMILES IDX 59 65 60 66 62 67 64 68 61 69 45 70 46 71 51 72 47 73 48 74
REMARK SMILES IDX 50 75 52 76 49 77
REMARK H PARENT 69 39 43 50
REMARK Flexibility Score: inf
ROOT
ATOM      1  C   UNL A   1      31.482  29.133  25.110  1.00  0.00     0.275 C 
ENDROOT
BRANCH   1   2
ATOM      2  C   UNL A   1      31.919  28.155  24.021  1.00  0.00     0.275 C 
BRANCH   2   3
ATOM      3  O   UNL A   1      32.706  27.094  24.609  1.00  0.00    -0.458 OA
BRANCH   3   4
ATOM      4  C   UNL A   1      32.421  25.814  24.225  1.00  0.00     0.344 C 
ATOM      5  O   UNL A   1      32.255  25.465  23.063  1.00  0.00    -0.246 OA
BRANCH   4   6
ATOM      6  C   UNL A   1      32.309  24.914  25.351  1.00  0.00     0.130 A 
ATOM      7  C   UNL A   1      29.904  25.577  26.126  1.00  0.00     0.092 C 
ATOM      8  C   UNL A   1      31.200  24.865  26.162  1.00  0.00     0.148 A 
ATOM      9  O   UNL A   1      31.369  23.889  27.092  1.00  0.00    -0.360 OA
ATOM     10  N   UNL A   1      32.588  23.250  26.892  1.00  0.00    -0.079 NA
ATOM     11  C   UNL A   1      33.145  23.838  25.824  1.00  0.00     0.128 A 
BRANCH  11  12
ATOM     12  C   UNL A   1      34.365  23.317  25.176  1.00  0.00     0.006 A 
ATOM     13  C   UNL A   1      34.503  21.570  24.714  1.00  0.00     0.010 A 
ATOM     14  C   UNL A   1      35.821  24.141  25.732  1.00  0.00     0.026 A 
ATOM     15  C   UNL A   1      36.288  20.656  25.000  1.00  0.00     0.002 A 
ATOM     16  C   UNL A   1      37.375  23.336  25.955  1.00  0.00     0.018 A 
ATOM     17  C   UNL A   1      37.651  21.635  25.656  1.00  0.00     0.016 A 
ATOM     18  Br  UNL A   1      38.841  24.407  26.501  1.00  0.00    -0.051 Br
ENDBRANCH  11  12
ENDBRANCH   4   6
ENDBRANCH   3   4
ENDBRANCH   2   3
ENDBRANCH   1   2
BRANCH   1  19
ATOM     19  O   UNL A   1      32.566  30.042  25.360  1.00  0.00    -0.458 OA
BRANCH  19  20
ATOM     20  C   UNL A   1      32.331  30.887  26.379  1.00  0.00     0.338 C 
ATOM     21  O   UNL A   1      31.324  31.535  26.609  1.00  0.00    -0.246 OA
BRANCH  20  22
ATOM     22  C   UNL A   1      33.446  30.877  27.310  1.00  0.00     0.060 A 
ATOM     23  C   UNL A   1      34.374  32.381  27.649  1.00  0.00     0.016 A 
ATOM     24  C   UNL A   1      34.233  29.333  27.572  1.00  0.00     0.016 A 
ATOM     25  C   UNL A   1      36.289  32.190  28.280  1.00  0.00     0.010 A 
ATOM     26  C   UNL A   1      35.891  29.171  28.172  1.00  0.00     0.010 A 
ATOM     27  C   UNL A   1      36.958  30.527  28.544  1.00  0.00    -0.014 A 
BRANCH  27  28
ATOM     28  C   UNL A   1      38.237  30.255  29.319  1.00  0.00     0.031 A 
ATOM     29  C   UNL A   1      39.350  29.383  28.778  1.00  0.00     0.074 A 
ATOM     30  C   UNL A   1      38.344  30.631  30.614  1.00  0.00     0.049 A 
ATOM     31  N   UNL A   1      40.393  28.891  29.411  1.00  0.00    -0.248 NA
ATOM     32  C   UNL A   1      39.251  28.942  27.382  1.00  0.00     0.031 C 
ATOM     33  C   UNL A   1      37.286  31.262  31.371  1.00  0.00     0.029 A 
ATOM     34  N   UNL A   1      39.350  30.527  31.551  1.00  0.00    -0.354 N 
ATOM     35  C   UNL A   1      41.030  28.038  28.515  1.00  0.00     0.074 A 
ATOM     36  C   UNL A   1      40.232  28.050  27.306  1.00  0.00     0.031 C 
ATOM     37  C   UNL A   1      37.696  31.619  32.586  1.00  0.00     0.029 A 
ATOM     38  C   UNL A   1      39.040  31.116  32.763  1.00  0.00     0.049 A 
ATOM     39  H   UNL A   1      40.206  30.076  31.374  1.00  0.00     0.167 HD
ATOM     40  C   UNL A   1      42.175  27.326  28.679  1.00  0.00     0.037 A 
ATOM     41  C   UNL A   1      39.709  31.218  33.925  1.00  0.00     0.037 A 
ATOM     42  C   UNL A   1      43.002  27.368  29.864  1.00  0.00     0.049 A 
ATOM     43  C   UNL A   1      41.028  30.537  34.036  1.00  0.00     0.074 A 
ATOM     44  C   UNL A   1      44.228  26.760  30.086  1.00  0.00     0.029 A 
ATOM     45  N   UNL A   1      42.698  28.070  31.024  1.00  0.00    -0.354 N 
ATOM     46  N   UNL A   1      41.626  29.776  33.155  1.00  0.00    -0.248 NA
ATOM     47  C   UNL A   1      41.755  30.697  35.299  1.00  0.00     0.031 C 
ATOM     48  C   UNL A   1      44.652  27.074  31.383  1.00  0.00     0.029 A 
ATOM     49  C   UNL A   1      43.713  27.913  31.958  1.00  0.00     0.049 A 
ATOM     50  H   UNL A   1      41.880  28.600  31.163  1.00  0.00     0.167 HD
ATOM     51  C   UNL A   1      42.800  29.362  33.753  1.00  0.00     0.074 A 
ATOM     52  C   UNL A   1      42.845  29.984  35.063  1.00  0.00     0.031 C 
ATOM     53  C   UNL A   1      43.746  28.529  33.261  1.00  0.00     0.037 A 
BRANCH  40  54
ATOM     54  C   UNL A   1      42.619  26.447  27.536  1.00  0.00     0.057 A 
ATOM     55  C   UNL A   1      42.325  25.076  27.496  1.00  0.00     0.134 A 
ATOM     56  C   UNL A   1      43.324  26.978  26.446  1.00  0.00     0.134 A 
ATOM     57  F   UNL A   1      41.649  24.499  28.501  1.00  0.00    -0.206 F 
ATOM     58  C   UNL A   1      42.758  24.261  26.448  1.00  0.00     0.040 A 
ATOM     59  C   UNL A   1      43.734  26.178  25.375  1.00  0.00     0.040 A 
ATOM     60  F   UNL A   1      43.623  28.286  26.398  1.00  0.00    -0.206 F 
ATOM     61  C   UNL A   1      43.463  24.813  25.381  1.00  0.00     0.006 A 
ENDBRANCH  40  54
BRANCH  41  62
ATOM     62  C   UNL A   1      39.135  32.004  35.051  1.00  0.00     0.057 A 
ATOM     63  C   UNL A   1      39.262  33.398  35.081  1.00  0.00     0.134 A 
ATOM     64  C   UNL A   1      38.389  31.407  36.076  1.00  0.00     0.134 A 
ATOM     65  F   UNL A   1      39.975  34.031  34.137  1.00  0.00    -0.206 F 
ATOM     66  C   UNL A   1      38.672  34.168  36.086  1.00  0.00     0.040 A 
ATOM     67  C   UNL A   1      37.765  32.167  37.068  1.00  0.00     0.040 A 
ATOM     68  F   UNL A   1      38.208  30.078  36.096  1.00  0.00    -0.206 F 
ATOM     69  C   UNL A   1      37.910  33.552  37.076  1.00  0.00     0.006 A 
ENDBRANCH  41  62
BRANCH  53  70
ATOM     70  C   UNL A   1      44.927  28.278  34.145  1.00  0.00     0.057 A 
ATOM     71  C   UNL A   1      44.957  27.208  35.050  1.00  0.00     0.134 A 
ATOM     72  C   UNL A   1      46.035  29.131  34.107  1.00  0.00     0.134 A 
ATOM     73  F   UNL A   1      43.911  26.374  35.152  1.00  0.00    -0.206 F 
ATOM     74  C   UNL A   1      46.041  27.012  35.905  1.00  0.00     0.040 A 
ATOM     75  C   UNL A   1      47.135  28.930  34.940  1.00  0.00     0.040 A 
ATOM     76  F   UNL A   1      46.061  30.177  33.267  1.00  0.00    -0.206 F 
ATOM     77  C   UNL A   1      47.136  27.872  35.847  1.00  0.00     0.006 A 
ENDBRANCH  53  70
ENDBRANCH  27  28
ENDBRANCH  20  22
ENDBRANCH  19  20
ENDBRANCH   1  19
TORSDOF 12
ENDMDL
