MODEL 1
REMARK VINA RESULT:      -8.6      0.000      0.000
REMARK SMILES CC#CC[C@H](C(=O)OCCOC(=O)c1ccc(-c2c3nc(c(-c4c(F)cccc4F)c4ccc([nH]4)c(-c4c(F)cccc4F)c4nc(c(-c5c(F)cccc5F)c5ccc2[nH]5)C=C4)C=C3)cc1)c1cccc(Br)c1
REMARK SMILES IDX 9 1 8 2 6 3 7 4 5 5 4 6 3 7 1 8 2 9 68 10 69 11 74 12 70 13
REMARK SMILES IDX 72 14 71 15 73 16 10 17 11 18 12 19 13 20 14 21 15 22 67 23
REMARK SMILES IDX 16 24 66 25 17 26 18 27 19 28 60 29 20 30 65 31 59 32 61 33
REMARK SMILES IDX 21 34 64 35 58 36 57 37 22 39 48 40 31 41 47 42 32 43 35 44
REMARK SMILES IDX 46 45 62 46 33 47 34 48 45 50 63 51 36 52 23 53 24 54 29 55
REMARK SMILES IDX 25 56 26 57 28 58 30 59 27 60 49 61 50 62 55 63 51 64 52 65
REMARK SMILES IDX 54 66 56 67 53 68 37 69 38 70 43 71 39 72 40 73 42 74 44 75
REMARK SMILES IDX 41 76
REMARK H PARENT 61 38 35 49
REMARK Flexibility Score: inf
ROOT
ATOM      1  C   UNL A   1      46.672  24.329  24.504  1.00  0.00     0.274 C 
ENDROOT
BRANCH   1   2
ATOM      2  O   UNL A   1      46.439  25.732  24.735  1.00  0.00    -0.462 OA
BRANCH   2   3
ATOM      3  C   UNL A   1      47.129  26.257  25.791  1.00  0.00     0.314 C 
ATOM      4  O   UNL A   1      48.286  26.656  25.722  1.00  0.00    -0.252 OA
BRANCH   3   5
ATOM      5  C   UNL A   1      46.330  26.159  27.097  1.00  0.00     0.141 C 
BRANCH   5   6
ATOM      6  C   UNL A   1      46.788  24.915  27.894  1.00  0.00     0.109 C 
BRANCH   6   7
ATOM      7  C   UNL A   1      45.598  24.176  28.485  1.00  0.00    -0.102 C 
ATOM      8  C   UNL A   1      43.387  22.804  29.583  1.00  0.00     0.107 C 
ATOM      9  C   UNL A   1      44.577  23.542  28.992  1.00  0.00    -0.107 C 
ENDBRANCH   6   7
ENDBRANCH   5   6
BRANCH   5  10
ATOM     10  C   UNL A   1      46.331  27.461  27.895  1.00  0.00    -0.032 A 
ATOM     11  C   UNL A   1      45.460  28.532  27.621  1.00  0.00     0.005 A 
ATOM     12  C   UNL A   1      47.206  27.590  28.990  1.00  0.00     0.020 A 
ATOM     13  C   UNL A   1      45.502  29.709  28.373  1.00  0.00     0.001 A 
ATOM     14  C   UNL A   1      47.216  28.756  29.760  1.00  0.00     0.018 A 
ATOM     15  C   UNL A   1      46.379  29.823  29.447  1.00  0.00     0.016 A 
ATOM     16  Br  UNL A   1      48.356  28.879  31.264  1.00  0.00    -0.051 Br
ENDBRANCH   5  10
ENDBRANCH   3   5
ENDBRANCH   2   3
ENDBRANCH   1   2
BRANCH   1  17
ATOM     17  C   UNL A   1      45.427  23.469  24.726  1.00  0.00     0.275 C 
BRANCH  17  18
ATOM     18  O   UNL A   1      44.228  24.261  24.680  1.00  0.00    -0.458 OA
BRANCH  18  19
ATOM     19  C   UNL A   1      43.122  23.682  25.204  1.00  0.00     0.338 C 
ATOM     20  O   UNL A   1      42.765  22.522  25.087  1.00  0.00    -0.246 OA
BRANCH  19  21
ATOM     21  C   UNL A   1      42.413  24.648  26.056  1.00  0.00     0.060 A 
ATOM     22  C   UNL A   1      42.833  25.972  26.025  1.00  0.00     0.016 A 
ATOM     23  C   UNL A   1      41.477  24.246  27.004  1.00  0.00     0.016 A 
ATOM     24  C   UNL A   1      42.372  26.899  26.938  1.00  0.00     0.010 A 
ATOM     25  C   UNL A   1      40.983  25.188  27.919  1.00  0.00     0.010 A 
ATOM     26  C   UNL A   1      41.455  26.513  27.908  1.00  0.00    -0.014 A 
BRANCH  26  27
ATOM     27  C   UNL A   1      41.168  27.475  28.996  1.00  0.00     0.031 A 
ATOM     28  C   UNL A   1      42.109  27.543  30.159  1.00  0.00     0.074 A 
ATOM     29  C   UNL A   1      40.185  28.386  28.875  1.00  0.00     0.049 A 
ATOM     30  N   UNL A   1      41.965  28.157  31.302  1.00  0.00    -0.248 NA
ATOM     31  C   UNL A   1      43.390  26.828  30.014  1.00  0.00     0.031 C 
ATOM     32  C   UNL A   1      39.313  28.549  27.708  1.00  0.00     0.029 A 
ATOM     33  N   UNL A   1      39.779  29.376  29.733  1.00  0.00    -0.354 N 
ATOM     34  C   UNL A   1      43.092  27.832  32.044  1.00  0.00     0.074 A 
ATOM     35  C   UNL A   1      43.933  27.003  31.209  1.00  0.00     0.031 C 
ATOM     36  C   UNL A   1      38.505  29.602  27.909  1.00  0.00     0.029 A 
ATOM     37  C   UNL A   1      38.732  30.122  29.253  1.00  0.00     0.049 A 
ATOM     38  H   UNL A   1      40.200  29.537  30.608  1.00  0.00     0.167 HD
ATOM     39  C   UNL A   1      43.376  28.179  33.320  1.00  0.00     0.037 A 
ATOM     40  C   UNL A   1      38.004  31.081  29.855  1.00  0.00     0.037 A 
ATOM     41  C   UNL A   1      42.557  29.057  34.108  1.00  0.00     0.049 A 
ATOM     42  C   UNL A   1      38.298  31.413  31.291  1.00  0.00     0.074 A 
ATOM     43  C   UNL A   1      42.705  29.429  35.432  1.00  0.00     0.029 A 
ATOM     44  N   UNL A   1      41.445  29.730  33.623  1.00  0.00    -0.354 N 
ATOM     45  N   UNL A   1      39.258  30.961  32.062  1.00  0.00    -0.248 NA
ATOM     46  C   UNL A   1      37.380  32.347  31.955  1.00  0.00     0.031 C 
ATOM     47  C   UNL A   1      41.671  30.318  35.752  1.00  0.00     0.029 A 
ATOM     48  C   UNL A   1      40.897  30.518  34.619  1.00  0.00     0.049 A 
ATOM     49  H   UNL A   1      41.098  29.658  32.704  1.00  0.00     0.167 HD
ATOM     50  C   UNL A   1      39.051  31.541  33.305  1.00  0.00     0.074 A 
ATOM     51  C   UNL A   1      37.895  32.405  33.175  1.00  0.00     0.031 C 
ATOM     52  C   UNL A   1      39.742  31.361  34.457  1.00  0.00     0.037 A 
BRANCH  39  53
ATOM     53  C   UNL A   1      44.573  27.539  33.949  1.00  0.00     0.057 A 
ATOM     54  C   UNL A   1      44.540  26.245  34.479  1.00  0.00     0.134 A 
ATOM     55  C   UNL A   1      45.780  28.245  34.030  1.00  0.00     0.134 A 
ATOM     56  F   UNL A   1      43.405  25.529  34.457  1.00  0.00    -0.206 F 
ATOM     57  C   UNL A   1      45.665  25.680  35.084  1.00  0.00     0.040 A 
ATOM     58  C   UNL A   1      46.915  27.686  34.614  1.00  0.00     0.040 A 
ATOM     59  F   UNL A   1      45.872  29.493  33.546  1.00  0.00    -0.206 F 
ATOM     60  C   UNL A   1      46.859  26.400  35.149  1.00  0.00     0.006 A 
ENDBRANCH  39  53
BRANCH  40  61
ATOM     61  C   UNL A   1      36.877  31.723  29.135  1.00  0.00     0.057 A 
ATOM     62  C   UNL A   1      35.668  31.050  28.934  1.00  0.00     0.134 A 
ATOM     63  C   UNL A   1      36.982  33.026  28.631  1.00  0.00     0.134 A 
ATOM     64  F   UNL A   1      35.515  29.791  29.369  1.00  0.00    -0.206 F 
ATOM     65  C   UNL A   1      34.602  31.650  28.261  1.00  0.00     0.040 A 
ATOM     66  C   UNL A   1      35.917  33.647  27.978  1.00  0.00     0.040 A 
ATOM     67  F   UNL A   1      38.119  33.722  28.785  1.00  0.00    -0.206 F 
ATOM     68  C   UNL A   1      34.723  32.956  27.788  1.00  0.00     0.006 A 
ENDBRANCH  40  61
BRANCH  52  69
ATOM     69  C   UNL A   1      39.259  32.114  35.656  1.00  0.00     0.057 A 
ATOM     70  C   UNL A   1      38.372  31.533  36.569  1.00  0.00     0.134 A 
ATOM     71  C   UNL A   1      39.713  33.412  35.918  1.00  0.00     0.134 A 
ATOM     72  F   UNL A   1      37.894  30.296  36.360  1.00  0.00    -0.206 F 
ATOM     73  C   UNL A   1      37.939  32.224  37.699  1.00  0.00     0.040 A 
ATOM     74  C   UNL A   1      39.300  34.106  37.054  1.00  0.00     0.040 A 
ATOM     75  F   UNL A   1      40.568  34.017  35.080  1.00  0.00    -0.206 F 
ATOM     76  C   UNL A   1      38.409  33.514  37.947  1.00  0.00     0.006 A 
ENDBRANCH  52  69
ENDBRANCH  26  27
ENDBRANCH  19  21
ENDBRANCH  18  19
ENDBRANCH  17  18
ENDBRANCH   1  17
TORSDOF 14
ENDMDL
MODEL 2
REMARK VINA RESULT:      -8.6      4.762      9.521
REMARK SMILES CC#CC[C@H](C(=O)OCCOC(=O)c1ccc(-c2c3nc(c(-c4c(F)cccc4F)c4ccc([nH]4)c(-c4c(F)cccc4F)c4nc(c(-c5c(F)cccc5F)c5ccc2[nH]5)C=C4)C=C3)cc1)c1cccc(Br)c1
REMARK SMILES IDX 9 1 8 2 6 3 7 4 5 5 4 6 3 7 1 8 2 9 68 10 69 11 74 12 70 13
REMARK SMILES IDX 72 14 71 15 73 16 10 17 11 18 12 19 13 20 14 21 15 22 67 23
REMARK SMILES IDX 16 24 66 25 17 26 18 27 19 28 60 29 20 30 65 31 59 32 61 33
REMARK SMILES IDX 21 34 64 35 58 36 57 37 22 39 48 40 31 41 47 42 32 43 35 44
REMARK SMILES IDX 46 45 62 46 33 47 34 48 45 50 63 51 36 52 23 53 24 54 29 55
REMARK SMILES IDX 25 56 26 57 28 58 30 59 27 60 49 61 50 62 55 63 51 64 52 65
REMARK SMILES IDX 54 66 56 67 53 68 37 69 38 70 43 71 39 72 40 73 42 74 44 75
REMARK SMILES IDX 41 76
REMARK H PARENT 61 38 35 49
REMARK Flexibility Score: inf
ROOT
ATOM      1  C   UNL A   1      32.925  29.327  24.422  1.00  0.00     0.274 C 
ENDROOT
BRANCH   1   2
ATOM      2  O   UNL A   1      33.789  28.276  24.896  1.00  0.00    -0.462 OA
BRANCH   2   3
ATOM      3  C   UNL A   1      33.436  27.022  24.484  1.00  0.00     0.314 C 
ATOM      4  O   UNL A   1      33.087  26.749  23.341  1.00  0.00    -0.252 OA
BRANCH   3   5
ATOM      5  C   UNL A   1      33.399  26.030  25.654  1.00  0.00     0.141 C 
BRANCH   5   6
ATOM      6  C   UNL A   1      32.105  26.243  26.474  1.00  0.00     0.109 C 
BRANCH   6   7
ATOM      7  C   UNL A   1      30.888  26.316  25.566  1.00  0.00    -0.102 C 
ATOM      8  C   UNL A   1      28.627  26.453  23.880  1.00  0.00     0.107 C 
ATOM      9  C   UNL A   1      29.844  26.379  24.787  1.00  0.00    -0.107 C 
ENDBRANCH   6   7
ENDBRANCH   5   6
BRANCH   5  10
ATOM     10  C   UNL A   1      33.645  24.586  25.219  1.00  0.00    -0.032 A 
ATOM     11  C   UNL A   1      32.606  23.673  24.960  1.00  0.00     0.005 A 
ATOM     12  C   UNL A   1      34.968  24.150  25.017  1.00  0.00     0.020 A 
ATOM     13  C   UNL A   1      32.879  22.358  24.572  1.00  0.00     0.001 A 
ATOM     14  C   UNL A   1      35.231  22.845  24.594  1.00  0.00     0.018 A 
ATOM     15  C   UNL A   1      34.193  21.942  24.386  1.00  0.00     0.016 A 
ATOM     16  Br  UNL A   1      37.013  22.303  24.269  1.00  0.00    -0.051 Br
ENDBRANCH   5  10
ENDBRANCH   3   5
ENDBRANCH   2   3
ENDBRANCH   1   2
BRANCH   1  17
ATOM     17  C   UNL A   1      31.850  29.724  25.435  1.00  0.00     0.275 C 
BRANCH  17  18
ATOM     18  O   UNL A   1      32.395  29.831  26.762  1.00  0.00    -0.458 OA
BRANCH  18  19
ATOM     19  C   UNL A   1      32.926  31.034  27.082  1.00  0.00     0.338 C 
ATOM     20  O   UNL A   1      32.362  32.115  27.095  1.00  0.00    -0.246 OA
BRANCH  19  21
ATOM     21  C   UNL A   1      34.316  30.859  27.530  1.00  0.00     0.060 A 
ATOM     22  C   UNL A   1      34.755  29.568  27.795  1.00  0.00     0.016 A 
ATOM     23  C   UNL A   1      35.125  31.942  27.861  1.00  0.00     0.016 A 
ATOM     24  C   UNL A   1      35.964  29.328  28.416  1.00  0.00     0.010 A 
ATOM     25  C   UNL A   1      36.367  31.706  28.469  1.00  0.00     0.010 A 
ATOM     26  C   UNL A   1      36.777  30.395  28.777  1.00  0.00    -0.014 A 
BRANCH  26  27
ATOM     27  C   UNL A   1      37.945  30.102  29.638  1.00  0.00     0.031 A 
ATOM     28  C   UNL A   1      39.091  29.336  29.053  1.00  0.00     0.074 A 
ATOM     29  C   UNL A   1      38.058  30.649  30.862  1.00  0.00     0.049 A 
ATOM     30  N   UNL A   1      40.120  28.802  29.655  1.00  0.00    -0.248 NA
ATOM     31  C   UNL A   1      39.084  29.150  27.591  1.00  0.00     0.031 C 
ATOM     32  C   UNL A   1      37.096  31.566  31.478  1.00  0.00     0.029 A 
ATOM     33  N   UNL A   1      39.057  30.541  31.795  1.00  0.00    -0.354 N 
ATOM     34  C   UNL A   1      40.833  28.145  28.663  1.00  0.00     0.074 A 
ATOM     35  C   UNL A   1      40.147  28.381  27.412  1.00  0.00     0.031 C 
ATOM     36  C   UNL A   1      37.573  31.968  32.667  1.00  0.00     0.029 A 
ATOM     37  C   UNL A   1      38.819  31.260  32.940  1.00  0.00     0.049 A 
ATOM     38  H   UNL A   1      39.868  30.000  31.656  1.00  0.00     0.167 HD
ATOM     39  C   UNL A   1      41.946  27.390  28.800  1.00  0.00     0.037 A 
ATOM     40  C   UNL A   1      39.504  31.297  34.098  1.00  0.00     0.037 A 
ATOM     41  C   UNL A   1      42.647  27.223  30.043  1.00  0.00     0.049 A 
ATOM     42  C   UNL A   1      40.707  30.409  34.252  1.00  0.00     0.074 A 
ATOM     43  C   UNL A   1      43.747  26.432  30.322  1.00  0.00     0.029 A 
ATOM     44  N   UNL A   1      42.328  27.895  31.214  1.00  0.00    -0.354 N 
ATOM     45  N   UNL A   1      41.278  29.633  33.362  1.00  0.00    -0.248 NA
ATOM     46  C   UNL A   1      41.329  30.363  35.581  1.00  0.00     0.031 C 
ATOM     47  C   UNL A   1      44.084  26.614  31.669  1.00  0.00     0.029 A 
ATOM     48  C   UNL A   1      43.210  27.539  32.219  1.00  0.00     0.049 A 
ATOM     49  H   UNL A   1      41.584  28.532  31.315  1.00  0.00     0.167 HD
ATOM     50  C   UNL A   1      42.315  28.993  34.025  1.00  0.00     0.074 A 
ATOM     51  C   UNL A   1      42.315  29.500  35.384  1.00  0.00     0.031 C 
ATOM     52  C   UNL A   1      43.178  28.058  33.561  1.00  0.00     0.037 A 
BRANCH  39  53
ATOM     53  C   UNL A   1      42.410  26.636  27.595  1.00  0.00     0.057 A 
ATOM     54  C   UNL A   1      41.972  25.339  27.307  1.00  0.00     0.134 A 
ATOM     55  C   UNL A   1      43.324  27.225  26.712  1.00  0.00     0.134 A 
ATOM     56  F   UNL A   1      41.119  24.711  28.130  1.00  0.00    -0.206 F 
ATOM     57  C   UNL A   1      42.441  24.647  26.188  1.00  0.00     0.040 A 
ATOM     58  C   UNL A   1      43.786  26.552  25.582  1.00  0.00     0.040 A 
ATOM     59  F   UNL A   1      43.787  28.464  26.939  1.00  0.00    -0.206 F 
ATOM     60  C   UNL A   1      43.347  25.256  25.319  1.00  0.00     0.006 A 
ENDBRANCH  39  53
BRANCH  40  61
ATOM     61  C   UNL A   1      39.019  32.131  35.224  1.00  0.00     0.057 A 
ATOM     62  C   UNL A   1      38.225  31.589  36.239  1.00  0.00     0.134 A 
ATOM     63  C   UNL A   1      39.337  33.493  35.313  1.00  0.00     0.134 A 
ATOM     64  F   UNL A   1      37.863  30.299  36.196  1.00  0.00    -0.206 F 
ATOM     65  C   UNL A   1      37.767  32.368  37.303  1.00  0.00     0.040 A 
ATOM     66  C   UNL A   1      38.909  34.278  36.383  1.00  0.00     0.040 A 
ATOM     67  F   UNL A   1      40.090  34.075  34.366  1.00  0.00    -0.206 F 
ATOM     68  C   UNL A   1      38.117  33.716  37.382  1.00  0.00     0.006 A 
ENDBRANCH  40  61
BRANCH  52  69
ATOM     69  C   UNL A   1      44.184  27.528  34.533  1.00  0.00     0.057 A 
ATOM     70  C   UNL A   1      43.942  26.361  35.266  1.00  0.00     0.134 A 
ATOM     71  C   UNL A   1      45.416  28.169  34.710  1.00  0.00     0.134 A 
ATOM     72  F   UNL A   1      42.772  25.713  35.146  1.00  0.00    -0.206 F 
ATOM     73  C   UNL A   1      44.888  25.853  36.154  1.00  0.00     0.040 A 
ATOM     74  C   UNL A   1      46.376  27.661  35.584  1.00  0.00     0.040 A 
ATOM     75  F   UNL A   1      45.704  29.289  34.031  1.00  0.00    -0.206 F 
ATOM     76  C   UNL A   1      46.112  26.501  36.310  1.00  0.00     0.006 A 
ENDBRANCH  52  69
ENDBRANCH  26  27
ENDBRANCH  19  21
ENDBRANCH  18  19
ENDBRANCH  17  18
ENDBRANCH   1  17
TORSDOF 14
ENDMDL
MODEL 3
REMARK VINA RESULT:      -8.5      5.294     10.343
REMARK SMILES CC#CC[C@H](C(=O)OCCOC(=O)c1ccc(-c2c3nc(c(-c4c(F)cccc4F)c4ccc([nH]4)c(-c4c(F)cccc4F)c4nc(c(-c5c(F)cccc5F)c5ccc2[nH]5)C=C4)C=C3)cc1)c1cccc(Br)c1
REMARK SMILES IDX 9 1 8 2 6 3 7 4 5 5 4 6 3 7 1 8 2 9 68 10 69 11 74 12 70 13
REMARK SMILES IDX 72 14 71 15 73 16 10 17 11 18 12 19 13 20 14 21 15 22 67 23
REMARK SMILES IDX 16 24 66 25 17 26 18 27 19 28 60 29 20 30 65 31 59 32 61 33
REMARK SMILES IDX 21 34 64 35 58 36 57 37 22 39 48 40 31 41 47 42 32 43 35 44
REMARK SMILES IDX 46 45 62 46 33 47 34 48 45 50 63 51 36 52 23 53 24 54 29 55
REMARK SMILES IDX 25 56 26 57 28 58 30 59 27 60 49 61 50 62 55 63 51 64 52 65
REMARK SMILES IDX 54 66 56 67 53 68 37 69 38 70 43 71 39 72 40 73 42 74 44 75
REMARK SMILES IDX 41 76
REMARK H PARENT 61 38 35 49
REMARK Flexibility Score: inf
ROOT
ATOM      1  C   UNL A   1      31.881  28.544  27.452  1.00  0.00     0.274 C 
ENDROOT
BRANCH   1   2
ATOM      2  O   UNL A   1      32.692  27.533  26.823  1.00  0.00    -0.462 OA
BRANCH   2   3
ATOM      3  C   UNL A   1      31.986  26.509  26.258  1.00  0.00     0.314 C 
ATOM      4  O   UNL A   1      31.517  25.569  26.891  1.00  0.00    -0.252 OA
BRANCH   3   5
ATOM      5  C   UNL A   1      31.971  26.606  24.727  1.00  0.00     0.141 C 
BRANCH   5   6
ATOM      6  C   UNL A   1      32.509  25.291  24.117  1.00  0.00     0.109 C 
BRANCH   6   7
ATOM      7  C   UNL A   1      32.534  25.362  22.599  1.00  0.00    -0.102 C 
ATOM      8  C   UNL A   1      32.580  25.493  19.778  1.00  0.00     0.107 C 
ATOM      9  C   UNL A   1      32.556  25.423  21.296  1.00  0.00    -0.107 C 
ENDBRANCH   6   7
ENDBRANCH   5   6
BRANCH   5  10
ATOM     10  C   UNL A   1      30.621  27.058  24.172  1.00  0.00    -0.032 A 
ATOM     11  C   UNL A   1      29.428  26.339  24.370  1.00  0.00     0.005 A 
ATOM     12  C   UNL A   1      30.545  28.275  23.468  1.00  0.00     0.020 A 
ATOM     13  C   UNL A   1      28.216  26.786  23.836  1.00  0.00     0.001 A 
ATOM     14  C   UNL A   1      29.323  28.733  22.968  1.00  0.00     0.018 A 
ATOM     15  C   UNL A   1      28.161  27.986  23.135  1.00  0.00     0.016 A 
ATOM     16  Br  UNL A   1      29.237  30.401  22.082  1.00  0.00    -0.051 Br
ENDBRANCH   5  10
ENDBRANCH   3   5
ENDBRANCH   2   3
ENDBRANCH   1   2
BRANCH   1  17
ATOM     17  C   UNL A   1      31.790  29.834  26.635  1.00  0.00     0.275 C 
BRANCH  17  18
ATOM     18  O   UNL A   1      33.094  30.377  26.364  1.00  0.00    -0.458 OA
BRANCH  18  19
ATOM     19  C   UNL A   1      33.502  31.365  27.194  1.00  0.00     0.338 C 
ATOM     20  O   UNL A   1      32.851  32.317  27.591  1.00  0.00    -0.246 OA
BRANCH  19  21
ATOM     21  C   UNL A   1      34.868  31.088  27.661  1.00  0.00     0.060 A 
ATOM     22  C   UNL A   1      35.175  29.786  28.035  1.00  0.00     0.016 A 
ATOM     23  C   UNL A   1      35.783  32.107  27.906  1.00  0.00     0.016 A 
ATOM     24  C   UNL A   1      36.355  29.477  28.680  1.00  0.00     0.010 A 
ATOM     25  C   UNL A   1      36.998  31.798  28.538  1.00  0.00     0.010 A 
ATOM     26  C   UNL A   1      37.273  30.483  28.956  1.00  0.00    -0.014 A 
BRANCH  26  27
ATOM     27  C   UNL A   1      38.408  30.146  29.844  1.00  0.00     0.031 A 
ATOM     28  C   UNL A   1      39.556  29.369  29.276  1.00  0.00     0.074 A 
ATOM     29  C   UNL A   1      38.496  30.662  31.083  1.00  0.00     0.049 A 
ATOM     30  N   UNL A   1      40.555  28.800  29.896  1.00  0.00    -0.248 NA
ATOM     31  C   UNL A   1      39.589  29.216  27.811  1.00  0.00     0.031 C 
ATOM     32  C   UNL A   1      37.535  31.585  31.691  1.00  0.00     0.029 A 
ATOM     33  N   UNL A   1      39.464  30.511  32.043  1.00  0.00    -0.354 N 
ATOM     34  C   UNL A   1      41.284  28.151  28.910  1.00  0.00     0.074 A 
ATOM     35  C   UNL A   1      40.642  28.430  27.645  1.00  0.00     0.031 C 
ATOM     36  C   UNL A   1      37.984  31.949  32.904  1.00  0.00     0.029 A 
ATOM     37  C   UNL A   1      39.206  31.209  33.196  1.00  0.00     0.049 A 
ATOM     38  H   UNL A   1      40.268  29.957  31.916  1.00  0.00     0.167 HD
ATOM     39  C   UNL A   1      42.377  27.369  29.063  1.00  0.00     0.037 A 
ATOM     40  C   UNL A   1      39.856  31.206  34.375  1.00  0.00     0.037 A 
ATOM     41  C   UNL A   1      43.036  27.159  30.322  1.00  0.00     0.049 A 
ATOM     42  C   UNL A   1      41.035  30.289  34.544  1.00  0.00     0.074 A 
ATOM     43  C   UNL A   1      44.110  26.338  30.614  1.00  0.00     0.029 A 
ATOM     44  N   UNL A   1      42.696  27.811  31.498  1.00  0.00    -0.354 N 
ATOM     45  N   UNL A   1      41.617  29.521  33.654  1.00  0.00    -0.248 NA
ATOM     46  C   UNL A   1      41.616  30.199  35.889  1.00  0.00     0.031 C 
ATOM     47  C   UNL A   1      44.410  26.483  31.975  1.00  0.00     0.029 A 
ATOM     48  C   UNL A   1      43.539  27.413  32.520  1.00  0.00     0.049 A 
ATOM     49  H   UNL A   1      41.962  28.461  31.592  1.00  0.00     0.167 HD
ATOM     50  C   UNL A   1      42.620  28.845  34.333  1.00  0.00     0.074 A 
ATOM     51  C   UNL A   1      42.590  29.320  35.702  1.00  0.00     0.031 C 
ATOM     52  C   UNL A   1      43.477  27.902  33.873  1.00  0.00     0.037 A 
BRANCH  39  53
ATOM     53  C   UNL A   1      42.861  26.632  27.855  1.00  0.00     0.057 A 
ATOM     54  C   UNL A   1      43.784  27.183  26.960  1.00  0.00     0.134 A 
ATOM     55  C   UNL A   1      42.381  25.345  27.584  1.00  0.00     0.134 A 
ATOM     56  F   UNL A   1      44.259  28.424  27.150  1.00  0.00    -0.206 F 
ATOM     57  C   UNL A   1      44.201  26.483  25.825  1.00  0.00     0.040 A 
ATOM     58  C   UNL A   1      42.804  24.628  26.465  1.00  0.00     0.040 A 
ATOM     59  F   UNL A   1      41.489  24.765  28.401  1.00  0.00    -0.206 F 
ATOM     60  C   UNL A   1      43.714  25.200  25.578  1.00  0.00     0.006 A 
ENDBRANCH  39  53
BRANCH  40  61
ATOM     61  C   UNL A   1      39.354  32.024  35.505  1.00  0.00     0.057 A 
ATOM     62  C   UNL A   1      39.796  33.336  35.703  1.00  0.00     0.134 A 
ATOM     63  C   UNL A   1      38.418  31.515  36.415  1.00  0.00     0.134 A 
ATOM     64  F   UNL A   1      40.712  33.871  34.883  1.00  0.00    -0.206 F 
ATOM     65  C   UNL A   1      39.325  34.113  36.763  1.00  0.00     0.040 A 
ATOM     66  C   UNL A   1      37.919  32.288  37.463  1.00  0.00     0.040 A 
ATOM     67  F   UNL A   1      37.960  30.261  36.284  1.00  0.00    -0.206 F 
ATOM     68  C   UNL A   1      38.376  33.591  37.642  1.00  0.00     0.006 A 
ENDBRANCH  40  61
BRANCH  52  69
ATOM     69  C   UNL A   1      44.442  27.329  34.862  1.00  0.00     0.057 A 
ATOM     70  C   UNL A   1      45.673  27.945  35.116  1.00  0.00     0.134 A 
ATOM     71  C   UNL A   1      44.124  26.177  35.589  1.00  0.00     0.134 A 
ATOM     72  F   UNL A   1      46.036  29.046  34.438  1.00  0.00    -0.206 F 
ATOM     73  C   UNL A   1      46.563  27.427  36.055  1.00  0.00     0.040 A 
ATOM     74  C   UNL A   1      45.000  25.658  36.542  1.00  0.00     0.040 A 
ATOM     75  F   UNL A   1      42.957  25.547  35.390  1.00  0.00    -0.206 F 
ATOM     76  C   UNL A   1      46.224  26.282  36.775  1.00  0.00     0.006 A 
ENDBRANCH  52  69
ENDBRANCH  26  27
ENDBRANCH  19  21
ENDBRANCH  18  19
ENDBRANCH  17  18
ENDBRANCH   1  17
TORSDOF 14
ENDMDL
