MODEL 1
REMARK VINA RESULT:     -12.7      0.000      0.000
REMARK SMILES CCN1C(=O)C[C@@H](C(=O)Nc2ccc(C(=O)OCCOC(=O)c3ccc(-c4c5nc(c(-c6c(F)cccc6F)c6ccc([nH]6)c(-c6c(F)cccc6F)c6nc(c(-c7c(F)cccc7F)c7ccc4[nH]7)C=C6)C=C5)cc3)cc2)S/C1=[NH+]\c1ccccc1
REMARK SMILES IDX 18 1 17 2 15 3 16 4 14 5 11 6 12 7 78 8 13 9 77 10 10 11
REMARK SMILES IDX 8 12 9 13 7 15 3 16 4 17 80 18 5 19 6 20 79 21 81 22 2 24
REMARK SMILES IDX 1 25 82 26 83 27 87 28 84 29 86 30 85 31 19 32 20 33 21 34
REMARK SMILES IDX 22 35 23 36 24 37 76 38 25 39 75 40 26 41 27 42 28 43 69 44
REMARK SMILES IDX 29 45 74 46 68 47 70 48 30 49 73 50 67 51 66 52 31 54 57 55
REMARK SMILES IDX 40 56 56 57 41 58 44 59 55 60 71 61 42 62 43 63 54 65 72 66
REMARK SMILES IDX 45 67 32 68 33 69 38 70 34 71 35 72 37 73 39 74 36 75 58 76
REMARK SMILES IDX 59 77 64 78 60 79 61 80 63 81 65 82 62 83 46 84 47 85 52 86
REMARK SMILES IDX 48 87 49 88 51 89 53 90 50 91
REMARK H PARENT 10 14 81 23 70 53 44 64
REMARK Flexibility Score: inf
ROOT
ATOM      1  C   UNL A   1      42.729  21.030  25.997  1.00  0.00     0.275 C 
ENDROOT
BRANCH   1   2
ATOM      2  O   UNL A   1      41.552  21.803  26.325  1.00  0.00    -0.458 OA
BRANCH   2   3
ATOM      3  C   UNL A   1      40.438  21.080  26.592  1.00  0.00     0.338 C 
ATOM      4  O   UNL A   1      40.384  20.032  27.209  1.00  0.00    -0.246 OA
BRANCH   3   5
ATOM      5  C   UNL A   1      39.215  21.755  26.091  1.00  0.00     0.060 A 
ATOM      6  C   UNL A   1      37.073  23.017  24.817  1.00  0.00     0.041 A 
ATOM      7  C   UNL A   1      37.293  21.663  24.602  1.00  0.00     0.027 A 
ATOM      8  C   UNL A   1      37.837  23.709  25.758  1.00  0.00     0.027 A 
ATOM      9  C   UNL A   1      38.401  21.060  25.186  1.00  0.00     0.018 A 
ATOM     10  C   UNL A   1      38.903  23.075  26.412  1.00  0.00     0.018 A 
BRANCH   6  11
ATOM     11  N   UNL A   1      36.110  23.630  24.021  1.00  0.00    -0.325 N 
ATOM     12  C   UNL A   1      34.846  24.049  24.329  1.00  0.00     0.238 C 
ATOM     13  O   UNL A   1      34.211  24.582  23.409  1.00  0.00    -0.273 OA
ATOM     14  H   UNL A   1      36.381  23.786  23.087  1.00  0.00     0.169 HD
BRANCH  12  15
ATOM     15  C   UNL A   1      34.225  23.988  25.733  1.00  0.00     0.160 C 
ATOM     16  N   UNL A   1      31.463  23.896  26.817  1.00  0.00    -0.191 N 
ATOM     17  C   UNL A   1      32.433  22.972  27.159  1.00  0.00     0.311 C 
ATOM     18  C   UNL A   1      31.792  25.192  26.423  1.00  0.00     0.319 C 
ATOM     19  O   UNL A   1      32.448  22.322  28.202  1.00  0.00    -0.247 OA
ATOM     20  C   UNL A   1      33.456  22.740  26.086  1.00  0.00     0.153 C 
ATOM     21  S   UNL A   1      33.487  25.565  26.171  1.00  0.00    -0.024 SA
ATOM     22  N   UNL A   1      30.849  26.079  26.289  1.00  0.00    -0.235 N 
ATOM     23  H   UNL A   1      29.909  25.818  26.431  1.00  0.00     0.313 HD
BRANCH  16  24
ATOM     24  C   UNL A   1      30.060  23.628  27.158  1.00  0.00     0.243 C 
ATOM     25  C   UNL A   1      29.486  22.283  26.724  1.00  0.00     0.054 C 
ENDBRANCH  16  24
BRANCH  22  26
ATOM     26  C   UNL A   1      31.158  27.407  25.945  1.00  0.00     0.125 A 
ATOM     27  C   UNL A   1      31.016  27.870  24.631  1.00  0.00     0.051 A 
ATOM     28  C   UNL A   1      31.596  28.293  26.933  1.00  0.00     0.051 A 
ATOM     29  C   UNL A   1      31.211  29.220  24.331  1.00  0.00     0.004 A 
ATOM     30  C   UNL A   1      31.802  29.640  26.634  1.00  0.00     0.004 A 
ATOM     31  C   UNL A   1      31.591  30.107  25.338  1.00  0.00     0.000 A 
ENDBRANCH  22  26
ENDBRANCH  12  15
ENDBRANCH   6  11
ENDBRANCH   3   5
ENDBRANCH   2   3
ENDBRANCH   1   2
BRANCH   1  32
ATOM     32  C   UNL A   1      43.758  21.868  25.234  1.00  0.00     0.275 C 
BRANCH  32  33
ATOM     33  O   UNL A   1      43.148  23.045  24.666  1.00  0.00    -0.458 OA
BRANCH  33  34
ATOM     34  C   UNL A   1      43.800  24.199  24.922  1.00  0.00     0.338 C 
ATOM     35  O   UNL A   1      44.898  24.540  24.508  1.00  0.00    -0.246 OA
BRANCH  34  36
ATOM     36  C   UNL A   1      42.965  25.117  25.710  1.00  0.00     0.060 A 
ATOM     37  C   UNL A   1      43.364  26.443  25.772  1.00  0.00     0.016 A 
ATOM     38  C   UNL A   1      42.001  24.643  26.595  1.00  0.00     0.016 A 
ATOM     39  C   UNL A   1      42.963  27.245  26.835  1.00  0.00     0.010 A 
ATOM     40  C   UNL A   1      41.473  25.508  27.567  1.00  0.00     0.010 A 
ATOM     41  C   UNL A   1      42.001  26.800  27.751  1.00  0.00    -0.014 A 
BRANCH  41  42
ATOM     42  C   UNL A   1      41.611  27.662  28.914  1.00  0.00     0.031 A 
ATOM     43  C   UNL A   1      42.423  27.650  30.192  1.00  0.00     0.074 A 
ATOM     44  C   UNL A   1      40.553  28.498  28.827  1.00  0.00     0.049 A 
ATOM     45  N   UNL A   1      42.157  28.206  31.350  1.00  0.00    -0.248 NA
ATOM     46  C   UNL A   1      43.689  26.900  30.175  1.00  0.00     0.031 C 
ATOM     47  C   UNL A   1      39.689  28.661  27.656  1.00  0.00     0.029 A 
ATOM     48  N   UNL A   1      40.030  29.387  29.739  1.00  0.00    -0.354 N 
ATOM     49  C   UNL A   1      43.180  27.817  32.209  1.00  0.00     0.074 A 
ATOM     50  C   UNL A   1      44.067  26.968  31.443  1.00  0.00     0.031 C 
ATOM     51  C   UNL A   1      38.792  29.626  27.893  1.00  0.00     0.029 A 
ATOM     52  C   UNL A   1      38.933  30.073  29.272  1.00  0.00     0.049 A 
ATOM     53  H   UNL A   1      40.405  29.518  30.639  1.00  0.00     0.167 HD
ATOM     54  C   UNL A   1      43.370  28.139  33.512  1.00  0.00     0.037 A 
ATOM     55  C   UNL A   1      38.094  30.927  29.889  1.00  0.00     0.037 A 
ATOM     56  C   UNL A   1      42.527  29.040  34.258  1.00  0.00     0.049 A 
ATOM     57  C   UNL A   1      38.305  31.243  31.341  1.00  0.00     0.074 A 
ATOM     58  C   UNL A   1      42.658  29.452  35.574  1.00  0.00     0.029 A 
ATOM     59  N   UNL A   1      41.408  29.682  33.750  1.00  0.00    -0.354 N 
ATOM     60  N   UNL A   1      39.254  30.831  32.146  1.00  0.00    -0.248 NA
ATOM     61  C   UNL A   1      37.317  32.126  31.975  1.00  0.00     0.031 C 
ATOM     62  C   UNL A   1      41.590  30.303  35.877  1.00  0.00     0.029 A 
ATOM     63  C   UNL A   1      40.827  30.469  34.732  1.00  0.00     0.049 A 
ATOM     64  H   UNL A   1      41.075  29.591  32.828  1.00  0.00     0.167 HD
ATOM     65  C   UNL A   1      38.985  31.417  33.376  1.00  0.00     0.074 A 
ATOM     66  C   UNL A   1      37.803  32.235  33.202  1.00  0.00     0.031 C 
ATOM     67  C   UNL A   1      39.653  31.282  34.548  1.00  0.00     0.037 A 
BRANCH  54  68
ATOM     68  C   UNL A   1      44.518  27.491  34.237  1.00  0.00     0.057 A 
ATOM     69  C   UNL A   1      44.409  26.239  34.855  1.00  0.00     0.134 A 
ATOM     70  C   UNL A   1      45.774  28.117  34.272  1.00  0.00     0.134 A 
ATOM     71  F   UNL A   1      43.235  25.589  34.868  1.00  0.00    -0.206 F 
ATOM     72  C   UNL A   1      45.496  25.645  35.501  1.00  0.00     0.040 A 
ATOM     73  C   UNL A   1      46.875  27.519  34.889  1.00  0.00     0.040 A 
ATOM     74  F   UNL A   1      45.956  29.312  33.691  1.00  0.00    -0.206 F 
ATOM     75  C   UNL A   1      46.735  26.283  35.513  1.00  0.00     0.006 A 
ENDBRANCH  54  68
BRANCH  55  76
ATOM     76  C   UNL A   1      36.936  31.501  29.151  1.00  0.00     0.057 A 
ATOM     77  C   UNL A   1      35.785  30.746  28.903  1.00  0.00     0.134 A 
ATOM     78  C   UNL A   1      36.961  32.814  28.661  1.00  0.00     0.134 A 
ATOM     79  F   UNL A   1      35.708  29.474  29.323  1.00  0.00    -0.206 F 
ATOM     80  C   UNL A   1      34.709  31.267  28.182  1.00  0.00     0.040 A 
ATOM     81  C   UNL A   1      35.879  33.360  27.971  1.00  0.00     0.040 A 
ATOM     82  F   UNL A   1      38.033  33.594  28.866  1.00  0.00    -0.206 F 
ATOM     83  C   UNL A   1      34.751  32.582  27.720  1.00  0.00     0.006 A 
ENDBRANCH  55  76
BRANCH  67  84
ATOM     84  C   UNL A   1      39.139  32.068  35.720  1.00  0.00     0.057 A 
ATOM     85  C   UNL A   1      38.280  31.502  36.672  1.00  0.00     0.134 A 
ATOM     86  C   UNL A   1      39.515  33.404  35.902  1.00  0.00     0.134 A 
ATOM     87  F   UNL A   1      37.868  30.231  36.546  1.00  0.00    -0.206 F 
ATOM     88  C   UNL A   1      37.787  32.248  37.743  1.00  0.00     0.040 A 
ATOM     89  C   UNL A   1      39.055  34.151  36.987  1.00  0.00     0.040 A 
ATOM     90  F   UNL A   1      40.342  34.004  35.033  1.00  0.00    -0.206 F 
ATOM     91  C   UNL A   1      38.180  33.576  37.906  1.00  0.00     0.006 A 
ENDBRANCH  67  84
ENDBRANCH  41  42
ENDBRANCH  34  36
ENDBRANCH  33  34
ENDBRANCH  32  33
ENDBRANCH   1  32
TORSDOF 15
ENDMDL
MODEL 2
REMARK VINA RESULT:     -12.1      4.505      6.757
REMARK SMILES CCN1C(=O)C[C@@H](C(=O)Nc2ccc(C(=O)OCCOC(=O)c3ccc(-c4c5nc(c(-c6c(F)cccc6F)c6ccc([nH]6)c(-c6c(F)cccc6F)c6nc(c(-c7c(F)cccc7F)c7ccc4[nH]7)C=C6)C=C5)cc3)cc2)S/C1=[NH+]\c1ccccc1
REMARK SMILES IDX 18 1 17 2 15 3 16 4 14 5 11 6 12 7 78 8 13 9 77 10 10 11
REMARK SMILES IDX 8 12 9 13 7 15 3 16 4 17 80 18 5 19 6 20 79 21 81 22 2 24
REMARK SMILES IDX 1 25 82 26 83 27 87 28 84 29 86 30 85 31 19 32 20 33 21 34
REMARK SMILES IDX 22 35 23 36 24 37 76 38 25 39 75 40 26 41 27 42 28 43 69 44
REMARK SMILES IDX 29 45 74 46 68 47 70 48 30 49 73 50 67 51 66 52 31 54 57 55
REMARK SMILES IDX 40 56 56 57 41 58 44 59 55 60 71 61 42 62 43 63 54 65 72 66
REMARK SMILES IDX 45 67 32 68 33 69 38 70 34 71 35 72 37 73 39 74 36 75 58 76
REMARK SMILES IDX 59 77 64 78 60 79 61 80 63 81 65 82 62 83 46 84 47 85 52 86
REMARK SMILES IDX 48 87 49 88 51 89 53 90 50 91
REMARK H PARENT 10 14 81 23 70 53 44 64
REMARK Flexibility Score: inf
ROOT
ATOM      1  C   UNL A   1      41.935  19.825  27.132  1.00  0.00     0.275 C 
ENDROOT
BRANCH   1   2
ATOM      2  O   UNL A   1      41.616  21.084  26.498  1.00  0.00    -0.458 OA
BRANCH   2   3
ATOM      3  C   UNL A   1      40.946  21.971  27.271  1.00  0.00     0.338 C 
ATOM      4  O   UNL A   1      41.321  22.437  28.332  1.00  0.00    -0.246 OA
BRANCH   3   5
ATOM      5  C   UNL A   1      39.673  22.397  26.639  1.00  0.00     0.060 A 
ATOM      6  C   UNL A   1      37.458  23.187  25.131  1.00  0.00     0.041 A 
ATOM      7  C   UNL A   1      37.897  21.872  25.061  1.00  0.00     0.027 A 
ATOM      8  C   UNL A   1      38.039  24.071  26.040  1.00  0.00     0.027 A 
ATOM      9  C   UNL A   1      39.041  21.505  25.762  1.00  0.00     0.018 A 
ATOM     10  C   UNL A   1      39.141  23.674  26.812  1.00  0.00     0.018 A 
BRANCH   6  11
ATOM     11  N   UNL A   1      36.471  23.568  24.225  1.00  0.00    -0.325 N 
ATOM     12  C   UNL A   1      35.153  23.861  24.430  1.00  0.00     0.238 C 
ATOM     13  O   UNL A   1      34.507  24.187  23.425  1.00  0.00    -0.273 OA
ATOM     14  H   UNL A   1      36.771  23.636  23.290  1.00  0.00     0.169 HD
BRANCH  12  15
ATOM     15  C   UNL A   1      34.470  23.901  25.806  1.00  0.00     0.160 C 
ATOM     16  N   UNL A   1      31.666  23.811  26.776  1.00  0.00    -0.191 N 
ATOM     17  C   UNL A   1      32.647  22.953  27.239  1.00  0.00     0.311 C 
ATOM     18  C   UNL A   1      31.974  25.078  26.283  1.00  0.00     0.319 C 
ATOM     19  O   UNL A   1      32.633  22.398  28.334  1.00  0.00    -0.247 OA
ATOM     20  C   UNL A   1      33.723  22.663  26.235  1.00  0.00     0.153 C 
ATOM     21  S   UNL A   1      33.667  25.484  26.071  1.00  0.00    -0.024 SA
ATOM     22  N   UNL A   1      31.012  25.918  26.031  1.00  0.00    -0.235 N 
ATOM     23  H   UNL A   1      30.076  25.640  26.156  1.00  0.00     0.313 HD
BRANCH  16  24
ATOM     24  C   UNL A   1      30.258  23.527  27.079  1.00  0.00     0.243 C 
ATOM     25  C   UNL A   1      29.701  22.192  26.596  1.00  0.00     0.054 C 
ENDBRANCH  16  24
BRANCH  22  26
ATOM     26  C   UNL A   1      31.298  27.221  25.585  1.00  0.00     0.125 A 
ATOM     27  C   UNL A   1      31.562  28.258  26.487  1.00  0.00     0.051 A 
ATOM     28  C   UNL A   1      31.341  27.487  24.214  1.00  0.00     0.051 A 
ATOM     29  C   UNL A   1      31.962  29.514  26.026  1.00  0.00     0.004 A 
ATOM     30  C   UNL A   1      31.731  28.744  23.749  1.00  0.00     0.004 A 
ATOM     31  C   UNL A   1      32.059  29.752  24.655  1.00  0.00     0.000 A 
ENDBRANCH  22  26
ENDBRANCH  12  15
ENDBRANCH   6  11
ENDBRANCH   3   5
ENDBRANCH   2   3
ENDBRANCH   1   2
BRANCH   1  32
ATOM     32  C   UNL A   1      42.509  18.820  26.131  1.00  0.00     0.275 C 
BRANCH  32  33
ATOM     33  O   UNL A   1      42.870  19.469  24.895  1.00  0.00    -0.458 OA
BRANCH  33  34
ATOM     34  C   UNL A   1      44.189  19.441  24.605  1.00  0.00     0.338 C 
ATOM     35  O   UNL A   1      44.844  18.485  24.217  1.00  0.00    -0.246 OA
BRANCH  34  36
ATOM     36  C   UNL A   1      44.781  20.783  24.700  1.00  0.00     0.060 A 
ATOM     37  C   UNL A   1      45.479  21.087  25.858  1.00  0.00     0.016 A 
ATOM     38  C   UNL A   1      44.416  21.801  23.824  1.00  0.00     0.016 A 
ATOM     39  C   UNL A   1      45.637  22.411  26.252  1.00  0.00     0.010 A 
ATOM     40  C   UNL A   1      44.728  23.132  24.147  1.00  0.00     0.010 A 
ATOM     41  C   UNL A   1      45.274  23.465  25.402  1.00  0.00    -0.014 A 
BRANCH  41  42
ATOM     42  C   UNL A   1      45.414  24.885  25.858  1.00  0.00     0.031 A 
ATOM     43  C   UNL A   1      46.733  25.616  25.720  1.00  0.00     0.074 A 
ATOM     44  C   UNL A   1      44.353  25.555  26.361  1.00  0.00     0.049 A 
ATOM     45  N   UNL A   1      47.088  26.787  26.194  1.00  0.00    -0.248 NA
ATOM     46  C   UNL A   1      47.801  24.936  24.970  1.00  0.00     0.031 C 
ATOM     47  C   UNL A   1      43.002  25.012  26.526  1.00  0.00     0.029 A 
ATOM     48  N   UNL A   1      44.237  26.850  26.813  1.00  0.00    -0.354 N 
ATOM     49  C   UNL A   1      48.428  26.948  25.859  1.00  0.00     0.074 A 
ATOM     50  C   UNL A   1      48.829  25.751  25.152  1.00  0.00     0.031 C 
ATOM     51  C   UNL A   1      42.187  25.973  26.978  1.00  0.00     0.029 A 
ATOM     52  C   UNL A   1      42.972  27.169  27.251  1.00  0.00     0.049 A 
ATOM     53  H   UNL A   1      44.987  27.487  26.821  1.00  0.00     0.167 HD
ATOM     54  C   UNL A   1      49.251  27.996  26.111  1.00  0.00     0.037 A 
ATOM     55  C   UNL A   1      42.497  28.275  27.855  1.00  0.00     0.037 A 
ATOM     56  C   UNL A   1      48.837  29.219  26.752  1.00  0.00     0.049 A 
ATOM     57  C   UNL A   1      43.434  29.409  28.152  1.00  0.00     0.074 A 
ATOM     58  C   UNL A   1      49.591  30.349  27.022  1.00  0.00     0.029 A 
ATOM     59  N   UNL A   1      47.555  29.479  27.209  1.00  0.00    -0.354 N 
ATOM     60  N   UNL A   1      44.708  29.525  27.866  1.00  0.00    -0.248 NA
ATOM     61  C   UNL A   1      42.872  30.558  28.874  1.00  0.00     0.031 C 
ATOM     62  C   UNL A   1      48.778  31.273  27.686  1.00  0.00     0.029 A 
ATOM     63  C   UNL A   1      47.502  30.742  27.778  1.00  0.00     0.049 A 
ATOM     64  H   UNL A   1      46.794  28.858  27.140  1.00  0.00     0.167 HD
ATOM     65  C   UNL A   1      45.094  30.764  28.360  1.00  0.00     0.074 A 
ATOM     66  C   UNL A   1      43.914  31.373  28.936  1.00  0.00     0.031 C 
ATOM     67  C   UNL A   1      46.321  31.341  28.345  1.00  0.00     0.037 A 
BRANCH  54  68
ATOM     68  C   UNL A   1      50.698  27.863  25.721  1.00  0.00     0.057 A 
ATOM     69  C   UNL A   1      51.148  28.075  24.412  1.00  0.00     0.134 A 
ATOM     70  C   UNL A   1      51.666  27.564  26.692  1.00  0.00     0.134 A 
ATOM     71  F   UNL A   1      50.276  28.355  23.432  1.00  0.00    -0.206 F 
ATOM     72  C   UNL A   1      52.501  27.970  24.078  1.00  0.00     0.040 A 
ATOM     73  C   UNL A   1      53.024  27.485  26.376  1.00  0.00     0.040 A 
ATOM     74  F   UNL A   1      51.309  27.360  27.969  1.00  0.00    -0.206 F 
ATOM     75  C   UNL A   1      53.443  27.681  25.063  1.00  0.00     0.006 A 
ENDBRANCH  54  68
BRANCH  55  76
ATOM     76  C   UNL A   1      41.071  28.342  28.276  1.00  0.00     0.057 A 
ATOM     77  C   UNL A   1      40.076  28.798  27.403  1.00  0.00     0.134 A 
ATOM     78  C   UNL A   1      40.672  27.966  29.565  1.00  0.00     0.134 A 
ATOM     79  F   UNL A   1      40.396  29.196  26.163  1.00  0.00    -0.206 F 
ATOM     80  C   UNL A   1      38.742  28.895  27.802  1.00  0.00     0.040 A 
ATOM     81  C   UNL A   1      39.336  28.024  29.965  1.00  0.00     0.040 A 
ATOM     82  F   UNL A   1      41.574  27.518  30.450  1.00  0.00    -0.206 F 
ATOM     83  C   UNL A   1      38.368  28.499  29.085  1.00  0.00     0.006 A 
ENDBRANCH  55  76
BRANCH  67  84
ATOM     84  C   UNL A   1      46.433  32.716  28.937  1.00  0.00     0.057 A 
ATOM     85  C   UNL A   1      46.766  32.919  30.283  1.00  0.00     0.134 A 
ATOM     86  C   UNL A   1      46.214  33.852  28.148  1.00  0.00     0.134 A 
ATOM     87  F   UNL A   1      46.972  31.872  31.097  1.00  0.00    -0.206 F 
ATOM     88  C   UNL A   1      46.843  34.200  30.830  1.00  0.00     0.040 A 
ATOM     89  C   UNL A   1      46.319  35.139  28.676  1.00  0.00     0.040 A 
ATOM     90  F   UNL A   1      45.901  33.730  26.849  1.00  0.00    -0.206 F 
ATOM     91  C   UNL A   1      46.625  35.316  30.023  1.00  0.00     0.006 A 
ENDBRANCH  67  84
ENDBRANCH  41  42
ENDBRANCH  34  36
ENDBRANCH  33  34
ENDBRANCH  32  33
ENDBRANCH   1  32
TORSDOF 15
ENDMDL
MODEL 3
REMARK VINA RESULT:     -11.9      0.508      5.900
REMARK SMILES CCN1C(=O)C[C@@H](C(=O)Nc2ccc(C(=O)OCCOC(=O)c3ccc(-c4c5nc(c(-c6c(F)cccc6F)c6ccc([nH]6)c(-c6c(F)cccc6F)c6nc(c(-c7c(F)cccc7F)c7ccc4[nH]7)C=C6)C=C5)cc3)cc2)S/C1=[NH+]\c1ccccc1
REMARK SMILES IDX 18 1 17 2 15 3 16 4 14 5 11 6 12 7 78 8 13 9 77 10 10 11
REMARK SMILES IDX 8 12 9 13 7 15 3 16 4 17 80 18 5 19 6 20 79 21 81 22 2 24
REMARK SMILES IDX 1 25 82 26 83 27 87 28 84 29 86 30 85 31 19 32 20 33 21 34
REMARK SMILES IDX 22 35 23 36 24 37 76 38 25 39 75 40 26 41 27 42 28 43 69 44
REMARK SMILES IDX 29 45 74 46 68 47 70 48 30 49 73 50 67 51 66 52 31 54 57 55
REMARK SMILES IDX 40 56 56 57 41 58 44 59 55 60 71 61 42 62 43 63 54 65 72 66
REMARK SMILES IDX 45 67 32 68 33 69 38 70 34 71 35 72 37 73 39 74 36 75 58 76
REMARK SMILES IDX 59 77 64 78 60 79 61 80 63 81 65 82 62 83 46 84 47 85 52 86
REMARK SMILES IDX 48 87 49 88 51 89 53 90 50 91
REMARK H PARENT 10 14 81 23 70 53 44 64
REMARK Flexibility Score: inf
ROOT
ATOM      1  C   UNL A   1      42.546  21.272  26.045  1.00  0.00     0.275 C 
ENDROOT
BRANCH   1   2
ATOM      2  O   UNL A   1      41.302  21.549  26.725  1.00  0.00    -0.458 OA
BRANCH   2   3
ATOM      3  C   UNL A   1      40.260  20.756  26.377  1.00  0.00     0.338 C 
ATOM      4  O   UNL A   1      40.214  19.542  26.456  1.00  0.00    -0.246 OA
BRANCH   3   5
ATOM      5  C   UNL A   1      39.092  21.553  25.927  1.00  0.00     0.060 A 
ATOM      6  C   UNL A   1      37.031  23.019  24.741  1.00  0.00     0.041 A 
ATOM      7  C   UNL A   1      37.085  21.644  24.554  1.00  0.00     0.027 A 
ATOM      8  C   UNL A   1      37.923  23.642  25.614  1.00  0.00     0.027 A 
ATOM      9  C   UNL A   1      38.153  20.934  25.091  1.00  0.00     0.018 A 
ATOM     10  C   UNL A   1      38.949  22.907  26.225  1.00  0.00     0.018 A 
BRANCH   6  11
ATOM     11  N   UNL A   1      36.096  23.719  23.982  1.00  0.00    -0.325 N 
ATOM     12  C   UNL A   1      34.855  24.180  24.319  1.00  0.00     0.238 C 
ATOM     13  O   UNL A   1      34.243  24.790  23.432  1.00  0.00    -0.273 OA
ATOM     14  H   UNL A   1      36.372  23.911  23.057  1.00  0.00     0.169 HD
BRANCH  12  15
ATOM     15  C   UNL A   1      34.234  24.073  25.721  1.00  0.00     0.160 C 
ATOM     16  N   UNL A   1      31.473  23.967  26.805  1.00  0.00    -0.191 N 
ATOM     17  C   UNL A   1      32.435  23.022  27.111  1.00  0.00     0.311 C 
ATOM     18  C   UNL A   1      31.813  25.273  26.457  1.00  0.00     0.319 C 
ATOM     19  O   UNL A   1      32.445  22.335  28.129  1.00  0.00    -0.247 OA
ATOM     20  C   UNL A   1      33.454  22.820  26.029  1.00  0.00     0.153 C 
ATOM     21  S   UNL A   1      33.511  25.639  26.217  1.00  0.00    -0.024 SA
ATOM     22  N   UNL A   1      30.878  26.173  26.358  1.00  0.00    -0.235 N 
ATOM     23  H   UNL A   1      29.937  25.916  26.491  1.00  0.00     0.313 HD
BRANCH  16  24
ATOM     24  C   UNL A   1      30.068  23.699  27.138  1.00  0.00     0.243 C 
ATOM     25  C   UNL A   1      29.495  22.356  26.696  1.00  0.00     0.054 C 
ENDBRANCH  16  24
BRANCH  22  26
ATOM     26  C   UNL A   1      31.199  27.510  26.061  1.00  0.00     0.125 A 
ATOM     27  C   UNL A   1      31.106  28.009  24.757  1.00  0.00     0.051 A 
ATOM     28  C   UNL A   1      31.599  28.368  27.089  1.00  0.00     0.051 A 
ATOM     29  C   UNL A   1      31.311  29.367  24.501  1.00  0.00     0.004 A 
ATOM     30  C   UNL A   1      31.815  29.723  26.835  1.00  0.00     0.004 A 
ATOM     31  C   UNL A   1      31.653  30.226  25.545  1.00  0.00     0.000 A 
ENDBRANCH  22  26
ENDBRANCH  12  15
ENDBRANCH   6  11
ENDBRANCH   3   5
ENDBRANCH   2   3
ENDBRANCH   1   2
BRANCH   1  32
ATOM     32  C   UNL A   1      43.481  22.484  26.067  1.00  0.00     0.275 C 
BRANCH  32  33
ATOM     33  O   UNL A   1      43.138  23.421  25.026  1.00  0.00    -0.458 OA
BRANCH  33  34
ATOM     34  C   UNL A   1      43.732  24.630  25.136  1.00  0.00     0.338 C 
ATOM     35  O   UNL A   1      44.754  25.008  24.584  1.00  0.00    -0.246 OA
BRANCH  34  36
ATOM     36  C   UNL A   1      42.921  25.547  25.950  1.00  0.00     0.060 A 
ATOM     37  C   UNL A   1      43.460  26.793  26.228  1.00  0.00     0.016 A 
ATOM     38  C   UNL A   1      41.812  25.099  26.661  1.00  0.00     0.016 A 
ATOM     39  C   UNL A   1      43.033  27.507  27.342  1.00  0.00     0.010 A 
ATOM     40  C   UNL A   1      41.277  25.902  27.681  1.00  0.00     0.010 A 
ATOM     41  C   UNL A   1      41.925  27.084  28.089  1.00  0.00    -0.014 A 
BRANCH  41  42
ATOM     42  C   UNL A   1      41.503  27.843  29.310  1.00  0.00     0.031 A 
ATOM     43  C   UNL A   1      40.273  28.726  29.285  1.00  0.00     0.074 A 
ATOM     44  C   UNL A   1      42.186  27.718  30.470  1.00  0.00     0.049 A 
ATOM     45  N   UNL A   1      39.841  29.574  30.188  1.00  0.00    -0.248 NA
ATOM     46  C   UNL A   1      39.430  28.667  28.080  1.00  0.00     0.031 C 
ATOM     47  C   UNL A   1      43.369  26.879  30.676  1.00  0.00     0.029 A 
ATOM     48  N   UNL A   1      41.975  28.286  31.705  1.00  0.00    -0.354 N 
ATOM     49  C   UNL A   1      38.723  30.191  29.634  1.00  0.00     0.074 A 
ATOM     50  C   UNL A   1      38.550  29.630  28.311  1.00  0.00     0.031 C 
ATOM     51  C   UNL A   1      43.739  26.937  31.961  1.00  0.00     0.029 A 
ATOM     52  C   UNL A   1      42.899  27.906  32.651  1.00  0.00     0.049 A 
ATOM     53  H   UNL A   1      41.234  28.906  31.893  1.00  0.00     0.167 HD
ATOM     54  C   UNL A   1      37.913  31.133  30.175  1.00  0.00     0.037 A 
ATOM     55  C   UNL A   1      43.092  28.322  33.918  1.00  0.00     0.037 A 
ATOM     56  C   UNL A   1      38.040  31.642  31.518  1.00  0.00     0.049 A 
ATOM     57  C   UNL A   1      42.201  29.389  34.483  1.00  0.00     0.074 A 
ATOM     58  C   UNL A   1      37.247  32.575  32.165  1.00  0.00     0.029 A 
ATOM     59  N   UNL A   1      39.013  31.251  32.424  1.00  0.00    -0.354 N 
ATOM     60  N   UNL A   1      41.178  29.991  33.929  1.00  0.00    -0.248 NA
ATOM     61  C   UNL A   1      42.506  29.850  35.845  1.00  0.00     0.031 C 
ATOM     62  C   UNL A   1      37.769  32.784  33.446  1.00  0.00     0.029 A 
ATOM     63  C   UNL A   1      38.853  31.938  33.617  1.00  0.00     0.049 A 
ATOM     64  H   UNL A   1      39.715  30.583  32.247  1.00  0.00     0.167 HD
ATOM     65  C   UNL A   1      40.708  30.888  34.878  1.00  0.00     0.074 A 
ATOM     66  C   UNL A   1      41.540  30.731  36.053  1.00  0.00     0.031 C 
ATOM     67  C   UNL A   1      39.684  31.771  34.782  1.00  0.00     0.037 A 
BRANCH  54  68
ATOM     68  C   UNL A   1      36.824  31.706  29.308  1.00  0.00     0.057 A 
ATOM     69  C   UNL A   1      35.631  31.023  29.047  1.00  0.00     0.134 A 
ATOM     70  C   UNL A   1      36.960  32.993  28.764  1.00  0.00     0.134 A 
ATOM     71  F   UNL A   1      35.438  29.785  29.527  1.00  0.00    -0.206 F 
ATOM     72  C   UNL A   1      34.624  31.585  28.258  1.00  0.00     0.040 A 
ATOM     73  C   UNL A   1      35.948  33.577  27.999  1.00  0.00     0.040 A 
ATOM     74  F   UNL A   1      38.072  33.711  28.982  1.00  0.00    -0.206 F 
ATOM     75  C   UNL A   1      34.779  32.868  27.738  1.00  0.00     0.006 A 
ENDBRANCH  54  68
BRANCH  55  76
ATOM     76  C   UNL A   1      44.216  27.770  34.721  1.00  0.00     0.057 A 
ATOM     77  C   UNL A   1      44.045  26.641  35.530  1.00  0.00     0.134 A 
ATOM     78  C   UNL A   1      45.484  28.368  34.712  1.00  0.00     0.134 A 
ATOM     79  F   UNL A   1      42.850  26.036  35.603  1.00  0.00    -0.206 F 
ATOM     80  C   UNL A   1      45.086  26.137  36.312  1.00  0.00     0.040 A 
ATOM     81  C   UNL A   1      46.543  27.854  35.461  1.00  0.00     0.040 A 
ATOM     82  F   UNL A   1      45.716  29.451  33.957  1.00  0.00    -0.206 F 
ATOM     83  C   UNL A   1      46.343  26.740  36.273  1.00  0.00     0.006 A 
ENDBRANCH  55  76
BRANCH  67  84
ATOM     84  C   UNL A   1      39.387  32.605  35.995  1.00  0.00     0.057 A 
ATOM     85  C   UNL A   1      38.497  32.176  36.989  1.00  0.00     0.134 A 
ATOM     86  C   UNL A   1      40.004  33.849  36.174  1.00  0.00     0.134 A 
ATOM     87  F   UNL A   1      37.859  31.001  36.869  1.00  0.00    -0.206 F 
ATOM     88  C   UNL A   1      38.208  32.969  38.100  1.00  0.00     0.040 A 
ATOM     89  C   UNL A   1      39.748  34.637  37.296  1.00  0.00     0.040 A 
ATOM     90  F   UNL A   1      40.874  34.315  35.265  1.00  0.00    -0.206 F 
ATOM     91  C   UNL A   1      38.839  34.202  38.259  1.00  0.00     0.006 A 
ENDBRANCH  67  84
ENDBRANCH  41  42
ENDBRANCH  34  36
ENDBRANCH  33  34
ENDBRANCH  32  33
ENDBRANCH   1  32
TORSDOF 15
ENDMDL
