MODEL 1
REMARK VINA RESULT:      -8.5      0.000      0.000
REMARK SMILES CC(C)Cc1ccc([C@H](CF)C(=O)OCCOC(=O)c2ccc(-c3c4nc(c(-c5c(F)cccc5F)c5ccc([nH]5)c(-c5c(F)cccc5F)c5nc(c(-c6c(F)cccc6F)c6ccc3[nH]6)C=C5)C=C4)cc2)cc1
REMARK SMILES IDX 15 1 14 2 12 3 13 4 9 5 8 6 5 7 6 8 75 9 7 10 74 11 4 12
REMARK SMILES IDX 2 13 1 14 3 15 10 16 11 17 16 18 17 19 18 20 19 21 20 22
REMARK SMILES IDX 21 23 73 24 22 25 72 26 23 27 24 28 25 29 66 30 26 31 71 32
REMARK SMILES IDX 65 33 67 34 27 35 70 36 64 37 63 38 28 40 54 41 37 42 53 43
REMARK SMILES IDX 38 44 41 45 52 46 68 47 39 48 40 49 51 51 69 52 42 53 29 54
REMARK SMILES IDX 30 55 35 56 31 57 32 58 34 59 36 60 33 61 55 62 56 63 61 64
REMARK SMILES IDX 57 65 58 66 60 67 62 68 59 69 43 70 44 71 49 72 45 73 46 74
REMARK SMILES IDX 48 75 50 76 47 77
REMARK H PARENT 67 39 41 50
REMARK Flexibility Score: inf
ROOT
ATOM      1  C   UNL A   1      42.601  21.021  26.104  1.00  0.00     0.274 C 
ENDROOT
BRANCH   1   2
ATOM      2  O   UNL A   1      42.657  22.062  25.108  1.00  0.00    -0.462 OA
BRANCH   2   3
ATOM      3  C   UNL A   1      43.555  23.059  25.335  1.00  0.00     0.316 C 
ATOM      4  O   UNL A   1      43.379  24.229  25.008  1.00  0.00    -0.251 OA
BRANCH   3   5
ATOM      5  C   UNL A   1      44.833  22.571  25.994  1.00  0.00     0.160 C 
BRANCH   5   6
ATOM      6  C   UNL A   1      45.165  23.307  27.280  1.00  0.00    -0.031 A 
ATOM      7  C   UNL A   1      45.563  24.867  29.593  1.00  0.00    -0.048 A 
ATOM      8  C   UNL A   1      46.535  24.827  28.587  1.00  0.00     0.004 A 
ATOM      9  C   UNL A   1      44.428  24.061  29.471  1.00  0.00     0.004 A 
ATOM     10  C   UNL A   1      46.345  24.045  27.446  1.00  0.00     0.005 A 
ATOM     11  C   UNL A   1      44.227  23.295  28.325  1.00  0.00     0.005 A 
BRANCH   7  12
ATOM     12  C   UNL A   1      45.694  25.830  30.747  1.00  0.00     0.038 C 
BRANCH  12  13
ATOM     13  C   UNL A   1      44.396  25.936  31.576  1.00  0.00    -0.013 C 
ATOM     14  C   UNL A   1      44.566  25.408  33.006  1.00  0.00     0.008 C 
ATOM     15  C   UNL A   1      43.926  27.391  31.622  1.00  0.00     0.008 C 
ENDBRANCH  12  13
ENDBRANCH   7  12
ENDBRANCH   5   6
BRANCH   5  16
ATOM     16  C   UNL A   1      46.005  22.479  25.029  1.00  0.00     0.234 C 
ATOM     17  F   UNL A   1      46.386  21.174  24.905  1.00  0.00    -0.250 F 
ENDBRANCH   5  16
ENDBRANCH   3   5
ENDBRANCH   2   3
ENDBRANCH   1   2
BRANCH   1  18
ATOM     18  C   UNL A   1      41.161  20.593  26.405  1.00  0.00     0.275 C 
BRANCH  18  19
ATOM     19  O   UNL A   1      40.484  21.534  27.258  1.00  0.00    -0.458 OA
BRANCH  19  20
ATOM     20  C   UNL A   1      39.715  22.444  26.615  1.00  0.00     0.338 C 
ATOM     21  O   UNL A   1      38.719  22.227  25.948  1.00  0.00    -0.246 OA
BRANCH  20  22
ATOM     22  C   UNL A   1      40.163  23.801  26.955  1.00  0.00     0.060 A 
ATOM     23  C   UNL A   1      40.644  24.031  28.246  1.00  0.00     0.016 A 
ATOM     24  C   UNL A   1      40.042  24.849  26.044  1.00  0.00     0.016 A 
ATOM     25  C   UNL A   1      41.020  25.310  28.637  1.00  0.00     0.010 A 
ATOM     26  C   UNL A   1      40.417  26.137  26.437  1.00  0.00     0.010 A 
ATOM     27  C   UNL A   1      40.904  26.372  27.735  1.00  0.00    -0.014 A 
BRANCH  27  28
ATOM     28  C   UNL A   1      41.267  27.741  28.162  1.00  0.00     0.031 A 
ATOM     29  C   UNL A   1      42.704  28.164  28.161  1.00  0.00     0.074 A 
ATOM     30  C   UNL A   1      40.302  28.596  28.543  1.00  0.00     0.049 A 
ATOM     31  N   UNL A   1      43.242  29.262  28.624  1.00  0.00    -0.248 NA
ATOM     32  C   UNL A   1      43.663  27.228  27.556  1.00  0.00     0.031 C 
ATOM     33  C   UNL A   1      38.866  28.314  28.523  1.00  0.00     0.029 A 
ATOM     34  N   UNL A   1      40.387  29.874  29.033  1.00  0.00    -0.354 N 
ATOM     35  C   UNL A   1      44.606  29.139  28.392  1.00  0.00     0.074 A 
ATOM     36  C   UNL A   1      44.814  27.858  27.751  1.00  0.00     0.031 C 
ATOM     37  C   UNL A   1      38.204  29.385  28.989  1.00  0.00     0.029 A 
ATOM     38  C   UNL A   1      39.171  30.403  29.389  1.00  0.00     0.049 A 
ATOM     39  H   UNL A   1      41.236  30.364  29.121  1.00  0.00     0.167 HD
ATOM     40  C   UNL A   1      45.590  30.018  28.695  1.00  0.00     0.037 A 
ATOM     41  C   UNL A   1      38.878  31.562  30.007  1.00  0.00     0.037 A 
ATOM     42  C   UNL A   1      45.370  31.296  29.319  1.00  0.00     0.049 A 
ATOM     43  C   UNL A   1      39.996  32.484  30.402  1.00  0.00     0.074 A 
ATOM     44  C   UNL A   1      46.299  32.264  29.654  1.00  0.00     0.029 A 
ATOM     45  N   UNL A   1      44.129  31.780  29.703  1.00  0.00    -0.354 N 
ATOM     46  N   UNL A   1      41.285  32.353  30.200  1.00  0.00    -0.248 NA
ATOM     47  C   UNL A   1      39.621  33.708  31.123  1.00  0.00     0.031 C 
ATOM     48  C   UNL A   1      45.624  33.320  30.277  1.00  0.00     0.029 A 
ATOM     49  C   UNL A   1      44.270  33.024  30.295  1.00  0.00     0.049 A 
ATOM     50  H   UNL A   1      43.274  31.309  29.575  1.00  0.00     0.167 HD
ATOM     51  C   UNL A   1      41.874  33.481  30.754  1.00  0.00     0.074 A 
ATOM     52  C   UNL A   1      40.799  34.294  31.288  1.00  0.00     0.031 C 
ATOM     53  C   UNL A   1      43.186  33.814  30.820  1.00  0.00     0.037 A 
BRANCH  40  54
ATOM     54  C   UNL A   1      46.999  29.608  28.387  1.00  0.00     0.057 A 
ATOM     55  C   UNL A   1      47.603  29.893  27.156  1.00  0.00     0.134 A 
ATOM     56  C   UNL A   1      47.771  28.945  29.350  1.00  0.00     0.134 A 
ATOM     57  F   UNL A   1      46.913  30.511  26.187  1.00  0.00    -0.206 F 
ATOM     58  C   UNL A   1      48.922  29.520  26.889  1.00  0.00     0.040 A 
ATOM     59  C   UNL A   1      49.096  28.585  29.102  1.00  0.00     0.040 A 
ATOM     60  F   UNL A   1      47.250  28.643  30.549  1.00  0.00    -0.206 F 
ATOM     61  C   UNL A   1      49.673  28.868  27.866  1.00  0.00     0.006 A 
ENDBRANCH  40  54
BRANCH  41  62
ATOM     62  C   UNL A   1      37.468  31.895  30.328  1.00  0.00     0.057 A 
ATOM     63  C   UNL A   1      36.685  32.652  29.450  1.00  0.00     0.134 A 
ATOM     64  C   UNL A   1      36.873  31.472  31.524  1.00  0.00     0.134 A 
ATOM     65  F   UNL A   1      37.207  33.106  28.302  1.00  0.00    -0.206 F 
ATOM     66  C   UNL A   1      35.364  32.985  29.753  1.00  0.00     0.040 A 
ATOM     67  C   UNL A   1      35.547  31.777  31.828  1.00  0.00     0.040 A 
ATOM     68  F   UNL A   1      37.572  30.745  32.408  1.00  0.00    -0.206 F 
ATOM     69  C   UNL A   1      34.790  32.541  30.943  1.00  0.00     0.006 A 
ENDBRANCH  41  62
BRANCH  53  70
ATOM     70  C   UNL A   1      43.523  35.121  31.472  1.00  0.00     0.057 A 
ATOM     71  C   UNL A   1      43.682  36.295  30.724  1.00  0.00     0.134 A 
ATOM     72  C   UNL A   1      43.661  35.212  32.862  1.00  0.00     0.134 A 
ATOM     73  F   UNL A   1      43.577  36.267  29.387  1.00  0.00    -0.206 F 
ATOM     74  C   UNL A   1      43.984  37.511  31.336  1.00  0.00     0.040 A 
ATOM     75  C   UNL A   1      43.942  36.427  33.487  1.00  0.00     0.040 A 
ATOM     76  F   UNL A   1      43.514  34.125  33.634  1.00  0.00    -0.206 F 
ATOM     77  C   UNL A   1      44.109  37.581  32.723  1.00  0.00     0.006 A 
ENDBRANCH  53  70
ENDBRANCH  27  28
ENDBRANCH  20  22
ENDBRANCH  19  20
ENDBRANCH  18  19
ENDBRANCH   1  18
TORSDOF 15
ENDMDL
MODEL 2
REMARK VINA RESULT:      -8.4      4.957     10.422
REMARK SMILES CC(C)Cc1ccc([C@H](CF)C(=O)OCCOC(=O)c2ccc(-c3c4nc(c(-c5c(F)cccc5F)c5ccc([nH]5)c(-c5c(F)cccc5F)c5nc(c(-c6c(F)cccc6F)c6ccc3[nH]6)C=C5)C=C4)cc2)cc1
REMARK SMILES IDX 15 1 14 2 12 3 13 4 9 5 8 6 5 7 6 8 75 9 7 10 74 11 4 12
REMARK SMILES IDX 2 13 1 14 3 15 10 16 11 17 16 18 17 19 18 20 19 21 20 22
REMARK SMILES IDX 21 23 73 24 22 25 72 26 23 27 24 28 25 29 66 30 26 31 71 32
REMARK SMILES IDX 65 33 67 34 27 35 70 36 64 37 63 38 28 40 54 41 37 42 53 43
REMARK SMILES IDX 38 44 41 45 52 46 68 47 39 48 40 49 51 51 69 52 42 53 29 54
REMARK SMILES IDX 30 55 35 56 31 57 32 58 34 59 36 60 33 61 55 62 56 63 61 64
REMARK SMILES IDX 57 65 58 66 60 67 62 68 59 69 43 70 44 71 49 72 45 73 46 74
REMARK SMILES IDX 48 75 50 76 47 77
REMARK H PARENT 67 39 41 50
REMARK Flexibility Score: inf
ROOT
ATOM      1  C   UNL A   1      31.574  31.770  26.852  1.00  0.00     0.274 C 
ENDROOT
BRANCH   1   2
ATOM      2  O   UNL A   1      31.969  30.807  25.853  1.00  0.00    -0.462 OA
BRANCH   2   3
ATOM      3  C   UNL A   1      32.229  29.550  26.305  1.00  0.00     0.316 C 
ATOM      4  O   UNL A   1      31.434  28.876  26.952  1.00  0.00    -0.251 OA
BRANCH   3   5
ATOM      5  C   UNL A   1      33.631  29.075  25.969  1.00  0.00     0.160 C 
BRANCH   5   6
ATOM      6  C   UNL A   1      33.659  27.722  25.279  1.00  0.00    -0.031 A 
ATOM      7  C   UNL A   1      33.999  25.196  24.077  1.00  0.00    -0.048 A 
ATOM      8  C   UNL A   1      33.768  26.331  23.292  1.00  0.00     0.004 A 
ATOM      9  C   UNL A   1      33.979  25.319  25.469  1.00  0.00     0.004 A 
ATOM     10  C   UNL A   1      33.587  27.582  23.887  1.00  0.00     0.005 A 
ATOM     11  C   UNL A   1      33.818  26.569  26.064  1.00  0.00     0.005 A 
BRANCH   7  12
ATOM     12  C   UNL A   1      34.351  23.878  23.434  1.00  0.00     0.038 C 
BRANCH  12  13
ATOM     13  C   UNL A   1      35.555  23.192  24.116  1.00  0.00    -0.013 C 
ATOM     14  C   UNL A   1      35.161  21.906  24.851  1.00  0.00     0.008 C 
ATOM     15  C   UNL A   1      36.631  22.876  23.075  1.00  0.00     0.008 C 
ENDBRANCH  12  13
ENDBRANCH   7  12
ENDBRANCH   5   6
BRANCH   5  16
ATOM     16  C   UNL A   1      34.593  29.175  27.144  1.00  0.00     0.234 C 
ATOM     17  F   UNL A   1      35.159  30.417  27.158  1.00  0.00    -0.250 F 
ENDBRANCH   5  16
ENDBRANCH   3   5
ENDBRANCH   2   3
ENDBRANCH   1   2
BRANCH   1  18
ATOM     18  C   UNL A   1      32.473  33.011  26.837  1.00  0.00     0.275 C 
BRANCH  18  19
ATOM     19  O   UNL A   1      32.383  33.759  28.064  1.00  0.00    -0.458 OA
BRANCH  19  20
ATOM     20  C   UNL A   1      33.445  34.553  28.333  1.00  0.00     0.338 C 
ATOM     21  O   UNL A   1      33.485  35.770  28.293  1.00  0.00    -0.246 OA
BRANCH  20  22
ATOM     22  C   UNL A   1      34.557  33.739  28.844  1.00  0.00     0.060 A 
ATOM     23  C   UNL A   1      34.248  32.589  29.575  1.00  0.00     0.016 A 
ATOM     24  C   UNL A   1      35.881  34.140  28.674  1.00  0.00     0.016 A 
ATOM     25  C   UNL A   1      35.261  31.820  30.134  1.00  0.00     0.010 A 
ATOM     26  C   UNL A   1      36.901  33.370  29.239  1.00  0.00     0.010 A 
ATOM     27  C   UNL A   1      36.595  32.209  29.973  1.00  0.00    -0.014 A 
BRANCH  27  28
ATOM     28  C   UNL A   1      37.673  31.414  30.600  1.00  0.00     0.031 A 
ATOM     29  C   UNL A   1      38.015  31.632  32.042  1.00  0.00     0.074 A 
ATOM     30  C   UNL A   1      38.332  30.497  29.871  1.00  0.00     0.049 A 
ATOM     31  N   UNL A   1      39.007  31.142  32.739  1.00  0.00    -0.248 NA
ATOM     32  C   UNL A   1      37.121  32.519  32.801  1.00  0.00     0.031 C 
ATOM     33  C   UNL A   1      38.040  30.154  28.479  1.00  0.00     0.029 A 
ATOM     34  N   UNL A   1      39.393  29.692  30.200  1.00  0.00    -0.354 N 
ATOM     35  C   UNL A   1      38.874  31.681  34.011  1.00  0.00     0.074 A 
ATOM     36  C   UNL A   1      37.708  32.538  33.990  1.00  0.00     0.031 C 
ATOM     37  C   UNL A   1      38.908  29.216  28.069  1.00  0.00     0.029 A 
ATOM     38  C   UNL A   1      39.847  28.932  29.150  1.00  0.00     0.049 A 
ATOM     39  H   UNL A   1      39.790  29.663  31.100  1.00  0.00     0.167 HD
ATOM     40  C   UNL A   1      39.661  31.477  35.094  1.00  0.00     0.037 A 
ATOM     41  C   UNL A   1      40.924  28.131  29.063  1.00  0.00     0.037 A 
ATOM     42  C   UNL A   1      40.810  30.610  35.107  1.00  0.00     0.049 A 
ATOM     43  C   UNL A   1      41.825  27.984  30.257  1.00  0.00     0.074 A 
ATOM     44  C   UNL A   1      41.664  30.325  36.158  1.00  0.00     0.029 A 
ATOM     45  N   UNL A   1      41.264  29.889  34.014  1.00  0.00    -0.354 N 
ATOM     46  N   UNL A   1      41.708  28.512  31.451  1.00  0.00    -0.248 NA
ATOM     47  C   UNL A   1      43.017  27.140  30.086  1.00  0.00     0.031 C 
ATOM     48  C   UNL A   1      42.659  29.461  35.688  1.00  0.00     0.029 A 
ATOM     49  C   UNL A   1      42.402  29.178  34.357  1.00  0.00     0.049 A 
ATOM     50  H   UNL A   1      40.840  29.884  33.125  1.00  0.00     0.167 HD
ATOM     51  C   UNL A   1      42.798  28.056  32.178  1.00  0.00     0.074 A 
ATOM     52  C   UNL A   1      43.559  27.195  31.295  1.00  0.00     0.031 C 
ATOM     53  C   UNL A   1      43.142  28.328  33.460  1.00  0.00     0.037 A 
BRANCH  40  54
ATOM     54  C   UNL A   1      39.326  32.236  36.343  1.00  0.00     0.057 A 
ATOM     55  C   UNL A   1      39.964  33.436  36.677  1.00  0.00     0.134 A 
ATOM     56  C   UNL A   1      38.326  31.771  37.207  1.00  0.00     0.134 A 
ATOM     57  F   UNL A   1      40.940  33.927  35.899  1.00  0.00    -0.206 F 
ATOM     58  C   UNL A   1      39.630  34.141  37.836  1.00  0.00     0.040 A 
ATOM     59  C   UNL A   1      37.970  32.476  38.357  1.00  0.00     0.040 A 
ATOM     60  F   UNL A   1      37.676  30.626  36.944  1.00  0.00    -0.206 F 
ATOM     61  C   UNL A   1      38.626  33.662  38.676  1.00  0.00     0.006 A 
ENDBRANCH  40  54
BRANCH  41  62
ATOM     62  C   UNL A   1      41.233  27.441  27.787  1.00  0.00     0.057 A 
ATOM     63  C   UNL A   1      40.778  26.142  27.538  1.00  0.00     0.134 A 
ATOM     64  C   UNL A   1      41.998  28.059  26.790  1.00  0.00     0.134 A 
ATOM     65  F   UNL A   1      40.062  25.489  28.465  1.00  0.00    -0.206 F 
ATOM     66  C   UNL A   1      41.080  25.478  26.348  1.00  0.00     0.040 A 
ATOM     67  C   UNL A   1      42.288  27.417  25.586  1.00  0.00     0.040 A 
ATOM     68  F   UNL A   1      42.466  29.303  26.969  1.00  0.00    -0.206 F 
ATOM     69  C   UNL A   1      41.831  26.120  25.365  1.00  0.00     0.006 A 
ENDBRANCH  41  62
BRANCH  53  70
ATOM     70  C   UNL A   1      44.382  27.667  33.985  1.00  0.00     0.057 A 
ATOM     71  C   UNL A   1      44.346  26.388  34.557  1.00  0.00     0.134 A 
ATOM     72  C   UNL A   1      45.625  28.303  33.891  1.00  0.00     0.134 A 
ATOM     73  F   UNL A   1      43.182  25.736  34.688  1.00  0.00    -0.206 F 
ATOM     74  C   UNL A   1      45.503  25.773  35.033  1.00  0.00     0.040 A 
ATOM     75  C   UNL A   1      46.793  27.689  34.345  1.00  0.00     0.040 A 
ATOM     76  F   UNL A   1      45.726  29.526  33.348  1.00  0.00    -0.206 F 
ATOM     77  C   UNL A   1      46.733  26.422  34.922  1.00  0.00     0.006 A 
ENDBRANCH  53  70
ENDBRANCH  27  28
ENDBRANCH  20  22
ENDBRANCH  19  20
ENDBRANCH  18  19
ENDBRANCH   1  18
TORSDOF 15
ENDMDL
MODEL 3
REMARK VINA RESULT:      -8.4      3.317      8.885
REMARK SMILES CC(C)Cc1ccc([C@H](CF)C(=O)OCCOC(=O)c2ccc(-c3c4nc(c(-c5c(F)cccc5F)c5ccc([nH]5)c(-c5c(F)cccc5F)c5nc(c(-c6c(F)cccc6F)c6ccc3[nH]6)C=C5)C=C4)cc2)cc1
REMARK SMILES IDX 15 1 14 2 12 3 13 4 9 5 8 6 5 7 6 8 75 9 7 10 74 11 4 12
REMARK SMILES IDX 2 13 1 14 3 15 10 16 11 17 16 18 17 19 18 20 19 21 20 22
REMARK SMILES IDX 21 23 73 24 22 25 72 26 23 27 24 28 25 29 66 30 26 31 71 32
REMARK SMILES IDX 65 33 67 34 27 35 70 36 64 37 63 38 28 40 54 41 37 42 53 43
REMARK SMILES IDX 38 44 41 45 52 46 68 47 39 48 40 49 51 51 69 52 42 53 29 54
REMARK SMILES IDX 30 55 35 56 31 57 32 58 34 59 36 60 33 61 55 62 56 63 61 64
REMARK SMILES IDX 57 65 58 66 60 67 62 68 59 69 43 70 44 71 49 72 45 73 46 74
REMARK SMILES IDX 48 75 50 76 47 77
REMARK H PARENT 67 39 41 50
REMARK Flexibility Score: inf
ROOT
ATOM      1  C   UNL A   1      37.755  19.922  24.846  1.00  0.00     0.274 C 
ENDROOT
BRANCH   1   2
ATOM      2  O   UNL A   1      36.673  20.721  25.367  1.00  0.00    -0.462 OA
BRANCH   2   3
ATOM      3  C   UNL A   1      36.607  22.004  24.919  1.00  0.00     0.316 C 
ATOM      4  O   UNL A   1      36.749  22.328  23.744  1.00  0.00    -0.251 OA
BRANCH   3   5
ATOM      5  C   UNL A   1      36.389  23.013  26.032  1.00  0.00     0.160 C 
BRANCH   5   6
ATOM      6  C   UNL A   1      35.072  23.760  25.917  1.00  0.00    -0.031 A 
ATOM      7  C   UNL A   1      32.739  25.341  25.902  1.00  0.00    -0.048 A 
ATOM      8  C   UNL A   1      32.720  24.050  26.443  1.00  0.00     0.004 A 
ATOM      9  C   UNL A   1      33.911  25.805  25.298  1.00  0.00     0.004 A 
ATOM     10  C   UNL A   1      33.871  23.261  26.439  1.00  0.00     0.005 A 
ATOM     11  C   UNL A   1      35.066  25.027  25.312  1.00  0.00     0.005 A 
BRANCH   7  12
ATOM     12  C   UNL A   1      31.544  26.250  26.047  1.00  0.00     0.038 C 
BRANCH  12  13
ATOM     13  C   UNL A   1      31.948  27.729  26.231  1.00  0.00    -0.013 C 
ATOM     14  C   UNL A   1      31.345  28.642  25.156  1.00  0.00     0.008 C 
ATOM     15  C   UNL A   1      31.518  28.218  27.615  1.00  0.00     0.008 C 
ENDBRANCH  12  13
ENDBRANCH   7  12
ENDBRANCH   5   6
BRANCH   5  16
ATOM     16  C   UNL A   1      37.586  23.927  26.253  1.00  0.00     0.234 C 
ATOM     17  F   UNL A   1      38.733  23.240  25.979  1.00  0.00    -0.250 F 
ENDBRANCH   5  16
ENDBRANCH   3   5
ENDBRANCH   2   3
ENDBRANCH   1   2
BRANCH   1  18
ATOM     18  C   UNL A   1      39.109  20.346  25.424  1.00  0.00     0.275 C 
BRANCH  18  19
ATOM     19  O   UNL A   1      39.825  19.236  25.996  1.00  0.00    -0.458 OA
BRANCH  19  20
ATOM     20  C   UNL A   1      41.172  19.369  26.016  1.00  0.00     0.338 C 
ATOM     21  O   UNL A   1      41.997  18.587  25.579  1.00  0.00    -0.246 OA
BRANCH  20  22
ATOM     22  C   UNL A   1      41.531  20.701  26.523  1.00  0.00     0.060 A 
ATOM     23  C   UNL A   1      41.977  21.656  25.606  1.00  0.00     0.016 A 
ATOM     24  C   UNL A   1      41.502  20.985  27.888  1.00  0.00     0.016 A 
ATOM     25  C   UNL A   1      42.389  22.909  26.041  1.00  0.00     0.010 A 
ATOM     26  C   UNL A   1      41.920  22.244  28.328  1.00  0.00     0.010 A 
ATOM     27  C   UNL A   1      42.367  23.209  27.407  1.00  0.00    -0.014 A 
BRANCH  27  28
ATOM     28  C   UNL A   1      42.842  24.529  27.877  1.00  0.00     0.031 A 
ATOM     29  C   UNL A   1      41.850  25.590  28.241  1.00  0.00     0.074 A 
ATOM     30  C   UNL A   1      44.163  24.762  27.977  1.00  0.00     0.049 A 
ATOM     31  N   UNL A   1      42.056  26.846  28.540  1.00  0.00    -0.248 NA
ATOM     32  C   UNL A   1      40.437  25.183  28.275  1.00  0.00     0.031 C 
ATOM     33  C   UNL A   1      45.217  23.783  27.712  1.00  0.00     0.029 A 
ATOM     34  N   UNL A   1      44.842  25.903  28.320  1.00  0.00    -0.354 N 
ATOM     35  C   UNL A   1      40.799  27.388  28.771  1.00  0.00     0.074 A 
ATOM     36  C   UNL A   1      39.835  26.326  28.575  1.00  0.00     0.031 C 
ATOM     37  C   UNL A   1      46.412  24.368  27.892  1.00  0.00     0.029 A 
ATOM     38  C   UNL A   1      46.206  25.772  28.232  1.00  0.00     0.049 A 
ATOM     39  H   UNL A   1      44.396  26.734  28.601  1.00  0.00     0.167 HD
ATOM     40  C   UNL A   1      40.485  28.660  29.113  1.00  0.00     0.037 A 
ATOM     41  C   UNL A   1      47.175  26.695  28.371  1.00  0.00     0.037 A 
ATOM     42  C   UNL A   1      41.454  29.705  29.320  1.00  0.00     0.049 A 
ATOM     43  C   UNL A   1      46.794  28.117  28.673  1.00  0.00     0.074 A 
ATOM     44  C   UNL A   1      41.237  31.022  29.682  1.00  0.00     0.029 A 
ATOM     45  N   UNL A   1      42.824  29.546  29.182  1.00  0.00    -0.354 N 
ATOM     46  N   UNL A   1      45.603  28.629  28.870  1.00  0.00    -0.248 NA
ATOM     47  C   UNL A   1      47.890  29.092  28.758  1.00  0.00     0.031 C 
ATOM     48  C   UNL A   1      42.477  31.671  29.725  1.00  0.00     0.029 A 
ATOM     49  C   UNL A   1      43.466  30.748  29.427  1.00  0.00     0.049 A 
ATOM     50  H   UNL A   1      43.274  28.703  28.944  1.00  0.00     0.167 HD
ATOM     51  C   UNL A   1      45.805  29.980  29.116  1.00  0.00     0.074 A 
ATOM     52  C   UNL A   1      47.236  30.206  29.059  1.00  0.00     0.031 C 
ATOM     53  C   UNL A   1      44.891  30.948  29.363  1.00  0.00     0.037 A 
BRANCH  40  54
ATOM     54  C   UNL A   1      39.031  28.999  29.246  1.00  0.00     0.057 A 
ATOM     55  C   UNL A   1      38.279  29.480  28.167  1.00  0.00     0.134 A 
ATOM     56  C   UNL A   1      38.369  28.811  30.466  1.00  0.00     0.134 A 
ATOM     57  F   UNL A   1      38.858  29.696  26.977  1.00  0.00    -0.206 F 
ATOM     58  C   UNL A   1      36.921  29.777  28.302  1.00  0.00     0.040 A 
ATOM     59  C   UNL A   1      37.007  29.085  30.607  1.00  0.00     0.040 A 
ATOM     60  F   UNL A   1      39.033  28.353  31.538  1.00  0.00    -0.206 F 
ATOM     61  C   UNL A   1      36.281  29.574  29.524  1.00  0.00     0.006 A 
ENDBRANCH  40  54
BRANCH  41  62
ATOM     62  C   UNL A   1      48.596  26.312  28.183  1.00  0.00     0.057 A 
ATOM     63  C   UNL A   1      49.194  26.352  26.919  1.00  0.00     0.134 A 
ATOM     64  C   UNL A   1      49.386  25.889  29.258  1.00  0.00     0.134 A 
ATOM     65  F   UNL A   1      48.481  26.726  25.847  1.00  0.00    -0.206 F 
ATOM     66  C   UNL A   1      50.525  25.975  26.729  1.00  0.00     0.040 A 
ATOM     67  C   UNL A   1      50.724  25.532  29.087  1.00  0.00     0.040 A 
ATOM     68  F   UNL A   1      48.870  25.826  30.495  1.00  0.00    -0.206 F 
ATOM     69  C   UNL A   1      51.295  25.570  27.818  1.00  0.00     0.006 A 
ENDBRANCH  41  62
BRANCH  53  70
ATOM     70  C   UNL A   1      45.416  32.331  29.613  1.00  0.00     0.057 A 
ATOM     71  C   UNL A   1      45.800  32.750  30.893  1.00  0.00     0.134 A 
ATOM     72  C   UNL A   1      45.565  33.239  28.558  1.00  0.00     0.134 A 
ATOM     73  F   UNL A   1      45.665  31.930  31.945  1.00  0.00    -0.206 F 
ATOM     74  C   UNL A   1      46.298  34.033  31.117  1.00  0.00     0.040 A 
ATOM     75  C   UNL A   1      46.083  34.518  28.767  1.00  0.00     0.040 A 
ATOM     76  F   UNL A   1      45.221  32.895  27.308  1.00  0.00    -0.206 F 
ATOM     77  C   UNL A   1      46.447  34.920  30.051  1.00  0.00     0.006 A 
ENDBRANCH  53  70
ENDBRANCH  27  28
ENDBRANCH  20  22
ENDBRANCH  19  20
ENDBRANCH  18  19
ENDBRANCH   1  18
TORSDOF 15
ENDMDL
