MODEL 1
REMARK VINA RESULT:     -10.8      0.000      0.000
REMARK SMILES CCOc1cc(OCC)cc(-c2ccc([C@@H](C)C(=O)OCCOC(=O)c3ccc(-c4c5nc(c(-c6c(F)cccc6F)c6ccc([nH]6)c(-c6c(F)cccc6F)c6nc(c(-c7c(F)cccc7F)c7ccc4[nH]7)C=C6)C=C5)cc3)cc2)c1
REMARK SMILES IDX 21 1 20 2 18 3 19 4 16 5 17 6 15 7 12 8 13 9 81 10 14 11
REMARK SMILES IDX 80 12 11 13 4 14 5 15 82 16 6 17 10 18 3 19 2 20 1 21 7 22
REMARK SMILES IDX 8 23 9 24 22 25 23 26 24 27 25 28 26 29 27 30 79 31 28 32
REMARK SMILES IDX 78 33 29 34 30 35 31 36 72 37 32 38 77 39 71 40 73 41 33 42
REMARK SMILES IDX 76 43 70 44 69 45 34 47 60 48 43 49 59 50 44 51 47 52 58 53
REMARK SMILES IDX 74 54 45 55 46 56 57 58 75 59 48 60 35 61 36 62 41 63 37 64
REMARK SMILES IDX 38 65 40 66 42 67 39 68 61 69 62 70 67 71 63 72 64 73 66 74
REMARK SMILES IDX 68 75 65 76 49 77 50 78 55 79 51 80 52 81 54 82 56 83 53 84
REMARK H PARENT 73 46 47 57
REMARK Flexibility Score: inf
ROOT
ATOM      1  C   UNL A   1      33.010  35.461  28.789  1.00  0.00     0.274 C 
ENDROOT
BRANCH   1   2
ATOM      2  O   UNL A   1      33.705  34.239  29.092  1.00  0.00    -0.462 OA
BRANCH   2   3
ATOM      3  C   UNL A   1      34.595  33.786  28.172  1.00  0.00     0.313 C 
ATOM      4  O   UNL A   1      34.996  34.441  27.215  1.00  0.00    -0.252 OA
BRANCH   3   5
ATOM      5  C   UNL A   1      35.032  32.344  28.407  1.00  0.00     0.126 C 
ATOM      6  C   UNL A   1      36.500  32.171  28.025  1.00  0.00     0.025 C 
BRANCH   5   7
ATOM      7  C   UNL A   1      34.139  31.282  27.783  1.00  0.00    -0.034 A 
ATOM      8  C   UNL A   1      32.504  29.279  26.619  1.00  0.00    -0.018 A 
ATOM      9  C   UNL A   1      32.069  30.610  26.705  1.00  0.00     0.009 A 
ATOM     10  C   UNL A   1      33.765  28.963  27.137  1.00  0.00     0.009 A 
ATOM     11  C   UNL A   1      32.874  31.599  27.271  1.00  0.00     0.005 A 
ATOM     12  C   UNL A   1      34.573  29.950  27.706  1.00  0.00     0.005 A 
BRANCH   8  13
ATOM     13  C   UNL A   1      31.664  28.266  25.968  1.00  0.00    -0.011 A 
ATOM     14  C   UNL A   1      30.327  27.489  24.101  1.00  0.00     0.123 A 
ATOM     15  C   UNL A   1      30.101  26.276  24.752  1.00  0.00     0.092 A 
ATOM     16  C   UNL A   1      31.084  28.487  24.713  1.00  0.00     0.055 A 
ATOM     17  C   UNL A   1      30.646  26.046  26.016  1.00  0.00     0.123 A 
ATOM     18  C   UNL A   1      31.424  27.040  26.609  1.00  0.00     0.055 A 
BRANCH  14  19
ATOM     19  O   UNL A   1      29.690  27.710  22.910  1.00  0.00    -0.494 OA
BRANCH  19  20
ATOM     20  C   UNL A   1      28.301  28.033  23.055  1.00  0.00     0.226 C 
ATOM     21  C   UNL A   1      28.012  29.465  22.632  1.00  0.00     0.049 C 
ENDBRANCH  19  20
ENDBRANCH  14  19
BRANCH  17  22
ATOM     22  O   UNL A   1      30.379  24.822  26.568  1.00  0.00    -0.494 OA
BRANCH  22  23
ATOM     23  C   UNL A   1      31.246  23.737  26.224  1.00  0.00     0.226 C 
ATOM     24  C   UNL A   1      30.488  22.420  26.158  1.00  0.00     0.049 C 
ENDBRANCH  22  23
ENDBRANCH  17  22
ENDBRANCH   8  13
ENDBRANCH   5   7
ENDBRANCH   3   5
ENDBRANCH   2   3
ENDBRANCH   1   2
BRANCH   1  25
ATOM     25  C   UNL A   1      32.866  36.324  30.041  1.00  0.00     0.275 C 
BRANCH  25  26
ATOM     26  O   UNL A   1      32.364  35.533  31.134  1.00  0.00    -0.458 OA
BRANCH  26  27
ATOM     27  C   UNL A   1      32.749  35.927  32.370  1.00  0.00     0.338 C 
ATOM     28  O   UNL A   1      32.222  36.745  33.100  1.00  0.00    -0.246 OA
BRANCH  27  29
ATOM     29  C   UNL A   1      33.922  35.134  32.762  1.00  0.00     0.060 A 
ATOM     30  C   UNL A   1      35.193  35.667  32.545  1.00  0.00     0.016 A 
ATOM     31  C   UNL A   1      33.766  33.852  33.286  1.00  0.00     0.016 A 
ATOM     32  C   UNL A   1      36.325  34.915  32.844  1.00  0.00     0.010 A 
ATOM     33  C   UNL A   1      34.902  33.106  33.610  1.00  0.00     0.010 A 
ATOM     34  C   UNL A   1      36.188  33.630  33.385  1.00  0.00    -0.014 A 
BRANCH  34  35
ATOM     35  C   UNL A   1      37.393  32.834  33.718  1.00  0.00     0.031 A 
ATOM     36  C   UNL A   1      38.143  33.098  34.990  1.00  0.00     0.074 A 
ATOM     37  C   UNL A   1      37.810  31.875  32.871  1.00  0.00     0.049 A 
ATOM     38  N   UNL A   1      39.273  32.583  35.404  1.00  0.00    -0.248 NA
ATOM     39  C   UNL A   1      37.544  34.067  35.918  1.00  0.00     0.031 C 
ATOM     40  C   UNL A   1      37.140  31.502  31.623  1.00  0.00     0.029 A 
ATOM     41  N   UNL A   1      38.901  31.046  32.927  1.00  0.00    -0.354 N 
ATOM     42  C   UNL A   1      39.531  33.180  36.630  1.00  0.00     0.074 A 
ATOM     43  C   UNL A   1      38.448  34.105  36.888  1.00  0.00     0.031 C 
ATOM     44  C   UNL A   1      37.837  30.518  31.032  1.00  0.00     0.029 A 
ATOM     45  C   UNL A   1      39.025  30.229  31.830  1.00  0.00     0.049 A 
ATOM     46  H   UNL A   1      39.533  31.038  33.681  1.00  0.00     0.167 HD
ATOM     47  C   UNL A   1      40.578  32.970  37.463  1.00  0.00     0.037 A 
ATOM     48  C   UNL A   1      40.004  29.372  31.488  1.00  0.00     0.037 A 
ATOM     49  C   UNL A   1      41.646  32.039  37.208  1.00  0.00     0.049 A 
ATOM     50  C   UNL A   1      41.191  29.214  32.395  1.00  0.00     0.074 A 
ATOM     51  C   UNL A   1      42.733  31.732  38.008  1.00  0.00     0.029 A 
ATOM     52  N   UNL A   1      41.761  31.265  36.063  1.00  0.00    -0.354 N 
ATOM     53  N   UNL A   1      41.427  29.783  33.552  1.00  0.00    -0.248 NA
ATOM     54  C   UNL A   1      42.256  28.309  31.940  1.00  0.00     0.031 C 
ATOM     55  C   UNL A   1      43.530  30.804  37.327  1.00  0.00     0.029 A 
ATOM     56  C   UNL A   1      42.918  30.506  36.120  1.00  0.00     0.049 A 
ATOM     57  H   UNL A   1      41.117  31.258  35.319  1.00  0.00     0.167 HD
ATOM     58  C   UNL A   1      42.662  29.302  33.966  1.00  0.00     0.074 A 
ATOM     59  C   UNL A   1      43.116  28.379  32.947  1.00  0.00     0.031 C 
ATOM     60  C   UNL A   1      43.360  29.602  35.088  1.00  0.00     0.037 A 
BRANCH  47  61
ATOM     61  C   UNL A   1      40.634  33.786  38.720  1.00  0.00     0.057 A 
ATOM     62  C   UNL A   1      39.954  33.403  39.882  1.00  0.00     0.134 A 
ATOM     63  C   UNL A   1      41.406  34.953  38.776  1.00  0.00     0.134 A 
ATOM     64  F   UNL A   1      39.185  32.303  39.889  1.00  0.00    -0.206 F 
ATOM     65  C   UNL A   1      40.026  34.162  41.053  1.00  0.00     0.040 A 
ATOM     66  C   UNL A   1      41.503  35.709  39.946  1.00  0.00     0.040 A 
ATOM     67  F   UNL A   1      42.085  35.373  37.698  1.00  0.00    -0.206 F 
ATOM     68  C   UNL A   1      40.808  35.315  41.087  1.00  0.00     0.006 A 
ENDBRANCH  47  61
BRANCH  48  69
ATOM     69  C   UNL A   1      39.920  28.628  30.209  1.00  0.00     0.057 A 
ATOM     70  C   UNL A   1      39.238  27.409  30.124  1.00  0.00     0.134 A 
ATOM     71  C   UNL A   1      40.520  29.117  29.041  1.00  0.00     0.134 A 
ATOM     72  F   UNL A   1      38.665  26.879  31.213  1.00  0.00    -0.206 F 
ATOM     73  C   UNL A   1      39.160  26.700  28.924  1.00  0.00     0.040 A 
ATOM     74  C   UNL A   1      40.430  28.430  27.830  1.00  0.00     0.040 A 
ATOM     75  F   UNL A   1      41.189  30.279  29.060  1.00  0.00    -0.206 F 
ATOM     76  C   UNL A   1      39.752  27.214  27.771  1.00  0.00     0.006 A 
ENDBRANCH  48  69
BRANCH  60  77
ATOM     77  C   UNL A   1      44.684  28.925  35.267  1.00  0.00     0.057 A 
ATOM     78  C   UNL A   1      45.866  29.485  34.766  1.00  0.00     0.134 A 
ATOM     79  C   UNL A   1      44.784  27.719  35.971  1.00  0.00     0.134 A 
ATOM     80  F   UNL A   1      45.834  30.630  34.069  1.00  0.00    -0.206 F 
ATOM     81  C   UNL A   1      47.101  28.859  34.945  1.00  0.00     0.040 A 
ATOM     82  C   UNL A   1      46.015  27.095  36.174  1.00  0.00     0.040 A 
ATOM     83  F   UNL A   1      43.690  27.134  36.480  1.00  0.00    -0.206 F 
ATOM     84  C   UNL A   1      47.179  27.663  35.657  1.00  0.00     0.006 A 
ENDBRANCH  60  77
ENDBRANCH  34  35
ENDBRANCH  27  29
ENDBRANCH  26  27
ENDBRANCH  25  26
ENDBRANCH   1  25
TORSDOF 17
ENDMDL
MODEL 2
REMARK VINA RESULT:     -10.8      4.103      9.513
REMARK SMILES CCOc1cc(OCC)cc(-c2ccc([C@@H](C)C(=O)OCCOC(=O)c3ccc(-c4c5nc(c(-c6c(F)cccc6F)c6ccc([nH]6)c(-c6c(F)cccc6F)c6nc(c(-c7c(F)cccc7F)c7ccc4[nH]7)C=C6)C=C5)cc3)cc2)c1
REMARK SMILES IDX 21 1 20 2 18 3 19 4 16 5 17 6 15 7 12 8 13 9 81 10 14 11
REMARK SMILES IDX 80 12 11 13 4 14 5 15 82 16 6 17 10 18 3 19 2 20 1 21 7 22
REMARK SMILES IDX 8 23 9 24 22 25 23 26 24 27 25 28 26 29 27 30 79 31 28 32
REMARK SMILES IDX 78 33 29 34 30 35 31 36 72 37 32 38 77 39 71 40 73 41 33 42
REMARK SMILES IDX 76 43 70 44 69 45 34 47 60 48 43 49 59 50 44 51 47 52 58 53
REMARK SMILES IDX 74 54 45 55 46 56 57 58 75 59 48 60 35 61 36 62 41 63 37 64
REMARK SMILES IDX 38 65 40 66 42 67 39 68 61 69 62 70 67 71 63 72 64 73 66 74
REMARK SMILES IDX 68 75 65 76 49 77 50 78 55 79 51 80 52 81 54 82 56 83 53 84
REMARK H PARENT 73 46 47 57
REMARK Flexibility Score: inf
ROOT
ATOM      1  C   UNL A   1      43.813  22.834  25.388  1.00  0.00     0.274 C 
ENDROOT
BRANCH   1   2
ATOM      2  O   UNL A   1      42.551  22.236  25.044  1.00  0.00    -0.462 OA
BRANCH   2   3
ATOM      3  C   UNL A   1      41.906  21.542  26.017  1.00  0.00     0.313 C 
ATOM      4  O   UNL A   1      42.107  20.359  26.274  1.00  0.00    -0.252 OA
BRANCH   3   5
ATOM      5  C   UNL A   1      40.855  22.364  26.755  1.00  0.00     0.126 C 
ATOM      6  C   UNL A   1      40.854  22.006  28.239  1.00  0.00     0.025 C 
BRANCH   5   7
ATOM      7  C   UNL A   1      39.461  22.335  26.148  1.00  0.00    -0.034 A 
ATOM      8  C   UNL A   1      36.855  22.314  25.032  1.00  0.00    -0.018 A 
ATOM      9  C   UNL A   1      37.657  21.164  25.019  1.00  0.00     0.009 A 
ATOM     10  C   UNL A   1      37.381  23.480  25.600  1.00  0.00     0.009 A 
ATOM     11  C   UNL A   1      38.937  21.170  25.574  1.00  0.00     0.005 A 
ATOM     12  C   UNL A   1      38.663  23.489  26.155  1.00  0.00     0.005 A 
BRANCH   8  13
ATOM     13  C   UNL A   1      35.488  22.271  24.495  1.00  0.00    -0.011 A 
ATOM     14  C   UNL A   1      33.223  21.408  24.506  1.00  0.00     0.123 A 
ATOM     15  C   UNL A   1      32.881  22.259  23.455  1.00  0.00     0.092 A 
ATOM     16  C   UNL A   1      34.523  21.397  25.009  1.00  0.00     0.055 A 
ATOM     17  C   UNL A   1      33.836  23.117  22.908  1.00  0.00     0.123 A 
ATOM     18  C   UNL A   1      35.126  23.118  23.435  1.00  0.00     0.055 A 
BRANCH  14  19
ATOM     19  O   UNL A   1      32.284  20.513  24.943  1.00  0.00    -0.494 OA
BRANCH  19  20
ATOM     20  C   UNL A   1      32.716  19.149  24.867  1.00  0.00     0.226 C 
ATOM     21  C   UNL A   1      32.582  18.596  23.456  1.00  0.00     0.049 C 
ENDBRANCH  19  20
ENDBRANCH  14  19
BRANCH  17  22
ATOM     22  O   UNL A   1      33.402  23.922  21.889  1.00  0.00    -0.494 OA
BRANCH  22  23
ATOM     23  C   UNL A   1      33.260  25.320  22.163  1.00  0.00     0.226 C 
ATOM     24  C   UNL A   1      32.203  25.955  21.272  1.00  0.00     0.049 C 
ENDBRANCH  22  23
ENDBRANCH  17  22
ENDBRANCH   8  13
ENDBRANCH   5   7
ENDBRANCH   3   5
ENDBRANCH   2   3
ENDBRANCH   1   2
BRANCH   1  25
ATOM     25  C   UNL A   1      43.781  24.341  25.139  1.00  0.00     0.275 C 
BRANCH  25  26
ATOM     26  O   UNL A   1      43.147  25.013  26.242  1.00  0.00    -0.458 OA
BRANCH  26  27
ATOM     27  C   UNL A   1      41.998  25.665  25.951  1.00  0.00     0.338 C 
ATOM     28  O   UNL A   1      41.307  25.569  24.955  1.00  0.00    -0.246 OA
BRANCH  27  29
ATOM     29  C   UNL A   1      41.640  26.506  27.101  1.00  0.00     0.060 A 
ATOM     30  C   UNL A   1      42.301  27.723  27.273  1.00  0.00     0.016 A 
ATOM     31  C   UNL A   1      40.701  26.067  28.034  1.00  0.00     0.016 A 
ATOM     32  C   UNL A   1      42.034  28.511  28.388  1.00  0.00     0.010 A 
ATOM     33  C   UNL A   1      40.413  26.870  29.140  1.00  0.00     0.010 A 
ATOM     34  C   UNL A   1      41.082  28.094  29.328  1.00  0.00    -0.014 A 
BRANCH  34  35
ATOM     35  C   UNL A   1      40.785  28.940  30.507  1.00  0.00     0.031 A 
ATOM     36  C   UNL A   1      39.676  29.948  30.451  1.00  0.00     0.074 A 
ATOM     37  C   UNL A   1      41.517  28.797  31.627  1.00  0.00     0.049 A 
ATOM     38  N   UNL A   1      39.334  30.849  31.337  1.00  0.00    -0.248 NA
ATOM     39  C   UNL A   1      38.843  29.944  29.240  1.00  0.00     0.031 C 
ATOM     40  C   UNL A   1      42.595  27.824  31.813  1.00  0.00     0.029 A 
ATOM     41  N   UNL A   1      41.471  29.478  32.816  1.00  0.00    -0.354 N 
ATOM     42  C   UNL A   1      38.260  31.532  30.784  1.00  0.00     0.074 A 
ATOM     43  C   UNL A   1      38.014  30.952  29.480  1.00  0.00     0.031 C 
ATOM     44  C   UNL A   1      43.108  27.972  33.045  1.00  0.00     0.029 A 
ATOM     45  C   UNL A   1      42.433  29.080  33.712  1.00  0.00     0.049 A 
ATOM     46  H   UNL A   1      40.812  30.183  33.009  1.00  0.00     0.167 HD
ATOM     47  C   UNL A   1      37.544  32.550  31.320  1.00  0.00     0.037 A 
ATOM     48  C   UNL A   1      42.758  29.578  34.920  1.00  0.00     0.037 A 
ATOM     49  C   UNL A   1      37.784  33.114  32.622  1.00  0.00     0.049 A 
ATOM     50  C   UNL A   1      41.997  30.755  35.459  1.00  0.00     0.074 A 
ATOM     51  C   UNL A   1      37.091  34.125  33.266  1.00  0.00     0.029 A 
ATOM     52  N   UNL A   1      38.799  32.716  33.479  1.00  0.00    -0.354 N 
ATOM     53  N   UNL A   1      40.983  31.395  34.928  1.00  0.00    -0.248 NA
ATOM     54  C   UNL A   1      42.436  31.291  36.754  1.00  0.00     0.031 C 
ATOM     55  C   UNL A   1      37.715  34.369  34.495  1.00  0.00     0.029 A 
ATOM     56  C   UNL A   1      38.772  33.484  34.633  1.00  0.00     0.049 A 
ATOM     57  H   UNL A   1      39.444  31.997  33.295  1.00  0.00     0.167 HD
ATOM     58  C   UNL A   1      40.660  32.404  35.825  1.00  0.00     0.074 A 
ATOM     59  C   UNL A   1      41.571  32.278  36.944  1.00  0.00     0.031 C 
ATOM     60  C   UNL A   1      39.697  33.352  35.729  1.00  0.00     0.037 A 
BRANCH  47  61
ATOM     61  C   UNL A   1      36.449  33.138  30.483  1.00  0.00     0.057 A 
ATOM     62  C   UNL A   1      36.713  34.036  29.441  1.00  0.00     0.134 A 
ATOM     63  C   UNL A   1      35.114  32.774  30.701  1.00  0.00     0.134 A 
ATOM     64  F   UNL A   1      37.969  34.436  29.191  1.00  0.00    -0.206 F 
ATOM     65  C   UNL A   1      35.686  34.566  28.657  1.00  0.00     0.040 A 
ATOM     66  C   UNL A   1      34.080  33.281  29.911  1.00  0.00     0.040 A 
ATOM     67  F   UNL A   1      34.794  31.916  31.681  1.00  0.00    -0.206 F 
ATOM     68  C   UNL A   1      34.366  34.183  28.888  1.00  0.00     0.006 A 
ENDBRANCH  47  61
BRANCH  48  69
ATOM     69  C   UNL A   1      43.884  28.986  35.683  1.00  0.00     0.057 A 
ATOM     70  C   UNL A   1      45.192  29.457  35.526  1.00  0.00     0.134 A 
ATOM     71  C   UNL A   1      43.678  27.936  36.586  1.00  0.00     0.134 A 
ATOM     72  F   UNL A   1      45.454  30.444  34.657  1.00  0.00    -0.206 F 
ATOM     73  C   UNL A   1      46.257  28.901  36.236  1.00  0.00     0.040 A 
ATOM     74  C   UNL A   1      44.730  27.386  37.320  1.00  0.00     0.040 A 
ATOM     75  F   UNL A   1      42.446  27.440  36.779  1.00  0.00    -0.206 F 
ATOM     76  C   UNL A   1      46.025  27.866  37.142  1.00  0.00     0.006 A 
ENDBRANCH  48  69
BRANCH  60  77
ATOM     77  C   UNL A   1      39.584  34.324  36.864  1.00  0.00     0.057 A 
ATOM     78  C   UNL A   1      40.167  35.596  36.798  1.00  0.00     0.134 A 
ATOM     79  C   UNL A   1      38.863  33.999  38.019  1.00  0.00     0.134 A 
ATOM     80  F   UNL A   1      40.885  35.960  35.725  1.00  0.00    -0.206 F 
ATOM     81  C   UNL A   1      40.051  36.505  37.851  1.00  0.00     0.040 A 
ATOM     82  C   UNL A   1      38.721  34.907  39.068  1.00  0.00     0.040 A 
ATOM     83  F   UNL A   1      38.276  32.799  38.141  1.00  0.00    -0.206 F 
ATOM     84  C   UNL A   1      39.320  36.164  38.988  1.00  0.00     0.006 A 
ENDBRANCH  60  77
ENDBRANCH  34  35
ENDBRANCH  27  29
ENDBRANCH  26  27
ENDBRANCH  25  26
ENDBRANCH   1  25
TORSDOF 17
ENDMDL
MODEL 3
REMARK VINA RESULT:     -10.8      4.736      7.415
REMARK SMILES CCOc1cc(OCC)cc(-c2ccc([C@@H](C)C(=O)OCCOC(=O)c3ccc(-c4c5nc(c(-c6c(F)cccc6F)c6ccc([nH]6)c(-c6c(F)cccc6F)c6nc(c(-c7c(F)cccc7F)c7ccc4[nH]7)C=C6)C=C5)cc3)cc2)c1
REMARK SMILES IDX 21 1 20 2 18 3 19 4 16 5 17 6 15 7 12 8 13 9 81 10 14 11
REMARK SMILES IDX 80 12 11 13 4 14 5 15 82 16 6 17 10 18 3 19 2 20 1 21 7 22
REMARK SMILES IDX 8 23 9 24 22 25 23 26 24 27 25 28 26 29 27 30 79 31 28 32
REMARK SMILES IDX 78 33 29 34 30 35 31 36 72 37 32 38 77 39 71 40 73 41 33 42
REMARK SMILES IDX 76 43 70 44 69 45 34 47 60 48 43 49 59 50 44 51 47 52 58 53
REMARK SMILES IDX 74 54 45 55 46 56 57 58 75 59 48 60 35 61 36 62 41 63 37 64
REMARK SMILES IDX 38 65 40 66 42 67 39 68 61 69 62 70 67 71 63 72 64 73 66 74
REMARK SMILES IDX 68 75 65 76 49 77 50 78 55 79 51 80 52 81 54 82 56 83 53 84
REMARK H PARENT 73 46 47 57
REMARK Flexibility Score: inf
ROOT
ATOM      1  C   UNL A   1      34.044  34.586  31.464  1.00  0.00     0.274 C 
ENDROOT
BRANCH   1   2
ATOM      2  O   UNL A   1      32.849  34.794  30.689  1.00  0.00    -0.462 OA
BRANCH   2   3
ATOM      3  C   UNL A   1      33.007  35.175  29.396  1.00  0.00     0.313 C 
ATOM      4  O   UNL A   1      32.395  36.097  28.865  1.00  0.00    -0.252 OA
BRANCH   3   5
ATOM      5  C   UNL A   1      34.000  34.312  28.624  1.00  0.00     0.126 C 
ATOM      6  C   UNL A   1      34.773  35.167  27.624  1.00  0.00     0.025 C 
BRANCH   5   7
ATOM      7  C   UNL A   1      33.419  33.057  27.991  1.00  0.00    -0.034 A 
ATOM      8  C   UNL A   1      32.369  30.701  26.815  1.00  0.00    -0.018 A 
ATOM      9  C   UNL A   1      31.649  31.904  26.792  1.00  0.00     0.009 A 
ATOM     10  C   UNL A   1      33.617  30.690  27.447  1.00  0.00     0.009 A 
ATOM     11  C   UNL A   1      32.166  33.067  27.364  1.00  0.00     0.005 A 
ATOM     12  C   UNL A   1      34.137  31.852  28.023  1.00  0.00     0.005 A 
BRANCH   8  13
ATOM     13  C   UNL A   1      31.831  29.503  26.156  1.00  0.00    -0.011 A 
ATOM     14  C   UNL A   1      31.149  27.177  26.193  1.00  0.00     0.123 A 
ATOM     15  C   UNL A   1      30.759  27.258  24.857  1.00  0.00     0.092 A 
ATOM     16  C   UNL A   1      31.703  28.285  26.834  1.00  0.00     0.055 A 
ATOM     17  C   UNL A   1      30.905  28.455  24.154  1.00  0.00     0.123 A 
ATOM     18  C   UNL A   1      31.435  29.565  24.810  1.00  0.00     0.055 A 
BRANCH  14  19
ATOM     19  O   UNL A   1      31.083  25.959  26.812  1.00  0.00    -0.494 OA
BRANCH  19  20
ATOM     20  C   UNL A   1      31.689  24.901  26.059  1.00  0.00     0.226 C 
ATOM     21  C   UNL A   1      32.085  23.734  26.951  1.00  0.00     0.049 C 
ENDBRANCH  19  20
ENDBRANCH  14  19
BRANCH  17  22
ATOM     22  O   UNL A   1      30.482  28.439  22.852  1.00  0.00    -0.494 OA
BRANCH  22  23
ATOM     23  C   UNL A   1      29.576  29.466  22.437  1.00  0.00     0.226 C 
ATOM     24  C   UNL A   1      28.145  29.137  22.832  1.00  0.00     0.049 C 
ENDBRANCH  22  23
ENDBRANCH  17  22
ENDBRANCH   8  13
ENDBRANCH   5   7
ENDBRANCH   3   5
ENDBRANCH   2   3
ENDBRANCH   1   2
BRANCH   1  25
ATOM     25  C   UNL A   1      34.092  33.158  32.005  1.00  0.00     0.275 C 
BRANCH  25  26
ATOM     26  O   UNL A   1      35.305  32.508  31.583  1.00  0.00    -0.458 OA
BRANCH  26  27
ATOM     27  C   UNL A   1      36.202  32.245  32.560  1.00  0.00     0.338 C 
ATOM     28  O   UNL A   1      36.054  32.331  33.764  1.00  0.00    -0.246 OA
BRANCH  27  29
ATOM     29  C   UNL A   1      37.433  31.744  31.934  1.00  0.00     0.060 A 
ATOM     30  C   UNL A   1      37.561  31.829  30.547  1.00  0.00     0.016 A 
ATOM     31  C   UNL A   1      38.426  31.144  32.706  1.00  0.00     0.016 A 
ATOM     32  C   UNL A   1      38.685  31.304  29.917  1.00  0.00     0.010 A 
ATOM     33  C   UNL A   1      39.567  30.640  32.077  1.00  0.00     0.010 A 
ATOM     34  C   UNL A   1      39.701  30.711  30.678  1.00  0.00    -0.014 A 
BRANCH  34  35
ATOM     35  C   UNL A   1      40.905  30.165  30.010  1.00  0.00     0.031 A 
ATOM     36  C   UNL A   1      42.105  31.038  29.790  1.00  0.00     0.074 A 
ATOM     37  C   UNL A   1      40.914  28.883  29.601  1.00  0.00     0.049 A 
ATOM     38  N   UNL A   1      43.207  30.776  29.133  1.00  0.00    -0.248 NA
ATOM     39  C   UNL A   1      42.061  32.381  30.386  1.00  0.00     0.031 C 
ATOM     40  C   UNL A   1      39.821  27.928  29.794  1.00  0.00     0.029 A 
ATOM     41  N   UNL A   1      41.871  28.167  28.930  1.00  0.00    -0.354 N 
ATOM     42  C   UNL A   1      43.979  31.926  29.220  1.00  0.00     0.074 A 
ATOM     43  C   UNL A   1      43.215  32.893  29.980  1.00  0.00     0.031 C 
ATOM     44  C   UNL A   1      40.171  26.750  29.253  1.00  0.00     0.029 A 
ATOM     45  C   UNL A   1      41.485  26.883  28.631  1.00  0.00     0.049 A 
ATOM     46  H   UNL A   1      42.750  28.536  28.687  1.00  0.00     0.167 HD
ATOM     47  C   UNL A   1      45.214  32.151  28.710  1.00  0.00     0.037 A 
ATOM     48  C   UNL A   1      42.104  25.933  27.906  1.00  0.00     0.037 A 
ATOM     49  C   UNL A   1      45.974  31.181  27.966  1.00  0.00     0.049 A 
ATOM     50  C   UNL A   1      43.440  26.234  27.289  1.00  0.00     0.074 A 
ATOM     51  C   UNL A   1      47.248  31.304  27.439  1.00  0.00     0.029 A 
ATOM     52  N   UNL A   1      45.528  29.909  27.643  1.00  0.00    -0.354 N 
ATOM     53  N   UNL A   1      44.162  27.325  27.376  1.00  0.00    -0.248 NA
ATOM     54  C   UNL A   1      44.039  25.179  26.460  1.00  0.00     0.031 C 
ATOM     55  C   UNL A   1      47.556  30.120  26.757  1.00  0.00     0.029 A 
ATOM     56  C   UNL A   1      46.488  29.247  26.894  1.00  0.00     0.049 A 
ATOM     57  H   UNL A   1      44.658  29.532  27.905  1.00  0.00     0.167 HD
ATOM     58  C   UNL A   1      45.301  27.087  26.619  1.00  0.00     0.074 A 
ATOM     59  C   UNL A   1      45.185  25.740  26.098  1.00  0.00     0.031 C 
ATOM     60  C   UNL A   1      46.348  27.912  26.372  1.00  0.00     0.037 A 
BRANCH  47  61
ATOM     61  C   UNL A   1      45.809  33.511  28.918  1.00  0.00     0.057 A 
ATOM     62  C   UNL A   1      46.637  33.798  30.010  1.00  0.00     0.134 A 
ATOM     63  C   UNL A   1      45.576  34.537  27.993  1.00  0.00     0.134 A 
ATOM     64  F   UNL A   1      46.887  32.863  30.939  1.00  0.00    -0.206 F 
ATOM     65  C   UNL A   1      47.200  35.065  30.184  1.00  0.00     0.040 A 
ATOM     66  C   UNL A   1      46.149  35.801  28.146  1.00  0.00     0.040 A 
ATOM     67  F   UNL A   1      44.795  34.326  26.924  1.00  0.00    -0.206 F 
ATOM     68  C   UNL A   1      46.961  36.068  29.247  1.00  0.00     0.006 A 
ENDBRANCH  47  61
BRANCH  48  69
ATOM     69  C   UNL A   1      41.446  24.622  27.693  1.00  0.00     0.057 A 
ATOM     70  C   UNL A   1      40.408  24.475  26.767  1.00  0.00     0.134 A 
ATOM     71  C   UNL A   1      41.840  23.485  28.410  1.00  0.00     0.134 A 
ATOM     72  F   UNL A   1      39.971  25.533  26.069  1.00  0.00    -0.206 F 
ATOM     73  C   UNL A   1      39.779  23.245  26.566  1.00  0.00     0.040 A 
ATOM     74  C   UNL A   1      41.236  22.244  28.202  1.00  0.00     0.040 A 
ATOM     75  F   UNL A   1      42.829  23.563  29.313  1.00  0.00    -0.206 F 
ATOM     76  C   UNL A   1      40.199  22.123  27.280  1.00  0.00     0.006 A 
ENDBRANCH  48  69
BRANCH  60  77
ATOM     77  C   UNL A   1      47.445  27.377  25.504  1.00  0.00     0.057 A 
ATOM     78  C   UNL A   1      47.454  27.595  24.120  1.00  0.00     0.134 A 
ATOM     79  C   UNL A   1      48.516  26.665  26.056  1.00  0.00     0.134 A 
ATOM     80  F   UNL A   1      46.447  28.256  23.529  1.00  0.00    -0.206 F 
ATOM     81  C   UNL A   1      48.483  27.108  23.313  1.00  0.00     0.040 A 
ATOM     82  C   UNL A   1      49.562  26.192  25.263  1.00  0.00     0.040 A 
ATOM     83  F   UNL A   1      48.569  26.428  27.375  1.00  0.00    -0.206 F 
ATOM     84  C   UNL A   1      49.545  26.409  23.885  1.00  0.00     0.006 A 
ENDBRANCH  60  77
ENDBRANCH  34  35
ENDBRANCH  27  29
ENDBRANCH  26  27
ENDBRANCH  25  26
ENDBRANCH   1  25
TORSDOF 17
ENDMDL
