MODEL 1
REMARK VINA RESULT:     -11.6      0.000      0.000
REMARK SMILES Cc1cccc(O[C@H](C)C(=O)N2CCC[C@@H](C(=O)OCCOC(=O)c3ccc(-c4c5nc(c(-c6c(F)cccc6F)c6ccc([nH]6)c(-c6c(F)cccc6F)c6nc(c(-c7c(F)cccc7F)c7ccc4[nH]7)C=C6)C=C5)cc3)C2)c1
REMARK SMILES IDX 20 1 19 2 17 3 18 4 16 5 12 6 13 7 79 8 14 9 15 10 10 11
REMARK SMILES IDX 11 12 8 13 9 14 7 15 6 16 1 17 2 18 3 19 80 20 4 21 5 22
REMARK SMILES IDX 21 23 22 24 23 25 24 26 25 27 26 28 78 29 27 30 77 31 28 32
REMARK SMILES IDX 29 33 30 34 71 35 31 36 76 37 70 38 72 39 32 40 75 41 69 42
REMARK SMILES IDX 68 43 33 45 59 46 42 47 58 48 43 49 46 50 57 51 73 52 44 53
REMARK SMILES IDX 45 54 56 56 74 57 47 58 34 59 35 60 40 61 36 62 37 63 39 64
REMARK SMILES IDX 41 65 38 66 60 67 61 68 66 69 62 70 63 71 65 72 67 73 64 74
REMARK SMILES IDX 48 75 49 76 54 77 50 78 51 79 53 80 55 81 52 82
REMARK H PARENT 72 44 46 55
REMARK Flexibility Score: inf
ROOT
ATOM      1  C   UNL A   1      33.777  28.787  26.209  1.00  0.00     0.274 C 
ENDROOT
BRANCH   1   2
ATOM      2  O   UNL A   1      32.375  28.972  26.368  1.00  0.00    -0.462 OA
BRANCH   2   3
ATOM      3  C   UNL A   1      31.610  27.916  26.779  1.00  0.00     0.310 C 
ATOM      4  O   UNL A   1      31.005  27.840  27.839  1.00  0.00    -0.252 OA
BRANCH   3   5
ATOM      5  C   UNL A   1      31.731  26.845  25.726  1.00  0.00     0.119 C 
ATOM      6  N   UNL A   1      31.049  24.533  25.503  1.00  0.00    -0.339 N 
ATOM      7  C   UNL A   1      30.719  24.673  24.083  1.00  0.00     0.119 C 
ATOM      8  C   UNL A   1      30.872  25.730  26.268  1.00  0.00     0.134 C 
ATOM      9  C   UNL A   1      31.441  25.872  23.446  1.00  0.00     0.022 C 
ATOM     10  C   UNL A   1      31.327  27.157  24.290  1.00  0.00     0.019 C 
BRANCH   6  11
ATOM     11  C   UNL A   1      31.514  23.349  26.048  1.00  0.00     0.263 C 
ATOM     12  O   UNL A   1      30.887  22.297  25.869  1.00  0.00    -0.271 OA
BRANCH  11  13
ATOM     13  C   UNL A   1      32.889  23.299  26.841  1.00  0.00     0.259 C 
ATOM     14  C   UNL A   1      33.139  21.936  27.502  1.00  0.00     0.064 C 
BRANCH  13  15
ATOM     15  O   UNL A   1      34.067  24.021  26.456  1.00  0.00    -0.481 OA
BRANCH  15  16
ATOM     16  C   UNL A   1      34.955  23.599  25.513  1.00  0.00     0.120 A 
ATOM     17  C   UNL A   1      38.334  21.800  25.556  1.00  0.00     0.044 C 
ATOM     18  C   UNL A   1      37.099  22.505  25.081  1.00  0.00    -0.047 A 
ATOM     19  C   UNL A   1      36.863  22.580  23.709  1.00  0.00     0.003 A 
ATOM     20  C   UNL A   1      36.150  23.033  25.975  1.00  0.00     0.049 A 
ATOM     21  C   UNL A   1      35.646  23.065  23.251  1.00  0.00     0.004 A 
ATOM     22  C   UNL A   1      34.681  23.543  24.147  1.00  0.00     0.046 A 
ENDBRANCH  15  16
ENDBRANCH  13  15
ENDBRANCH  11  13
ENDBRANCH   6  11
ENDBRANCH   3   5
ENDBRANCH   2   3
ENDBRANCH   1   2
BRANCH   1  23
ATOM     23  C   UNL A   1      34.527  29.920  26.926  1.00  0.00     0.275 C 
BRANCH  23  24
ATOM     24  O   UNL A   1      35.328  29.593  28.112  1.00  0.00    -0.458 OA
BRANCH  24  25
ATOM     25  C   UNL A   1      36.487  30.144  28.559  1.00  0.00     0.338 C 
ATOM     26  O   UNL A   1      36.541  31.258  29.063  1.00  0.00    -0.246 OA
BRANCH  25  27
ATOM     27  C   UNL A   1      37.688  29.311  28.470  1.00  0.00     0.060 A 
ATOM     28  C   UNL A   1      38.587  29.501  27.406  1.00  0.00     0.016 A 
ATOM     29  C   UNL A   1      37.983  28.474  29.536  1.00  0.00     0.016 A 
ATOM     30  C   UNL A   1      39.849  28.929  27.473  1.00  0.00     0.010 A 
ATOM     31  C   UNL A   1      39.283  28.081  29.699  1.00  0.00     0.010 A 
ATOM     32  C   UNL A   1      40.190  28.252  28.643  1.00  0.00    -0.014 A 
BRANCH  32  33
ATOM     33  C   UNL A   1      41.309  27.333  28.719  1.00  0.00     0.031 A 
ATOM     34  C   UNL A   1      41.140  25.901  28.450  1.00  0.00     0.074 A 
ATOM     35  C   UNL A   1      42.446  28.013  28.988  1.00  0.00     0.049 A 
ATOM     36  N   UNL A   1      41.723  24.960  29.106  1.00  0.00    -0.248 NA
ATOM     37  C   UNL A   1      40.212  25.390  27.438  1.00  0.00     0.031 C 
ATOM     38  C   UNL A   1      43.844  27.655  28.954  1.00  0.00     0.029 A 
ATOM     39  N   UNL A   1      42.454  29.317  29.526  1.00  0.00    -0.354 N 
ATOM     40  C   UNL A   1      41.576  23.814  28.346  1.00  0.00     0.074 A 
ATOM     41  C   UNL A   1      40.461  24.075  27.473  1.00  0.00     0.031 C 
ATOM     42  C   UNL A   1      44.519  28.534  29.730  1.00  0.00     0.029 A 
ATOM     43  C   UNL A   1      43.538  29.404  30.382  1.00  0.00     0.049 A 
ATOM     44  H   UNL A   1      41.808  30.035  29.328  1.00  0.00     0.167 HD
ATOM     45  C   UNL A   1      42.600  22.909  28.304  1.00  0.00     0.037 A 
ATOM     46  C   UNL A   1      43.266  29.472  31.718  1.00  0.00     0.037 A 
ATOM     47  C   UNL A   1      43.717  23.422  29.093  1.00  0.00     0.049 A 
ATOM     48  C   UNL A   1      43.752  28.218  32.387  1.00  0.00     0.074 A 
ATOM     49  C   UNL A   1      44.804  24.189  28.700  1.00  0.00     0.029 A 
ATOM     50  N   UNL A   1      43.600  23.571  30.469  1.00  0.00    -0.354 N 
ATOM     51  N   UNL A   1      43.687  27.029  31.851  1.00  0.00    -0.248 NA
ATOM     52  C   UNL A   1      44.429  28.243  33.674  1.00  0.00     0.031 C 
ATOM     53  C   UNL A   1      45.302  24.856  29.842  1.00  0.00     0.029 A 
ATOM     54  C   UNL A   1      44.512  24.507  30.923  1.00  0.00     0.049 A 
ATOM     55  H   UNL A   1      42.963  23.081  31.037  1.00  0.00     0.167 HD
ATOM     56  C   UNL A   1      44.370  26.156  32.656  1.00  0.00     0.074 A 
ATOM     57  C   UNL A   1      44.794  26.957  33.792  1.00  0.00     0.031 C 
ATOM     58  C   UNL A   1      44.594  24.851  32.330  1.00  0.00     0.037 A 
BRANCH  45  59
ATOM     59  C   UNL A   1      42.766  21.844  27.236  1.00  0.00     0.057 A 
ATOM     60  C   UNL A   1      41.967  20.679  27.248  1.00  0.00     0.134 A 
ATOM     61  C   UNL A   1      43.697  21.893  26.185  1.00  0.00     0.134 A 
ATOM     62  F   UNL A   1      40.962  20.518  28.117  1.00  0.00    -0.206 F 
ATOM     63  C   UNL A   1      42.150  19.610  26.362  1.00  0.00     0.040 A 
ATOM     64  C   UNL A   1      43.910  20.817  25.304  1.00  0.00     0.040 A 
ATOM     65  F   UNL A   1      44.413  22.999  25.938  1.00  0.00    -0.206 F 
ATOM     66  C   UNL A   1      43.144  19.663  25.400  1.00  0.00     0.006 A 
ENDBRANCH  45  59
BRANCH  46  67
ATOM     67  C   UNL A   1      42.002  30.199  32.097  1.00  0.00     0.057 A 
ATOM     68  C   UNL A   1      41.916  31.598  31.912  1.00  0.00     0.134 A 
ATOM     69  C   UNL A   1      40.806  29.555  32.436  1.00  0.00     0.134 A 
ATOM     70  F   UNL A   1      43.012  32.305  31.590  1.00  0.00    -0.206 F 
ATOM     71  C   UNL A   1      40.704  32.297  31.975  1.00  0.00     0.040 A 
ATOM     72  C   UNL A   1      39.587  30.249  32.523  1.00  0.00     0.040 A 
ATOM     73  F   UNL A   1      40.773  28.230  32.633  1.00  0.00    -0.206 F 
ATOM     74  C   UNL A   1      39.528  31.618  32.268  1.00  0.00     0.006 A 
ENDBRANCH  46  67
BRANCH  58  75
ATOM     75  C   UNL A   1      45.057  23.802  33.298  1.00  0.00     0.057 A 
ATOM     76  C   UNL A   1      46.366  23.740  33.792  1.00  0.00     0.134 A 
ATOM     77  C   UNL A   1      44.139  22.911  33.894  1.00  0.00     0.134 A 
ATOM     78  F   UNL A   1      47.303  24.620  33.413  1.00  0.00    -0.206 F 
ATOM     79  C   UNL A   1      46.758  22.798  34.746  1.00  0.00     0.040 A 
ATOM     80  C   UNL A   1      44.504  22.014  34.896  1.00  0.00     0.040 A 
ATOM     81  F   UNL A   1      42.841  22.891  33.553  1.00  0.00    -0.206 F 
ATOM     82  C   UNL A   1      45.824  21.939  35.309  1.00  0.00     0.006 A 
ENDBRANCH  58  75
ENDBRANCH  32  33
ENDBRANCH  25  27
ENDBRANCH  24  25
ENDBRANCH  23  24
ENDBRANCH   1  23
TORSDOF 15
ENDMDL
MODEL 2
REMARK VINA RESULT:     -11.5      0.859      1.451
REMARK SMILES Cc1cccc(O[C@H](C)C(=O)N2CCC[C@@H](C(=O)OCCOC(=O)c3ccc(-c4c5nc(c(-c6c(F)cccc6F)c6ccc([nH]6)c(-c6c(F)cccc6F)c6nc(c(-c7c(F)cccc7F)c7ccc4[nH]7)C=C6)C=C5)cc3)C2)c1
REMARK SMILES IDX 20 1 19 2 17 3 18 4 16 5 12 6 13 7 79 8 14 9 15 10 10 11
REMARK SMILES IDX 11 12 8 13 9 14 7 15 6 16 1 17 2 18 3 19 80 20 4 21 5 22
REMARK SMILES IDX 21 23 22 24 23 25 24 26 25 27 26 28 78 29 27 30 77 31 28 32
REMARK SMILES IDX 29 33 30 34 71 35 31 36 76 37 70 38 72 39 32 40 75 41 69 42
REMARK SMILES IDX 68 43 33 45 59 46 42 47 58 48 43 49 46 50 57 51 73 52 44 53
REMARK SMILES IDX 45 54 56 56 74 57 47 58 34 59 35 60 40 61 36 62 37 63 39 64
REMARK SMILES IDX 41 65 38 66 60 67 61 68 66 69 62 70 63 71 65 72 67 73 64 74
REMARK SMILES IDX 48 75 49 76 54 77 50 78 51 79 53 80 55 81 52 82
REMARK H PARENT 72 44 46 55
REMARK Flexibility Score: inf
ROOT
ATOM      1  C   UNL A   1      33.303  30.342  26.465  1.00  0.00     0.274 C 
ENDROOT
BRANCH   1   2
ATOM      2  O   UNL A   1      32.558  29.190  26.086  1.00  0.00    -0.462 OA
BRANCH   2   3
ATOM      3  C   UNL A   1      33.044  28.382  25.097  1.00  0.00     0.310 C 
ATOM      4  O   UNL A   1      34.069  28.571  24.457  1.00  0.00    -0.252 OA
BRANCH   3   5
ATOM      5  C   UNL A   1      32.038  27.280  24.891  1.00  0.00     0.119 C 
ATOM      6  N   UNL A   1      31.262  25.367  26.156  1.00  0.00    -0.339 N 
ATOM      7  C   UNL A   1      29.872  25.533  25.725  1.00  0.00     0.119 C 
ATOM      8  C   UNL A   1      32.002  26.590  26.231  1.00  0.00     0.134 C 
ATOM      9  C   UNL A   1      29.771  26.344  24.422  1.00  0.00     0.022 C 
ATOM     10  C   UNL A   1      30.621  27.631  24.452  1.00  0.00     0.019 C 
BRANCH   6  11
ATOM     11  C   UNL A   1      31.812  24.130  26.441  1.00  0.00     0.263 C 
ATOM     12  O   UNL A   1      31.729  23.665  27.584  1.00  0.00    -0.271 OA
BRANCH  11  13
ATOM     13  C   UNL A   1      32.489  23.255  25.302  1.00  0.00     0.259 C 
ATOM     14  C   UNL A   1      31.461  22.484  24.462  1.00  0.00     0.064 C 
BRANCH  13  15
ATOM     15  O   UNL A   1      33.694  23.620  24.615  1.00  0.00    -0.481 OA
BRANCH  15  16
ATOM     16  C   UNL A   1      34.946  23.262  25.014  1.00  0.00     0.120 A 
ATOM     17  C   UNL A   1      37.064  20.078  24.827  1.00  0.00     0.044 C 
ATOM     18  C   UNL A   1      36.613  21.476  25.129  1.00  0.00    -0.047 A 
ATOM     19  C   UNL A   1      37.531  22.366  25.683  1.00  0.00     0.003 A 
ATOM     20  C   UNL A   1      35.318  21.926  24.815  1.00  0.00     0.049 A 
ATOM     21  C   UNL A   1      37.194  23.707  25.806  1.00  0.00     0.004 A 
ATOM     22  C   UNL A   1      35.920  24.162  25.443  1.00  0.00     0.046 A 
ENDBRANCH  15  16
ENDBRANCH  13  15
ENDBRANCH  11  13
ENDBRANCH   6  11
ENDBRANCH   3   5
ENDBRANCH   2   3
ENDBRANCH   1   2
BRANCH   1  23
ATOM     23  C   UNL A   1      34.145  30.019  27.710  1.00  0.00     0.275 C 
BRANCH  23  24
ATOM     24  O   UNL A   1      35.546  29.621  27.527  1.00  0.00    -0.458 OA
BRANCH  24  25
ATOM     25  C   UNL A   1      36.677  30.137  28.077  1.00  0.00     0.338 C 
ATOM     26  O   UNL A   1      36.710  31.232  28.621  1.00  0.00    -0.246 OA
BRANCH  25  27
ATOM     27  C   UNL A   1      37.869  29.288  28.046  1.00  0.00     0.060 A 
ATOM     28  C   UNL A   1      38.807  29.445  27.011  1.00  0.00     0.016 A 
ATOM     29  C   UNL A   1      38.116  28.468  29.138  1.00  0.00     0.016 A 
ATOM     30  C   UNL A   1      40.058  28.857  27.134  1.00  0.00     0.010 A 
ATOM     31  C   UNL A   1      39.404  28.062  29.355  1.00  0.00     0.010 A 
ATOM     32  C   UNL A   1      40.349  28.200  28.328  1.00  0.00    -0.014 A 
BRANCH  32  33
ATOM     33  C   UNL A   1      41.452  27.269  28.461  1.00  0.00     0.031 A 
ATOM     34  C   UNL A   1      41.272  25.833  28.222  1.00  0.00     0.074 A 
ATOM     35  C   UNL A   1      42.590  27.941  28.748  1.00  0.00     0.049 A 
ATOM     36  N   UNL A   1      41.822  24.901  28.920  1.00  0.00    -0.248 NA
ATOM     37  C   UNL A   1      40.368  25.309  27.195  1.00  0.00     0.031 C 
ATOM     38  C   UNL A   1      43.983  27.563  28.767  1.00  0.00     0.029 A 
ATOM     39  N   UNL A   1      42.600  29.258  29.253  1.00  0.00    -0.354 N 
ATOM     40  C   UNL A   1      41.682  23.738  28.184  1.00  0.00     0.074 A 
ATOM     41  C   UNL A   1      40.598  23.992  27.270  1.00  0.00     0.031 C 
ATOM     42  C   UNL A   1      44.647  28.452  29.541  1.00  0.00     0.029 A 
ATOM     43  C   UNL A   1      43.658  29.351  30.140  1.00  0.00     0.049 A 
ATOM     44  H   UNL A   1      41.970  29.978  29.018  1.00  0.00     0.167 HD
ATOM     45  C   UNL A   1      42.694  22.819  28.196  1.00  0.00     0.037 A 
ATOM     46  C   UNL A   1      43.346  29.457  31.465  1.00  0.00     0.037 A 
ATOM     47  C   UNL A   1      43.793  23.337  29.006  1.00  0.00     0.049 A 
ATOM     48  C   UNL A   1      43.794  28.213  32.179  1.00  0.00     0.074 A 
ATOM     49  C   UNL A   1      44.902  24.079  28.628  1.00  0.00     0.029 A 
ATOM     50  N   UNL A   1      43.637  23.522  30.374  1.00  0.00    -0.354 N 
ATOM     51  N   UNL A   1      43.729  27.012  31.672  1.00  0.00    -0.248 NA
ATOM     52  C   UNL A   1      44.431  28.262  33.486  1.00  0.00     0.031 C 
ATOM     53  C   UNL A   1      45.374  24.768  29.768  1.00  0.00     0.029 A 
ATOM     54  C   UNL A   1      44.547  24.458  30.832  1.00  0.00     0.049 A 
ATOM     55  H   UNL A   1      42.976  23.055  30.934  1.00  0.00     0.167 HD
ATOM     56  C   UNL A   1      44.375  26.151  32.518  1.00  0.00     0.074 A 
ATOM     57  C   UNL A   1      44.775  26.975  33.647  1.00  0.00     0.031 C 
ATOM     58  C   UNL A   1      44.590  24.835  32.232  1.00  0.00     0.037 A 
BRANCH  45  59
ATOM     59  C   UNL A   1      42.877  21.725  27.161  1.00  0.00     0.057 A 
ATOM     60  C   UNL A   1      42.102  20.546  27.210  1.00  0.00     0.134 A 
ATOM     61  C   UNL A   1      43.804  21.761  26.105  1.00  0.00     0.134 A 
ATOM     62  F   UNL A   1      41.103  20.392  28.089  1.00  0.00    -0.206 F 
ATOM     63  C   UNL A   1      42.303  19.454  26.357  1.00  0.00     0.040 A 
ATOM     64  C   UNL A   1      44.035  20.662  25.256  1.00  0.00     0.040 A 
ATOM     65  F   UNL A   1      44.497  22.873  25.821  1.00  0.00    -0.206 F 
ATOM     66  C   UNL A   1      43.293  19.497  25.390  1.00  0.00     0.006 A 
ENDBRANCH  45  59
BRANCH  46  67
ATOM     67  C   UNL A   1      42.082  30.210  31.787  1.00  0.00     0.057 A 
ATOM     68  C   UNL A   1      40.948  29.507  32.254  1.00  0.00     0.134 A 
ATOM     69  C   UNL A   1      42.004  31.606  31.855  1.00  0.00     0.134 A 
ATOM     70  F   UNL A   1      40.926  28.164  32.223  1.00  0.00    -0.206 F 
ATOM     71  C   UNL A   1      39.844  30.149  32.830  1.00  0.00     0.040 A 
ATOM     72  C   UNL A   1      40.893  32.262  32.413  1.00  0.00     0.040 A 
ATOM     73  F   UNL A   1      43.024  32.371  31.441  1.00  0.00    -0.206 F 
ATOM     74  C   UNL A   1      39.821  31.534  32.925  1.00  0.00     0.006 A 
ENDBRANCH  46  67
BRANCH  58  75
ATOM     75  C   UNL A   1      45.009  23.806  33.240  1.00  0.00     0.057 A 
ATOM     76  C   UNL A   1      46.297  23.748  33.787  1.00  0.00     0.134 A 
ATOM     77  C   UNL A   1      44.063  22.931  33.818  1.00  0.00     0.134 A 
ATOM     78  F   UNL A   1      47.253  24.615  33.427  1.00  0.00    -0.206 F 
ATOM     79  C   UNL A   1      46.646  22.825  34.775  1.00  0.00     0.040 A 
ATOM     80  C   UNL A   1      44.383  22.054  34.852  1.00  0.00     0.040 A 
ATOM     81  F   UNL A   1      42.780  22.910  33.425  1.00  0.00    -0.206 F 
ATOM     82  C   UNL A   1      45.686  21.981  35.318  1.00  0.00     0.006 A 
ENDBRANCH  58  75
ENDBRANCH  32  33
ENDBRANCH  25  27
ENDBRANCH  24  25
ENDBRANCH  23  24
ENDBRANCH   1  23
TORSDOF 15
ENDMDL
MODEL 3
REMARK VINA RESULT:     -11.5      3.633      9.046
REMARK SMILES Cc1cccc(O[C@H](C)C(=O)N2CCC[C@@H](C(=O)OCCOC(=O)c3ccc(-c4c5nc(c(-c6c(F)cccc6F)c6ccc([nH]6)c(-c6c(F)cccc6F)c6nc(c(-c7c(F)cccc7F)c7ccc4[nH]7)C=C6)C=C5)cc3)C2)c1
REMARK SMILES IDX 20 1 19 2 17 3 18 4 16 5 12 6 13 7 79 8 14 9 15 10 10 11
REMARK SMILES IDX 11 12 8 13 9 14 7 15 6 16 1 17 2 18 3 19 80 20 4 21 5 22
REMARK SMILES IDX 21 23 22 24 23 25 24 26 25 27 26 28 78 29 27 30 77 31 28 32
REMARK SMILES IDX 29 33 30 34 71 35 31 36 76 37 70 38 72 39 32 40 75 41 69 42
REMARK SMILES IDX 68 43 33 45 59 46 42 47 58 48 43 49 46 50 57 51 73 52 44 53
REMARK SMILES IDX 45 54 56 56 74 57 47 58 34 59 35 60 40 61 36 62 37 63 39 64
REMARK SMILES IDX 41 65 38 66 60 67 61 68 66 69 62 70 63 71 65 72 67 73 64 74
REMARK SMILES IDX 48 75 49 76 54 77 50 78 51 79 53 80 55 81 52 82
REMARK H PARENT 72 44 46 55
REMARK Flexibility Score: inf
ROOT
ATOM      1  C   UNL A   1      36.580  23.479  24.839  1.00  0.00     0.274 C 
ENDROOT
BRANCH   1   2
ATOM      2  O   UNL A   1      35.361  24.204  24.719  1.00  0.00    -0.462 OA
BRANCH   2   3
ATOM      3  C   UNL A   1      34.633  24.091  23.568  1.00  0.00     0.310 C 
ATOM      4  O   UNL A   1      34.839  23.294  22.665  1.00  0.00    -0.252 OA
BRANCH   3   5
ATOM      5  C   UNL A   1      33.597  25.186  23.591  1.00  0.00     0.119 C 
ATOM      6  N   UNL A   1      32.666  26.673  25.259  1.00  0.00    -0.339 N 
ATOM      7  C   UNL A   1      32.582  27.805  24.333  1.00  0.00     0.119 C 
ATOM      8  C   UNL A   1      33.735  25.763  24.977  1.00  0.00     0.134 C 
ATOM      9  C   UNL A   1      32.568  27.342  22.866  1.00  0.00     0.022 C 
ATOM     10  C   UNL A   1      33.665  26.303  22.557  1.00  0.00     0.019 C 
BRANCH   6  11
ATOM     11  C   UNL A   1      31.773  26.493  26.300  1.00  0.00     0.263 C 
ATOM     12  O   UNL A   1      31.861  27.189  27.319  1.00  0.00    -0.271 OA
BRANCH  11  13
ATOM     13  C   UNL A   1      30.579  25.452  26.181  1.00  0.00     0.259 C 
ATOM     14  C   UNL A   1      29.833  25.561  24.843  1.00  0.00     0.064 C 
BRANCH  13  15
ATOM     15  O   UNL A   1      30.586  24.147  26.776  1.00  0.00    -0.481 OA
BRANCH  15  16
ATOM     16  C   UNL A   1      31.539  23.201  26.546  1.00  0.00     0.120 A 
ATOM     17  C   UNL A   1      32.382  20.818  23.670  1.00  0.00     0.044 C 
ATOM     18  C   UNL A   1      32.412  21.528  24.991  1.00  0.00    -0.047 A 
ATOM     19  C   UNL A   1      33.476  21.277  25.856  1.00  0.00     0.003 A 
ATOM     20  C   UNL A   1      31.439  22.477  25.351  1.00  0.00     0.049 A 
ATOM     21  C   UNL A   1      33.623  22.048  27.000  1.00  0.00     0.004 A 
ATOM     22  C   UNL A   1      32.679  23.029  27.329  1.00  0.00     0.046 A 
ENDBRANCH  15  16
ENDBRANCH  13  15
ENDBRANCH  11  13
ENDBRANCH   6  11
ENDBRANCH   3   5
ENDBRANCH   2   3
ENDBRANCH   1   2
BRANCH   1  23
ATOM     23  C   UNL A   1      37.269  23.851  26.161  1.00  0.00     0.275 C 
BRANCH  23  24
ATOM     24  O   UNL A   1      38.619  24.424  26.113  1.00  0.00    -0.458 OA
BRANCH  24  25
ATOM     25  C   UNL A   1      39.489  24.690  27.123  1.00  0.00     0.338 C 
ATOM     26  O   UNL A   1      40.400  23.935  27.431  1.00  0.00    -0.246 OA
BRANCH  25  27
ATOM     27  C   UNL A   1      39.327  25.975  27.807  1.00  0.00     0.060 A 
ATOM     28  C   UNL A   1      38.955  25.999  29.162  1.00  0.00     0.016 A 
ATOM     29  C   UNL A   1      39.712  27.126  27.135  1.00  0.00     0.016 A 
ATOM     30  C   UNL A   1      39.082  27.178  29.881  1.00  0.00     0.010 A 
ATOM     31  C   UNL A   1      40.029  28.227  27.882  1.00  0.00     0.010 A 
ATOM     32  C   UNL A   1      39.654  28.271  29.233  1.00  0.00    -0.014 A 
BRANCH  32  33
ATOM     33  C   UNL A   1      39.535  29.628  29.731  1.00  0.00     0.031 A 
ATOM     34  C   UNL A   1      38.469  30.521  29.266  1.00  0.00     0.074 A 
ATOM     35  C   UNL A   1      40.474  29.854  30.678  1.00  0.00     0.049 A 
ATOM     36  N   UNL A   1      38.619  31.777  29.029  1.00  0.00    -0.248 NA
ATOM     37  C   UNL A   1      37.121  30.045  28.947  1.00  0.00     0.031 C 
ATOM     38  C   UNL A   1      40.673  30.913  31.639  1.00  0.00     0.029 A 
ATOM     39  N   UNL A   1      41.625  29.053  30.828  1.00  0.00    -0.354 N 
ATOM     40  C   UNL A   1      37.344  32.307  28.949  1.00  0.00     0.074 A 
ATOM     41  C   UNL A   1      36.481  31.188  28.672  1.00  0.00     0.031 C 
ATOM     42  C   UNL A   1      41.971  30.890  32.021  1.00  0.00     0.029 A 
ATOM     43  C   UNL A   1      42.661  29.887  31.209  1.00  0.00     0.049 A 
ATOM     44  H   UNL A   1      41.681  28.079  30.689  1.00  0.00     0.167 HD
ATOM     45  C   UNL A   1      37.114  33.560  29.446  1.00  0.00     0.037 A 
ATOM     46  C   UNL A   1      43.641  30.115  30.285  1.00  0.00     0.037 A 
ATOM     47  C   UNL A   1      38.350  34.070  30.032  1.00  0.00     0.049 A 
ATOM     48  C   UNL A   1      43.594  31.556  29.860  1.00  0.00     0.074 A 
ATOM     49  C   UNL A   1      38.814  33.987  31.336  1.00  0.00     0.029 A 
ATOM     50  N   UNL A   1      39.453  34.341  29.232  1.00  0.00    -0.354 N 
ATOM     51  N   UNL A   1      42.492  32.239  29.704  1.00  0.00    -0.248 NA
ATOM     52  C   UNL A   1      44.802  32.344  29.671  1.00  0.00     0.031 C 
ATOM     53  C   UNL A   1      40.219  34.143  31.310  1.00  0.00     0.029 A 
ATOM     54  C   UNL A   1      40.609  34.306  29.992  1.00  0.00     0.049 A 
ATOM     55  H   UNL A   1      39.417  34.530  28.267  1.00  0.00     0.167 HD
ATOM     56  C   UNL A   1      42.825  33.549  29.483  1.00  0.00     0.074 A 
ATOM     57  C   UNL A   1      44.277  33.559  29.448  1.00  0.00     0.031 C 
ATOM     58  C   UNL A   1      41.906  34.553  29.392  1.00  0.00     0.037 A 
BRANCH  45  59
ATOM     59  C   UNL A   1      35.745  34.109  29.801  1.00  0.00     0.057 A 
ATOM     60  C   UNL A   1      34.874  34.586  28.797  1.00  0.00     0.134 A 
ATOM     61  C   UNL A   1      35.231  34.210  31.105  1.00  0.00     0.134 A 
ATOM     62  F   UNL A   1      35.164  34.470  27.495  1.00  0.00    -0.206 F 
ATOM     63  C   UNL A   1      33.650  35.208  29.070  1.00  0.00     0.040 A 
ATOM     64  C   UNL A   1      34.015  34.856  31.397  1.00  0.00     0.040 A 
ATOM     65  F   UNL A   1      35.860  33.654  32.150  1.00  0.00    -0.206 F 
ATOM     66  C   UNL A   1      33.226  35.371  30.378  1.00  0.00     0.006 A 
ENDBRANCH  45  59
BRANCH  46  67
ATOM     67  C   UNL A   1      43.955  28.969  29.360  1.00  0.00     0.057 A 
ATOM     68  C   UNL A   1      43.549  29.029  28.008  1.00  0.00     0.134 A 
ATOM     69  C   UNL A   1      44.816  27.916  29.692  1.00  0.00     0.134 A 
ATOM     70  F   UNL A   1      42.719  30.001  27.594  1.00  0.00    -0.206 F 
ATOM     71  C   UNL A   1      44.034  28.149  27.032  1.00  0.00     0.040 A 
ATOM     72  C   UNL A   1      45.294  27.014  28.725  1.00  0.00     0.040 A 
ATOM     73  F   UNL A   1      45.265  27.766  30.945  1.00  0.00    -0.206 F 
ATOM     74  C   UNL A   1      44.925  27.144  27.387  1.00  0.00     0.006 A 
ENDBRANCH  46  67
BRANCH  58  75
ATOM     75  C   UNL A   1      42.198  35.922  28.853  1.00  0.00     0.057 A 
ATOM     76  C   UNL A   1      42.919  36.888  29.566  1.00  0.00     0.134 A 
ATOM     77  C   UNL A   1      41.895  36.254  27.515  1.00  0.00     0.134 A 
ATOM     78  F   UNL A   1      43.389  36.648  30.798  1.00  0.00    -0.206 F 
ATOM     79  C   UNL A   1      43.240  38.133  29.019  1.00  0.00     0.040 A 
ATOM     80  C   UNL A   1      42.270  37.465  26.937  1.00  0.00     0.040 A 
ATOM     81  F   UNL A   1      41.249  35.406  26.700  1.00  0.00    -0.206 F 
ATOM     82  C   UNL A   1      42.925  38.421  27.698  1.00  0.00     0.006 A 
ENDBRANCH  58  75
ENDBRANCH  32  33
ENDBRANCH  25  27
ENDBRANCH  24  25
ENDBRANCH  23  24
ENDBRANCH   1  23
TORSDOF 15
ENDMDL
