MODEL 1
REMARK VINA RESULT:     -12.1      0.000      0.000
REMARK SMILES C[C@@H](C(=O)OCCOC(=O)c1ccc(-c2c3nc(c(-c4c(F)cccc4F)c4ccc([nH]4)c(-c4c(F)cccc4F)c4nc(c(-c5c(F)cccc5F)c5ccc2[nH]5)C=C4)C=C3)cc1)c1ccc(C[C@H]2CCC[C@@H]2O)cc1F
REMARK SMILES IDX 6 1 5 2 3 3 4 4 2 5 1 6 65 7 66 8 77 9 67 10 76 11 78 12
REMARK SMILES IDX 68 13 69 14 70 15 71 16 74 17 72 18 73 19 75 20 7 22 8 23
REMARK SMILES IDX 9 24 10 25 11 26 12 27 64 28 13 29 63 30 14 31 15 32 16 33
REMARK SMILES IDX 57 34 17 35 62 36 56 37 58 38 18 39 61 40 55 41 54 42 19 44
REMARK SMILES IDX 45 45 28 46 44 47 29 48 32 49 43 50 59 51 30 52 31 53 42 55
REMARK SMILES IDX 60 56 33 57 20 58 21 59 26 60 22 61 23 62 25 63 27 64 24 65
REMARK SMILES IDX 46 66 47 67 52 68 48 69 49 70 51 71 53 72 50 73 34 74 35 75
REMARK SMILES IDX 40 76 36 77 37 78 39 79 41 80 38 81
REMARK H PARENT 75 21 58 43 32 54
REMARK Flexibility Score: inf
ROOT
ATOM      1  C   UNL A   1      31.342  28.253  25.766  1.00  0.00     0.274 C 
ENDROOT
BRANCH   1   2
ATOM      2  O   UNL A   1      32.432  27.398  25.368  1.00  0.00    -0.462 OA
BRANCH   2   3
ATOM      3  C   UNL A   1      32.138  26.433  24.448  1.00  0.00     0.313 C 
ATOM      4  O   UNL A   1      31.001  26.097  24.139  1.00  0.00    -0.252 OA
BRANCH   3   5
ATOM      5  C   UNL A   1      33.404  25.884  23.775  1.00  0.00     0.129 C 
ATOM      6  C   UNL A   1      33.602  26.424  22.357  1.00  0.00     0.025 C 
BRANCH   5   7
ATOM      7  C   UNL A   1      33.398  24.369  23.829  1.00  0.00     0.002 A 
ATOM      8  C   UNL A   1      33.052  23.628  22.700  1.00  0.00     0.008 A 
ATOM      9  C   UNL A   1      33.620  23.676  25.024  1.00  0.00     0.127 A 
ATOM     10  C   UNL A   1      32.808  22.262  22.811  1.00  0.00     0.004 A 
ATOM     11  C   UNL A   1      33.342  22.310  25.142  1.00  0.00     0.043 A 
ATOM     12  F   UNL A   1      34.073  24.334  26.101  1.00  0.00    -0.207 F 
ATOM     13  C   UNL A   1      32.849  21.606  24.044  1.00  0.00    -0.045 A 
BRANCH  13  14
ATOM     14  C   UNL A   1      32.316  20.199  24.137  1.00  0.00     0.041 C 
BRANCH  14  15
ATOM     15  C   UNL A   1      33.226  19.060  23.606  1.00  0.00     0.022 C 
ATOM     16  C   UNL A   1      34.340  18.667  24.590  1.00  0.00     0.007 C 
ATOM     17  C   UNL A   1      32.623  17.695  23.246  1.00  0.00     0.117 C 
ATOM     18  C   UNL A   1      34.747  17.231  24.234  1.00  0.00     0.003 C 
ATOM     19  C   UNL A   1      33.862  16.827  23.071  1.00  0.00     0.032 C 
BRANCH  17  20
ATOM     20  O   UNL A   1      31.890  17.693  22.045  1.00  0.00    -0.393 OA
ATOM     21  H   UNL A   1      31.852  18.593  21.687  1.00  0.00     0.210 HD
ENDBRANCH  17  20
ENDBRANCH  14  15
ENDBRANCH  13  14
ENDBRANCH   5   7
ENDBRANCH   3   5
ENDBRANCH   2   3
ENDBRANCH   1   2
BRANCH   1  22
ATOM     22  C   UNL A   1      31.473  29.586  25.023  1.00  0.00     0.275 C 
BRANCH  22  23
ATOM     23  O   UNL A   1      32.725  30.187  25.399  1.00  0.00    -0.458 OA
BRANCH  23  24
ATOM     24  C   UNL A   1      32.739  30.926  26.539  1.00  0.00     0.338 C 
ATOM     25  O   UNL A   1      31.841  31.643  26.945  1.00  0.00    -0.246 OA
BRANCH  24  26
ATOM     26  C   UNL A   1      34.032  30.719  27.250  1.00  0.00     0.060 A 
ATOM     27  C   UNL A   1      34.502  29.431  27.475  1.00  0.00     0.016 A 
ATOM     28  C   UNL A   1      34.768  31.799  27.761  1.00  0.00     0.016 A 
ATOM     29  C   UNL A   1      35.642  29.228  28.247  1.00  0.00     0.010 A 
ATOM     30  C   UNL A   1      35.966  31.582  28.479  1.00  0.00     0.010 A 
ATOM     31  C   UNL A   1      36.411  30.280  28.736  1.00  0.00    -0.014 A 
BRANCH  31  32
ATOM     32  C   UNL A   1      37.573  29.910  29.594  1.00  0.00     0.031 A 
ATOM     33  C   UNL A   1      38.819  29.368  28.961  1.00  0.00     0.074 A 
ATOM     34  C   UNL A   1      37.622  30.283  30.893  1.00  0.00     0.049 A 
ATOM     35  N   UNL A   1      39.901  28.916  29.540  1.00  0.00    -0.248 NA
ATOM     36  C   UNL A   1      38.860  29.337  27.492  1.00  0.00     0.031 C 
ATOM     37  C   UNL A   1      36.545  30.956  31.616  1.00  0.00     0.029 A 
ATOM     38  N   UNL A   1      38.651  30.247  31.805  1.00  0.00    -0.354 N 
ATOM     39  C   UNL A   1      40.691  28.419  28.515  1.00  0.00     0.074 A 
ATOM     40  C   UNL A   1      40.018  28.728  27.272  1.00  0.00     0.031 C 
ATOM     41  C   UNL A   1      37.018  31.410  32.789  1.00  0.00     0.029 A 
ATOM     42  C   UNL A   1      38.391  30.943  32.964  1.00  0.00     0.049 A 
ATOM     43  H   UNL A   1      39.496  29.768  31.644  1.00  0.00     0.167 HD
ATOM     44  C   UNL A   1      41.832  27.700  28.625  1.00  0.00     0.037 A 
ATOM     45  C   UNL A   1      39.162  31.152  34.052  1.00  0.00     0.037 A 
ATOM     46  C   UNL A   1      42.511  27.458  29.871  1.00  0.00     0.049 A 
ATOM     47  C   UNL A   1      40.467  30.402  34.153  1.00  0.00     0.074 A 
ATOM     48  C   UNL A   1      43.581  26.623  30.136  1.00  0.00     0.029 A 
ATOM     49  N   UNL A   1      42.198  28.094  31.062  1.00  0.00    -0.354 N 
ATOM     50  N   UNL A   1      41.081  29.688  33.241  1.00  0.00    -0.248 NA
ATOM     51  C   UNL A   1      41.136  30.409  35.462  1.00  0.00     0.031 C 
ATOM     52  C   UNL A   1      43.903  26.740  31.496  1.00  0.00     0.029 A 
ATOM     53  C   UNL A   1      43.057  27.680  32.064  1.00  0.00     0.049 A 
ATOM     54  H   UNL A   1      41.470  28.747  31.179  1.00  0.00     0.167 HD
ATOM     55  C   UNL A   1      42.164  29.102  33.886  1.00  0.00     0.074 A 
ATOM     56  C   UNL A   1      42.176  29.617  35.239  1.00  0.00     0.031 C 
ATOM     57  C   UNL A   1      43.036  28.179  33.414  1.00  0.00     0.037 A 
BRANCH  44  58
ATOM     58  C   UNL A   1      42.293  26.988  27.393  1.00  0.00     0.057 A 
ATOM     59  C   UNL A   1      41.866  25.705  27.041  1.00  0.00     0.134 A 
ATOM     60  C   UNL A   1      43.235  27.610  26.561  1.00  0.00     0.134 A 
ATOM     61  F   UNL A   1      40.992  25.042  27.814  1.00  0.00    -0.206 F 
ATOM     62  C   UNL A   1      42.376  25.056  25.913  1.00  0.00     0.040 A 
ATOM     63  C   UNL A   1      43.736  26.982  25.422  1.00  0.00     0.040 A 
ATOM     64  F   UNL A   1      43.692  28.838  26.851  1.00  0.00    -0.206 F 
ATOM     65  C   UNL A   1      43.311  25.696  25.100  1.00  0.00     0.006 A 
ENDBRANCH  44  58
BRANCH  45  66
ATOM     66  C   UNL A   1      38.714  32.020  35.176  1.00  0.00     0.057 A 
ATOM     67  C   UNL A   1      38.888  33.411  35.121  1.00  0.00     0.134 A 
ATOM     68  C   UNL A   1      38.153  31.496  36.346  1.00  0.00     0.134 A 
ATOM     69  F   UNL A   1      39.457  33.977  34.047  1.00  0.00    -0.206 F 
ATOM     70  C   UNL A   1      38.525  34.241  36.186  1.00  0.00     0.040 A 
ATOM     71  C   UNL A   1      37.752  32.317  37.404  1.00  0.00     0.040 A 
ATOM     72  F   UNL A   1      37.980  30.174  36.483  1.00  0.00    -0.206 F 
ATOM     73  C   UNL A   1      37.945  33.695  37.327  1.00  0.00     0.006 A 
ENDBRANCH  45  66
BRANCH  57  74
ATOM     74  C   UNL A   1      44.035  27.631  34.388  1.00  0.00     0.057 A 
ATOM     75  C   UNL A   1      43.774  26.458  35.110  1.00  0.00     0.134 A 
ATOM     76  C   UNL A   1      45.268  28.257  34.588  1.00  0.00     0.134 A 
ATOM     77  F   UNL A   1      42.603  25.819  34.969  1.00  0.00    -0.206 F 
ATOM     78  C   UNL A   1      44.701  25.938  36.013  1.00  0.00     0.040 A 
ATOM     79  C   UNL A   1      46.211  27.736  35.476  1.00  0.00     0.040 A 
ATOM     80  F   UNL A   1      45.579  29.380  33.924  1.00  0.00    -0.206 F 
ATOM     81  C   UNL A   1      45.926  26.577  36.195  1.00  0.00     0.006 A 
ENDBRANCH  57  74
ENDBRANCH  31  32
ENDBRANCH  24  26
ENDBRANCH  23  24
ENDBRANCH  22  23
ENDBRANCH   1  22
TORSDOF 15
ENDMDL
MODEL 2
REMARK VINA RESULT:     -11.7      3.933      9.343
REMARK SMILES C[C@@H](C(=O)OCCOC(=O)c1ccc(-c2c3nc(c(-c4c(F)cccc4F)c4ccc([nH]4)c(-c4c(F)cccc4F)c4nc(c(-c5c(F)cccc5F)c5ccc2[nH]5)C=C4)C=C3)cc1)c1ccc(C[C@H]2CCC[C@@H]2O)cc1F
REMARK SMILES IDX 6 1 5 2 3 3 4 4 2 5 1 6 65 7 66 8 77 9 67 10 76 11 78 12
REMARK SMILES IDX 68 13 69 14 70 15 71 16 74 17 72 18 73 19 75 20 7 22 8 23
REMARK SMILES IDX 9 24 10 25 11 26 12 27 64 28 13 29 63 30 14 31 15 32 16 33
REMARK SMILES IDX 57 34 17 35 62 36 56 37 58 38 18 39 61 40 55 41 54 42 19 44
REMARK SMILES IDX 45 45 28 46 44 47 29 48 32 49 43 50 59 51 30 52 31 53 42 55
REMARK SMILES IDX 60 56 33 57 20 58 21 59 26 60 22 61 23 62 25 63 27 64 24 65
REMARK SMILES IDX 46 66 47 67 52 68 48 69 49 70 51 71 53 72 50 73 34 74 35 75
REMARK SMILES IDX 40 76 36 77 37 78 39 79 41 80 38 81
REMARK H PARENT 75 21 58 43 32 54
REMARK Flexibility Score: inf
ROOT
ATOM      1  C   UNL A   1      34.328  21.004  25.137  1.00  0.00     0.274 C 
ENDROOT
BRANCH   1   2
ATOM      2  O   UNL A   1      34.350  22.445  25.078  1.00  0.00    -0.462 OA
BRANCH   2   3
ATOM      3  C   UNL A   1      33.160  23.056  24.811  1.00  0.00     0.313 C 
ATOM      4  O   UNL A   1      32.465  22.815  23.831  1.00  0.00    -0.252 OA
BRANCH   3   5
ATOM      5  C   UNL A   1      32.746  24.015  25.936  1.00  0.00     0.129 C 
ATOM      6  C   UNL A   1      31.973  23.315  27.055  1.00  0.00     0.025 C 
BRANCH   5   7
ATOM      7  C   UNL A   1      31.995  25.196  25.354  1.00  0.00     0.002 A 
ATOM      8  C   UNL A   1      30.605  25.255  25.440  1.00  0.00     0.008 A 
ATOM      9  C   UNL A   1      32.648  26.192  24.619  1.00  0.00     0.127 A 
ATOM     10  C   UNL A   1      29.901  26.200  24.700  1.00  0.00     0.004 A 
ATOM     11  C   UNL A   1      31.937  27.121  23.851  1.00  0.00     0.043 A 
ATOM     12  F   UNL A   1      33.988  26.244  24.613  1.00  0.00    -0.207 F 
ATOM     13  C   UNL A   1      30.544  27.075  23.822  1.00  0.00    -0.045 A 
BRANCH  13  14
ATOM     14  C   UNL A   1      29.712  27.882  22.859  1.00  0.00     0.041 C 
BRANCH  14  15
ATOM     15  C   UNL A   1      28.892  29.061  23.447  1.00  0.00     0.022 C 
ATOM     16  C   UNL A   1      29.707  30.358  23.579  1.00  0.00     0.007 C 
ATOM     17  C   UNL A   1      27.625  29.552  22.733  1.00  0.00     0.117 C 
ATOM     18  C   UNL A   1      28.692  31.509  23.589  1.00  0.00     0.003 C 
ATOM     19  C   UNL A   1      27.329  30.860  23.456  1.00  0.00     0.032 C 
BRANCH  17  20
ATOM     20  O   UNL A   1      26.520  28.692  22.872  1.00  0.00    -0.393 OA
ATOM     21  H   UNL A   1      26.796  27.884  23.332  1.00  0.00     0.210 HD
ENDBRANCH  17  20
ENDBRANCH  14  15
ENDBRANCH  13  14
ENDBRANCH   5   7
ENDBRANCH   3   5
ENDBRANCH   2   3
ENDBRANCH   1   2
BRANCH   1  22
ATOM     22  C   UNL A   1      35.759  20.489  24.959  1.00  0.00     0.275 C 
BRANCH  22  23
ATOM     23  O   UNL A   1      36.663  21.504  25.431  1.00  0.00    -0.458 OA
BRANCH  23  24
ATOM     24  C   UNL A   1      37.975  21.167  25.529  1.00  0.00     0.338 C 
ATOM     25  O   UNL A   1      38.470  20.095  25.229  1.00  0.00    -0.246 OA
BRANCH  24  26
ATOM     26  C   UNL A   1      38.749  22.329  26.053  1.00  0.00     0.060 A 
ATOM     27  C   UNL A   1      38.260  23.618  25.890  1.00  0.00     0.016 A 
ATOM     28  C   UNL A   1      40.003  22.160  26.659  1.00  0.00     0.016 A 
ATOM     29  C   UNL A   1      39.034  24.713  26.263  1.00  0.00     0.010 A 
ATOM     30  C   UNL A   1      40.747  23.277  27.103  1.00  0.00     0.010 A 
ATOM     31  C   UNL A   1      40.266  24.575  26.898  1.00  0.00    -0.014 A 
BRANCH  31  32
ATOM     32  C   UNL A   1      41.007  25.835  27.189  1.00  0.00     0.031 A 
ATOM     33  C   UNL A   1      40.546  26.728  28.300  1.00  0.00     0.074 A 
ATOM     34  C   UNL A   1      42.224  26.065  26.644  1.00  0.00     0.049 A 
ATOM     35  N   UNL A   1      41.006  27.899  28.654  1.00  0.00    -0.248 NA
ATOM     36  C   UNL A   1      39.430  26.242  29.125  1.00  0.00     0.031 C 
ATOM     37  C   UNL A   1      42.878  25.208  25.657  1.00  0.00     0.029 A 
ATOM     38  N   UNL A   1      43.170  27.025  26.918  1.00  0.00    -0.354 N 
ATOM     39  C   UNL A   1      40.150  28.350  29.648  1.00  0.00     0.074 A 
ATOM     40  C   UNL A   1      39.214  27.281  29.920  1.00  0.00     0.031 C 
ATOM     41  C   UNL A   1      44.163  25.582  25.531  1.00  0.00     0.029 A 
ATOM     42  C   UNL A   1      44.389  26.789  26.323  1.00  0.00     0.049 A 
ATOM     43  H   UNL A   1      42.992  27.808  27.486  1.00  0.00     0.167 HD
ATOM     44  C   UNL A   1      40.114  29.580  30.211  1.00  0.00     0.037 A 
ATOM     45  C   UNL A   1      45.544  27.484  26.389  1.00  0.00     0.037 A 
ATOM     46  C   UNL A   1      41.093  30.605  29.965  1.00  0.00     0.049 A 
ATOM     47  C   UNL A   1      45.527  28.828  27.072  1.00  0.00     0.074 A 
ATOM     48  C   UNL A   1      41.085  31.934  30.350  1.00  0.00     0.029 A 
ATOM     49  N   UNL A   1      42.287  30.393  29.293  1.00  0.00    -0.354 N 
ATOM     50  N   UNL A   1      44.579  29.375  27.795  1.00  0.00    -0.248 NA
ATOM     51  C   UNL A   1      46.701  29.690  26.869  1.00  0.00     0.031 C 
ATOM     52  C   UNL A   1      42.269  32.531  29.893  1.00  0.00     0.029 A 
ATOM     53  C   UNL A   1      43.029  31.561  29.258  1.00  0.00     0.049 A 
ATOM     54  H   UNL A   1      42.567  29.536  28.897  1.00  0.00     0.167 HD
ATOM     55  C   UNL A   1      45.010  30.667  28.067  1.00  0.00     0.074 A 
ATOM     56  C   UNL A   1      46.342  30.793  27.513  1.00  0.00     0.031 C 
ATOM     57  C   UNL A   1      44.340  31.676  28.675  1.00  0.00     0.037 A 
BRANCH  44  58
ATOM     58  C   UNL A   1      38.884  29.919  30.993  1.00  0.00     0.057 A 
ATOM     59  C   UNL A   1      37.722  30.433  30.414  1.00  0.00     0.134 A 
ATOM     60  C   UNL A   1      38.899  29.757  32.387  1.00  0.00     0.134 A 
ATOM     61  F   UNL A   1      37.657  30.645  29.090  1.00  0.00    -0.206 F 
ATOM     62  C   UNL A   1      36.622  30.796  31.196  1.00  0.00     0.040 A 
ATOM     63  C   UNL A   1      37.801  30.095  33.175  1.00  0.00     0.040 A 
ATOM     64  F   UNL A   1      39.990  29.277  33.004  1.00  0.00    -0.206 F 
ATOM     65  C   UNL A   1      36.659  30.624  32.580  1.00  0.00     0.006 A 
ENDBRANCH  44  58
BRANCH  45  66
ATOM     66  C   UNL A   1      46.789  27.000  25.730  1.00  0.00     0.057 A 
ATOM     67  C   UNL A   1      47.708  26.206  26.430  1.00  0.00     0.134 A 
ATOM     68  C   UNL A   1      47.124  27.351  24.417  1.00  0.00     0.134 A 
ATOM     69  F   UNL A   1      47.472  25.865  27.705  1.00  0.00    -0.206 F 
ATOM     70  C   UNL A   1      48.909  25.784  25.850  1.00  0.00     0.040 A 
ATOM     71  C   UNL A   1      48.303  26.908  23.812  1.00  0.00     0.040 A 
ATOM     72  F   UNL A   1      46.307  28.130  23.694  1.00  0.00    -0.206 F 
ATOM     73  C   UNL A   1      49.203  26.127  24.533  1.00  0.00     0.006 A 
ENDBRANCH  45  66
BRANCH  57  74
ATOM     74  C   UNL A   1      45.018  33.012  28.716  1.00  0.00     0.057 A 
ATOM     75  C   UNL A   1      45.907  33.342  29.749  1.00  0.00     0.134 A 
ATOM     76  C   UNL A   1      44.806  33.962  27.713  1.00  0.00     0.134 A 
ATOM     77  F   UNL A   1      46.141  32.476  30.747  1.00  0.00    -0.206 F 
ATOM     78  C   UNL A   1      46.547  34.580  29.791  1.00  0.00     0.040 A 
ATOM     79  C   UNL A   1      45.455  35.198  27.734  1.00  0.00     0.040 A 
ATOM     80  F   UNL A   1      43.971  33.704  26.696  1.00  0.00    -0.206 F 
ATOM     81  C   UNL A   1      46.324  35.511  28.778  1.00  0.00     0.006 A 
ENDBRANCH  57  74
ENDBRANCH  31  32
ENDBRANCH  24  26
ENDBRANCH  23  24
ENDBRANCH  22  23
ENDBRANCH   1  22
TORSDOF 15
ENDMDL
MODEL 3
REMARK VINA RESULT:     -11.5      2.437      4.747
REMARK SMILES C[C@@H](C(=O)OCCOC(=O)c1ccc(-c2c3nc(c(-c4c(F)cccc4F)c4ccc([nH]4)c(-c4c(F)cccc4F)c4nc(c(-c5c(F)cccc5F)c5ccc2[nH]5)C=C4)C=C3)cc1)c1ccc(C[C@H]2CCC[C@@H]2O)cc1F
REMARK SMILES IDX 6 1 5 2 3 3 4 4 2 5 1 6 65 7 66 8 77 9 67 10 76 11 78 12
REMARK SMILES IDX 68 13 69 14 70 15 71 16 74 17 72 18 73 19 75 20 7 22 8 23
REMARK SMILES IDX 9 24 10 25 11 26 12 27 64 28 13 29 63 30 14 31 15 32 16 33
REMARK SMILES IDX 57 34 17 35 62 36 56 37 58 38 18 39 61 40 55 41 54 42 19 44
REMARK SMILES IDX 45 45 28 46 44 47 29 48 32 49 43 50 59 51 30 52 31 53 42 55
REMARK SMILES IDX 60 56 33 57 20 58 21 59 26 60 22 61 23 62 25 63 27 64 24 65
REMARK SMILES IDX 46 66 47 67 52 68 48 69 49 70 51 71 53 72 50 73 34 74 35 75
REMARK SMILES IDX 40 76 36 77 37 78 39 79 41 80 38 81
REMARK H PARENT 75 21 58 43 32 54
REMARK Flexibility Score: inf
ROOT
ATOM      1  C   UNL A   1      33.708  28.436  24.670  1.00  0.00     0.274 C 
ENDROOT
BRANCH   1   2
ATOM      2  O   UNL A   1      32.943  27.302  25.126  1.00  0.00    -0.462 OA
BRANCH   2   3
ATOM      3  C   UNL A   1      33.482  26.072  24.880  1.00  0.00     0.313 C 
ATOM      4  O   UNL A   1      34.387  25.571  25.538  1.00  0.00    -0.252 OA
BRANCH   3   5
ATOM      5  C   UNL A   1      32.751  25.348  23.740  1.00  0.00     0.129 C 
ATOM      6  C   UNL A   1      33.644  25.114  22.520  1.00  0.00     0.025 C 
BRANCH   5   7
ATOM      7  C   UNL A   1      31.474  26.089  23.398  1.00  0.00     0.002 A 
ATOM      8  C   UNL A   1      31.466  27.041  22.379  1.00  0.00     0.008 A 
ATOM      9  C   UNL A   1      30.308  25.932  24.157  1.00  0.00     0.127 A 
ATOM     10  C   UNL A   1      30.373  27.889  22.228  1.00  0.00     0.004 A 
ATOM     11  C   UNL A   1      29.225  26.807  24.025  1.00  0.00     0.043 A 
ATOM     12  F   UNL A   1      30.231  24.947  25.063  1.00  0.00    -0.207 F 
ATOM     13  C   UNL A   1      29.287  27.855  23.106  1.00  0.00    -0.045 A 
BRANCH  13  14
ATOM     14  C   UNL A   1      28.273  28.968  23.053  1.00  0.00     0.041 C 
BRANCH  14  15
ATOM     15  C   UNL A   1      28.772  30.359  22.581  1.00  0.00     0.022 C 
ATOM     16  C   UNL A   1      27.937  30.944  21.429  1.00  0.00     0.007 C 
ATOM     17  C   UNL A   1      28.823  31.535  23.566  1.00  0.00     0.117 C 
ATOM     18  C   UNL A   1      28.140  32.464  21.475  1.00  0.00     0.003 C 
ATOM     19  C   UNL A   1      29.069  32.723  22.645  1.00  0.00     0.032 C 
BRANCH  17  20
ATOM     20  O   UNL A   1      29.874  31.455  24.499  1.00  0.00    -0.393 OA
ATOM     21  H   UNL A   1      30.650  31.053  24.078  1.00  0.00     0.210 HD
ENDBRANCH  17  20
ENDBRANCH  14  15
ENDBRANCH  13  14
ENDBRANCH   5   7
ENDBRANCH   3   5
ENDBRANCH   2   3
ENDBRANCH   1   2
BRANCH   1  22
ATOM     22  C   UNL A   1      32.811  29.677  24.717  1.00  0.00     0.275 C 
BRANCH  22  23
ATOM     23  O   UNL A   1      32.277  29.793  26.049  1.00  0.00    -0.458 OA
BRANCH  23  24
ATOM     24  C   UNL A   1      32.605  30.908  26.751  1.00  0.00     0.338 C 
ATOM     25  O   UNL A   1      31.940  31.924  26.846  1.00  0.00    -0.246 OA
BRANCH  24  26
ATOM     26  C   UNL A   1      33.921  30.702  27.422  1.00  0.00     0.060 A 
ATOM     27  C   UNL A   1      34.359  29.416  27.711  1.00  0.00     0.016 A 
ATOM     28  C   UNL A   1      34.712  31.787  27.832  1.00  0.00     0.016 A 
ATOM     29  C   UNL A   1      35.523  29.223  28.449  1.00  0.00     0.010 A 
ATOM     30  C   UNL A   1      35.931  31.575  28.514  1.00  0.00     0.010 A 
ATOM     31  C   UNL A   1      36.345  30.278  28.837  1.00  0.00    -0.014 A 
BRANCH  31  32
ATOM     32  C   UNL A   1      37.530  29.923  29.670  1.00  0.00     0.031 A 
ATOM     33  C   UNL A   1      38.765  29.386  29.012  1.00  0.00     0.074 A 
ATOM     34  C   UNL A   1      37.607  30.308  30.964  1.00  0.00     0.049 A 
ATOM     35  N   UNL A   1      39.863  28.947  29.569  1.00  0.00    -0.248 NA
ATOM     36  C   UNL A   1      38.772  29.343  27.543  1.00  0.00     0.031 C 
ATOM     37  C   UNL A   1      36.542  30.978  31.707  1.00  0.00     0.029 A 
ATOM     38  N   UNL A   1      38.658  30.287  31.852  1.00  0.00    -0.354 N 
ATOM     39  C   UNL A   1      40.633  28.448  28.529  1.00  0.00     0.074 A 
ATOM     40  C   UNL A   1      39.928  28.741  27.300  1.00  0.00     0.031 C 
ATOM     41  C   UNL A   1      37.039  31.445  32.866  1.00  0.00     0.029 A 
ATOM     42  C   UNL A   1      38.419  30.990  33.012  1.00  0.00     0.049 A 
ATOM     43  H   UNL A   1      39.502  29.813  31.674  1.00  0.00     0.167 HD
ATOM     44  C   UNL A   1      41.782  27.738  28.618  1.00  0.00     0.037 A 
ATOM     45  C   UNL A   1      39.215  31.214  34.079  1.00  0.00     0.037 A 
ATOM     46  C   UNL A   1      42.492  27.511  29.849  1.00  0.00     0.049 A 
ATOM     47  C   UNL A   1      40.527  30.475  34.154  1.00  0.00     0.074 A 
ATOM     48  C   UNL A   1      43.575  26.687  30.095  1.00  0.00     0.029 A 
ATOM     49  N   UNL A   1      42.203  28.155  31.042  1.00  0.00    -0.354 N 
ATOM     50  N   UNL A   1      41.125  29.758  33.234  1.00  0.00    -0.248 NA
ATOM     51  C   UNL A   1      41.227  30.498  35.448  1.00  0.00     0.031 C 
ATOM     52  C   UNL A   1      43.928  26.818  31.446  1.00  0.00     0.029 A 
ATOM     53  C   UNL A   1      43.089  27.755  32.027  1.00  0.00     0.049 A 
ATOM     54  H   UNL A   1      41.473  28.803  31.171  1.00  0.00     0.167 HD
ATOM     55  C   UNL A   1      42.227  29.186  33.858  1.00  0.00     0.074 A 
ATOM     56  C   UNL A   1      42.268  29.712  35.206  1.00  0.00     0.031 C 
ATOM     57  C   UNL A   1      43.096  28.266  33.372  1.00  0.00     0.037 A 
BRANCH  44  58
ATOM     58  C   UNL A   1      42.219  27.019  27.380  1.00  0.00     0.057 A 
ATOM     59  C   UNL A   1      41.784  25.736  27.043  1.00  0.00     0.134 A 
ATOM     60  C   UNL A   1      43.146  27.637  26.528  1.00  0.00     0.134 A 
ATOM     61  F   UNL A   1      40.925  25.077  27.836  1.00  0.00    -0.206 F 
ATOM     62  C   UNL A   1      42.273  25.081  25.909  1.00  0.00     0.040 A 
ATOM     63  C   UNL A   1      43.624  27.003  25.383  1.00  0.00     0.040 A 
ATOM     64  F   UNL A   1      43.609  28.866  26.803  1.00  0.00    -0.206 F 
ATOM     65  C   UNL A   1      43.193  25.716  25.075  1.00  0.00     0.006 A 
ENDBRANCH  44  58
BRANCH  45  66
ATOM     66  C   UNL A   1      38.787  32.088  35.207  1.00  0.00     0.057 A 
ATOM     67  C   UNL A   1      38.174  31.542  36.343  1.00  0.00     0.134 A 
ATOM     68  C   UNL A   1      38.926  33.480  35.166  1.00  0.00     0.134 A 
ATOM     69  F   UNL A   1      37.971  30.220  36.431  1.00  0.00    -0.206 F 
ATOM     70  C   UNL A   1      37.715  32.347  37.391  1.00  0.00     0.040 A 
ATOM     71  C   UNL A   1      38.505  34.294  36.221  1.00  0.00     0.040 A 
ATOM     72  F   UNL A   1      39.479  34.076  34.101  1.00  0.00    -0.206 F 
ATOM     73  C   UNL A   1      37.891  33.727  37.335  1.00  0.00     0.006 A 
ENDBRANCH  45  66
BRANCH  57  74
ATOM     74  C   UNL A   1      44.121  27.733  34.326  1.00  0.00     0.057 A 
ATOM     75  C   UNL A   1      45.362  28.367  34.485  1.00  0.00     0.134 A 
ATOM     76  C   UNL A   1      43.865  26.602  35.107  1.00  0.00     0.134 A 
ATOM     77  F   UNL A   1      45.671  29.449  33.755  1.00  0.00    -0.206 F 
ATOM     78  C   UNL A   1      46.319  27.881  35.376  1.00  0.00     0.040 A 
ATOM     79  C   UNL A   1      44.808  26.117  36.015  1.00  0.00     0.040 A 
ATOM     80  F   UNL A   1      42.695  25.954  35.004  1.00  0.00    -0.206 F 
ATOM     81  C   UNL A   1      46.040  26.755  36.147  1.00  0.00     0.006 A 
ENDBRANCH  57  74
ENDBRANCH  31  32
ENDBRANCH  24  26
ENDBRANCH  23  24
ENDBRANCH  22  23
ENDBRANCH   1  22
TORSDOF 15
ENDMDL
