MODEL 1
REMARK VINA RESULT:     -12.5      0.000      0.000
REMARK SMILES [NH3+][C@@H](Cc1cn(-c2nc(Cl)nc(N3CCOCC3)n2)c2ccccc12)C(=O)OCCOC(=O)c1ccc(-c2c3nc(c(-c4c(F)cccc4F)c4ccc([nH]4)c(-c4c(F)cccc4F)c4nc(c(-c5c(F)cccc5F)c5ccc2[nH]5)C=C4)C=C3)cc1
REMARK SMILES IDX 29 1 28 2 26 3 27 4 2 5 1 6 3 10 4 11 5 12 25 13 6 14 20 15
REMARK SMILES IDX 24 16 21 17 23 18 22 19 7 20 8 21 19 22 9 23 12 24 10 25
REMARK SMILES IDX 11 26 13 27 14 28 18 29 15 30 17 31 16 32 30 33 31 34 32 35
REMARK SMILES IDX 33 36 34 37 35 38 87 39 36 40 86 41 37 42 38 43 39 44 80 45
REMARK SMILES IDX 40 46 85 47 79 48 81 49 41 50 84 51 78 52 77 53 42 55 68 56
REMARK SMILES IDX 51 57 67 58 52 59 55 60 66 61 82 62 53 63 54 64 65 66 83 67
REMARK SMILES IDX 56 68 43 69 44 70 49 71 45 72 46 73 48 74 50 75 47 76 69 77
REMARK SMILES IDX 70 78 75 79 71 80 72 81 74 82 76 83 73 84 57 85 58 86 63 87
REMARK SMILES IDX 59 88 60 89 62 90 64 91 61 92
REMARK H PARENT 1 7 1 8 1 9 81 54 55 65
REMARK Flexibility Score: inf
ROOT
ATOM      1  C   UNL A   1      41.107  21.177  27.528  1.00  0.00     0.274 C 
ENDROOT
BRANCH   1   2
ATOM      2  O   UNL A   1      40.183  22.006  26.790  1.00  0.00    -0.458 OA
BRANCH   2   3
ATOM      3  C   UNL A   1      39.225  21.376  26.061  1.00  0.00     0.365 C 
ATOM      4  O   UNL A   1      39.293  20.204  25.701  1.00  0.00    -0.245 OA
BRANCH   3   5
ATOM      5  C   UNL A   1      38.037  22.285  25.684  1.00  0.00     0.296 C 
BRANCH   5   6
ATOM      6  N   UNL A   1      38.240  23.747  25.836  1.00  0.00    -0.346 N 
ATOM      7  H   UNL A   1      38.037  24.214  24.952  1.00  0.00     0.345 HD
ATOM      8  H   UNL A   1      39.207  23.931  26.102  1.00  0.00     0.345 HD
ATOM      9  H   UNL A   1      37.615  24.104  26.559  1.00  0.00     0.345 HD
ENDBRANCH   5   6
BRANCH   5  10
ATOM     10  C   UNL A   1      37.444  21.926  24.341  1.00  0.00     0.115 C 
BRANCH  10  11
ATOM     11  C   UNL A   1      36.007  22.213  24.130  1.00  0.00    -0.015 A 
ATOM     12  C   UNL A   1      35.631  23.340  23.444  1.00  0.00     0.099 A 
ATOM     13  C   UNL A   1      34.803  21.534  24.504  1.00  0.00     0.004 A 
ATOM     14  N   UNL A   1      34.268  23.442  23.459  1.00  0.00    -0.285 N 
ATOM     15  C   UNL A   1      33.729  22.332  24.078  1.00  0.00     0.056 A 
ATOM     16  C   UNL A   1      34.491  20.324  25.167  1.00  0.00     0.010 A 
ATOM     17  C   UNL A   1      32.392  21.925  24.231  1.00  0.00     0.027 A 
ATOM     18  C   UNL A   1      33.167  19.913  25.325  1.00  0.00     0.001 A 
ATOM     19  C   UNL A   1      32.132  20.699  24.845  1.00  0.00     0.002 A 
BRANCH  14  20
ATOM     20  C   UNL A   1      33.601  24.526  22.851  1.00  0.00     0.240 A 
ATOM     21  N   UNL A   1      33.491  24.577  21.535  1.00  0.00    -0.181 NA
ATOM     22  N   UNL A   1      33.025  25.369  23.706  1.00  0.00    -0.176 NA
ATOM     23  C   UNL A   1      32.617  25.501  21.157  1.00  0.00     0.228 A 
ATOM     24  C   UNL A   1      32.277  26.324  23.192  1.00  0.00     0.231 A 
ATOM     25  Cl  UNL A   1      32.276  25.548  19.483  1.00  0.00    -0.041 Cl
ATOM     26  N   UNL A   1      31.965  26.382  21.910  1.00  0.00    -0.182 NA
BRANCH  24  27
ATOM     27  N   UNL A   1      31.872  27.295  24.053  1.00  0.00    -0.336 N 
ATOM     28  C   UNL A   1      30.523  27.840  23.947  1.00  0.00     0.148 C 
ATOM     29  C   UNL A   1      32.764  27.883  25.032  1.00  0.00     0.148 C 
ATOM     30  C   UNL A   1      30.571  29.369  23.883  1.00  0.00     0.181 C 
ATOM     31  C   UNL A   1      32.703  29.418  24.899  1.00  0.00     0.181 C 
ATOM     32  O   UNL A   1      31.352  29.913  24.961  1.00  0.00    -0.378 OA
ENDBRANCH  24  27
ENDBRANCH  14  20
ENDBRANCH  10  11
ENDBRANCH   5  10
ENDBRANCH   3   5
ENDBRANCH   2   3
ENDBRANCH   1   2
BRANCH   1  33
ATOM     33  C   UNL A   1      42.461  21.182  26.811  1.00  0.00     0.275 C 
BRANCH  33  34
ATOM     34  O   UNL A   1      43.062  22.479  26.971  1.00  0.00    -0.458 OA
BRANCH  34  35
ATOM     35  C   UNL A   1      43.147  23.223  25.840  1.00  0.00     0.338 C 
ATOM     36  O   UNL A   1      43.073  22.805  24.691  1.00  0.00    -0.246 OA
BRANCH  35  37
ATOM     37  C   UNL A   1      43.004  24.648  26.232  1.00  0.00     0.060 A 
ATOM     38  C   UNL A   1      43.755  25.190  27.280  1.00  0.00     0.016 A 
ATOM     39  C   UNL A   1      41.904  25.347  25.733  1.00  0.00     0.016 A 
ATOM     40  C   UNL A   1      43.276  26.301  27.971  1.00  0.00     0.010 A 
ATOM     41  C   UNL A   1      41.440  26.469  26.418  1.00  0.00     0.010 A 
ATOM     42  C   UNL A   1      42.052  26.879  27.611  1.00  0.00    -0.014 A 
BRANCH  42  43
ATOM     43  C   UNL A   1      41.609  28.102  28.299  1.00  0.00     0.031 A 
ATOM     44  C   UNL A   1      42.613  29.159  28.077  1.00  0.00     0.074 A 
ATOM     45  C   UNL A   1      40.508  28.383  29.037  1.00  0.00     0.049 A 
ATOM     46  N   UNL A   1      43.570  29.449  28.892  1.00  0.00    -0.248 NA
ATOM     47  C   UNL A   1      42.738  29.758  26.743  1.00  0.00     0.031 C 
ATOM     48  C   UNL A   1      39.308  27.590  29.270  1.00  0.00     0.029 A 
ATOM     49  N   UNL A   1      40.224  29.530  29.739  1.00  0.00    -0.354 N 
ATOM     50  C   UNL A   1      44.311  30.424  28.248  1.00  0.00     0.074 A 
ATOM     51  C   UNL A   1      43.905  30.391  26.869  1.00  0.00     0.031 C 
ATOM     52  C   UNL A   1      38.334  28.354  29.830  1.00  0.00     0.029 A 
ATOM     53  C   UNL A   1      38.906  29.640  30.195  1.00  0.00     0.049 A 
ATOM     54  H   UNL A   1      40.900  30.225  29.909  1.00  0.00     0.167 HD
ATOM     55  C   UNL A   1      44.975  31.360  28.973  1.00  0.00     0.037 A 
ATOM     56  C   UNL A   1      38.347  30.678  30.880  1.00  0.00     0.037 A 
ATOM     57  C   UNL A   1      45.102  30.946  30.354  1.00  0.00     0.049 A 
ATOM     58  C   UNL A   1      39.454  31.407  31.538  1.00  0.00     0.074 A 
ATOM     59  C   UNL A   1      45.685  29.882  31.015  1.00  0.00     0.029 A 
ATOM     60  N   UNL A   1      44.230  31.509  31.253  1.00  0.00    -0.354 N 
ATOM     61  N   UNL A   1      40.128  30.938  32.545  1.00  0.00    -0.248 NA
ATOM     62  C   UNL A   1      40.083  32.491  30.806  1.00  0.00     0.031 C 
ATOM     63  C   UNL A   1      44.820  29.598  32.116  1.00  0.00     0.029 A 
ATOM     64  C   UNL A   1      43.787  30.534  32.105  1.00  0.00     0.049 A 
ATOM     65  H   UNL A   1      43.967  32.458  31.278  1.00  0.00     0.167 HD
ATOM     66  C   UNL A   1      41.434  31.315  32.285  1.00  0.00     0.074 A 
ATOM     67  C   UNL A   1      41.329  32.358  31.265  1.00  0.00     0.031 C 
ATOM     68  C   UNL A   1      42.476  30.545  32.712  1.00  0.00     0.037 A 
BRANCH  55  69
ATOM     69  C   UNL A   1      45.085  32.806  28.550  1.00  0.00     0.057 A 
ATOM     70  C   UNL A   1      46.236  33.411  28.001  1.00  0.00     0.134 A 
ATOM     71  C   UNL A   1      43.899  33.544  28.396  1.00  0.00     0.134 A 
ATOM     72  F   UNL A   1      47.443  32.838  28.012  1.00  0.00    -0.206 F 
ATOM     73  C   UNL A   1      46.200  34.619  27.304  1.00  0.00     0.040 A 
ATOM     74  C   UNL A   1      43.843  34.728  27.655  1.00  0.00     0.040 A 
ATOM     75  F   UNL A   1      42.734  33.085  28.880  1.00  0.00    -0.206 F 
ATOM     76  C   UNL A   1      44.994  35.262  27.093  1.00  0.00     0.006 A 
ENDBRANCH  55  69
BRANCH  56  77
ATOM     77  C   UNL A   1      36.977  31.254  30.882  1.00  0.00     0.057 A 
ATOM     78  C   UNL A   1      36.466  31.896  29.744  1.00  0.00     0.134 A 
ATOM     79  C   UNL A   1      36.280  31.497  32.083  1.00  0.00     0.134 A 
ATOM     80  F   UNL A   1      37.088  31.786  28.561  1.00  0.00    -0.206 F 
ATOM     81  C   UNL A   1      35.361  32.758  29.800  1.00  0.00     0.040 A 
ATOM     82  C   UNL A   1      35.173  32.357  32.152  1.00  0.00     0.040 A 
ATOM     83  F   UNL A   1      36.704  30.966  33.239  1.00  0.00    -0.206 F 
ATOM     84  C   UNL A   1      34.720  33.006  31.010  1.00  0.00     0.006 A 
ENDBRANCH  56  77
BRANCH  68  85
ATOM     85  C   UNL A   1      42.183  29.486  33.743  1.00  0.00     0.057 A 
ATOM     86  C   UNL A   1      42.495  29.760  35.079  1.00  0.00     0.134 A 
ATOM     87  C   UNL A   1      41.709  28.196  33.456  1.00  0.00     0.134 A 
ATOM     88  F   UNL A   1      42.993  30.958  35.425  1.00  0.00    -0.206 F 
ATOM     89  C   UNL A   1      42.340  28.806  36.088  1.00  0.00     0.040 A 
ATOM     90  C   UNL A   1      41.516  27.242  34.463  1.00  0.00     0.040 A 
ATOM     91  F   UNL A   1      41.461  27.808  32.197  1.00  0.00    -0.206 F 
ATOM     92  C   UNL A   1      41.838  27.544  35.783  1.00  0.00     0.006 A 
ENDBRANCH  68  85
ENDBRANCH  42  43
ENDBRANCH  35  37
ENDBRANCH  34  35
ENDBRANCH  33  34
ENDBRANCH   1  33
TORSDOF 16
ENDMDL
MODEL 2
REMARK VINA RESULT:     -12.5      3.219      8.397
REMARK SMILES [NH3+][C@@H](Cc1cn(-c2nc(Cl)nc(N3CCOCC3)n2)c2ccccc12)C(=O)OCCOC(=O)c1ccc(-c2c3nc(c(-c4c(F)cccc4F)c4ccc([nH]4)c(-c4c(F)cccc4F)c4nc(c(-c5c(F)cccc5F)c5ccc2[nH]5)C=C4)C=C3)cc1
REMARK SMILES IDX 29 1 28 2 26 3 27 4 2 5 1 6 3 10 4 11 5 12 25 13 6 14 20 15
REMARK SMILES IDX 24 16 21 17 23 18 22 19 7 20 8 21 19 22 9 23 12 24 10 25
REMARK SMILES IDX 11 26 13 27 14 28 18 29 15 30 17 31 16 32 30 33 31 34 32 35
REMARK SMILES IDX 33 36 34 37 35 38 87 39 36 40 86 41 37 42 38 43 39 44 80 45
REMARK SMILES IDX 40 46 85 47 79 48 81 49 41 50 84 51 78 52 77 53 42 55 68 56
REMARK SMILES IDX 51 57 67 58 52 59 55 60 66 61 82 62 53 63 54 64 65 66 83 67
REMARK SMILES IDX 56 68 43 69 44 70 49 71 45 72 46 73 48 74 50 75 47 76 69 77
REMARK SMILES IDX 70 78 75 79 71 80 72 81 74 82 76 83 73 84 57 85 58 86 63 87
REMARK SMILES IDX 59 88 60 89 62 90 64 91 61 92
REMARK H PARENT 1 7 1 8 1 9 81 54 55 65
REMARK Flexibility Score: inf
ROOT
ATOM      1  C   UNL A   1      31.970  30.382  26.611  1.00  0.00     0.274 C 
ENDROOT
BRANCH   1   2
ATOM      2  O   UNL A   1      32.673  29.667  25.572  1.00  0.00    -0.458 OA
BRANCH   2   3
ATOM      3  C   UNL A   1      31.927  29.115  24.580  1.00  0.00     0.365 C 
ATOM      4  O   UNL A   1      30.771  29.442  24.325  1.00  0.00    -0.245 OA
BRANCH   3   5
ATOM      5  C   UNL A   1      32.655  27.995  23.808  1.00  0.00     0.296 C 
BRANCH   5   6
ATOM      6  N   UNL A   1      33.214  28.355  22.480  1.00  0.00    -0.346 N 
ATOM      7  H   UNL A   1      34.054  28.919  22.606  1.00  0.00     0.345 HD
ATOM      8  H   UNL A   1      32.523  28.888  21.953  1.00  0.00     0.345 HD
ATOM      9  H   UNL A   1      33.450  27.504  21.969  1.00  0.00     0.345 HD
ENDBRANCH   5   6
BRANCH   5  10
ATOM     10  C   UNL A   1      33.655  27.261  24.670  1.00  0.00     0.115 C 
BRANCH  10  11
ATOM     11  C   UNL A   1      33.373  25.843  24.986  1.00  0.00    -0.015 A 
ATOM     12  C   UNL A   1      34.333  24.889  24.763  1.00  0.00     0.099 A 
ATOM     13  C   UNL A   1      32.230  25.162  25.520  1.00  0.00     0.004 A 
ATOM     14  N   UNL A   1      33.815  23.654  25.037  1.00  0.00    -0.285 N 
ATOM     15  C   UNL A   1      32.533  23.791  25.532  1.00  0.00     0.056 A 
ATOM     16  C   UNL A   1      30.957  25.550  25.996  1.00  0.00     0.010 A 
ATOM     17  C   UNL A   1      31.647  22.837  26.059  1.00  0.00     0.027 A 
ATOM     18  C   UNL A   1      30.069  24.609  26.520  1.00  0.00     0.001 A 
ATOM     19  C   UNL A   1      30.421  23.271  26.566  1.00  0.00     0.002 A 
BRANCH  14  20
ATOM     20  C   UNL A   1      34.576  22.479  24.866  1.00  0.00     0.240 A 
ATOM     21  N   UNL A   1      35.895  22.532  24.939  1.00  0.00    -0.181 NA
ATOM     22  N   UNL A   1      33.854  21.365  24.754  1.00  0.00    -0.176 NA
ATOM     23  C   UNL A   1      36.424  21.319  25.026  1.00  0.00     0.228 A 
ATOM     24  C   UNL A   1      34.514  20.225  24.727  1.00  0.00     0.231 A 
ATOM     25  Cl  UNL A   1      38.113  21.271  25.285  1.00  0.00    -0.041 Cl
ATOM     26  N   UNL A   1      35.812  20.139  24.951  1.00  0.00    -0.182 NA
BRANCH  24  27
ATOM     27  N   UNL A   1      33.787  19.123  24.403  1.00  0.00    -0.336 N 
ATOM     28  C   UNL A   1      34.364  17.796  24.589  1.00  0.00     0.148 C 
ATOM     29  C   UNL A   1      32.477  19.211  23.790  1.00  0.00     0.148 C 
ATOM     30  C   UNL A   1      34.241  16.977  23.301  1.00  0.00     0.181 C 
ATOM     31  C   UNL A   1      32.459  18.323  22.529  1.00  0.00     0.181 C 
ATOM     32  O   UNL A   1      32.889  16.978  22.809  1.00  0.00    -0.378 OA
ENDBRANCH  24  27
ENDBRANCH  14  20
ENDBRANCH  10  11
ENDBRANCH   5  10
ENDBRANCH   3   5
ENDBRANCH   2   3
ENDBRANCH   1   2
BRANCH   1  33
ATOM     33  C   UNL A   1      32.862  31.516  27.125  1.00  0.00     0.275 C 
BRANCH  33  34
ATOM     34  O   UNL A   1      34.129  30.961  27.521  1.00  0.00    -0.458 OA
BRANCH  34  35
ATOM     35  C   UNL A   1      35.042  31.861  27.966  1.00  0.00     0.338 C 
ATOM     36  O   UNL A   1      34.873  33.068  28.081  1.00  0.00    -0.246 OA
BRANCH  35  37
ATOM     37  C   UNL A   1      36.146  31.097  28.602  1.00  0.00     0.060 A 
ATOM     38  C   UNL A   1      37.317  31.734  29.028  1.00  0.00     0.016 A 
ATOM     39  C   UNL A   1      36.112  29.706  28.497  1.00  0.00     0.016 A 
ATOM     40  C   UNL A   1      38.502  31.008  29.122  1.00  0.00     0.010 A 
ATOM     41  C   UNL A   1      37.298  28.984  28.611  1.00  0.00     0.010 A 
ATOM     42  C   UNL A   1      38.520  29.645  28.803  1.00  0.00    -0.014 A 
BRANCH  42  43
ATOM     43  C   UNL A   1      39.763  28.882  28.993  1.00  0.00     0.031 A 
ATOM     44  C   UNL A   1      40.056  28.808  30.436  1.00  0.00     0.074 A 
ATOM     45  C   UNL A   1      40.605  28.281  28.117  1.00  0.00     0.049 A 
ATOM     46  N   UNL A   1      40.845  29.606  31.070  1.00  0.00    -0.248 NA
ATOM     47  C   UNL A   1      39.214  27.965  31.294  1.00  0.00     0.031 C 
ATOM     48  C   UNL A   1      40.469  28.067  26.682  1.00  0.00     0.029 A 
ATOM     49  N   UNL A   1      41.813  27.676  28.376  1.00  0.00    -0.354 N 
ATOM     50  C   UNL A   1      40.751  29.232  32.398  1.00  0.00     0.074 A 
ATOM     51  C   UNL A   1      39.577  28.406  32.499  1.00  0.00     0.031 C 
ATOM     52  C   UNL A   1      41.400  27.178  26.244  1.00  0.00     0.029 A 
ATOM     53  C   UNL A   1      42.339  26.919  27.324  1.00  0.00     0.049 A 
ATOM     54  H   UNL A   1      42.275  27.770  29.240  1.00  0.00     0.167 HD
ATOM     55  C   UNL A   1      41.811  29.400  33.228  1.00  0.00     0.037 A 
ATOM     56  C   UNL A   1      43.491  26.191  27.319  1.00  0.00     0.037 A 
ATOM     57  C   UNL A   1      42.773  30.316  32.652  1.00  0.00     0.049 A 
ATOM     58  C   UNL A   1      44.362  26.755  28.373  1.00  0.00     0.074 A 
ATOM     59  C   UNL A   1      42.757  31.637  32.248  1.00  0.00     0.029 A 
ATOM     60  N   UNL A   1      43.884  29.762  32.066  1.00  0.00    -0.354 N 
ATOM     61  N   UNL A   1      44.943  27.915  28.286  1.00  0.00    -0.248 NA
ATOM     62  C   UNL A   1      44.255  26.202  29.711  1.00  0.00     0.031 C 
ATOM     63  C   UNL A   1      43.605  31.694  31.100  1.00  0.00     0.029 A 
ATOM     64  C   UNL A   1      44.139  30.423  30.895  1.00  0.00     0.049 A 
ATOM     65  H   UNL A   1      44.409  29.011  32.429  1.00  0.00     0.167 HD
ATOM     66  C   UNL A   1      44.836  28.445  29.560  1.00  0.00     0.074 A 
ATOM     67  C   UNL A   1      44.505  27.307  30.415  1.00  0.00     0.031 C 
ATOM     68  C   UNL A   1      44.743  29.794  29.742  1.00  0.00     0.037 A 
BRANCH  55  69
ATOM     69  C   UNL A   1      42.186  28.405  34.301  1.00  0.00     0.057 A 
ATOM     70  C   UNL A   1      41.900  28.542  35.677  1.00  0.00     0.134 A 
ATOM     71  C   UNL A   1      42.571  27.114  33.902  1.00  0.00     0.134 A 
ATOM     72  F   UNL A   1      41.476  29.682  36.229  1.00  0.00    -0.206 F 
ATOM     73  C   UNL A   1      41.936  27.470  36.569  1.00  0.00     0.040 A 
ATOM     74  C   UNL A   1      42.560  26.024  34.778  1.00  0.00     0.040 A 
ATOM     75  F   UNL A   1      42.879  26.851  32.623  1.00  0.00    -0.206 F 
ATOM     76  C   UNL A   1      42.227  26.197  36.114  1.00  0.00     0.006 A 
ENDBRANCH  55  69
BRANCH  56  77
ATOM     77  C   UNL A   1      43.872  24.922  26.644  1.00  0.00     0.057 A 
ATOM     78  C   UNL A   1      44.558  24.938  25.420  1.00  0.00     0.134 A 
ATOM     79  C   UNL A   1      43.278  23.693  26.994  1.00  0.00     0.134 A 
ATOM     80  F   UNL A   1      45.106  26.071  24.960  1.00  0.00    -0.206 F 
ATOM     81  C   UNL A   1      44.614  23.818  24.577  1.00  0.00     0.040 A 
ATOM     82  C   UNL A   1      43.327  22.566  26.159  1.00  0.00     0.040 A 
ATOM     83  F   UNL A   1      42.563  23.577  28.123  1.00  0.00    -0.206 F 
ATOM     84  C   UNL A   1      43.983  22.632  24.936  1.00  0.00     0.006 A 
ENDBRANCH  56  77
BRANCH  68  85
ATOM     85  C   UNL A   1      45.099  30.681  28.578  1.00  0.00     0.057 A 
ATOM     86  C   UNL A   1      46.359  31.290  28.572  1.00  0.00     0.134 A 
ATOM     87  C   UNL A   1      44.223  31.030  27.538  1.00  0.00     0.134 A 
ATOM     88  F   UNL A   1      47.236  31.039  29.558  1.00  0.00    -0.206 F 
ATOM     89  C   UNL A   1      46.740  32.196  27.580  1.00  0.00     0.040 A 
ATOM     90  C   UNL A   1      44.605  31.910  26.518  1.00  0.00     0.040 A 
ATOM     91  F   UNL A   1      42.966  30.567  27.500  1.00  0.00    -0.206 F 
ATOM     92  C   UNL A   1      45.865  32.501  26.540  1.00  0.00     0.006 A 
ENDBRANCH  68  85
ENDBRANCH  42  43
ENDBRANCH  35  37
ENDBRANCH  34  35
ENDBRANCH  33  34
ENDBRANCH   1  33
TORSDOF 16
ENDMDL
MODEL 3
REMARK VINA RESULT:     -12.4      1.760      2.374
REMARK SMILES [NH3+][C@@H](Cc1cn(-c2nc(Cl)nc(N3CCOCC3)n2)c2ccccc12)C(=O)OCCOC(=O)c1ccc(-c2c3nc(c(-c4c(F)cccc4F)c4ccc([nH]4)c(-c4c(F)cccc4F)c4nc(c(-c5c(F)cccc5F)c5ccc2[nH]5)C=C4)C=C3)cc1
REMARK SMILES IDX 29 1 28 2 26 3 27 4 2 5 1 6 3 10 4 11 5 12 25 13 6 14 20 15
REMARK SMILES IDX 24 16 21 17 23 18 22 19 7 20 8 21 19 22 9 23 12 24 10 25
REMARK SMILES IDX 11 26 13 27 14 28 18 29 15 30 17 31 16 32 30 33 31 34 32 35
REMARK SMILES IDX 33 36 34 37 35 38 87 39 36 40 86 41 37 42 38 43 39 44 80 45
REMARK SMILES IDX 40 46 85 47 79 48 81 49 41 50 84 51 78 52 77 53 42 55 68 56
REMARK SMILES IDX 51 57 67 58 52 59 55 60 66 61 82 62 53 63 54 64 65 66 83 67
REMARK SMILES IDX 56 68 43 69 44 70 49 71 45 72 46 73 48 74 50 75 47 76 69 77
REMARK SMILES IDX 70 78 75 79 71 80 72 81 74 82 76 83 73 84 57 85 58 86 63 87
REMARK SMILES IDX 59 88 60 89 62 90 64 91 61 92
REMARK H PARENT 1 7 1 8 1 9 81 54 55 65
REMARK Flexibility Score: inf
ROOT
ATOM      1  C   UNL A   1      41.188  19.898  26.801  1.00  0.00     0.274 C 
ENDROOT
BRANCH   1   2
ATOM      2  O   UNL A   1      40.403  20.880  26.091  1.00  0.00    -0.458 OA
BRANCH   2   3
ATOM      3  C   UNL A   1      39.927  21.933  26.805  1.00  0.00     0.365 C 
ATOM      4  O   UNL A   1      40.415  22.325  27.862  1.00  0.00    -0.245 OA
BRANCH   3   5
ATOM      5  C   UNL A   1      38.675  22.587  26.184  1.00  0.00     0.296 C 
BRANCH   5   6
ATOM      6  N   UNL A   1      38.769  24.032  25.858  1.00  0.00    -0.346 N 
ATOM      7  H   UNL A   1      38.523  24.177  24.879  1.00  0.00     0.345 HD
ATOM      8  H   UNL A   1      39.723  24.356  26.020  1.00  0.00     0.345 HD
ATOM      9  H   UNL A   1      38.126  24.557  26.451  1.00  0.00     0.345 HD
ENDBRANCH   5   6
BRANCH   5  10
ATOM     10  C   UNL A   1      38.113  21.777  25.040  1.00  0.00     0.115 C 
BRANCH  10  11
ATOM     11  C   UNL A   1      36.704  22.023  24.657  1.00  0.00    -0.015 A 
ATOM     12  C   UNL A   1      36.332  23.253  24.176  1.00  0.00     0.099 A 
ATOM     13  C   UNL A   1      35.525  21.209  24.669  1.00  0.00     0.004 A 
ATOM     14  N   UNL A   1      34.979  23.271  23.983  1.00  0.00    -0.285 N 
ATOM     15  C   UNL A   1      34.458  22.020  24.250  1.00  0.00     0.056 A 
ATOM     16  C   UNL A   1      35.230  19.865  24.993  1.00  0.00     0.010 A 
ATOM     17  C   UNL A   1      33.158  21.515  24.085  1.00  0.00     0.027 A 
ATOM     18  C   UNL A   1      33.942  19.354  24.834  1.00  0.00     0.001 A 
ATOM     19  C   UNL A   1      32.923  20.168  24.368  1.00  0.00     0.002 A 
BRANCH  14  20
ATOM     20  C   UNL A   1      34.314  24.425  23.520  1.00  0.00     0.240 A 
ATOM     21  N   UNL A   1      34.032  24.550  22.234  1.00  0.00    -0.181 NA
ATOM     22  N   UNL A   1      33.919  25.258  24.481  1.00  0.00    -0.176 NA
ATOM     23  C   UNL A   1      33.181  25.546  22.020  1.00  0.00     0.228 A 
ATOM     24  C   UNL A   1      33.177  26.284  24.115  1.00  0.00     0.231 A 
ATOM     25  Cl  UNL A   1      32.622  25.701  20.412  1.00  0.00    -0.041 Cl
ATOM     26  N   UNL A   1      32.700  26.428  22.893  1.00  0.00    -0.182 NA
BRANCH  24  27
ATOM     27  N   UNL A   1      32.961  27.233  25.064  1.00  0.00    -0.336 N 
ATOM     28  C   UNL A   1      32.081  28.359  24.774  1.00  0.00     0.148 C 
ATOM     29  C   UNL A   1      33.646  27.221  26.341  1.00  0.00     0.148 C 
ATOM     30  C   UNL A   1      32.783  29.681  25.099  1.00  0.00     0.181 C 
ATOM     31  C   UNL A   1      34.281  28.607  26.576  1.00  0.00     0.181 C 
ATOM     32  O   UNL A   1      33.323  29.671  26.431  1.00  0.00    -0.378 OA
ENDBRANCH  24  27
ENDBRANCH  14  20
ENDBRANCH  10  11
ENDBRANCH   5  10
ENDBRANCH   3   5
ENDBRANCH   2   3
ENDBRANCH   1   2
BRANCH   1  33
ATOM     33  C   UNL A   1      42.314  19.406  25.886  1.00  0.00     0.275 C 
BRANCH  33  34
ATOM     34  O   UNL A   1      42.819  20.523  25.136  1.00  0.00    -0.458 OA
BRANCH  34  35
ATOM     35  C   UNL A   1      44.073  20.924  25.466  1.00  0.00     0.338 C 
ATOM     36  O   UNL A   1      45.106  20.287  25.295  1.00  0.00    -0.246 OA
BRANCH  35  37
ATOM     37  C   UNL A   1      44.015  22.379  25.751  1.00  0.00     0.060 A 
ATOM     38  C   UNL A   1      44.716  22.936  26.827  1.00  0.00     0.016 A 
ATOM     39  C   UNL A   1      43.024  23.124  25.111  1.00  0.00     0.016 A 
ATOM     40  C   UNL A   1      44.273  24.127  27.399  1.00  0.00     0.010 A 
ATOM     41  C   UNL A   1      42.597  24.324  25.678  1.00  0.00     0.010 A 
ATOM     42  C   UNL A   1      43.136  24.769  26.893  1.00  0.00    -0.014 A 
BRANCH  42  43
ATOM     43  C   UNL A   1      42.738  26.068  27.458  1.00  0.00     0.031 A 
ATOM     44  C   UNL A   1      43.717  27.086  27.036  1.00  0.00     0.074 A 
ATOM     45  C   UNL A   1      41.692  26.440  28.235  1.00  0.00     0.049 A 
ATOM     46  N   UNL A   1      44.729  27.470  27.736  1.00  0.00    -0.248 NA
ATOM     47  C   UNL A   1      43.740  27.519  25.633  1.00  0.00     0.031 C 
ATOM     48  C   UNL A   1      40.517  25.686  28.651  1.00  0.00     0.029 A 
ATOM     49  N   UNL A   1      41.454  27.666  28.812  1.00  0.00    -0.354 N 
ATOM     50  C   UNL A   1      45.416  28.357  26.927  1.00  0.00     0.074 A 
ATOM     51  C   UNL A   1      44.910  28.158  25.595  1.00  0.00     0.031 C 
ATOM     52  C   UNL A   1      39.582  26.516  29.183  1.00  0.00     0.029 A 
ATOM     53  C   UNL A   1      40.173  27.835  29.347  1.00  0.00     0.049 A 
ATOM     54  H   UNL A   1      42.138  28.374  28.846  1.00  0.00     0.167 HD
ATOM     55  C   UNL A   1      46.126  29.372  27.481  1.00  0.00     0.037 A 
ATOM     56  C   UNL A   1      39.660  28.951  29.939  1.00  0.00     0.037 A 
ATOM     57  C   UNL A   1      46.357  29.129  28.889  1.00  0.00     0.049 A 
ATOM     58  C   UNL A   1      40.808  29.750  30.420  1.00  0.00     0.074 A 
ATOM     59  C   UNL A   1      46.992  28.150  29.630  1.00  0.00     0.029 A 
ATOM     60  N   UNL A   1      45.550  29.800  29.775  1.00  0.00    -0.354 N 
ATOM     61  N   UNL A   1      41.557  29.404  31.426  1.00  0.00    -0.248 NA
ATOM     62  C   UNL A   1      41.376  30.734  29.518  1.00  0.00     0.031 C 
ATOM     63  C   UNL A   1      46.212  28.006  30.818  1.00  0.00     0.029 A 
ATOM     64  C   UNL A   1      45.176  28.937  30.769  1.00  0.00     0.049 A 
ATOM     65  H   UNL A   1      45.284  30.745  29.704  1.00  0.00     0.167 HD
ATOM     66  C   UNL A   1      42.839  29.743  31.026  1.00  0.00     0.074 A 
ATOM     67  C   UNL A   1      42.653  30.654  29.898  1.00  0.00     0.031 C 
ATOM     68  C   UNL A   1      43.913  29.026  31.466  1.00  0.00     0.037 A 
BRANCH  55  69
ATOM     69  C   UNL A   1      46.197  30.756  26.879  1.00  0.00     0.057 A 
ATOM     70  C   UNL A   1      45.090  31.596  26.632  1.00  0.00     0.134 A 
ATOM     71  C   UNL A   1      47.448  31.397  26.836  1.00  0.00     0.134 A 
ATOM     72  F   UNL A   1      43.823  31.174  26.675  1.00  0.00    -0.206 F 
ATOM     73  C   UNL A   1      45.212  32.969  26.419  1.00  0.00     0.040 A 
ATOM     74  C   UNL A   1      47.576  32.779  26.676  1.00  0.00     0.040 A 
ATOM     75  F   UNL A   1      48.581  30.710  27.046  1.00  0.00    -0.206 F 
ATOM     76  C   UNL A   1      46.455  33.573  26.481  1.00  0.00     0.006 A 
ENDBRANCH  55  69
BRANCH  56  77
ATOM     77  C   UNL A   1      38.290  29.527  29.973  1.00  0.00     0.057 A 
ATOM     78  C   UNL A   1      37.670  29.971  28.795  1.00  0.00     0.134 A 
ATOM     79  C   UNL A   1      37.706  29.974  31.175  1.00  0.00     0.134 A 
ATOM     80  F   UNL A   1      38.180  29.658  27.595  1.00  0.00    -0.206 F 
ATOM     81  C   UNL A   1      36.567  30.837  28.808  1.00  0.00     0.040 A 
ATOM     82  C   UNL A   1      36.602  30.840  31.201  1.00  0.00     0.040 A 
ATOM     83  F   UNL A   1      38.242  29.643  32.359  1.00  0.00    -0.206 F 
ATOM     84  C   UNL A   1      36.039  31.290  30.013  1.00  0.00     0.006 A 
ENDBRANCH  56  77
BRANCH  68  85
ATOM     85  C   UNL A   1      43.702  28.102  32.636  1.00  0.00     0.057 A 
ATOM     86  C   UNL A   1      43.759  28.643  33.925  1.00  0.00     0.134 A 
ATOM     87  C   UNL A   1      43.552  26.709  32.542  1.00  0.00     0.134 A 
ATOM     88  F   UNL A   1      43.944  29.963  34.096  1.00  0.00    -0.206 F 
ATOM     89  C   UNL A   1      43.663  27.848  35.069  1.00  0.00     0.040 A 
ATOM     90  C   UNL A   1      43.420  25.904  33.680  1.00  0.00     0.040 A 
ATOM     91  F   UNL A   1      43.571  26.084  31.356  1.00  0.00    -0.206 F 
ATOM     92  C   UNL A   1      43.481  26.473  34.949  1.00  0.00     0.006 A 
ENDBRANCH  68  85
ENDBRANCH  42  43
ENDBRANCH  35  37
ENDBRANCH  34  35
ENDBRANCH  33  34
ENDBRANCH   1  33
TORSDOF 16
ENDMDL
