MODEL 1
REMARK VINA RESULT:     -13.6      0.000      0.000
REMARK SMILES C[C@@H](O)[C@@H](NC(=O)Nc1ccc(F)cc1F)C(=O)OCCOC(=O)c1ccc(-c2c3nc(c(-c4c(F)cccc4F)c4ccc([nH]4)c(-c4c(F)cccc4F)c4nc(c(-c5c(F)cccc5F)c5ccc2[nH]5)C=C4)C=C3)cc1
REMARK SMILES IDX 20 1 19 2 17 3 18 4 4 5 2 6 1 7 3 8 5 10 6 11 7 13 8 14 9 16
REMARK SMILES IDX 10 17 15 18 11 19 14 20 16 21 12 22 13 23 21 24 22 25 23 26
REMARK SMILES IDX 24 27 25 28 26 29 78 30 27 31 77 32 28 33 29 34 30 35 71 36
REMARK SMILES IDX 31 37 76 38 70 39 72 40 32 41 75 42 69 43 68 44 33 46 59 47
REMARK SMILES IDX 42 48 58 49 43 50 46 51 57 52 73 53 44 54 45 55 56 57 74 58
REMARK SMILES IDX 47 59 34 60 35 61 40 62 36 63 37 64 39 65 41 66 38 67 60 68
REMARK SMILES IDX 61 69 66 70 62 71 63 72 65 73 67 74 64 75 48 76 49 77 54 78
REMARK SMILES IDX 50 79 51 80 53 81 55 82 52 83
REMARK H PARENT 3 9 5 12 8 15 72 45 46 56
REMARK Flexibility Score: inf
ROOT
ATOM      1  C   UNL A   1      32.606  30.377  26.252  1.00  0.00     0.274 C 
ENDROOT
BRANCH   1   2
ATOM      2  O   UNL A   1      32.297  29.009  25.582  1.00  0.00    -0.460 OA
BRANCH   2   3
ATOM      3  C   UNL A   1      32.554  28.752  24.228  1.00  0.00     0.331 C 
ATOM      4  O   UNL A   1      33.464  29.337  23.638  1.00  0.00    -0.250 OA
BRANCH   3   5
ATOM      5  C   UNL A   1      31.438  27.794  23.359  1.00  0.00     0.222 C 
BRANCH   5   6
ATOM      6  C   UNL A   1      30.025  28.428  23.513  1.00  0.00     0.145 C 
ATOM      7  C   UNL A   1      29.634  29.336  22.348  1.00  0.00     0.041 C 
BRANCH   6   8
ATOM      8  O   UNL A   1      29.019  27.393  23.511  1.00  0.00    -0.391 OA
ATOM      9  H   UNL A   1      28.184  27.753  23.172  1.00  0.00     0.211 HD
ENDBRANCH   6   8
ENDBRANCH   5   6
BRANCH   5  10
ATOM     10  N   UNL A   1      31.709  27.169  21.981  1.00  0.00    -0.322 N 
ATOM     11  C   UNL A   1      31.857  25.945  21.391  1.00  0.00     0.320 C 
ATOM     12  H   UNL A   1      31.807  27.879  21.305  1.00  0.00     0.166 HD
ATOM     13  O   UNL A   1      31.826  25.957  20.151  1.00  0.00    -0.248 OA
ATOM     14  N   UNL A   1      32.055  24.711  21.966  1.00  0.00    -0.305 N 
ATOM     15  H   UNL A   1      31.950  23.955  21.344  1.00  0.00     0.171 HD
BRANCH  14  16
ATOM     16  C   UNL A   1      32.381  24.332  23.286  1.00  0.00     0.079 A 
ATOM     17  C   UNL A   1      33.744  24.877  24.293  1.00  0.00     0.032 A 
ATOM     18  C   UNL A   1      31.114  23.370  24.028  1.00  0.00     0.149 A 
ATOM     19  C   UNL A   1      33.875  24.347  26.021  1.00  0.00     0.041 A 
ATOM     20  C   UNL A   1      31.191  22.773  25.788  1.00  0.00     0.080 A 
ATOM     21  F   UNL A   1      30.118  24.154  23.605  1.00  0.00    -0.205 F 
ATOM     22  C   UNL A   1      32.621  23.280  26.758  1.00  0.00     0.126 A 
ATOM     23  F   UNL A   1      32.785  22.820  28.003  1.00  0.00    -0.207 F 
ENDBRANCH  14  16
ENDBRANCH   5  10
ENDBRANCH   3   5
ENDBRANCH   2   3
ENDBRANCH   1   2
BRANCH   1  24
ATOM     24  C   UNL A   1      31.400  31.652  26.501  1.00  0.00     0.275 C 
BRANCH  24  25
ATOM     25  O   UNL A   1      31.736  33.283  27.195  1.00  0.00    -0.458 OA
BRANCH  25  26
ATOM     26  C   UNL A   1      32.898  34.282  28.320  1.00  0.00     0.338 C 
ATOM     27  O   UNL A   1      32.672  35.446  28.781  1.00  0.00    -0.246 OA
BRANCH  26  28
ATOM     28  C   UNL A   1      34.200  33.959  29.017  1.00  0.00     0.060 A 
ATOM     29  C   UNL A   1      35.394  34.389  28.398  1.00  0.00     0.016 A 
ATOM     30  C   UNL A   1      34.219  32.884  29.910  1.00  0.00     0.016 A 
ATOM     31  C   UNL A   1      36.606  33.828  28.760  1.00  0.00     0.010 A 
ATOM     32  C   UNL A   1      35.433  32.354  30.307  1.00  0.00     0.010 A 
ATOM     33  C   UNL A   1      36.622  32.839  29.746  1.00  0.00    -0.014 A 
BRANCH  33  34
ATOM     34  C   UNL A   1      37.890  32.342  30.293  1.00  0.00     0.031 A 
ATOM     35  C   UNL A   1      38.522  31.121  29.716  1.00  0.00     0.074 A 
ATOM     36  C   UNL A   1      38.330  32.933  31.416  1.00  0.00     0.049 A 
ATOM     37  N   UNL A   1      39.474  30.383  30.215  1.00  0.00    -0.248 NA
ATOM     38  C   UNL A   1      37.991  30.644  28.429  1.00  0.00     0.031 C 
ATOM     39  C   UNL A   1      37.725  34.117  32.038  1.00  0.00     0.029 A 
ATOM     40  N   UNL A   1      39.350  32.599  32.258  1.00  0.00    -0.354 N 
ATOM     41  C   UNL A   1      39.641  29.337  29.319  1.00  0.00     0.074 A 
ATOM     42  C   UNL A   1      38.674  29.519  28.259  1.00  0.00     0.031 C 
ATOM     43  C   UNL A   1      38.383  34.404  33.169  1.00  0.00     0.029 A 
ATOM     44  C   UNL A   1      39.413  33.396  33.374  1.00  0.00     0.049 A 
ATOM     45  H   UNL A   1      39.979  31.862  32.083  1.00  0.00     0.167 HD
ATOM     46  C   UNL A   1      40.535  28.324  29.392  1.00  0.00     0.037 A 
ATOM     47  C   UNL A   1      40.199  33.297  34.458  1.00  0.00     0.037 A 
ATOM     48  C   UNL A   1      41.486  28.194  30.465  1.00  0.00     0.049 A 
ATOM     49  C   UNL A   1      41.180  32.166  34.511  1.00  0.00     0.074 A 
ATOM     50  C   UNL A   1      42.471  27.240  30.636  1.00  0.00     0.029 A 
ATOM     51  N   UNL A   1      41.567  29.059  31.551  1.00  0.00    -0.354 N 
ATOM     52  N   UNL A   1      41.360  31.196  33.647  1.00  0.00    -0.248 NA
ATOM     53  C   UNL A   1      42.067  32.111  35.677  1.00  0.00     0.031 C 
ATOM     54  C   UNL A   1      43.127  27.508  31.841  1.00  0.00     0.029 A 
ATOM     55  C   UNL A   1      42.581  28.655  32.399  1.00  0.00     0.049 A 
ATOM     56  H   UNL A   1      40.988  29.842  31.695  1.00  0.00     0.167 HD
ATOM     57  C   UNL A   1      42.401  30.431  34.144  1.00  0.00     0.074 A 
ATOM     58  C   UNL A   1      42.813  31.051  35.389  1.00  0.00     0.031 C 
ATOM     59  C   UNL A   1      42.970  29.319  33.619  1.00  0.00     0.037 A 
BRANCH  46  60
ATOM     60  C   UNL A   1      40.529  27.298  28.299  1.00  0.00     0.057 A 
ATOM     61  C   UNL A   1      39.758  26.132  28.411  1.00  0.00     0.134 A 
ATOM     62  C   UNL A   1      41.321  27.438  27.152  1.00  0.00     0.134 A 
ATOM     63  F   UNL A   1      38.980  25.930  29.484  1.00  0.00    -0.206 F 
ATOM     64  C   UNL A   1      39.783  25.142  27.426  1.00  0.00     0.040 A 
ATOM     65  C   UNL A   1      41.334  26.467  26.148  1.00  0.00     0.040 A 
ATOM     66  F   UNL A   1      42.075  28.534  26.976  1.00  0.00    -0.206 F 
ATOM     67  C   UNL A   1      40.570  25.311  26.288  1.00  0.00     0.006 A 
ENDBRANCH  46  60
BRANCH  47  68
ATOM     68  C   UNL A   1      40.100  34.319  35.525  1.00  0.00     0.057 A 
ATOM     69  C   UNL A   1      40.824  35.518  35.472  1.00  0.00     0.134 A 
ATOM     70  C   UNL A   1      39.337  34.076  36.670  1.00  0.00     0.134 A 
ATOM     71  F   UNL A   1      41.600  35.796  34.413  1.00  0.00    -0.206 F 
ATOM     72  C   UNL A   1      40.802  36.431  36.527  1.00  0.00     0.040 A 
ATOM     73  C   UNL A   1      39.287  34.990  37.724  1.00  0.00     0.040 A 
ATOM     74  F   UNL A   1      38.627  32.944  36.779  1.00  0.00    -0.206 F 
ATOM     75  C   UNL A   1      40.027  36.169  37.656  1.00  0.00     0.006 A 
ENDBRANCH  47  68
BRANCH  59  76
ATOM     76  C   UNL A   1      44.124  28.726  34.364  1.00  0.00     0.057 A 
ATOM     77  C   UNL A   1      43.902  27.772  35.364  1.00  0.00     0.134 A 
ATOM     78  C   UNL A   1      45.433  29.183  34.170  1.00  0.00     0.134 A 
ATOM     79  F   UNL A   1      42.666  27.305  35.598  1.00  0.00    -0.206 F 
ATOM     80  C   UNL A   1      44.942  27.311  36.169  1.00  0.00     0.040 A 
ATOM     81  C   UNL A   1      46.484  28.713  34.955  1.00  0.00     0.040 A 
ATOM     82  F   UNL A   1      45.703  30.087  33.217  1.00  0.00    -0.206 F 
ATOM     83  C   UNL A   1      46.238  27.785  35.967  1.00  0.00     0.006 A 
ENDBRANCH  59  76
ENDBRANCH  33  34
ENDBRANCH  26  28
ENDBRANCH  25  26
ENDBRANCH  24  25
ENDBRANCH   1  24
TORSDOF 15
ENDMDL
MODEL 2
REMARK VINA RESULT:     -13.5      1.196      1.632
REMARK SMILES C[C@@H](O)[C@@H](NC(=O)Nc1ccc(F)cc1F)C(=O)OCCOC(=O)c1ccc(-c2c3nc(c(-c4c(F)cccc4F)c4ccc([nH]4)c(-c4c(F)cccc4F)c4nc(c(-c5c(F)cccc5F)c5ccc2[nH]5)C=C4)C=C3)cc1
REMARK SMILES IDX 20 1 19 2 17 3 18 4 4 5 2 6 1 7 3 8 5 10 6 11 7 13 8 14 9 16
REMARK SMILES IDX 10 17 15 18 11 19 14 20 16 21 12 22 13 23 21 24 22 25 23 26
REMARK SMILES IDX 24 27 25 28 26 29 78 30 27 31 77 32 28 33 29 34 30 35 71 36
REMARK SMILES IDX 31 37 76 38 70 39 72 40 32 41 75 42 69 43 68 44 33 46 59 47
REMARK SMILES IDX 42 48 58 49 43 50 46 51 57 52 73 53 44 54 45 55 56 57 74 58
REMARK SMILES IDX 47 59 34 60 35 61 40 62 36 63 37 64 39 65 41 66 38 67 60 68
REMARK SMILES IDX 61 69 66 70 62 71 63 72 65 73 67 74 64 75 48 76 49 77 54 78
REMARK SMILES IDX 50 79 51 80 53 81 55 82 52 83
REMARK H PARENT 3 9 5 12 8 15 72 45 46 56
REMARK Flexibility Score: inf
ROOT
ATOM      1  C   UNL A   1      32.336  30.351  26.802  1.00  0.00     0.274 C 
ENDROOT
BRANCH   1   2
ATOM      2  O   UNL A   1      32.919  29.468  25.664  1.00  0.00    -0.460 OA
BRANCH   2   3
ATOM      3  C   UNL A   1      33.296  28.131  25.859  1.00  0.00     0.331 C 
ATOM      4  O   UNL A   1      34.304  27.851  26.511  1.00  0.00    -0.250 OA
BRANCH   3   5
ATOM      5  C   UNL A   1      32.469  26.921  24.984  1.00  0.00     0.222 C 
BRANCH   5   6
ATOM      6  C   UNL A   1      31.519  26.171  25.964  1.00  0.00     0.145 C 
ATOM      7  C   UNL A   1      30.092  26.025  25.438  1.00  0.00     0.041 C 
BRANCH   6   8
ATOM      8  O   UNL A   1      31.973  24.812  26.145  1.00  0.00    -0.391 OA
ATOM      9  H   UNL A   1      32.876  24.817  26.499  1.00  0.00     0.211 HD
ENDBRANCH   6   8
ENDBRANCH   5   6
BRANCH   5  10
ATOM     10  N   UNL A   1      31.907  27.097  23.564  1.00  0.00    -0.322 N 
ATOM     11  C   UNL A   1      31.538  26.354  22.478  1.00  0.00     0.320 C 
ATOM     12  H   UNL A   1      31.769  28.054  23.375  1.00  0.00     0.166 HD
ATOM     13  O   UNL A   1      30.893  26.972  21.617  1.00  0.00    -0.248 OA
ATOM     14  N   UNL A   1      31.791  25.032  22.191  1.00  0.00    -0.305 N 
ATOM     15  H   UNL A   1      31.267  24.676  21.437  1.00  0.00     0.171 HD
BRANCH  14  16
ATOM     16  C   UNL A   1      32.666  24.095  22.781  1.00  0.00     0.079 A 
ATOM     17  C   UNL A   1      34.347  24.330  23.319  1.00  0.00     0.032 A 
ATOM     18  C   UNL A   1      31.847  22.600  23.199  1.00  0.00     0.149 A 
ATOM     19  C   UNL A   1      35.227  23.001  24.180  1.00  0.00     0.041 A 
ATOM     20  C   UNL A   1      32.691  21.186  24.062  1.00  0.00     0.080 A 
ATOM     21  F   UNL A   1      30.783  23.204  23.737  1.00  0.00    -0.205 F 
ATOM     22  C   UNL A   1      34.415  21.428  24.527  1.00  0.00     0.126 A 
ATOM     23  F   UNL A   1      35.110  20.425  25.074  1.00  0.00    -0.207 F 
ENDBRANCH  14  16
ENDBRANCH   5  10
ENDBRANCH   3   5
ENDBRANCH   2   3
ENDBRANCH   1   2
BRANCH   1  24
ATOM     24  C   UNL A   1      31.373  31.813  26.527  1.00  0.00     0.275 C 
BRANCH  24  25
ATOM     25  O   UNL A   1      31.744  33.447  27.194  1.00  0.00    -0.458 OA
BRANCH  25  26
ATOM     26  C   UNL A   1      32.892  34.429  28.349  1.00  0.00     0.338 C 
ATOM     27  O   UNL A   1      32.668  35.594  28.809  1.00  0.00    -0.246 OA
BRANCH  26  28
ATOM     28  C   UNL A   1      34.173  34.088  29.075  1.00  0.00     0.060 A 
ATOM     29  C   UNL A   1      35.380  34.568  28.523  1.00  0.00     0.016 A 
ATOM     30  C   UNL A   1      34.177  32.967  29.909  1.00  0.00     0.016 A 
ATOM     31  C   UNL A   1      36.588  34.005  28.899  1.00  0.00     0.010 A 
ATOM     32  C   UNL A   1      35.385  32.434  30.322  1.00  0.00     0.010 A 
ATOM     33  C   UNL A   1      36.585  32.965  29.831  1.00  0.00    -0.014 A 
BRANCH  33  34
ATOM     34  C   UNL A   1      37.841  32.459  30.396  1.00  0.00     0.031 A 
ATOM     35  C   UNL A   1      38.499  31.262  29.796  1.00  0.00     0.074 A 
ATOM     36  C   UNL A   1      38.244  33.013  31.551  1.00  0.00     0.049 A 
ATOM     37  N   UNL A   1      39.442  30.514  30.296  1.00  0.00    -0.248 NA
ATOM     38  C   UNL A   1      38.008  30.827  28.478  1.00  0.00     0.031 C 
ATOM     39  C   UNL A   1      37.613  34.170  32.196  1.00  0.00     0.029 A 
ATOM     40  N   UNL A   1      39.243  32.657  32.410  1.00  0.00    -0.354 N 
ATOM     41  C   UNL A   1      39.642  29.501  29.369  1.00  0.00     0.074 A 
ATOM     42  C   UNL A   1      38.704  29.713  28.289  1.00  0.00     0.031 C 
ATOM     43  C   UNL A   1      38.236  34.422  33.354  1.00  0.00     0.029 A 
ATOM     44  C   UNL A   1      39.268  33.415  33.554  1.00  0.00     0.049 A 
ATOM     45  H   UNL A   1      39.882  31.930  32.228  1.00  0.00     0.167 HD
ATOM     46  C   UNL A   1      40.542  28.493  29.433  1.00  0.00     0.037 A 
ATOM     47  C   UNL A   1      40.023  33.283  34.656  1.00  0.00     0.037 A 
ATOM     48  C   UNL A   1      41.463  28.331  30.527  1.00  0.00     0.049 A 
ATOM     49  C   UNL A   1      41.011  32.158  34.698  1.00  0.00     0.074 A 
ATOM     50  C   UNL A   1      42.450  27.378  30.694  1.00  0.00     0.029 A 
ATOM     51  N   UNL A   1      41.506  29.158  31.645  1.00  0.00    -0.354 N 
ATOM     52  N   UNL A   1      41.223  31.219  33.806  1.00  0.00    -0.248 NA
ATOM     53  C   UNL A   1      41.866  32.068  35.887  1.00  0.00     0.031 C 
ATOM     54  C   UNL A   1      43.069  27.609  31.925  1.00  0.00     0.029 A 
ATOM     55  C   UNL A   1      42.499  28.732  32.507  1.00  0.00     0.049 A 
ATOM     56  H   UNL A   1      40.918  29.932  31.799  1.00  0.00     0.167 HD
ATOM     57  C   UNL A   1      42.256  30.445  34.307  1.00  0.00     0.074 A 
ATOM     58  C   UNL A   1      42.627  31.025  35.584  1.00  0.00     0.031 C 
ATOM     59  C   UNL A   1      42.848  29.356  33.760  1.00  0.00     0.037 A 
BRANCH  46  60
ATOM     60  C   UNL A   1      40.574  27.504  28.305  1.00  0.00     0.057 A 
ATOM     61  C   UNL A   1      41.311  27.765  27.142  1.00  0.00     0.134 A 
ATOM     62  C   UNL A   1      39.839  26.313  28.348  1.00  0.00     0.134 A 
ATOM     63  F   UNL A   1      42.035  28.888  27.030  1.00  0.00    -0.206 F 
ATOM     64  C   UNL A   1      41.309  26.880  26.062  1.00  0.00     0.040 A 
ATOM     65  C   UNL A   1      39.849  25.408  27.284  1.00  0.00     0.040 A 
ATOM     66  F   UNL A   1      39.119  25.997  29.436  1.00  0.00    -0.206 F 
ATOM     67  C   UNL A   1      40.579  25.694  26.133  1.00  0.00     0.006 A 
ENDBRANCH  46  60
BRANCH  47  68
ATOM     68  C   UNL A   1      39.887  34.267  35.755  1.00  0.00     0.057 A 
ATOM     69  C   UNL A   1      40.582  35.484  35.751  1.00  0.00     0.134 A 
ATOM     70  C   UNL A   1      39.115  33.968  36.881  1.00  0.00     0.134 A 
ATOM     71  F   UNL A   1      41.363  35.815  34.712  1.00  0.00    -0.206 F 
ATOM     72  C   UNL A   1      40.524  36.361  36.834  1.00  0.00     0.040 A 
ATOM     73  C   UNL A   1      39.030  34.845  37.963  1.00  0.00     0.040 A 
ATOM     74  F   UNL A   1      38.432  32.816  36.943  1.00  0.00    -0.206 F 
ATOM     75  C   UNL A   1      39.742  36.043  37.944  1.00  0.00     0.006 A 
ENDBRANCH  47  68
BRANCH  59  76
ATOM     76  C   UNL A   1      43.985  28.746  34.516  1.00  0.00     0.057 A 
ATOM     77  C   UNL A   1      43.741  27.762  35.483  1.00  0.00     0.134 A 
ATOM     78  C   UNL A   1      45.296  29.212  34.369  1.00  0.00     0.134 A 
ATOM     79  F   UNL A   1      42.502  27.284  35.671  1.00  0.00    -0.206 F 
ATOM     80  C   UNL A   1      44.763  27.281  36.300  1.00  0.00     0.040 A 
ATOM     81  C   UNL A   1      46.329  28.722  35.167  1.00  0.00     0.040 A 
ATOM     82  F   UNL A   1      45.587  30.144  33.450  1.00  0.00    -0.206 F 
ATOM     83  C   UNL A   1      46.060  27.764  36.145  1.00  0.00     0.006 A 
ENDBRANCH  59  76
ENDBRANCH  33  34
ENDBRANCH  26  28
ENDBRANCH  25  26
ENDBRANCH  24  25
ENDBRANCH   1  24
TORSDOF 15
ENDMDL
MODEL 3
REMARK VINA RESULT:     -13.5      5.060      9.593
REMARK SMILES C[C@@H](O)[C@@H](NC(=O)Nc1ccc(F)cc1F)C(=O)OCCOC(=O)c1ccc(-c2c3nc(c(-c4c(F)cccc4F)c4ccc([nH]4)c(-c4c(F)cccc4F)c4nc(c(-c5c(F)cccc5F)c5ccc2[nH]5)C=C4)C=C3)cc1
REMARK SMILES IDX 20 1 19 2 17 3 18 4 4 5 2 6 1 7 3 8 5 10 6 11 7 13 8 14 9 16
REMARK SMILES IDX 10 17 15 18 11 19 14 20 16 21 12 22 13 23 21 24 22 25 23 26
REMARK SMILES IDX 24 27 25 28 26 29 78 30 27 31 77 32 28 33 29 34 30 35 71 36
REMARK SMILES IDX 31 37 76 38 70 39 72 40 32 41 75 42 69 43 68 44 33 46 59 47
REMARK SMILES IDX 42 48 58 49 43 50 46 51 57 52 73 53 44 54 45 55 56 57 74 58
REMARK SMILES IDX 47 59 34 60 35 61 40 62 36 63 37 64 39 65 41 66 38 67 60 68
REMARK SMILES IDX 61 69 66 70 62 71 63 72 65 73 67 74 64 75 48 76 49 77 54 78
REMARK SMILES IDX 50 79 51 80 53 81 55 82 52 83
REMARK H PARENT 3 9 5 12 8 15 72 45 46 56
REMARK Flexibility Score: inf
ROOT
ATOM      1  C   UNL A   1      37.127  21.648  25.222  1.00  0.00     0.274 C 
ENDROOT
BRANCH   1   2
ATOM      2  O   UNL A   1      35.693  22.217  25.032  1.00  0.00    -0.460 OA
BRANCH   2   3
ATOM      3  C   UNL A   1      34.627  21.883  25.880  1.00  0.00     0.331 C 
ATOM      4  O   UNL A   1      34.831  21.567  27.053  1.00  0.00    -0.250 OA
BRANCH   3   5
ATOM      5  C   UNL A   1      33.074  21.699  25.194  1.00  0.00     0.222 C 
BRANCH   5   6
ATOM      6  C   UNL A   1      33.118  20.504  24.197  1.00  0.00     0.145 C 
ATOM      7  C   UNL A   1      32.561  19.205  24.776  1.00  0.00     0.041 C 
BRANCH   6   8
ATOM      8  O   UNL A   1      32.269  20.780  23.061  1.00  0.00    -0.391 OA
ATOM      9  H   UNL A   1      32.730  21.377  22.451  1.00  0.00     0.211 HD
ENDBRANCH   6   8
ENDBRANCH   5   6
BRANCH   5  10
ATOM     10  N   UNL A   1      31.753  21.832  25.969  1.00  0.00    -0.322 N 
ATOM     11  C   UNL A   1      30.633  22.613  26.014  1.00  0.00     0.320 C 
ATOM     12  H   UNL A   1      31.696  21.128  26.656  1.00  0.00     0.166 HD
ATOM     13  O   UNL A   1      29.702  22.152  26.691  1.00  0.00    -0.248 OA
ATOM     14  N   UNL A   1      30.393  23.840  25.438  1.00  0.00    -0.305 N 
ATOM     15  H   UNL A   1      29.449  24.119  25.462  1.00  0.00     0.171 HD
BRANCH  14  16
ATOM     16  C   UNL A   1      31.256  24.770  24.821  1.00  0.00     0.079 A 
ATOM     17  C   UNL A   1      32.691  25.576  25.500  1.00  0.00     0.032 A 
ATOM     18  C   UNL A   1      30.930  24.933  23.104  1.00  0.00     0.149 A 
ATOM     19  C   UNL A   1      33.725  26.637  24.457  1.00  0.00     0.041 A 
ATOM     20  C   UNL A   1      31.935  26.019  21.977  1.00  0.00     0.080 A 
ATOM     21  F   UNL A   1      30.825  23.619  22.886  1.00  0.00    -0.205 F 
ATOM     22  C   UNL A   1      33.336  26.880  22.712  1.00  0.00     0.126 A 
ATOM     23  F   UNL A   1      34.052  27.743  21.983  1.00  0.00    -0.207 F 
ENDBRANCH  14  16
ENDBRANCH   5  10
ENDBRANCH   3   5
ENDBRANCH   2   3
ENDBRANCH   1   2
BRANCH   1  24
ATOM     24  C   UNL A   1      37.562  19.949  24.967  1.00  0.00     0.275 C 
BRANCH  24  25
ATOM     25  O   UNL A   1      39.164  19.214  25.348  1.00  0.00    -0.458 OA
BRANCH  25  26
ATOM     26  C   UNL A   1      40.949  19.578  25.891  1.00  0.00     0.338 C 
ATOM     27  O   UNL A   1      41.946  18.800  25.747  1.00  0.00    -0.246 OA
BRANCH  26  28
ATOM     28  C   UNL A   1      41.635  20.802  26.452  1.00  0.00     0.060 A 
ATOM     29  C   UNL A   1      41.603  20.983  27.851  1.00  0.00     0.016 A 
ATOM     30  C   UNL A   1      41.817  21.899  25.605  1.00  0.00     0.016 A 
ATOM     31  C   UNL A   1      41.868  22.227  28.398  1.00  0.00     0.010 A 
ATOM     32  C   UNL A   1      42.129  23.131  26.150  1.00  0.00     0.010 A 
ATOM     33  C   UNL A   1      42.171  23.288  27.542  1.00  0.00    -0.014 A 
BRANCH  33  34
ATOM     34  C   UNL A   1      42.636  24.574  28.073  1.00  0.00     0.031 A 
ATOM     35  C   UNL A   1      41.648  25.635  28.423  1.00  0.00     0.074 A 
ATOM     36  C   UNL A   1      43.962  24.786  28.054  1.00  0.00     0.049 A 
ATOM     37  N   UNL A   1      41.858  26.903  28.646  1.00  0.00    -0.248 NA
ATOM     38  C   UNL A   1      40.235  25.228  28.495  1.00  0.00     0.031 C 
ATOM     39  C   UNL A   1      44.971  23.785  27.690  1.00  0.00     0.029 A 
ATOM     40  N   UNL A   1      44.687  25.915  28.300  1.00  0.00    -0.354 N 
ATOM     41  C   UNL A   1      40.603  27.455  28.858  1.00  0.00     0.074 A 
ATOM     42  C   UNL A   1      39.634  26.391  28.711  1.00  0.00     0.031 C 
ATOM     43  C   UNL A   1      46.184  24.349  27.728  1.00  0.00     0.029 A 
ATOM     44  C   UNL A   1      46.031  25.756  28.064  1.00  0.00     0.049 A 
ATOM     45  H   UNL A   1      44.289  26.759  28.615  1.00  0.00     0.167 HD
ATOM     46  C   UNL A   1      40.309  28.741  29.155  1.00  0.00     0.037 A 
ATOM     47  C   UNL A   1      47.020  26.664  28.088  1.00  0.00     0.037 A 
ATOM     48  C   UNL A   1      41.314  29.762  29.302  1.00  0.00     0.049 A 
ATOM     49  C   UNL A   1      46.665  28.080  28.420  1.00  0.00     0.074 A 
ATOM     50  C   UNL A   1      41.152  31.092  29.640  1.00  0.00     0.029 A 
ATOM     51  N   UNL A   1      42.677  29.553  29.120  1.00  0.00    -0.354 N 
ATOM     52  N   UNL A   1      45.481  28.595  28.654  1.00  0.00    -0.248 NA
ATOM     53  C   UNL A   1      47.770  29.042  28.496  1.00  0.00     0.031 C 
ATOM     54  C   UNL A   1      42.413  31.696  29.631  1.00  0.00     0.029 A 
ATOM     55  C   UNL A   1      43.366  30.732  29.332  1.00  0.00     0.049 A 
ATOM     56  H   UNL A   1      43.089  28.693  28.876  1.00  0.00     0.167 HD
ATOM     57  C   UNL A   1      45.697  29.933  28.937  1.00  0.00     0.074 A 
ATOM     58  C   UNL A   1      47.129  30.150  28.844  1.00  0.00     0.031 C 
ATOM     59  C   UNL A   1      44.796  30.895  29.250  1.00  0.00     0.037 A 
BRANCH  46  60
ATOM     60  C   UNL A   1      38.867  29.110  29.340  1.00  0.00     0.057 A 
ATOM     61  C   UNL A   1      38.252  28.999  30.595  1.00  0.00     0.134 A 
ATOM     62  C   UNL A   1      38.071  29.532  28.268  1.00  0.00     0.134 A 
ATOM     63  F   UNL A   1      38.952  28.597  31.665  1.00  0.00    -0.206 F 
ATOM     64  C   UNL A   1      36.897  29.287  30.772  1.00  0.00     0.040 A 
ATOM     65  C   UNL A   1      36.721  29.848  28.438  1.00  0.00     0.040 A 
ATOM     66  F   UNL A   1      38.599  29.670  27.042  1.00  0.00    -0.206 F 
ATOM     67  C   UNL A   1      36.128  29.718  29.692  1.00  0.00     0.006 A 
ENDBRANCH  46  60
BRANCH  47  68
ATOM     68  C   UNL A   1      48.413  26.229  27.832  1.00  0.00     0.057 A 
ATOM     69  C   UNL A   1      48.977  26.262  26.550  1.00  0.00     0.134 A 
ATOM     70  C   UNL A   1      49.186  25.687  28.863  1.00  0.00     0.134 A 
ATOM     71  F   UNL A   1      48.274  26.742  25.512  1.00  0.00    -0.206 F 
ATOM     72  C   UNL A   1      50.254  25.760  26.301  1.00  0.00     0.040 A 
ATOM     73  C   UNL A   1      50.474  25.201  28.633  1.00  0.00     0.040 A 
ATOM     74  F   UNL A   1      48.697  25.625  30.110  1.00  0.00    -0.206 F 
ATOM     75  C   UNL A   1      51.008  25.231  27.347  1.00  0.00     0.006 A 
ENDBRANCH  47  68
BRANCH  59  76
ATOM     76  C   UNL A   1      45.332  32.258  29.557  1.00  0.00     0.057 A 
ATOM     77  C   UNL A   1      45.515  33.191  28.530  1.00  0.00     0.134 A 
ATOM     78  C   UNL A   1      45.771  32.600  30.841  1.00  0.00     0.134 A 
ATOM     79  F   UNL A   1      45.120  32.913  27.278  1.00  0.00    -0.206 F 
ATOM     80  C   UNL A   1      46.144  34.412  28.764  1.00  0.00     0.040 A 
ATOM     81  C   UNL A   1      46.382  33.827  31.092  1.00  0.00     0.040 A 
ATOM     82  F   UNL A   1      45.609  31.748  31.865  1.00  0.00    -0.206 F 
ATOM     83  C   UNL A   1      46.582  34.731  30.048  1.00  0.00     0.006 A 
ENDBRANCH  59  76
ENDBRANCH  33  34
ENDBRANCH  26  28
ENDBRANCH  25  26
ENDBRANCH  24  25
ENDBRANCH   1  24
TORSDOF 15
ENDMDL
