MODEL 1
REMARK VINA RESULT:     -11.7      0.000      0.000
REMARK SMILES O=C(OCCOC(=O)c1cccc(OS(=O)(=O)c2cccc([N+](=O)[O-])c2)c1)c1ccc(-c2c3nc(c(-c4c(F)cccc4F)c4ccc([nH]4)c(-c4c(F)cccc4F)c4nc(c(-c5c(F)cccc5F)c5ccc2[nH]5)C=C4)C=C3)cc1
REMARK SMILES IDX 5 1 4 2 3 3 2 4 1 5 28 6 29 7 81 8 30 9 80 10 31 11 32 12
REMARK SMILES IDX 33 13 74 14 34 15 79 16 73 17 75 18 35 19 78 20 72 21 71 22
REMARK SMILES IDX 36 24 62 25 45 26 61 27 46 28 49 29 60 30 76 31 47 32 48 33
REMARK SMILES IDX 59 35 77 36 50 37 37 38 38 39 43 40 39 41 40 42 42 43 44 44
REMARK SMILES IDX 41 45 63 46 64 47 69 48 65 49 66 50 68 51 70 52 67 53 51 54
REMARK SMILES IDX 52 55 57 56 53 57 54 58 56 59 58 60 55 61 6 62 7 63 8 64
REMARK SMILES IDX 9 65 10 66 27 67 11 68 13 69 12 70 14 71 15 72 16 73 17 74
REMARK SMILES IDX 18 75 19 76 26 77 20 78 22 79 21 80 23 81 24 82 25 83
REMARK H PARENT 75 23 49 34
REMARK Flexibility Score: inf
ROOT
ATOM      1  C   UNL A   1      32.834  30.964  26.898  1.00  0.00     0.275 C 
ENDROOT
BRANCH   1   2
ATOM      2  C   UNL A   1      31.753  32.009  27.184  1.00  0.00     0.275 C 
BRANCH   2   3
ATOM      3  O   UNL A   1      32.262  33.352  27.199  1.00  0.00    -0.458 OA
BRANCH   3   4
ATOM      4  C   UNL A   1      32.924  34.042  28.152  1.00  0.00     0.338 C 
ATOM      5  O   UNL A   1      32.399  35.071  28.579  1.00  0.00    -0.246 OA
BRANCH   4   6
ATOM      6  C   UNL A   1      34.282  33.696  28.702  1.00  0.00     0.060 A 
ATOM      7  C   UNL A   1      35.529  34.124  28.232  1.00  0.00     0.016 A 
ATOM      8  C   UNL A   1      34.277  32.858  29.836  1.00  0.00     0.016 A 
ATOM      9  C   UNL A   1      36.724  33.731  28.853  1.00  0.00     0.010 A 
ATOM     10  C   UNL A   1      35.459  32.470  30.470  1.00  0.00     0.010 A 
ATOM     11  C   UNL A   1      36.692  32.887  29.962  1.00  0.00    -0.014 A 
BRANCH  11  12
ATOM     12  C   UNL A   1      37.937  32.322  30.531  1.00  0.00     0.031 A 
ATOM     13  C   UNL A   1      38.525  31.138  29.856  1.00  0.00     0.074 A 
ATOM     14  C   UNL A   1      38.438  32.790  31.687  1.00  0.00     0.049 A 
ATOM     15  N   UNL A   1      39.579  30.452  30.190  1.00  0.00    -0.248 NA
ATOM     16  C   UNL A   1      37.814  30.641  28.669  1.00  0.00     0.031 C 
ATOM     17  C   UNL A   1      37.853  33.919  32.372  1.00  0.00     0.029 A 
ATOM     18  N   UNL A   1      39.472  32.415  32.505  1.00  0.00    -0.354 N 
ATOM     19  C   UNL A   1      39.630  29.407  29.285  1.00  0.00     0.074 A 
ATOM     20  C   UNL A   1      38.500  29.546  28.393  1.00  0.00     0.031 C 
ATOM     21  C   UNL A   1      38.490  34.129  33.529  1.00  0.00     0.029 A 
ATOM     22  C   UNL A   1      39.569  33.166  33.662  1.00  0.00     0.049 A 
ATOM     23  H   UNL A   1      40.089  31.680  32.288  1.00  0.00     0.167 HD
ATOM     24  C   UNL A   1      40.542  28.410  29.239  1.00  0.00     0.037 A 
ATOM     25  C   UNL A   1      40.446  33.104  34.690  1.00  0.00     0.037 A 
ATOM     26  C   UNL A   1      41.629  28.317  30.175  1.00  0.00     0.049 A 
ATOM     27  C   UNL A   1      41.544  32.077  34.523  1.00  0.00     0.074 A 
ATOM     28  C   UNL A   1      42.637  27.377  30.240  1.00  0.00     0.029 A 
ATOM     29  N   UNL A   1      41.832  29.206  31.229  1.00  0.00    -0.354 N 
ATOM     30  N   UNL A   1      41.686  31.191  33.559  1.00  0.00    -0.248 NA
ATOM     31  C   UNL A   1      42.613  32.040  35.524  1.00  0.00     0.031 C 
ATOM     32  C   UNL A   1      43.417  27.667  31.366  1.00  0.00     0.029 A 
ATOM     33  C   UNL A   1      42.930  28.818  31.974  1.00  0.00     0.049 A 
ATOM     34  H   UNL A   1      41.274  29.996  31.417  1.00  0.00     0.167 HD
ATOM     35  C   UNL A   1      42.881  30.534  33.803  1.00  0.00     0.074 A 
ATOM     36  C   UNL A   1      43.442  31.150  34.993  1.00  0.00     0.031 C 
ATOM     37  C   UNL A   1      43.455  29.502  33.135  1.00  0.00     0.037 A 
BRANCH  24  38
ATOM     38  C   UNL A   1      40.301  27.340  28.218  1.00  0.00     0.057 A 
ATOM     39  C   UNL A   1      39.555  26.186  28.500  1.00  0.00     0.134 A 
ATOM     40  C   UNL A   1      40.930  27.410  26.969  1.00  0.00     0.134 A 
ATOM     41  F   UNL A   1      38.958  26.036  29.692  1.00  0.00    -0.206 F 
ATOM     42  C   UNL A   1      39.496  25.117  27.603  1.00  0.00     0.040 A 
ATOM     43  C   UNL A   1      40.851  26.361  26.050  1.00  0.00     0.040 A 
ATOM     44  F   UNL A   1      41.668  28.479  26.636  1.00  0.00    -0.206 F 
ATOM     45  C   UNL A   1      40.147  25.203  26.375  1.00  0.00     0.006 A 
ENDBRANCH  24  38
BRANCH  25  46
ATOM     46  C   UNL A   1      40.381  34.109  35.815  1.00  0.00     0.057 A 
ATOM     47  C   UNL A   1      40.876  35.416  35.691  1.00  0.00     0.134 A 
ATOM     48  C   UNL A   1      39.694  33.843  37.014  1.00  0.00     0.134 A 
ATOM     49  F   UNL A   1      41.559  35.790  34.602  1.00  0.00    -0.206 F 
ATOM     50  C   UNL A   1      40.652  36.408  36.656  1.00  0.00     0.040 A 
ATOM     51  C   UNL A   1      39.408  34.839  37.959  1.00  0.00     0.040 A 
ATOM     52  F   UNL A   1      39.206  32.617  37.260  1.00  0.00    -0.206 F 
ATOM     53  C   UNL A   1      39.880  36.132  37.777  1.00  0.00     0.006 A 
ENDBRANCH  25  46
BRANCH  37  54
ATOM     54  C   UNL A   1      44.752  28.983  33.682  1.00  0.00     0.057 A 
ATOM     55  C   UNL A   1      44.781  27.953  34.630  1.00  0.00     0.134 A 
ATOM     56  C   UNL A   1      45.976  29.448  33.187  1.00  0.00     0.134 A 
ATOM     57  F   UNL A   1      43.640  27.467  35.143  1.00  0.00    -0.206 F 
ATOM     58  C   UNL A   1      45.985  27.416  35.083  1.00  0.00     0.040 A 
ATOM     59  C   UNL A   1      47.185  28.897  33.608  1.00  0.00     0.040 A 
ATOM     60  F   UNL A   1      46.014  30.420  32.263  1.00  0.00    -0.206 F 
ATOM     61  C   UNL A   1      47.191  27.881  34.562  1.00  0.00     0.006 A 
ENDBRANCH  37  54
ENDBRANCH  11  12
ENDBRANCH   4   6
ENDBRANCH   3   4
ENDBRANCH   2   3
ENDBRANCH   1   2
BRANCH   1  62
ATOM     62  O   UNL A   1      32.488  30.076  25.822  1.00  0.00    -0.458 OA
BRANCH  62  63
ATOM     63  C   UNL A   1      32.941  28.802  25.938  1.00  0.00     0.338 C 
ATOM     64  O   UNL A   1      34.032  28.442  26.344  1.00  0.00    -0.246 OA
BRANCH  63  65
ATOM     65  C   UNL A   1      31.846  27.873  25.601  1.00  0.00     0.063 A 
ATOM     66  C   UNL A   1      31.158  28.052  24.397  1.00  0.00     0.016 A 
ATOM     67  C   UNL A   1      31.527  26.811  26.457  1.00  0.00     0.064 A 
ATOM     68  C   UNL A   1      30.150  27.157  24.045  1.00  0.00     0.005 A 
ATOM     69  C   UNL A   1      30.529  25.903  26.100  1.00  0.00     0.143 A 
ATOM     70  C   UNL A   1      29.820  26.102  24.904  1.00  0.00     0.048 A 
BRANCH  69  71
ATOM     71  O   UNL A   1      30.247  24.751  26.813  1.00  0.00    -0.379 OA
BRANCH  71  72
ATOM     72  S   UNL A   1      31.148  23.396  26.598  1.00  0.00     0.339 S 
ATOM     73  O   UNL A   1      31.812  23.054  27.842  1.00  0.00    -0.181 OA
ATOM     74  O   UNL A   1      30.319  22.413  25.923  1.00  0.00    -0.181 OA
BRANCH  72  75
ATOM     75  C   UNL A   1      32.454  23.823  25.439  1.00  0.00     0.112 A 
ATOM     76  C   UNL A   1      33.682  24.272  25.947  1.00  0.00     0.024 A 
ATOM     77  C   UNL A   1      32.172  23.939  24.069  1.00  0.00     0.109 A 
ATOM     78  C   UNL A   1      34.630  24.841  25.091  1.00  0.00     0.009 A 
ATOM     79  C   UNL A   1      33.134  24.509  23.221  1.00  0.00     0.270 A 
ATOM     80  C   UNL A   1      34.358  24.966  23.728  1.00  0.00     0.086 A 
BRANCH  79  81
ATOM     81  N   UNL A   1      32.863  24.644  21.783  1.00  0.00     0.062 N 
ATOM     82  O   UNL A   1      32.063  25.524  21.433  1.00  0.00    -0.258 OA
ATOM     83  O   UNL A   1      33.460  23.881  21.016  1.00  0.00    -0.258 OA
ENDBRANCH  79  81
ENDBRANCH  72  75
ENDBRANCH  71  72
ENDBRANCH  69  71
ENDBRANCH  63  65
ENDBRANCH  62  63
ENDBRANCH   1  62
TORSDOF 15
ENDMDL
MODEL 2
REMARK VINA RESULT:     -11.7      3.394      8.558
REMARK SMILES O=C(OCCOC(=O)c1cccc(OS(=O)(=O)c2cccc([N+](=O)[O-])c2)c1)c1ccc(-c2c3nc(c(-c4c(F)cccc4F)c4ccc([nH]4)c(-c4c(F)cccc4F)c4nc(c(-c5c(F)cccc5F)c5ccc2[nH]5)C=C4)C=C3)cc1
REMARK SMILES IDX 5 1 4 2 3 3 2 4 1 5 28 6 29 7 81 8 30 9 80 10 31 11 32 12
REMARK SMILES IDX 33 13 74 14 34 15 79 16 73 17 75 18 35 19 78 20 72 21 71 22
REMARK SMILES IDX 36 24 62 25 45 26 61 27 46 28 49 29 60 30 76 31 47 32 48 33
REMARK SMILES IDX 59 35 77 36 50 37 37 38 38 39 43 40 39 41 40 42 42 43 44 44
REMARK SMILES IDX 41 45 63 46 64 47 69 48 65 49 66 50 68 51 70 52 67 53 51 54
REMARK SMILES IDX 52 55 57 56 53 57 54 58 56 59 58 60 55 61 6 62 7 63 8 64
REMARK SMILES IDX 9 65 10 66 27 67 11 68 13 69 12 70 14 71 15 72 16 73 17 74
REMARK SMILES IDX 18 75 19 76 26 77 20 78 22 79 21 80 23 81 24 82 25 83
REMARK H PARENT 75 23 49 34
REMARK Flexibility Score: inf
ROOT
ATOM      1  C   UNL A   1      42.630  20.493  25.996  1.00  0.00     0.275 C 
ENDROOT
BRANCH   1   2
ATOM      2  C   UNL A   1      43.853  21.228  25.439  1.00  0.00     0.275 C 
BRANCH   2   3
ATOM      3  O   UNL A   1      44.127  22.459  26.126  1.00  0.00    -0.458 OA
BRANCH   3   4
ATOM      4  C   UNL A   1      43.919  23.743  25.767  1.00  0.00     0.338 C 
ATOM      5  O   UNL A   1      44.145  24.051  24.596  1.00  0.00    -0.246 OA
BRANCH   4   6
ATOM      6  C   UNL A   1      43.486  24.853  26.688  1.00  0.00     0.060 A 
ATOM      7  C   UNL A   1      44.019  26.143  26.781  1.00  0.00     0.016 A 
ATOM      8  C   UNL A   1      42.401  24.545  27.534  1.00  0.00     0.016 A 
ATOM      9  C   UNL A   1      43.507  27.088  27.682  1.00  0.00     0.010 A 
ATOM     10  C   UNL A   1      41.875  25.481  28.426  1.00  0.00     0.010 A 
ATOM     11  C   UNL A   1      42.445  26.752  28.520  1.00  0.00    -0.014 A 
BRANCH  11  12
ATOM     12  C   UNL A   1      41.998  27.668  29.594  1.00  0.00     0.031 A 
ATOM     13  C   UNL A   1      42.682  27.573  30.908  1.00  0.00     0.074 A 
ATOM     14  C   UNL A   1      40.929  28.463  29.417  1.00  0.00     0.049 A 
ATOM     15  N   UNL A   1      42.441  28.237  32.001  1.00  0.00    -0.248 NA
ATOM     16  C   UNL A   1      43.757  26.576  31.015  1.00  0.00     0.031 C 
ATOM     17  C   UNL A   1      40.232  28.537  28.154  1.00  0.00     0.029 A 
ATOM     18  N   UNL A   1      40.218  29.308  30.229  1.00  0.00    -0.354 N 
ATOM     19  C   UNL A   1      43.298  27.701  32.945  1.00  0.00     0.074 A 
ATOM     20  C   UNL A   1      44.060  26.656  32.299  1.00  0.00     0.031 C 
ATOM     21  C   UNL A   1      39.166  29.336  28.268  1.00  0.00     0.029 A 
ATOM     22  C   UNL A   1      39.114  29.873  29.617  1.00  0.00     0.049 A 
ATOM     23  H   UNL A   1      40.470  29.496  31.162  1.00  0.00     0.167 HD
ATOM     24  C   UNL A   1      43.403  28.053  34.245  1.00  0.00     0.037 A 
ATOM     25  C   UNL A   1      38.191  30.746  30.081  1.00  0.00     0.037 A 
ATOM     26  C   UNL A   1      42.594  29.087  34.831  1.00  0.00     0.049 A 
ATOM     27  C   UNL A   1      38.436  31.235  31.492  1.00  0.00     0.074 A 
ATOM     28  C   UNL A   1      42.602  29.563  36.126  1.00  0.00     0.029 A 
ATOM     29  N   UNL A   1      41.610  29.795  34.143  1.00  0.00    -0.354 N 
ATOM     30  N   UNL A   1      39.369  30.844  32.335  1.00  0.00    -0.248 NA
ATOM     31  C   UNL A   1      37.563  32.286  32.021  1.00  0.00     0.031 C 
ATOM     32  C   UNL A   1      41.587  30.521  36.234  1.00  0.00     0.029 A 
ATOM     33  C   UNL A   1      40.979  30.682  34.995  1.00  0.00     0.049 A 
ATOM     34  H   UNL A   1      41.395  29.680  33.189  1.00  0.00     0.167 HD
ATOM     35  C   UNL A   1      39.234  31.635  33.464  1.00  0.00     0.074 A 
ATOM     36  C   UNL A   1      38.145  32.553  33.183  1.00  0.00     0.031 C 
ATOM     37  C   UNL A   1      39.917  31.597  34.637  1.00  0.00     0.037 A 
BRANCH  24  38
ATOM     38  C   UNL A   1      44.341  27.234  35.078  1.00  0.00     0.057 A 
ATOM     39  C   UNL A   1      45.694  27.570  35.237  1.00  0.00     0.134 A 
ATOM     40  C   UNL A   1      43.911  26.021  35.629  1.00  0.00     0.134 A 
ATOM     41  F   UNL A   1      46.183  28.699  34.702  1.00  0.00    -0.206 F 
ATOM     42  C   UNL A   1      46.594  26.701  35.859  1.00  0.00     0.040 A 
ATOM     43  C   UNL A   1      44.795  25.159  36.282  1.00  0.00     0.040 A 
ATOM     44  F   UNL A   1      42.634  25.631  35.505  1.00  0.00    -0.206 F 
ATOM     45  C   UNL A   1      46.144  25.491  36.382  1.00  0.00     0.006 A 
ENDBRANCH  24  38
BRANCH  25  46
ATOM     46  C   UNL A   1      37.112  31.278  29.169  1.00  0.00     0.057 A 
ATOM     47  C   UNL A   1      35.942  30.559  28.881  1.00  0.00     0.134 A 
ATOM     48  C   UNL A   1      37.145  32.590  28.660  1.00  0.00     0.134 A 
ATOM     49  F   UNL A   1      35.794  29.295  29.300  1.00  0.00    -0.206 F 
ATOM     50  C   UNL A   1      34.856  31.118  28.194  1.00  0.00     0.040 A 
ATOM     51  C   UNL A   1      36.045  33.183  28.026  1.00  0.00     0.040 A 
ATOM     52  F   UNL A   1      38.228  33.362  28.841  1.00  0.00    -0.206 F 
ATOM     53  C   UNL A   1      34.888  32.449  27.799  1.00  0.00     0.006 A 
ENDBRANCH  25  46
BRANCH  37  54
ATOM     54  C   UNL A   1      39.499  32.576  35.692  1.00  0.00     0.057 A 
ATOM     55  C   UNL A   1      38.527  32.248  36.645  1.00  0.00     0.134 A 
ATOM     56  C   UNL A   1      40.140  33.816  35.814  1.00  0.00     0.134 A 
ATOM     57  F   UNL A   1      37.877  31.076  36.579  1.00  0.00    -0.206 F 
ATOM     58  C   UNL A   1      38.191  33.127  37.674  1.00  0.00     0.040 A 
ATOM     59  C   UNL A   1      39.836  34.689  36.857  1.00  0.00     0.040 A 
ATOM     60  F   UNL A   1      41.093  34.180  34.944  1.00  0.00    -0.206 F 
ATOM     61  C   UNL A   1      38.856  34.347  37.788  1.00  0.00     0.006 A 
ENDBRANCH  37  54
ENDBRANCH  11  12
ENDBRANCH   4   6
ENDBRANCH   3   4
ENDBRANCH   2   3
ENDBRANCH   1   2
BRANCH   1  62
ATOM     62  O   UNL A   1      41.396  21.184  25.743  1.00  0.00    -0.458 OA
BRANCH  62  63
ATOM     63  C   UNL A   1      40.542  21.271  26.795  1.00  0.00     0.338 C 
ATOM     64  O   UNL A   1      40.726  20.865  27.929  1.00  0.00    -0.246 OA
BRANCH  63  65
ATOM     65  C   UNL A   1      39.362  22.058  26.388  1.00  0.00     0.063 A 
ATOM     66  C   UNL A   1      39.338  23.428  26.665  1.00  0.00     0.016 A 
ATOM     67  C   UNL A   1      38.302  21.447  25.708  1.00  0.00     0.064 A 
ATOM     68  C   UNL A   1      38.251  24.192  26.248  1.00  0.00     0.005 A 
ATOM     69  C   UNL A   1      37.218  22.211  25.274  1.00  0.00     0.143 A 
ATOM     70  C   UNL A   1      37.183  23.582  25.579  1.00  0.00     0.048 A 
BRANCH  69  71
ATOM     71  O   UNL A   1      36.200  21.720  24.475  1.00  0.00    -0.379 OA
BRANCH  71  72
ATOM     72  S   UNL A   1      34.841  21.092  25.149  1.00  0.00     0.339 S 
ATOM     73  O   UNL A   1      34.581  19.781  24.584  1.00  0.00    -0.181 OA
ATOM     74  O   UNL A   1      34.943  21.255  26.589  1.00  0.00    -0.181 OA
BRANCH  72  75
ATOM     75  C   UNL A   1      33.475  22.138  24.628  1.00  0.00     0.112 A 
ATOM     76  C   UNL A   1      33.467  22.626  23.313  1.00  0.00     0.024 A 
ATOM     77  C   UNL A   1      32.576  22.651  25.576  1.00  0.00     0.109 A 
ATOM     78  C   UNL A   1      32.566  23.627  22.941  1.00  0.00     0.009 A 
ATOM     79  C   UNL A   1      31.675  23.654  25.188  1.00  0.00     0.270 A 
ATOM     80  C   UNL A   1      31.671  24.148  23.877  1.00  0.00     0.086 A 
BRANCH  79  81
ATOM     81  N   UNL A   1      30.725  24.209  26.163  1.00  0.00     0.062 N 
ATOM     82  O   UNL A   1      30.672  23.673  27.278  1.00  0.00    -0.258 OA
ATOM     83  O   UNL A   1      30.051  25.184  25.811  1.00  0.00    -0.258 OA
ENDBRANCH  79  81
ENDBRANCH  72  75
ENDBRANCH  71  72
ENDBRANCH  69  71
ENDBRANCH  63  65
ENDBRANCH  62  63
ENDBRANCH   1  62
TORSDOF 15
ENDMDL
MODEL 3
REMARK VINA RESULT:     -11.7      4.502      9.459
REMARK SMILES O=C(OCCOC(=O)c1cccc(OS(=O)(=O)c2cccc([N+](=O)[O-])c2)c1)c1ccc(-c2c3nc(c(-c4c(F)cccc4F)c4ccc([nH]4)c(-c4c(F)cccc4F)c4nc(c(-c5c(F)cccc5F)c5ccc2[nH]5)C=C4)C=C3)cc1
REMARK SMILES IDX 5 1 4 2 3 3 2 4 1 5 28 6 29 7 81 8 30 9 80 10 31 11 32 12
REMARK SMILES IDX 33 13 74 14 34 15 79 16 73 17 75 18 35 19 78 20 72 21 71 22
REMARK SMILES IDX 36 24 62 25 45 26 61 27 46 28 49 29 60 30 76 31 47 32 48 33
REMARK SMILES IDX 59 35 77 36 50 37 37 38 38 39 43 40 39 41 40 42 42 43 44 44
REMARK SMILES IDX 41 45 63 46 64 47 69 48 65 49 66 50 68 51 70 52 67 53 51 54
REMARK SMILES IDX 52 55 57 56 53 57 54 58 56 59 58 60 55 61 6 62 7 63 8 64
REMARK SMILES IDX 9 65 10 66 27 67 11 68 13 69 12 70 14 71 15 72 16 73 17 74
REMARK SMILES IDX 18 75 19 76 26 77 20 78 22 79 21 80 23 81 24 82 25 83
REMARK H PARENT 75 23 49 34
REMARK Flexibility Score: inf
ROOT
ATOM      1  C   UNL A   1      37.642  20.853  25.310  1.00  0.00     0.275 C 
ENDROOT
BRANCH   1   2
ATOM      2  C   UNL A   1      38.476  19.625  24.935  1.00  0.00     0.275 C 
BRANCH   2   3
ATOM      3  O   UNL A   1      39.423  19.258  25.951  1.00  0.00    -0.458 OA
BRANCH   3   4
ATOM      4  C   UNL A   1      40.753  19.464  26.043  1.00  0.00     0.338 C 
ATOM      5  O   UNL A   1      41.497  18.550  25.685  1.00  0.00    -0.246 OA
BRANCH   4   6
ATOM      6  C   UNL A   1      41.414  20.696  26.602  1.00  0.00     0.060 A 
ATOM      7  C   UNL A   1      41.781  20.941  27.931  1.00  0.00     0.016 A 
ATOM      8  C   UNL A   1      41.710  21.701  25.659  1.00  0.00     0.016 A 
ATOM      9  C   UNL A   1      42.406  22.137  28.312  1.00  0.00     0.010 A 
ATOM     10  C   UNL A   1      42.343  22.890  26.025  1.00  0.00     0.010 A 
ATOM     11  C   UNL A   1      42.671  23.122  27.363  1.00  0.00    -0.014 A 
BRANCH  11  12
ATOM     12  C   UNL A   1      43.172  24.457  27.764  1.00  0.00     0.031 A 
ATOM     13  C   UNL A   1      42.173  25.465  28.197  1.00  0.00     0.074 A 
ATOM     14  C   UNL A   1      44.469  24.776  27.617  1.00  0.00     0.049 A 
ATOM     15  N   UNL A   1      42.366  26.701  28.553  1.00  0.00    -0.248 NA
ATOM     16  C   UNL A   1      40.767  25.034  28.197  1.00  0.00     0.031 C 
ATOM     17  C   UNL A   1      45.446  23.814  27.161  1.00  0.00     0.029 A 
ATOM     18  N   UNL A   1      45.199  25.925  27.779  1.00  0.00    -0.354 N 
ATOM     19  C   UNL A   1      41.100  27.217  28.770  1.00  0.00     0.074 A 
ATOM     20  C   UNL A   1      40.149  26.162  28.501  1.00  0.00     0.031 C 
ATOM     21  C   UNL A   1      46.639  24.404  27.027  1.00  0.00     0.029 A 
ATOM     22  C   UNL A   1      46.529  25.797  27.427  1.00  0.00     0.049 A 
ATOM     23  H   UNL A   1      44.811  26.764  28.116  1.00  0.00     0.167 HD
ATOM     24  C   UNL A   1      40.784  28.477  29.139  1.00  0.00     0.037 A 
ATOM     25  C   UNL A   1      47.546  26.689  27.455  1.00  0.00     0.037 A 
ATOM     26  C   UNL A   1      41.782  29.486  29.366  1.00  0.00     0.049 A 
ATOM     27  C   UNL A   1      47.183  28.044  28.022  1.00  0.00     0.074 A 
ATOM     28  C   UNL A   1      41.613  30.798  29.760  1.00  0.00     0.029 A 
ATOM     29  N   UNL A   1      43.151  29.285  29.197  1.00  0.00    -0.354 N 
ATOM     30  N   UNL A   1      45.995  28.475  28.393  1.00  0.00    -0.248 NA
ATOM     31  C   UNL A   1      48.256  29.021  28.217  1.00  0.00     0.031 C 
ATOM     32  C   UNL A   1      42.875  31.403  29.777  1.00  0.00     0.029 A 
ATOM     33  C   UNL A   1      43.839  30.458  29.446  1.00  0.00     0.049 A 
ATOM     34  H   UNL A   1      43.568  28.431  28.939  1.00  0.00     0.167 HD
ATOM     35  C   UNL A   1      46.184  29.743  28.916  1.00  0.00     0.074 A 
ATOM     36  C   UNL A   1      47.612  29.999  28.843  1.00  0.00     0.031 C 
ATOM     37  C   UNL A   1      45.273  30.633  29.386  1.00  0.00     0.037 A 
BRANCH  24  38
ATOM     38  C   UNL A   1      39.322  28.801  29.198  1.00  0.00     0.057 A 
ATOM     39  C   UNL A   1      38.621  29.318  28.098  1.00  0.00     0.134 A 
ATOM     40  C   UNL A   1      38.634  28.711  30.415  1.00  0.00     0.134 A 
ATOM     41  F   UNL A   1      39.231  29.468  26.912  1.00  0.00    -0.206 F 
ATOM     42  C   UNL A   1      37.312  29.788  28.222  1.00  0.00     0.040 A 
ATOM     43  C   UNL A   1      37.314  29.148  30.542  1.00  0.00     0.040 A 
ATOM     44  F   UNL A   1      39.246  28.238  31.510  1.00  0.00    -0.206 F 
ATOM     45  C   UNL A   1      36.656  29.704  29.448  1.00  0.00     0.006 A 
ENDBRANCH  24  38
BRANCH  25  46
ATOM     46  C   UNL A   1      48.948  26.266  27.086  1.00  0.00     0.057 A 
ATOM     47  C   UNL A   1      49.487  26.468  25.807  1.00  0.00     0.134 A 
ATOM     48  C   UNL A   1      49.853  25.769  28.042  1.00  0.00     0.134 A 
ATOM     49  F   UNL A   1      48.724  26.926  24.806  1.00  0.00    -0.206 F 
ATOM     50  C   UNL A   1      50.840  26.255  25.510  1.00  0.00     0.040 A 
ATOM     51  C   UNL A   1      51.221  25.610  27.778  1.00  0.00     0.040 A 
ATOM     52  F   UNL A   1      49.443  25.503  29.292  1.00  0.00    -0.206 F 
ATOM     53  C   UNL A   1      51.722  25.863  26.508  1.00  0.00     0.006 A 
ENDBRANCH  25  46
BRANCH  37  54
ATOM     54  C   UNL A   1      45.802  31.956  29.853  1.00  0.00     0.057 A 
ATOM     55  C   UNL A   1      46.188  32.157  31.184  1.00  0.00     0.134 A 
ATOM     56  C   UNL A   1      46.018  33.002  28.947  1.00  0.00     0.134 A 
ATOM     57  F   UNL A   1      46.005  31.193  32.099  1.00  0.00    -0.206 F 
ATOM     58  C   UNL A   1      46.753  33.360  31.603  1.00  0.00     0.040 A 
ATOM     59  C   UNL A   1      46.612  34.198  29.347  1.00  0.00     0.040 A 
ATOM     60  F   UNL A   1      45.688  32.864  27.653  1.00  0.00    -0.206 F 
ATOM     61  C   UNL A   1      46.977  34.380  30.680  1.00  0.00     0.006 A 
ENDBRANCH  37  54
ENDBRANCH  11  12
ENDBRANCH   4   6
ENDBRANCH   3   4
ENDBRANCH   2   3
ENDBRANCH   1   2
BRANCH   1  62
ATOM     62  O   UNL A   1      36.246  20.699  25.007  1.00  0.00    -0.458 OA
BRANCH  62  63
ATOM     63  C   UNL A   1      35.442  21.724  25.388  1.00  0.00     0.338 C 
ATOM     64  O   UNL A   1      35.573  22.438  26.367  1.00  0.00    -0.246 OA
BRANCH  63  65
ATOM     65  C   UNL A   1      34.414  21.936  24.351  1.00  0.00     0.063 A 
ATOM     66  C   UNL A   1      33.244  21.174  24.398  1.00  0.00     0.016 A 
ATOM     67  C   UNL A   1      34.596  22.909  23.361  1.00  0.00     0.064 A 
ATOM     68  C   UNL A   1      32.246  21.393  23.451  1.00  0.00     0.005 A 
ATOM     69  C   UNL A   1      33.593  23.143  22.420  1.00  0.00     0.143 A 
ATOM     70  C   UNL A   1      32.430  22.355  22.451  1.00  0.00     0.048 A 
BRANCH  69  71
ATOM     71  O   UNL A   1      33.627  24.175  21.498  1.00  0.00    -0.379 OA
BRANCH  71  72
ATOM     72  S   UNL A   1      32.884  25.603  21.818  1.00  0.00     0.339 S 
ATOM     73  O   UNL A   1      33.714  26.697  21.348  1.00  0.00    -0.181 OA
ATOM     74  O   UNL A   1      31.505  25.496  21.374  1.00  0.00    -0.181 OA
BRANCH  72  75
ATOM     75  C   UNL A   1      32.818  25.762  23.607  1.00  0.00     0.112 A 
ATOM     76  C   UNL A   1      33.984  26.135  24.291  1.00  0.00     0.024 A 
ATOM     77  C   UNL A   1      31.704  25.288  24.318  1.00  0.00     0.109 A 
ATOM     78  C   UNL A   1      34.044  26.035  25.684  1.00  0.00     0.009 A 
ATOM     79  C   UNL A   1      31.777  25.196  25.716  1.00  0.00     0.270 A 
ATOM     80  C   UNL A   1      32.944  25.561  26.401  1.00  0.00     0.086 A 
BRANCH  79  81
ATOM     81  N   UNL A   1      30.626  24.701  26.483  1.00  0.00     0.062 N 
ATOM     82  O   UNL A   1      30.789  23.676  27.161  1.00  0.00    -0.258 OA
ATOM     83  O   UNL A   1      29.574  25.345  26.413  1.00  0.00    -0.258 OA
ENDBRANCH  79  81
ENDBRANCH  72  75
ENDBRANCH  71  72
ENDBRANCH  69  71
ENDBRANCH  63  65
ENDBRANCH  62  63
ENDBRANCH   1  62
TORSDOF 15
ENDMDL
