MODEL 1
REMARK VINA RESULT:     -10.9      0.000      0.000
REMARK SMILES CC[C@@H](C)N(C)S(=O)(=O)c1cc(C(=O)OCCOC(=O)c2ccc(-c3c4nc(c(-c5c(F)cccc5F)c5ccc([nH]5)c(-c5c(F)cccc5F)c5nc(c(-c6c(F)cccc6F)c6ccc3[nH]6)C=C5)C=C4)cc2)ccc1Br
REMARK SMILES IDX 16 1 15 2 13 3 14 4 12 5 10 6 11 7 77 8 76 9 78 10 75 11
REMARK SMILES IDX 7 12 8 13 9 14 5 15 6 16 3 17 4 18 2 19 1 20 17 21 18 22
REMARK SMILES IDX 19 23 20 24 21 25 22 26 74 27 23 28 73 29 24 30 25 31 26 32
REMARK SMILES IDX 67 33 27 34 72 35 66 36 68 37 28 38 71 39 65 40 64 41 29 43
REMARK SMILES IDX 55 44 38 45 54 46 39 47 42 48 53 49 69 50 40 51 41 52 52 54
REMARK SMILES IDX 70 55 43 56 30 57 31 58 36 59 32 60 33 61 35 62 37 63 34 64
REMARK SMILES IDX 56 65 57 66 62 67 58 68 59 69 61 70 63 71 60 72 44 73 45 74
REMARK SMILES IDX 50 75 46 76 47 77 49 78 51 79 48 80
REMARK H PARENT 68 42 42 53
REMARK Flexibility Score: inf
ROOT
ATOM      1  C   UNL A   1      34.840  20.936  25.393  1.00  0.00     0.275 C 
ENDROOT
BRANCH   1   2
ATOM      2  O   UNL A   1      33.890  20.541  24.381  1.00  0.00    -0.458 OA
BRANCH   2   3
ATOM      3  C   UNL A   1      32.588  20.871  24.575  1.00  0.00     0.338 C 
ATOM      4  O   UNL A   1      31.778  20.277  25.267  1.00  0.00    -0.246 OA
BRANCH   3   5
ATOM      5  C   UNL A   1      32.303  22.175  23.913  1.00  0.00     0.061 A 
ATOM      6  C   UNL A   1      31.401  24.450  24.082  1.00  0.00     0.097 A 
ATOM      7  C   UNL A   1      31.500  23.126  24.567  1.00  0.00     0.038 A 
ATOM      8  C   UNL A   1      32.050  24.780  22.883  1.00  0.00     0.038 A 
ATOM      9  C   UNL A   1      32.754  23.788  22.178  1.00  0.00     0.018 A 
ATOM     10  Br  UNL A   1      32.100  26.496  22.068  1.00  0.00    -0.049 Br
ATOM     11  C   UNL A   1      32.899  22.502  22.696  1.00  0.00     0.017 A 
BRANCH   6  12
ATOM     12  S   UNL A   1      30.737  25.680  25.212  1.00  0.00     0.244 S 
ATOM     13  O   UNL A   1      30.554  25.052  26.500  1.00  0.00    -0.207 OA
ATOM     14  O   UNL A   1      29.592  26.262  24.540  1.00  0.00    -0.207 OA
BRANCH  12  15
ATOM     15  N   UNL A   1      31.916  26.923  25.358  1.00  0.00    -0.198 NA
ATOM     16  C   UNL A   1      33.131  26.566  26.126  1.00  0.00     0.124 C 
BRANCH  15  17
ATOM     17  C   UNL A   1      31.403  28.294  25.793  1.00  0.00     0.069 C 
ATOM     18  C   UNL A   1      31.404  29.321  24.658  1.00  0.00     0.026 C 
BRANCH  17  19
ATOM     19  C   UNL A   1      32.129  28.795  27.052  1.00  0.00     0.016 C 
ATOM     20  C   UNL A   1      32.450  30.287  26.993  1.00  0.00     0.005 C 
ENDBRANCH  17  19
ENDBRANCH  15  17
ENDBRANCH  12  15
ENDBRANCH   6  12
ENDBRANCH   3   5
ENDBRANCH   2   3
ENDBRANCH   1   2
BRANCH   1  21
ATOM     21  C   UNL A   1      36.259  20.513  25.001  1.00  0.00     0.275 C 
BRANCH  21  22
ATOM     22  O   UNL A   1      37.190  21.562  25.323  1.00  0.00    -0.458 OA
BRANCH  22  23
ATOM     23  C   UNL A   1      38.405  21.156  25.752  1.00  0.00     0.338 C 
ATOM     24  O   UNL A   1      38.922  20.061  25.616  1.00  0.00    -0.246 OA
BRANCH  23  25
ATOM     25  C   UNL A   1      39.106  22.308  26.333  1.00  0.00     0.060 A 
ATOM     26  C   UNL A   1      38.579  23.571  26.086  1.00  0.00     0.016 A 
ATOM     27  C   UNL A   1      40.312  22.168  27.016  1.00  0.00     0.016 A 
ATOM     28  C   UNL A   1      39.278  24.709  26.468  1.00  0.00     0.010 A 
ATOM     29  C   UNL A   1      40.986  23.318  27.456  1.00  0.00     0.010 A 
ATOM     30  C   UNL A   1      40.487  24.602  27.165  1.00  0.00    -0.014 A 
BRANCH  30  31
ATOM     31  C   UNL A   1      41.230  25.836  27.540  1.00  0.00     0.031 A 
ATOM     32  C   UNL A   1      40.581  26.879  28.408  1.00  0.00     0.074 A 
ATOM     33  C   UNL A   1      42.507  26.006  27.143  1.00  0.00     0.049 A 
ATOM     34  N   UNL A   1      41.004  28.079  28.719  1.00  0.00    -0.248 NA
ATOM     35  C   UNL A   1      39.278  26.532  28.994  1.00  0.00     0.031 C 
ATOM     36  C   UNL A   1      43.287  25.048  26.357  1.00  0.00     0.029 A 
ATOM     37  N   UNL A   1      43.381  27.045  27.357  1.00  0.00    -0.354 N 
ATOM     38  C   UNL A   1      40.001  28.645  29.497  1.00  0.00     0.074 A 
ATOM     39  C   UNL A   1      38.945  27.662  29.603  1.00  0.00     0.031 C 
ATOM     40  C   UNL A   1      44.527  25.526  26.184  1.00  0.00     0.029 A 
ATOM     41  C   UNL A   1      44.610  26.858  26.771  1.00  0.00     0.049 A 
ATOM     42  H   UNL A   1      43.149  27.846  27.879  1.00  0.00     0.167 HD
ATOM     43  C   UNL A   1      39.965  29.874  30.067  1.00  0.00     0.037 A 
ATOM     44  C   UNL A   1      45.672  27.680  26.680  1.00  0.00     0.037 A 
ATOM     45  C   UNL A   1      41.043  30.829  30.005  1.00  0.00     0.049 A 
ATOM     46  C   UNL A   1      45.593  29.053  27.283  1.00  0.00     0.074 A 
ATOM     47  C   UNL A   1      41.104  32.097  30.560  1.00  0.00     0.029 A 
ATOM     48  N   UNL A   1      42.253  30.615  29.365  1.00  0.00    -0.354 N 
ATOM     49  N   UNL A   1      44.616  29.603  27.960  1.00  0.00    -0.248 NA
ATOM     50  C   UNL A   1      46.757  29.929  27.089  1.00  0.00     0.031 C 
ATOM     51  C   UNL A   1      42.337  32.664  30.224  1.00  0.00     0.029 A 
ATOM     52  C   UNL A   1      43.062  31.733  29.498  1.00  0.00     0.049 A 
ATOM     53  H   UNL A   1      42.502  29.792  28.887  1.00  0.00     0.167 HD
ATOM     54  C   UNL A   1      45.048  30.881  28.284  1.00  0.00     0.074 A 
ATOM     55  C   UNL A   1      46.387  31.018  27.747  1.00  0.00     0.031 C 
ATOM     56  C   UNL A   1      44.393  31.855  28.961  1.00  0.00     0.037 A 
BRANCH  43  57
ATOM     57  C   UNL A   1      38.707  30.273  30.778  1.00  0.00     0.057 A 
ATOM     58  C   UNL A   1      38.506  30.026  32.142  1.00  0.00     0.134 A 
ATOM     59  C   UNL A   1      37.692  30.953  30.090  1.00  0.00     0.134 A 
ATOM     60  F   UNL A   1      39.433  29.371  32.857  1.00  0.00    -0.206 F 
ATOM     61  C   UNL A   1      37.333  30.421  32.790  1.00  0.00     0.040 A 
ATOM     62  C   UNL A   1      36.527  31.375  30.732  1.00  0.00     0.040 A 
ATOM     63  F   UNL A   1      37.822  31.229  28.783  1.00  0.00    -0.206 F 
ATOM     64  C   UNL A   1      36.343  31.103  32.086  1.00  0.00     0.006 A 
ENDBRANCH  43  57
BRANCH  44  65
ATOM     65  C   UNL A   1      46.886  27.241  25.946  1.00  0.00     0.057 A 
ATOM     66  C   UNL A   1      47.026  27.466  24.573  1.00  0.00     0.134 A 
ATOM     67  C   UNL A   1      47.936  26.585  26.602  1.00  0.00     0.134 A 
ATOM     68  F   UNL A   1      46.045  28.065  23.883  1.00  0.00    -0.206 F 
ATOM     69  C   UNL A   1      48.163  27.050  23.876  1.00  0.00     0.040 A 
ATOM     70  C   UNL A   1      49.091  26.190  25.925  1.00  0.00     0.040 A 
ATOM     71  F   UNL A   1      47.863  26.337  27.918  1.00  0.00    -0.206 F 
ATOM     72  C   UNL A   1      49.203  26.417  24.556  1.00  0.00     0.006 A 
ENDBRANCH  44  65
BRANCH  56  73
ATOM     73  C   UNL A   1      45.128  33.143  29.183  1.00  0.00     0.057 A 
ATOM     74  C   UNL A   1      45.020  34.217  28.290  1.00  0.00     0.134 A 
ATOM     75  C   UNL A   1      45.932  33.320  30.315  1.00  0.00     0.134 A 
ATOM     76  F   UNL A   1      44.278  34.105  27.178  1.00  0.00    -0.206 F 
ATOM     77  C   UNL A   1      45.705  35.414  28.505  1.00  0.00     0.040 A 
ATOM     78  C   UNL A   1      46.603  34.520  30.554  1.00  0.00     0.040 A 
ATOM     79  F   UNL A   1      46.073  32.332  31.212  1.00  0.00    -0.206 F 
ATOM     80  C   UNL A   1      46.495  35.570  29.643  1.00  0.00     0.006 A 
ENDBRANCH  56  73
ENDBRANCH  30  31
ENDBRANCH  23  25
ENDBRANCH  22  23
ENDBRANCH  21  22
ENDBRANCH   1  21
TORSDOF 15
ENDMDL
MODEL 2
REMARK VINA RESULT:     -10.7      0.878      1.528
REMARK SMILES CC[C@@H](C)N(C)S(=O)(=O)c1cc(C(=O)OCCOC(=O)c2ccc(-c3c4nc(c(-c5c(F)cccc5F)c5ccc([nH]5)c(-c5c(F)cccc5F)c5nc(c(-c6c(F)cccc6F)c6ccc3[nH]6)C=C5)C=C4)cc2)ccc1Br
REMARK SMILES IDX 16 1 15 2 13 3 14 4 12 5 10 6 11 7 77 8 76 9 78 10 75 11
REMARK SMILES IDX 7 12 8 13 9 14 5 15 6 16 3 17 4 18 2 19 1 20 17 21 18 22
REMARK SMILES IDX 19 23 20 24 21 25 22 26 74 27 23 28 73 29 24 30 25 31 26 32
REMARK SMILES IDX 67 33 27 34 72 35 66 36 68 37 28 38 71 39 65 40 64 41 29 43
REMARK SMILES IDX 55 44 38 45 54 46 39 47 42 48 53 49 69 50 40 51 41 52 52 54
REMARK SMILES IDX 70 55 43 56 30 57 31 58 36 59 32 60 33 61 35 62 37 63 34 64
REMARK SMILES IDX 56 65 57 66 62 67 58 68 59 69 61 70 63 71 60 72 44 73 45 74
REMARK SMILES IDX 50 75 46 76 47 77 49 78 51 79 48 80
REMARK H PARENT 68 42 42 53
REMARK Flexibility Score: inf
ROOT
ATOM      1  C   UNL A   1      35.242  20.106  25.021  1.00  0.00     0.275 C 
ENDROOT
BRANCH   1   2
ATOM      2  O   UNL A   1      34.191  20.900  25.611  1.00  0.00    -0.458 OA
BRANCH   2   3
ATOM      3  C   UNL A   1      32.964  20.850  25.034  1.00  0.00     0.338 C 
ATOM      4  O   UNL A   1      32.101  20.009  25.221  1.00  0.00    -0.246 OA
BRANCH   3   5
ATOM      5  C   UNL A   1      32.752  22.076  24.214  1.00  0.00     0.061 A 
ATOM      6  C   UNL A   1      32.518  24.516  24.126  1.00  0.00     0.097 A 
ATOM      7  C   UNL A   1      32.492  23.302  24.849  1.00  0.00     0.038 A 
ATOM      8  C   UNL A   1      32.723  24.471  22.740  1.00  0.00     0.038 A 
ATOM      9  C   UNL A   1      32.866  23.228  22.098  1.00  0.00     0.018 A 
ATOM     10  Br  UNL A   1      32.848  25.966  21.572  1.00  0.00    -0.049 Br
ATOM     11  C   UNL A   1      32.903  22.041  22.828  1.00  0.00     0.017 A 
BRANCH   6  12
ATOM     12  S   UNL A   1      32.624  26.031  25.087  1.00  0.00     0.244 S 
ATOM     13  O   UNL A   1      33.647  26.865  24.498  1.00  0.00    -0.207 OA
ATOM     14  O   UNL A   1      32.760  25.618  26.470  1.00  0.00    -0.207 OA
BRANCH  12  15
ATOM     15  N   UNL A   1      31.107  26.827  24.950  1.00  0.00    -0.198 NA
ATOM     16  C   UNL A   1      29.932  25.941  24.784  1.00  0.00     0.124 C 
BRANCH  15  17
ATOM     17  C   UNL A   1      31.036  27.984  23.955  1.00  0.00     0.069 C 
ATOM     18  C   UNL A   1      31.133  29.357  24.626  1.00  0.00     0.026 C 
BRANCH  17  19
ATOM     19  C   UNL A   1      29.818  27.857  23.027  1.00  0.00     0.016 C 
ATOM     20  C   UNL A   1      29.131  29.197  22.770  1.00  0.00     0.005 C 
ENDBRANCH  17  19
ENDBRANCH  15  17
ENDBRANCH  12  15
ENDBRANCH   6  12
ENDBRANCH   3   5
ENDBRANCH   2   3
ENDBRANCH   1   2
BRANCH   1  21
ATOM     21  C   UNL A   1      36.417  20.990  24.594  1.00  0.00     0.275 C 
BRANCH  21  22
ATOM     22  O   UNL A   1      37.072  21.531  25.755  1.00  0.00    -0.458 OA
BRANCH  22  23
ATOM     23  C   UNL A   1      38.382  21.227  25.885  1.00  0.00     0.338 C 
ATOM     24  O   UNL A   1      38.958  20.218  25.519  1.00  0.00    -0.246 OA
BRANCH  23  25
ATOM     25  C   UNL A   1      39.079  22.388  26.451  1.00  0.00     0.060 A 
ATOM     26  C   UNL A   1      38.600  23.650  26.115  1.00  0.00     0.016 A 
ATOM     27  C   UNL A   1      40.241  22.254  27.208  1.00  0.00     0.016 A 
ATOM     28  C   UNL A   1      39.306  24.789  26.483  1.00  0.00     0.010 A 
ATOM     29  C   UNL A   1      40.918  23.406  27.632  1.00  0.00     0.010 A 
ATOM     30  C   UNL A   1      40.470  24.686  27.253  1.00  0.00    -0.014 A 
BRANCH  30  31
ATOM     31  C   UNL A   1      41.224  25.920  27.612  1.00  0.00     0.031 A 
ATOM     32  C   UNL A   1      40.584  26.979  28.467  1.00  0.00     0.074 A 
ATOM     33  C   UNL A   1      42.502  26.074  27.213  1.00  0.00     0.049 A 
ATOM     34  N   UNL A   1      41.017  28.179  28.762  1.00  0.00    -0.248 NA
ATOM     35  C   UNL A   1      39.278  26.650  29.057  1.00  0.00     0.031 C 
ATOM     36  C   UNL A   1      43.274  25.099  26.439  1.00  0.00     0.029 A 
ATOM     37  N   UNL A   1      43.385  27.108  27.414  1.00  0.00    -0.354 N 
ATOM     38  C   UNL A   1      40.018  28.763  29.532  1.00  0.00     0.074 A 
ATOM     39  C   UNL A   1      38.954  27.790  29.652  1.00  0.00     0.031 C 
ATOM     40  C   UNL A   1      44.519  25.566  26.260  1.00  0.00     0.029 A 
ATOM     41  C   UNL A   1      44.612  26.904  26.830  1.00  0.00     0.049 A 
ATOM     42  H   UNL A   1      43.159  27.918  27.925  1.00  0.00     0.167 HD
ATOM     43  C   UNL A   1      39.992  29.999  30.087  1.00  0.00     0.037 A 
ATOM     44  C   UNL A   1      45.681  27.717  26.728  1.00  0.00     0.037 A 
ATOM     45  C   UNL A   1      41.077  30.945  30.013  1.00  0.00     0.049 A 
ATOM     46  C   UNL A   1      45.613  29.098  27.313  1.00  0.00     0.074 A 
ATOM     47  C   UNL A   1      41.149  32.220  30.552  1.00  0.00     0.029 A 
ATOM     48  N   UNL A   1      42.286  30.713  29.375  1.00  0.00    -0.354 N 
ATOM     49  N   UNL A   1      44.640  29.664  27.984  1.00  0.00    -0.248 NA
ATOM     50  C   UNL A   1      46.784  29.961  27.109  1.00  0.00     0.031 C 
ATOM     51  C   UNL A   1      42.387  32.772  30.208  1.00  0.00     0.029 A 
ATOM     52  C   UNL A   1      43.104  31.826  29.494  1.00  0.00     0.049 A 
ATOM     53  H   UNL A   1      42.528  29.882  28.908  1.00  0.00     0.167 HD
ATOM     54  C   UNL A   1      45.083  30.942  28.291  1.00  0.00     0.074 A 
ATOM     55  C   UNL A   1      46.422  31.062  27.753  1.00  0.00     0.031 C 
ATOM     56  C   UNL A   1      44.436  31.930  28.955  1.00  0.00     0.037 A 
BRANCH  43  57
ATOM     57  C   UNL A   1      38.737  30.418  30.793  1.00  0.00     0.057 A 
ATOM     58  C   UNL A   1      38.536  30.193  32.161  1.00  0.00     0.134 A 
ATOM     59  C   UNL A   1      37.726  31.094  30.096  1.00  0.00     0.134 A 
ATOM     60  F   UNL A   1      39.459  29.543  32.885  1.00  0.00    -0.206 F 
ATOM     61  C   UNL A   1      37.366  30.605  32.804  1.00  0.00     0.040 A 
ATOM     62  C   UNL A   1      36.565  31.533  30.732  1.00  0.00     0.040 A 
ATOM     63  F   UNL A   1      37.857  31.349  28.785  1.00  0.00    -0.206 F 
ATOM     64  C   UNL A   1      36.380  31.284  32.090  1.00  0.00     0.006 A 
ENDBRANCH  43  57
BRANCH  44  65
ATOM     65  C   UNL A   1      46.891  27.258  26.000  1.00  0.00     0.057 A 
ATOM     66  C   UNL A   1      47.019  27.435  24.618  1.00  0.00     0.134 A 
ATOM     67  C   UNL A   1      47.950  26.631  26.670  1.00  0.00     0.134 A 
ATOM     68  F   UNL A   1      46.028  28.005  23.916  1.00  0.00    -0.206 F 
ATOM     69  C   UNL A   1      48.152  27.001  23.927  1.00  0.00     0.040 A 
ATOM     70  C   UNL A   1      49.101  26.218  25.997  1.00  0.00     0.040 A 
ATOM     71  F   UNL A   1      47.889  26.428  27.994  1.00  0.00    -0.206 F 
ATOM     72  C   UNL A   1      49.201  26.398  24.620  1.00  0.00     0.006 A 
ENDBRANCH  44  65
BRANCH  56  73
ATOM     73  C   UNL A   1      45.181  33.215  29.161  1.00  0.00     0.057 A 
ATOM     74  C   UNL A   1      46.013  33.416  30.269  1.00  0.00     0.134 A 
ATOM     75  C   UNL A   1      45.085  34.253  28.226  1.00  0.00     0.134 A 
ATOM     76  F   UNL A   1      46.136  32.466  31.209  1.00  0.00    -0.206 F 
ATOM     77  C   UNL A   1      46.707  34.614  30.452  1.00  0.00     0.040 A 
ATOM     78  C   UNL A   1      45.792  35.445  28.384  1.00  0.00     0.040 A 
ATOM     79  F   UNL A   1      44.309  34.122  27.138  1.00  0.00    -0.206 F 
ATOM     80  C   UNL A   1      46.601  35.631  29.504  1.00  0.00     0.006 A 
ENDBRANCH  56  73
ENDBRANCH  30  31
ENDBRANCH  23  25
ENDBRANCH  22  23
ENDBRANCH  21  22
ENDBRANCH   1  21
TORSDOF 15
ENDMDL
MODEL 3
REMARK VINA RESULT:     -10.7      3.754      8.746
REMARK SMILES CC[C@@H](C)N(C)S(=O)(=O)c1cc(C(=O)OCCOC(=O)c2ccc(-c3c4nc(c(-c5c(F)cccc5F)c5ccc([nH]5)c(-c5c(F)cccc5F)c5nc(c(-c6c(F)cccc6F)c6ccc3[nH]6)C=C5)C=C4)cc2)ccc1Br
REMARK SMILES IDX 16 1 15 2 13 3 14 4 12 5 10 6 11 7 77 8 76 9 78 10 75 11
REMARK SMILES IDX 7 12 8 13 9 14 5 15 6 16 3 17 4 18 2 19 1 20 17 21 18 22
REMARK SMILES IDX 19 23 20 24 21 25 22 26 74 27 23 28 73 29 24 30 25 31 26 32
REMARK SMILES IDX 67 33 27 34 72 35 66 36 68 37 28 38 71 39 65 40 64 41 29 43
REMARK SMILES IDX 55 44 38 45 54 46 39 47 42 48 53 49 69 50 40 51 41 52 52 54
REMARK SMILES IDX 70 55 43 56 30 57 31 58 36 59 32 60 33 61 35 62 37 63 34 64
REMARK SMILES IDX 56 65 57 66 62 67 58 68 59 69 61 70 63 71 60 72 44 73 45 74
REMARK SMILES IDX 50 75 46 76 47 77 49 78 51 79 48 80
REMARK H PARENT 68 42 42 53
REMARK Flexibility Score: inf
ROOT
ATOM      1  C   UNL A   1      32.910  29.255  24.170  1.00  0.00     0.275 C 
ENDROOT
BRANCH   1   2
ATOM      2  O   UNL A   1      32.358  28.636  22.989  1.00  0.00    -0.458 OA
BRANCH   2   3
ATOM      3  C   UNL A   1      33.048  27.607  22.435  1.00  0.00     0.338 C 
ATOM      4  O   UNL A   1      33.957  27.686  21.626  1.00  0.00    -0.246 OA
BRANCH   3   5
ATOM      5  C   UNL A   1      32.621  26.327  23.068  1.00  0.00     0.061 A 
ATOM      6  C   UNL A   1      33.164  24.440  24.538  1.00  0.00     0.097 A 
ATOM      7  C   UNL A   1      33.568  25.529  23.733  1.00  0.00     0.038 A 
ATOM      8  C   UNL A   1      31.803  24.111  24.595  1.00  0.00     0.038 A 
ATOM      9  C   UNL A   1      30.878  24.846  23.832  1.00  0.00     0.018 A 
ATOM     10  Br  UNL A   1      31.023  22.729  25.641  1.00  0.00    -0.049 Br
ATOM     11  C   UNL A   1      31.277  25.958  23.092  1.00  0.00     0.017 A 
BRANCH   6  12
ATOM     12  S   UNL A   1      34.384  23.782  25.682  1.00  0.00     0.244 S 
ATOM     13  O   UNL A   1      33.691  23.346  26.873  1.00  0.00    -0.207 OA
ATOM     14  O   UNL A   1      35.413  24.796  25.795  1.00  0.00    -0.207 OA
BRANCH  12  15
ATOM     15  N   UNL A   1      35.106  22.418  24.926  1.00  0.00    -0.198 NA
ATOM     16  C   UNL A   1      34.956  21.132  25.645  1.00  0.00     0.124 C 
BRANCH  15  17
ATOM     17  C   UNL A   1      36.549  22.591  24.453  1.00  0.00     0.069 C 
ATOM     18  C   UNL A   1      36.653  22.951  22.969  1.00  0.00     0.026 C 
BRANCH  17  19
ATOM     19  C   UNL A   1      37.417  21.382  24.837  1.00  0.00     0.016 C 
ATOM     20  C   UNL A   1      38.581  21.759  25.749  1.00  0.00     0.005 C 
ENDBRANCH  17  19
ENDBRANCH  15  17
ENDBRANCH  12  15
ENDBRANCH   6  12
ENDBRANCH   3   5
ENDBRANCH   2   3
ENDBRANCH   1   2
BRANCH   1  21
ATOM     21  C   UNL A   1      31.796  29.717  25.113  1.00  0.00     0.275 C 
BRANCH  21  22
ATOM     22  O   UNL A   1      32.289  29.775  26.463  1.00  0.00    -0.458 OA
BRANCH  22  23
ATOM     23  C   UNL A   1      32.725  30.985  26.876  1.00  0.00     0.338 C 
ATOM     24  O   UNL A   1      32.118  32.042  26.879  1.00  0.00    -0.246 OA
BRANCH  23  25
ATOM     25  C   UNL A   1      34.061  30.827  27.464  1.00  0.00     0.060 A 
ATOM     26  C   UNL A   1      34.479  29.536  27.768  1.00  0.00     0.016 A 
ATOM     27  C   UNL A   1      34.849  31.923  27.810  1.00  0.00     0.016 A 
ATOM     28  C   UNL A   1      35.659  29.328  28.470  1.00  0.00     0.010 A 
ATOM     29  C   UNL A   1      36.071  31.707  28.464  1.00  0.00     0.010 A 
ATOM     30  C   UNL A   1      36.478  30.408  28.822  1.00  0.00    -0.014 A 
BRANCH  30  31
ATOM     31  C   UNL A   1      37.724  30.161  29.598  1.00  0.00     0.031 A 
ATOM     32  C   UNL A   1      38.831  29.327  29.012  1.00  0.00     0.074 A 
ATOM     33  C   UNL A   1      37.891  30.724  30.812  1.00  0.00     0.049 A 
ATOM     34  N   UNL A   1      39.921  28.878  29.582  1.00  0.00    -0.248 NA
ATOM     35  C   UNL A   1      38.686  28.935  27.603  1.00  0.00     0.031 C 
ATOM     36  C   UNL A   1      36.933  31.611  31.474  1.00  0.00     0.029 A 
ATOM     37  N   UNL A   1      38.934  30.641  31.702  1.00  0.00    -0.354 N 
ATOM     38  C   UNL A   1      40.567  28.115  28.617  1.00  0.00     0.074 A 
ATOM     39  C   UNL A   1      39.743  28.154  27.428  1.00  0.00     0.031 C 
ATOM     40  C   UNL A   1      37.445  32.015  32.647  1.00  0.00     0.029 A 
ATOM     41  C   UNL A   1      38.726  31.353  32.859  1.00  0.00     0.049 A 
ATOM     42  H   UNL A   1      39.751  30.120  31.529  1.00  0.00     0.167 HD
ATOM     43  C   UNL A   1      41.739  27.442  28.716  1.00  0.00     0.037 A 
ATOM     44  C   UNL A   1      39.463  31.434  33.983  1.00  0.00     0.037 A 
ATOM     45  C   UNL A   1      42.584  27.451  29.884  1.00  0.00     0.049 A 
ATOM     46  C   UNL A   1      40.737  30.645  34.086  1.00  0.00     0.074 A 
ATOM     47  C   UNL A   1      43.796  26.808  30.076  1.00  0.00     0.029 A 
ATOM     48  N   UNL A   1      42.315  28.152  31.049  1.00  0.00    -0.354 N 
ATOM     49  N   UNL A   1      41.306  29.875  33.192  1.00  0.00    -0.248 NA
ATOM     50  C   UNL A   1      41.460  30.719  35.363  1.00  0.00     0.031 C 
ATOM     51  C   UNL A   1      44.241  27.090  31.371  1.00  0.00     0.029 A 
ATOM     52  C   UNL A   1      43.330  27.944  31.970  1.00  0.00     0.049 A 
ATOM     53  H   UNL A   1      41.521  28.713  31.201  1.00  0.00     0.167 HD
ATOM     54  C   UNL A   1      42.457  29.383  33.791  1.00  0.00     0.074 A 
ATOM     55  C   UNL A   1      42.517  29.959  35.118  1.00  0.00     0.031 C 
ATOM     56  C   UNL A   1      43.378  28.526  33.287  1.00  0.00     0.037 A 
BRANCH  43  57
ATOM     57  C   UNL A   1      42.162  26.608  27.544  1.00  0.00     0.057 A 
ATOM     58  C   UNL A   1      41.803  25.261  27.413  1.00  0.00     0.134 A 
ATOM     59  C   UNL A   1      42.912  27.178  26.506  1.00  0.00     0.134 A 
ATOM     60  F   UNL A   1      41.094  24.651  28.375  1.00  0.00    -0.206 F 
ATOM     61  C   UNL A   1      42.192  24.505  26.305  1.00  0.00     0.040 A 
ATOM     62  C   UNL A   1      43.286  26.440  25.382  1.00  0.00     0.040 A 
ATOM     63  F   UNL A   1      43.284  28.466  26.563  1.00  0.00    -0.206 F 
ATOM     64  C   UNL A   1      42.931  25.097  25.282  1.00  0.00     0.006 A 
ENDBRANCH  43  57
BRANCH  44  65
ATOM     65  C   UNL A   1      38.986  32.259  35.122  1.00  0.00     0.057 A 
ATOM     66  C   UNL A   1      38.220  31.704  36.151  1.00  0.00     0.134 A 
ATOM     67  C   UNL A   1      39.286  33.625  35.206  1.00  0.00     0.134 A 
ATOM     68  F   UNL A   1      37.877  30.408  36.114  1.00  0.00    -0.206 F 
ATOM     69  C   UNL A   1      37.763  32.477  37.221  1.00  0.00     0.040 A 
ATOM     70  C   UNL A   1      38.862  34.404  36.284  1.00  0.00     0.040 A 
ATOM     71  F   UNL A   1      40.015  34.220  34.250  1.00  0.00    -0.206 F 
ATOM     72  C   UNL A   1      38.092  33.829  37.293  1.00  0.00     0.006 A 
ENDBRANCH  44  65
BRANCH  56  73
ATOM     73  C   UNL A   1      44.544  28.185  34.166  1.00  0.00     0.057 A 
ATOM     74  C   UNL A   1      44.526  27.072  35.016  1.00  0.00     0.134 A 
ATOM     75  C   UNL A   1      45.707  28.965  34.144  1.00  0.00     0.134 A 
ATOM     76  F   UNL A   1      43.436  26.295  35.095  1.00  0.00    -0.206 F 
ATOM     77  C   UNL A   1      45.616  26.759  35.830  1.00  0.00     0.040 A 
ATOM     78  C   UNL A   1      46.813  28.648  34.934  1.00  0.00     0.040 A 
ATOM     79  F   UNL A   1      45.791  30.041  33.347  1.00  0.00    -0.206 F 
ATOM     80  C   UNL A   1      46.766  27.546  35.785  1.00  0.00     0.006 A 
ENDBRANCH  56  73
ENDBRANCH  30  31
ENDBRANCH  23  25
ENDBRANCH  22  23
ENDBRANCH  21  22
ENDBRANCH   1  21
TORSDOF 15
ENDMDL
