MODEL 1
REMARK VINA RESULT:     -12.0      0.000      0.000
REMARK SMILES Cc1c(Br)c(C)c2c(c1Br)O[C@H](C(F)(F)F)C(C(=O)OCCOC(=O)c1ccc(-c3c4nc(c(-c5c(F)cccc5F)c5ccc([nH]5)c(-c5c(F)cccc5F)c5nc(c(-c6c(F)cccc6F)c6ccc3[nH]6)C=C5)C=C4)cc1)=C2
REMARK SMILES IDX 22 1 21 2 20 3 18 4 19 5 17 6 1 7 2 8 3 9 9 10 4 11 5 12
REMARK SMILES IDX 8 13 10 14 6 15 7 16 11 17 80 18 12 19 13 20 14 21 15 22
REMARK SMILES IDX 16 23 23 24 24 25 25 26 26 27 27 28 79 29 28 30 78 31 29 32
REMARK SMILES IDX 30 33 31 34 72 35 32 36 77 37 71 38 73 39 33 40 76 41 70 42
REMARK SMILES IDX 69 43 34 45 60 46 43 47 59 48 44 49 47 50 58 51 74 52 45 53
REMARK SMILES IDX 46 54 57 56 75 57 48 58 35 59 36 60 41 61 37 62 38 63 40 64
REMARK SMILES IDX 42 65 39 66 61 67 62 68 67 69 63 70 64 71 66 72 68 73 65 74
REMARK SMILES IDX 49 75 50 76 55 77 51 78 52 79 54 80 56 81 53 82
REMARK H PARENT 73 44 47 55
REMARK Flexibility Score: inf
ROOT
ATOM      1  C   UNL A   1      31.759  30.064  25.487  1.00  0.00     0.275 C 
ENDROOT
BRANCH   1   2
ATOM      2  C   UNL A   1      31.462  28.600  25.165  1.00  0.00     0.275 C 
BRANCH   2   3
ATOM      3  O   UNL A   1      32.471  27.727  25.717  1.00  0.00    -0.459 OA
BRANCH   3   4
ATOM      4  C   UNL A   1      33.365  27.233  24.832  1.00  0.00     0.338 C 
ATOM      5  O   UNL A   1      34.028  27.870  24.029  1.00  0.00    -0.246 OA
BRANCH   4   6
ATOM      6  C   UNL A   1      33.469  25.768  24.965  1.00  0.00     0.087 C 
ATOM      7  C   UNL A   1      35.265  19.472  24.900  1.00  0.00     0.047 C 
ATOM      8  C   UNL A   1      35.107  20.969  25.038  1.00  0.00    -0.019 A 
ATOM      9  C   UNL A   1      36.242  21.788  25.263  1.00  0.00     0.025 A 
ATOM     10  C   UNL A   1      33.852  21.596  24.888  1.00  0.00     0.064 A 
ATOM     11  Br  UNL A   1      37.974  20.958  25.376  1.00  0.00    -0.050 Br
ATOM     12  C   UNL A   1      36.129  23.194  25.370  1.00  0.00    -0.026 A 
ATOM     13  C   UNL A   1      33.722  22.995  24.976  1.00  0.00     0.142 A 
ATOM     14  Br  UNL A   1      32.273  20.578  24.504  1.00  0.00    -0.046 Br
ATOM     15  C   UNL A   1      37.326  24.078  25.656  1.00  0.00     0.046 C 
ATOM     16  C   UNL A   1      34.851  23.791  25.204  1.00  0.00     0.022 A 
ATOM     17  O   UNL A   1      32.457  23.515  24.858  1.00  0.00    -0.474 OA
ATOM     18  C   UNL A   1      34.671  25.242  25.221  1.00  0.00     0.027 C 
ATOM     19  C   UNL A   1      32.263  24.937  24.669  1.00  0.00     0.316 C 
BRANCH  19  20
ATOM     20  C   UNL A   1      31.738  25.194  23.248  1.00  0.00     0.430 C 
ATOM     21  F   UNL A   1      32.751  25.382  22.370  1.00  0.00    -0.167 F 
ATOM     22  F   UNL A   1      31.019  24.141  22.786  1.00  0.00    -0.167 F 
ATOM     23  F   UNL A   1      30.939  26.284  23.190  1.00  0.00    -0.167 F 
ENDBRANCH  19  20
ENDBRANCH   4   6
ENDBRANCH   3   4
ENDBRANCH   2   3
ENDBRANCH   1   2
BRANCH   1  24
ATOM     24  O   UNL A   1      32.222  30.189  26.844  1.00  0.00    -0.458 OA
BRANCH  24  25
ATOM     25  C   UNL A   1      32.852  31.348  27.140  1.00  0.00     0.338 C 
ATOM     26  O   UNL A   1      32.386  32.474  27.123  1.00  0.00    -0.246 OA
BRANCH  25  27
ATOM     27  C   UNL A   1      34.227  31.073  27.585  1.00  0.00     0.060 A 
ATOM     28  C   UNL A   1      34.615  29.753  27.770  1.00  0.00     0.016 A 
ATOM     29  C   UNL A   1      35.064  32.107  27.999  1.00  0.00     0.016 A 
ATOM     30  C   UNL A   1      35.757  29.460  28.508  1.00  0.00     0.010 A 
ATOM     31  C   UNL A   1      36.286  31.804  28.615  1.00  0.00     0.010 A 
ATOM     32  C   UNL A   1      36.626  30.476  28.932  1.00  0.00    -0.014 A 
BRANCH  32  33
ATOM     33  C   UNL A   1      37.843  30.141  29.736  1.00  0.00     0.031 A 
ATOM     34  C   UNL A   1      38.964  29.330  29.129  1.00  0.00     0.074 A 
ATOM     35  C   UNL A   1      37.984  30.603  30.997  1.00  0.00     0.049 A 
ATOM     36  N   UNL A   1      40.002  28.786  29.715  1.00  0.00    -0.248 NA
ATOM     37  C   UNL A   1      38.910  29.088  27.678  1.00  0.00     0.031 C 
ATOM     38  C   UNL A   1      37.024  31.452  31.706  1.00  0.00     0.029 A 
ATOM     39  N   UNL A   1      39.006  30.447  31.904  1.00  0.00    -0.354 N 
ATOM     40  C   UNL A   1      40.683  28.089  28.722  1.00  0.00     0.074 A 
ATOM     41  C   UNL A   1      39.940  28.275  27.494  1.00  0.00     0.031 C 
ATOM     42  C   UNL A   1      37.535  31.809  32.892  1.00  0.00     0.029 A 
ATOM     43  C   UNL A   1      38.798  31.109  33.091  1.00  0.00     0.049 A 
ATOM     44  H   UNL A   1      39.812  29.910  31.722  1.00  0.00     0.167 HD
ATOM     45  C   UNL A   1      41.823  27.364  28.824  1.00  0.00     0.037 A 
ATOM     46  C   UNL A   1      39.506  31.120  34.237  1.00  0.00     0.037 A 
ATOM     47  C   UNL A   1      42.600  27.240  30.032  1.00  0.00     0.049 A 
ATOM     48  C   UNL A   1      40.734  30.263  34.345  1.00  0.00     0.074 A 
ATOM     49  C   UNL A   1      43.764  26.518  30.235  1.00  0.00     0.029 A 
ATOM     50  N   UNL A   1      42.310  27.876  31.228  1.00  0.00    -0.354 N 
ATOM     51  N   UNL A   1      41.305  29.524  33.426  1.00  0.00    -0.248 NA
ATOM     52  C   UNL A   1      41.393  30.210  35.657  1.00  0.00     0.031 C 
ATOM     53  C   UNL A   1      44.160  26.690  31.564  1.00  0.00     0.029 A 
ATOM     54  C   UNL A   1      43.268  27.556  32.175  1.00  0.00     0.049 A 
ATOM     55  H   UNL A   1      41.538  28.466  31.382  1.00  0.00     0.167 HD
ATOM     56  C   UNL A   1      42.395  28.927  34.045  1.00  0.00     0.074 A 
ATOM     57  C   UNL A   1      42.418  29.406  35.410  1.00  0.00     0.031 C 
ATOM     58  C   UNL A   1      43.288  28.048  33.528  1.00  0.00     0.037 A 
BRANCH  45  59
ATOM     59  C   UNL A   1      42.306  26.626  27.608  1.00  0.00     0.057 A 
ATOM     60  C   UNL A   1      41.908  25.315  27.325  1.00  0.00     0.134 A 
ATOM     61  C   UNL A   1      43.112  27.275  26.661  1.00  0.00     0.134 A 
ATOM     62  F   UNL A   1      41.147  24.633  28.194  1.00  0.00    -0.206 F 
ATOM     63  C   UNL A   1      42.300  24.671  26.149  1.00  0.00     0.040 A 
ATOM     64  C   UNL A   1      43.489  26.652  25.470  1.00  0.00     0.040 A 
ATOM     65  F   UNL A   1      43.521  28.537  26.865  1.00  0.00    -0.206 F 
ATOM     66  C   UNL A   1      43.083  25.344  25.212  1.00  0.00     0.006 A 
ENDBRANCH  45  59
BRANCH  46  67
ATOM     67  C   UNL A   1      39.040  31.931  35.394  1.00  0.00     0.057 A 
ATOM     68  C   UNL A   1      39.360  33.288  35.498  1.00  0.00     0.134 A 
ATOM     69  C   UNL A   1      38.254  31.375  36.412  1.00  0.00     0.134 A 
ATOM     70  F   UNL A   1      40.133  33.873  34.571  1.00  0.00    -0.206 F 
ATOM     71  C   UNL A   1      38.917  34.064  36.571  1.00  0.00     0.040 A 
ATOM     72  C   UNL A   1      37.776  32.145  37.473  1.00  0.00     0.040 A 
ATOM     73  F   UNL A   1      37.913  30.079  36.374  1.00  0.00    -0.206 F 
ATOM     74  C   UNL A   1      38.112  33.494  37.557  1.00  0.00     0.006 A 
ENDBRANCH  46  67
BRANCH  58  75
ATOM     75  C   UNL A   1      44.384  27.569  34.429  1.00  0.00     0.057 A 
ATOM     76  C   UNL A   1      44.266  26.382  35.163  1.00  0.00     0.134 A 
ATOM     77  C   UNL A   1      45.595  28.266  34.513  1.00  0.00     0.134 A 
ATOM     78  F   UNL A   1      43.126  25.674  35.134  1.00  0.00    -0.206 F 
ATOM     79  C   UNL A   1      45.311  25.911  35.959  1.00  0.00     0.040 A 
ATOM     80  C   UNL A   1      46.656  27.794  35.287  1.00  0.00     0.040 A 
ATOM     81  F   UNL A   1      45.774  29.406  33.828  1.00  0.00    -0.206 F 
ATOM     82  C   UNL A   1      46.514  26.614  36.014  1.00  0.00     0.006 A 
ENDBRANCH  58  75
ENDBRANCH  32  33
ENDBRANCH  25  27
ENDBRANCH  24  25
ENDBRANCH   1  24
TORSDOF 12
ENDMDL
MODEL 2
REMARK VINA RESULT:     -11.9      0.170      1.373
REMARK SMILES Cc1c(Br)c(C)c2c(c1Br)O[C@H](C(F)(F)F)C(C(=O)OCCOC(=O)c1ccc(-c3c4nc(c(-c5c(F)cccc5F)c5ccc([nH]5)c(-c5c(F)cccc5F)c5nc(c(-c6c(F)cccc6F)c6ccc3[nH]6)C=C5)C=C4)cc1)=C2
REMARK SMILES IDX 22 1 21 2 20 3 18 4 19 5 17 6 1 7 2 8 3 9 9 10 4 11 5 12
REMARK SMILES IDX 8 13 10 14 6 15 7 16 11 17 80 18 12 19 13 20 14 21 15 22
REMARK SMILES IDX 16 23 23 24 24 25 25 26 26 27 27 28 79 29 28 30 78 31 29 32
REMARK SMILES IDX 30 33 31 34 72 35 32 36 77 37 71 38 73 39 33 40 76 41 70 42
REMARK SMILES IDX 69 43 34 45 60 46 43 47 59 48 44 49 47 50 58 51 74 52 45 53
REMARK SMILES IDX 46 54 57 56 75 57 48 58 35 59 36 60 41 61 37 62 38 63 40 64
REMARK SMILES IDX 42 65 39 66 61 67 62 68 67 69 63 70 64 71 66 72 68 73 65 74
REMARK SMILES IDX 49 75 50 76 55 77 51 78 52 79 54 80 56 81 53 82
REMARK H PARENT 73 44 47 55
REMARK Flexibility Score: inf
ROOT
ATOM      1  C   UNL A   1      31.621  29.942  25.385  1.00  0.00     0.275 C 
ENDROOT
BRANCH   1   2
ATOM      2  C   UNL A   1      31.370  28.494  24.966  1.00  0.00     0.275 C 
BRANCH   2   3
ATOM      3  O   UNL A   1      32.287  27.592  25.623  1.00  0.00    -0.459 OA
BRANCH   3   4
ATOM      4  C   UNL A   1      33.308  27.139  24.860  1.00  0.00     0.338 C 
ATOM      5  O   UNL A   1      34.047  27.808  24.156  1.00  0.00    -0.246 OA
BRANCH   4   6
ATOM      6  C   UNL A   1      33.446  25.677  24.998  1.00  0.00     0.087 C 
ATOM      7  C   UNL A   1      35.382  19.424  24.934  1.00  0.00     0.047 C 
ATOM      8  C   UNL A   1      35.193  20.917  25.069  1.00  0.00    -0.019 A 
ATOM      9  C   UNL A   1      36.311  21.762  25.280  1.00  0.00     0.025 A 
ATOM     10  C   UNL A   1      33.922  21.515  24.929  1.00  0.00     0.064 A 
ATOM     11  Br  UNL A   1      38.062  20.973  25.379  1.00  0.00    -0.050 Br
ATOM     12  C   UNL A   1      36.168  23.166  25.384  1.00  0.00    -0.026 A 
ATOM     13  C   UNL A   1      33.762  22.911  25.014  1.00  0.00     0.142 A 
ATOM     14  Br  UNL A   1      32.363  20.460  24.565  1.00  0.00    -0.046 Br
ATOM     15  C   UNL A   1      37.347  24.077  25.655  1.00  0.00     0.046 C 
ATOM     16  C   UNL A   1      34.875  23.733  25.229  1.00  0.00     0.022 A 
ATOM     17  O   UNL A   1      32.484  23.402  24.908  1.00  0.00    -0.474 OA
ATOM     18  C   UNL A   1      34.662  25.180  25.242  1.00  0.00     0.027 C 
ATOM     19  C   UNL A   1      32.256  24.819  24.716  1.00  0.00     0.316 C 
BRANCH  19  20
ATOM     20  C   UNL A   1      31.711  25.059  23.299  1.00  0.00     0.430 C 
ATOM     21  F   UNL A   1      31.238  23.916  22.749  1.00  0.00    -0.167 F 
ATOM     22  F   UNL A   1      30.681  25.939  23.306  1.00  0.00    -0.167 F 
ATOM     23  F   UNL A   1      32.657  25.551  22.467  1.00  0.00    -0.167 F 
ENDBRANCH  19  20
ENDBRANCH   4   6
ENDBRANCH   3   4
ENDBRANCH   2   3
ENDBRANCH   1   2
BRANCH   1  24
ATOM     24  O   UNL A   1      32.203  29.984  26.701  1.00  0.00    -0.458 OA
BRANCH  24  25
ATOM     25  C   UNL A   1      32.787  31.155  27.042  1.00  0.00     0.338 C 
ATOM     26  O   UNL A   1      32.280  32.263  27.062  1.00  0.00    -0.246 OA
BRANCH  25  27
ATOM     27  C   UNL A   1      34.169  30.915  27.486  1.00  0.00     0.060 A 
ATOM     28  C   UNL A   1      34.601  29.605  27.638  1.00  0.00     0.016 A 
ATOM     29  C   UNL A   1      34.968  31.966  27.932  1.00  0.00     0.016 A 
ATOM     30  C   UNL A   1      35.750  29.332  28.374  1.00  0.00     0.010 A 
ATOM     31  C   UNL A   1      36.198  31.688  28.546  1.00  0.00     0.010 A 
ATOM     32  C   UNL A   1      36.582  30.364  28.829  1.00  0.00    -0.014 A 
BRANCH  32  33
ATOM     33  C   UNL A   1      37.807  30.050  29.630  1.00  0.00     0.031 A 
ATOM     34  C   UNL A   1      38.930  29.239  29.028  1.00  0.00     0.074 A 
ATOM     35  C   UNL A   1      37.952  30.531  30.884  1.00  0.00     0.049 A 
ATOM     36  N   UNL A   1      39.976  28.711  29.614  1.00  0.00    -0.248 NA
ATOM     37  C   UNL A   1      38.868  28.977  27.580  1.00  0.00     0.031 C 
ATOM     38  C   UNL A   1      36.990  31.382  31.587  1.00  0.00     0.029 A 
ATOM     39  N   UNL A   1      38.980  30.395  31.786  1.00  0.00    -0.354 N 
ATOM     40  C   UNL A   1      40.656  28.005  28.626  1.00  0.00     0.074 A 
ATOM     41  C   UNL A   1      39.904  28.169  27.401  1.00  0.00     0.031 C 
ATOM     42  C   UNL A   1      37.506  31.760  32.765  1.00  0.00     0.029 A 
ATOM     43  C   UNL A   1      38.775  31.073  32.965  1.00  0.00     0.049 A 
ATOM     44  H   UNL A   1      39.789  29.862  31.606  1.00  0.00     0.167 HD
ATOM     45  C   UNL A   1      41.801  27.290  28.731  1.00  0.00     0.037 A 
ATOM     46  C   UNL A   1      39.490  31.104  34.106  1.00  0.00     0.037 A 
ATOM     47  C   UNL A   1      42.587  27.189  29.936  1.00  0.00     0.049 A 
ATOM     48  C   UNL A   1      40.725  30.258  34.218  1.00  0.00     0.074 A 
ATOM     49  C   UNL A   1      43.758  26.478  30.142  1.00  0.00     0.029 A 
ATOM     50  N   UNL A   1      42.300  27.840  31.125  1.00  0.00    -0.354 N 
ATOM     51  N   UNL A   1      41.296  29.511  33.306  1.00  0.00    -0.248 NA
ATOM     52  C   UNL A   1      41.393  30.228  35.527  1.00  0.00     0.031 C 
ATOM     53  C   UNL A   1      44.161  26.672  31.466  1.00  0.00     0.029 A 
ATOM     54  C   UNL A   1      43.266  27.540  32.070  1.00  0.00     0.049 A 
ATOM     55  H   UNL A   1      41.525  28.426  31.276  1.00  0.00     0.167 HD
ATOM     56  C   UNL A   1      42.394  28.930  33.927  1.00  0.00     0.074 A 
ATOM     57  C   UNL A   1      42.422  29.428  35.285  1.00  0.00     0.031 C 
ATOM     58  C   UNL A   1      43.290  28.052  33.416  1.00  0.00     0.037 A 
BRANCH  45  59
ATOM     59  C   UNL A   1      42.283  26.539  27.523  1.00  0.00     0.057 A 
ATOM     60  C   UNL A   1      43.169  27.104  26.599  1.00  0.00     0.134 A 
ATOM     61  C   UNL A   1      41.922  25.197  27.334  1.00  0.00     0.134 A 
ATOM     62  F   UNL A   1      43.546  28.386  26.715  1.00  0.00    -0.206 F 
ATOM     63  C   UNL A   1      43.673  26.365  25.526  1.00  0.00     0.040 A 
ATOM     64  C   UNL A   1      42.439  24.441  26.280  1.00  0.00     0.040 A 
ATOM     65  F   UNL A   1      41.084  24.591  28.189  1.00  0.00    -0.206 F 
ATOM     66  C   UNL A   1      43.317  25.026  25.371  1.00  0.00     0.006 A 
ENDBRANCH  45  59
BRANCH  46  67
ATOM     67  C   UNL A   1      39.025  31.928  35.254  1.00  0.00     0.057 A 
ATOM     68  C   UNL A   1      39.331  33.290  35.335  1.00  0.00     0.134 A 
ATOM     69  C   UNL A   1      38.255  31.379  36.289  1.00  0.00     0.134 A 
ATOM     70  F   UNL A   1      40.088  33.870  34.392  1.00  0.00    -0.206 F 
ATOM     71  C   UNL A   1      38.888  34.078  36.400  1.00  0.00     0.040 A 
ATOM     72  C   UNL A   1      37.778  32.160  37.342  1.00  0.00     0.040 A 
ATOM     73  F   UNL A   1      37.929  30.078  36.274  1.00  0.00    -0.206 F 
ATOM     74  C   UNL A   1      38.099  33.514  37.402  1.00  0.00     0.006 A 
ENDBRANCH  46  67
BRANCH  58  75
ATOM     75  C   UNL A   1      44.396  27.593  34.317  1.00  0.00     0.057 A 
ATOM     76  C   UNL A   1      45.587  28.318  34.447  1.00  0.00     0.134 A 
ATOM     77  C   UNL A   1      44.242  26.450  35.110  1.00  0.00     0.134 A 
ATOM     78  F   UNL A   1      45.800  29.416  33.705  1.00  0.00    -0.206 F 
ATOM     79  C   UNL A   1      46.591  27.916  35.328  1.00  0.00     0.040 A 
ATOM     80  C   UNL A   1      45.230  26.049  36.011  1.00  0.00     0.040 A 
ATOM     81  F   UNL A   1      43.121  25.715  35.038  1.00  0.00    -0.206 F 
ATOM     82  C   UNL A   1      46.409  26.783  36.120  1.00  0.00     0.006 A 
ENDBRANCH  58  75
ENDBRANCH  32  33
ENDBRANCH  25  27
ENDBRANCH  24  25
ENDBRANCH   1  24
TORSDOF 12
ENDMDL
MODEL 3
REMARK VINA RESULT:     -11.8      3.920      8.792
REMARK SMILES Cc1c(Br)c(C)c2c(c1Br)O[C@H](C(F)(F)F)C(C(=O)OCCOC(=O)c1ccc(-c3c4nc(c(-c5c(F)cccc5F)c5ccc([nH]5)c(-c5c(F)cccc5F)c5nc(c(-c6c(F)cccc6F)c6ccc3[nH]6)C=C5)C=C4)cc1)=C2
REMARK SMILES IDX 22 1 21 2 20 3 18 4 19 5 17 6 1 7 2 8 3 9 9 10 4 11 5 12
REMARK SMILES IDX 8 13 10 14 6 15 7 16 11 17 80 18 12 19 13 20 14 21 15 22
REMARK SMILES IDX 16 23 23 24 24 25 25 26 26 27 27 28 79 29 28 30 78 31 29 32
REMARK SMILES IDX 30 33 31 34 72 35 32 36 77 37 71 38 73 39 33 40 76 41 70 42
REMARK SMILES IDX 69 43 34 45 60 46 43 47 59 48 44 49 47 50 58 51 74 52 45 53
REMARK SMILES IDX 46 54 57 56 75 57 48 58 35 59 36 60 41 61 37 62 38 63 40 64
REMARK SMILES IDX 42 65 39 66 61 67 62 68 67 69 63 70 64 71 66 72 68 73 65 74
REMARK SMILES IDX 49 75 50 76 55 77 51 78 52 79 54 80 56 81 53 82
REMARK H PARENT 73 44 47 55
REMARK Flexibility Score: inf
ROOT
ATOM      1  C   UNL A   1      35.989  20.836  25.049  1.00  0.00     0.275 C 
ENDROOT
BRANCH   1   2
ATOM      2  C   UNL A   1      34.782  21.654  24.593  1.00  0.00     0.275 C 
BRANCH   2   3
ATOM      3  O   UNL A   1      35.022  23.071  24.746  1.00  0.00    -0.459 OA
BRANCH   3   4
ATOM      4  C   UNL A   1      34.343  23.673  25.748  1.00  0.00     0.338 C 
ATOM      5  O   UNL A   1      34.318  23.335  26.921  1.00  0.00    -0.246 OA
BRANCH   4   6
ATOM      6  C   UNL A   1      33.617  24.854  25.244  1.00  0.00     0.087 C 
ATOM      7  C   UNL A   1      30.377  30.487  24.455  1.00  0.00     0.047 C 
ATOM      8  C   UNL A   1      31.314  29.348  24.783  1.00  0.00    -0.019 A 
ATOM      9  C   UNL A   1      32.274  29.489  25.816  1.00  0.00     0.025 A 
ATOM     10  C   UNL A   1      31.224  28.105  24.122  1.00  0.00     0.064 A 
ATOM     11  Br  UNL A   1      32.348  31.145  26.791  1.00  0.00    -0.050 Br
ATOM     12  C   UNL A   1      33.148  28.431  26.163  1.00  0.00    -0.026 A 
ATOM     13  C   UNL A   1      32.074  27.036  24.464  1.00  0.00     0.142 A 
ATOM     14  Br  UNL A   1      29.905  27.796  22.765  1.00  0.00    -0.046 Br
ATOM     15  C   UNL A   1      34.209  28.582  27.234  1.00  0.00     0.046 C 
ATOM     16  C   UNL A   1      33.021  27.191  25.483  1.00  0.00     0.022 A 
ATOM     17  O   UNL A   1      31.943  25.876  23.740  1.00  0.00    -0.474 OA
ATOM     18  C   UNL A   1      33.833  26.029  25.843  1.00  0.00     0.027 C 
ATOM     19  C   UNL A   1      32.577  24.655  24.190  1.00  0.00     0.316 C 
BRANCH  19  20
ATOM     20  C   UNL A   1      31.497  23.660  24.645  1.00  0.00     0.430 C 
ATOM     21  F   UNL A   1      31.847  22.384  24.360  1.00  0.00    -0.167 F 
ATOM     22  F   UNL A   1      31.303  23.717  25.985  1.00  0.00    -0.167 F 
ATOM     23  F   UNL A   1      30.304  23.898  24.054  1.00  0.00    -0.167 F 
ENDBRANCH  19  20
ENDBRANCH   4   6
ENDBRANCH   3   4
ENDBRANCH   2   3
ENDBRANCH   1   2
BRANCH   1  24
ATOM     24  O   UNL A   1      37.205  21.569  24.811  1.00  0.00    -0.458 OA
BRANCH  24  25
ATOM     25  C   UNL A   1      38.292  21.130  25.484  1.00  0.00     0.338 C 
ATOM     26  O   UNL A   1      38.768  20.008  25.480  1.00  0.00    -0.246 OA
BRANCH  25  27
ATOM     27  C   UNL A   1      38.918  22.246  26.210  1.00  0.00     0.060 A 
ATOM     28  C   UNL A   1      38.361  23.512  26.090  1.00  0.00     0.016 A 
ATOM     29  C   UNL A   1      40.148  22.085  26.844  1.00  0.00     0.016 A 
ATOM     30  C   UNL A   1      39.098  24.634  26.458  1.00  0.00     0.010 A 
ATOM     31  C   UNL A   1      40.822  23.209  27.343  1.00  0.00     0.010 A 
ATOM     32  C   UNL A   1      40.335  24.508  27.106  1.00  0.00    -0.014 A 
BRANCH  32  33
ATOM     33  C   UNL A   1      41.118  25.727  27.482  1.00  0.00     0.031 A 
ATOM     34  C   UNL A   1      40.517  26.775  28.388  1.00  0.00     0.074 A 
ATOM     35  C   UNL A   1      42.392  25.884  27.061  1.00  0.00     0.049 A 
ATOM     36  N   UNL A   1      40.961  27.974  28.674  1.00  0.00    -0.248 NA
ATOM     37  C   UNL A   1      39.248  26.440  29.055  1.00  0.00     0.031 C 
ATOM     38  C   UNL A   1      43.140  24.934  26.234  1.00  0.00     0.029 A 
ATOM     39  N   UNL A   1      43.299  26.891  27.292  1.00  0.00    -0.354 N 
ATOM     40  C   UNL A   1      40.000  28.555  29.495  1.00  0.00     0.074 A 
ATOM     41  C   UNL A   1      38.945  27.579  29.662  1.00  0.00     0.031 C 
ATOM     42  C   UNL A   1      44.404  25.357  26.100  1.00  0.00     0.029 A 
ATOM     43  C   UNL A   1      44.528  26.673  26.715  1.00  0.00     0.049 A 
ATOM     44  H   UNL A   1      43.088  27.695  27.822  1.00  0.00     0.167 HD
ATOM     45  C   UNL A   1      39.999  29.787  30.059  1.00  0.00     0.037 A 
ATOM     46  C   UNL A   1      45.621  27.455  26.634  1.00  0.00     0.037 A 
ATOM     47  C   UNL A   1      41.084  30.730  29.951  1.00  0.00     0.049 A 
ATOM     48  C   UNL A   1      45.575  28.838  27.217  1.00  0.00     0.074 A 
ATOM     49  C   UNL A   1      41.169  32.007  30.480  1.00  0.00     0.029 A 
ATOM     50  N   UNL A   1      42.281  30.487  29.297  1.00  0.00    -0.354 N 
ATOM     51  N   UNL A   1      44.615  29.412  27.900  1.00  0.00    -0.248 NA
ATOM     52  C   UNL A   1      46.746  29.695  26.987  1.00  0.00     0.031 C 
ATOM     53  C   UNL A   1      42.405  32.550  30.117  1.00  0.00     0.029 A 
ATOM     54  C   UNL A   1      43.107  31.594  29.401  1.00  0.00     0.049 A 
ATOM     55  H   UNL A   1      42.510  29.653  28.827  1.00  0.00     0.167 HD
ATOM     56  C   UNL A   1      45.069  30.692  28.188  1.00  0.00     0.074 A 
ATOM     57  C   UNL A   1      46.398  30.803  27.626  1.00  0.00     0.031 C 
ATOM     58  C   UNL A   1      44.433  31.689  28.849  1.00  0.00     0.037 A 
BRANCH  45  59
ATOM     59  C   UNL A   1      38.786  30.210  30.837  1.00  0.00     0.057 A 
ATOM     60  C   UNL A   1      37.697  30.848  30.231  1.00  0.00     0.134 A 
ATOM     61  C   UNL A   1      38.671  29.891  32.198  1.00  0.00     0.134 A 
ATOM     62  F   UNL A   1      37.746  31.192  28.935  1.00  0.00    -0.206 F 
ATOM     63  C   UNL A   1      36.542  31.161  30.951  1.00  0.00     0.040 A 
ATOM     64  C   UNL A   1      37.511  30.176  32.922  1.00  0.00     0.040 A 
ATOM     65  F   UNL A   1      39.674  29.270  32.838  1.00  0.00    -0.206 F 
ATOM     66  C   UNL A   1      36.442  30.814  32.297  1.00  0.00     0.006 A 
ENDBRANCH  45  59
BRANCH  46  67
ATOM     67  C   UNL A   1      46.836  26.967  25.928  1.00  0.00     0.057 A 
ATOM     68  C   UNL A   1      47.032  27.225  24.568  1.00  0.00     0.134 A 
ATOM     69  C   UNL A   1      47.834  26.245  26.597  1.00  0.00     0.134 A 
ATOM     70  F   UNL A   1      46.101  27.886  23.864  1.00  0.00    -0.206 F 
ATOM     71  C   UNL A   1      48.175  26.785  23.897  1.00  0.00     0.040 A 
ATOM     72  C   UNL A   1      48.997  25.828  25.947  1.00  0.00     0.040 A 
ATOM     73  F   UNL A   1      47.707  25.962  27.901  1.00  0.00    -0.206 F 
ATOM     74  C   UNL A   1      49.167  26.094  24.591  1.00  0.00     0.006 A 
ENDBRANCH  46  67
BRANCH  58  75
ATOM     75  C   UNL A   1      45.173  32.979  29.029  1.00  0.00     0.057 A 
ATOM     76  C   UNL A   1      45.040  34.035  28.119  1.00  0.00     0.134 A 
ATOM     77  C   UNL A   1      45.974  33.190  30.157  1.00  0.00     0.134 A 
ATOM     78  F   UNL A   1      44.296  33.891  27.013  1.00  0.00    -0.206 F 
ATOM     79  C   UNL A   1      45.689  35.254  28.321  1.00  0.00     0.040 A 
ATOM     80  C   UNL A   1      46.610  34.412  30.381  1.00  0.00     0.040 A 
ATOM     81  F   UNL A   1      46.135  32.219  31.070  1.00  0.00    -0.206 F 
ATOM     82  C   UNL A   1      46.469  35.447  29.460  1.00  0.00     0.006 A 
ENDBRANCH  58  75
ENDBRANCH  32  33
ENDBRANCH  25  27
ENDBRANCH  24  25
ENDBRANCH   1  24
TORSDOF 12
ENDMDL
