MODEL 1
REMARK VINA RESULT:     -11.3      0.000      0.000
REMARK SMILES O=C(OCCOC(=O)c1ccc(-c2c3nc(c(-c4c(F)cccc4F)c4ccc([nH]4)c(-c4c(F)cccc4F)c4nc(c(-c5c(F)cccc5F)c5ccc2[nH]5)C=C4)C=C3)cc1)c1ccc(CN2C(=O)CSC2=S)cc1
REMARK SMILES IDX 4 1 3 2 2 3 1 4 63 5 64 6 76 7 65 8 75 9 66 10 67 11 68 12
REMARK SMILES IDX 69 13 73 14 70 15 71 16 72 17 74 18 5 19 6 20 7 21 8 22 9 23
REMARK SMILES IDX 10 24 62 25 11 26 61 27 12 28 13 29 14 30 55 31 15 32 60 33
REMARK SMILES IDX 54 34 56 35 16 36 59 37 53 38 52 39 17 41 43 42 26 43 42 44
REMARK SMILES IDX 27 45 30 46 41 47 57 48 28 49 29 50 40 52 58 53 31 54 18 55
REMARK SMILES IDX 19 56 24 57 20 58 21 59 23 60 25 61 22 62 44 63 45 64 50 65
REMARK SMILES IDX 46 66 47 67 49 68 51 69 48 70 32 71 33 72 38 73 34 74 35 75
REMARK SMILES IDX 37 76 39 77 36 78
REMARK H PARENT 56 40 30 51
REMARK Flexibility Score: inf
ROOT
ATOM      1  C   UNL A   1      43.246  21.293  25.843  1.00  0.00     0.275 C 
ENDROOT
BRANCH   1   2
ATOM      2  O   UNL A   1      41.858  21.550  25.557  1.00  0.00    -0.458 OA
BRANCH   2   3
ATOM      3  C   UNL A   1      40.759  21.312  26.315  1.00  0.00     0.338 C 
ATOM      4  O   UNL A   1      40.791  20.365  27.100  1.00  0.00    -0.246 OA
BRANCH   3   5
ATOM      5  C   UNL A   1      39.453  22.041  26.163  1.00  0.00     0.060 A 
ATOM      6  C   UNL A   1      39.146  23.298  26.675  1.00  0.00     0.016 A 
ATOM      7  C   UNL A   1      38.463  21.417  25.378  1.00  0.00     0.016 A 
ATOM      8  C   UNL A   1      37.959  23.952  26.341  1.00  0.00     0.006 A 
ATOM      9  C   UNL A   1      37.242  22.047  25.089  1.00  0.00     0.006 A 
ATOM     10  C   UNL A   1      36.990  23.340  25.545  1.00  0.00    -0.028 A 
BRANCH  10  11
ATOM     11  C   UNL A   1      35.706  24.076  25.218  1.00  0.00     0.162 C 
BRANCH  11  12
ATOM     12  N   UNL A   1      34.649  23.125  24.875  1.00  0.00    -0.293 N 
ATOM     13  C   UNL A   1      34.342  22.920  23.541  1.00  0.00     0.238 C 
ATOM     14  C   UNL A   1      33.891  22.440  25.796  1.00  0.00     0.143 C 
ATOM     15  O   UNL A   1      34.999  23.327  22.588  1.00  0.00    -0.273 OA
ATOM     16  C   UNL A   1      33.036  22.200  23.371  1.00  0.00     0.177 C 
ATOM     17  S   UNL A   1      32.663  21.488  24.978  1.00  0.00    -0.086 SA
ATOM     18  S   UNL A   1      34.037  22.436  27.457  1.00  0.00    -0.052 S 
ENDBRANCH  11  12
ENDBRANCH  10  11
ENDBRANCH   3   5
ENDBRANCH   2   3
ENDBRANCH   1   2
BRANCH   1  19
ATOM     19  C   UNL A   1      44.194  22.138  24.978  1.00  0.00     0.275 C 
BRANCH  19  20
ATOM     20  O   UNL A   1      43.637  23.426  24.657  1.00  0.00    -0.458 OA
BRANCH  20  21
ATOM     21  C   UNL A   1      44.365  24.490  25.087  1.00  0.00     0.338 C 
ATOM     22  O   UNL A   1      45.432  24.862  24.625  1.00  0.00    -0.246 OA
BRANCH  21  23
ATOM     23  C   UNL A   1      43.628  25.253  26.124  1.00  0.00     0.060 A 
ATOM     24  C   UNL A   1      44.128  26.515  26.470  1.00  0.00     0.016 A 
ATOM     25  C   UNL A   1      42.482  24.768  26.764  1.00  0.00     0.016 A 
ATOM     26  C   UNL A   1      43.513  27.272  27.471  1.00  0.00     0.010 A 
ATOM     27  C   UNL A   1      41.855  25.537  27.760  1.00  0.00     0.010 A 
ATOM     28  C   UNL A   1      42.381  26.785  28.140  1.00  0.00    -0.014 A 
BRANCH  28  29
ATOM     29  C   UNL A   1      41.817  27.553  29.285  1.00  0.00     0.031 A 
ATOM     30  C   UNL A   1      42.457  27.458  30.644  1.00  0.00     0.074 A 
ATOM     31  C   UNL A   1      40.765  28.379  29.118  1.00  0.00     0.049 A 
ATOM     32  N   UNL A   1      42.168  28.114  31.742  1.00  0.00    -0.248 NA
ATOM     33  C   UNL A   1      43.570  26.508  30.787  1.00  0.00     0.031 C 
ATOM     34  C   UNL A   1      40.056  28.598  27.861  1.00  0.00     0.029 A 
ATOM     35  N   UNL A   1      40.113  29.193  30.014  1.00  0.00    -0.354 N 
ATOM     36  C   UNL A   1      43.081  27.681  32.693  1.00  0.00     0.074 A 
ATOM     37  C   UNL A   1      43.891  26.660  32.064  1.00  0.00     0.031 C 
ATOM     38  C   UNL A   1      39.053  29.469  28.066  1.00  0.00     0.029 A 
ATOM     39  C   UNL A   1      39.056  29.881  29.469  1.00  0.00     0.049 A 
ATOM     40  H   UNL A   1      40.379  29.274  30.958  1.00  0.00     0.167 HD
ATOM     41  C   UNL A   1      43.255  28.113  33.965  1.00  0.00     0.037 A 
ATOM     42  C   UNL A   1      38.193  30.750  30.029  1.00  0.00     0.037 A 
ATOM     43  C   UNL A   1      42.460  29.124  34.611  1.00  0.00     0.049 A 
ATOM     44  C   UNL A   1      38.358  31.154  31.470  1.00  0.00     0.074 A 
ATOM     45  C   UNL A   1      42.596  29.640  35.890  1.00  0.00     0.029 A 
ATOM     46  N   UNL A   1      41.376  29.767  34.037  1.00  0.00    -0.354 N 
ATOM     47  N   UNL A   1      39.275  30.792  32.332  1.00  0.00    -0.248 NA
ATOM     48  C   UNL A   1      37.376  32.110  32.008  1.00  0.00     0.031 C 
ATOM     49  C   UNL A   1      41.566  30.563  36.105  1.00  0.00     0.029 A 
ATOM     50  C   UNL A   1      40.816  30.652  34.946  1.00  0.00     0.049 A 
ATOM     51  H   UNL A   1      41.051  29.617  33.120  1.00  0.00     0.167 HD
ATOM     52  C   UNL A   1      39.005  31.502  33.496  1.00  0.00     0.074 A 
ATOM     53  C   UNL A   1      37.844  32.323  33.229  1.00  0.00     0.031 C 
ATOM     54  C   UNL A   1      39.667  31.477  34.678  1.00  0.00     0.037 A 
BRANCH  41  55
ATOM     55  C   UNL A   1      44.371  27.496  34.752  1.00  0.00     0.057 A 
ATOM     56  C   UNL A   1      45.649  28.068  34.776  1.00  0.00     0.134 A 
ATOM     57  C   UNL A   1      44.153  26.357  35.537  1.00  0.00     0.134 A 
ATOM     58  F   UNL A   1      45.922  29.153  34.037  1.00  0.00    -0.206 F 
ATOM     59  C   UNL A   1      46.678  27.519  35.543  1.00  0.00     0.040 A 
ATOM     60  C   UNL A   1      45.168  25.812  36.324  1.00  0.00     0.040 A 
ATOM     61  F   UNL A   1      42.949  25.767  35.562  1.00  0.00    -0.206 F 
ATOM     62  C   UNL A   1      46.436  26.392  36.326  1.00  0.00     0.006 A 
ENDBRANCH  41  55
BRANCH  42  63
ATOM     63  C   UNL A   1      37.085  31.327  29.226  1.00  0.00     0.057 A 
ATOM     64  C   UNL A   1      37.138  32.642  28.751  1.00  0.00     0.134 A 
ATOM     65  C   UNL A   1      35.920  30.593  28.976  1.00  0.00     0.134 A 
ATOM     66  F   UNL A   1      38.218  33.401  28.985  1.00  0.00    -0.206 F 
ATOM     67  C   UNL A   1      36.058  33.219  28.082  1.00  0.00     0.040 A 
ATOM     68  C   UNL A   1      34.841  31.150  28.288  1.00  0.00     0.040 A 
ATOM     69  F   UNL A   1      35.809  29.328  29.409  1.00  0.00    -0.206 F 
ATOM     70  C   UNL A   1      34.904  32.472  27.849  1.00  0.00     0.006 A 
ENDBRANCH  42  63
BRANCH  54  71
ATOM     71  C   UNL A   1      39.176  32.388  35.767  1.00  0.00     0.057 A 
ATOM     72  C   UNL A   1      38.270  31.955  36.744  1.00  0.00     0.134 A 
ATOM     73  C   UNL A   1      39.636  33.709  35.856  1.00  0.00     0.134 A 
ATOM     74  F   UNL A   1      37.779  30.707  36.709  1.00  0.00    -0.206 F 
ATOM     75  C   UNL A   1      37.821  32.808  37.753  1.00  0.00     0.040 A 
ATOM     76  C   UNL A   1      39.214  34.564  36.876  1.00  0.00     0.040 A 
ATOM     77  F   UNL A   1      40.511  34.187  34.958  1.00  0.00    -0.206 F 
ATOM     78  C   UNL A   1      38.297  34.116  37.825  1.00  0.00     0.006 A 
ENDBRANCH  54  71
ENDBRANCH  28  29
ENDBRANCH  21  23
ENDBRANCH  20  21
ENDBRANCH  19  20
ENDBRANCH   1  19
TORSDOF 13
ENDMDL
MODEL 2
REMARK VINA RESULT:     -11.0      5.271     10.359
REMARK SMILES O=C(OCCOC(=O)c1ccc(-c2c3nc(c(-c4c(F)cccc4F)c4ccc([nH]4)c(-c4c(F)cccc4F)c4nc(c(-c5c(F)cccc5F)c5ccc2[nH]5)C=C4)C=C3)cc1)c1ccc(CN2C(=O)CSC2=S)cc1
REMARK SMILES IDX 4 1 3 2 2 3 1 4 63 5 64 6 76 7 65 8 75 9 66 10 67 11 68 12
REMARK SMILES IDX 69 13 73 14 70 15 71 16 72 17 74 18 5 19 6 20 7 21 8 22 9 23
REMARK SMILES IDX 10 24 62 25 11 26 61 27 12 28 13 29 14 30 55 31 15 32 60 33
REMARK SMILES IDX 54 34 56 35 16 36 59 37 53 38 52 39 17 41 43 42 26 43 42 44
REMARK SMILES IDX 27 45 30 46 41 47 57 48 28 49 29 50 40 52 58 53 31 54 18 55
REMARK SMILES IDX 19 56 24 57 20 58 21 59 23 60 25 61 22 62 44 63 45 64 50 65
REMARK SMILES IDX 46 66 47 67 49 68 51 69 48 70 32 71 33 72 38 73 34 74 35 75
REMARK SMILES IDX 37 76 39 77 36 78
REMARK H PARENT 56 40 30 51
REMARK Flexibility Score: inf
ROOT
ATOM      1  C   UNL A   1      34.337  34.160  30.272  1.00  0.00     0.275 C 
ENDROOT
BRANCH   1   2
ATOM      2  O   UNL A   1      33.985  33.051  29.423  1.00  0.00    -0.458 OA
BRANCH   2   3
ATOM      3  C   UNL A   1      34.571  32.615  28.281  1.00  0.00     0.338 C 
ATOM      4  O   UNL A   1      35.233  33.420  27.626  1.00  0.00    -0.246 OA
BRANCH   3   5
ATOM      5  C   UNL A   1      34.355  31.251  27.687  1.00  0.00     0.060 A 
ATOM      6  C   UNL A   1      35.303  30.239  27.579  1.00  0.00     0.016 A 
ATOM      7  C   UNL A   1      33.049  30.947  27.251  1.00  0.00     0.016 A 
ATOM      8  C   UNL A   1      34.956  28.955  27.156  1.00  0.00     0.006 A 
ATOM      9  C   UNL A   1      32.709  29.672  26.769  1.00  0.00     0.006 A 
ATOM     10  C   UNL A   1      33.658  28.650  26.745  1.00  0.00    -0.028 A 
BRANCH  10  11
ATOM     11  C   UNL A   1      33.322  27.248  26.277  1.00  0.00     0.162 C 
BRANCH  11  12
ATOM     12  N   UNL A   1      32.214  27.283  25.322  1.00  0.00    -0.293 N 
ATOM     13  C   UNL A   1      30.973  26.821  25.724  1.00  0.00     0.238 C 
ATOM     14  C   UNL A   1      32.325  27.705  24.018  1.00  0.00     0.143 C 
ATOM     15  O   UNL A   1      30.653  26.546  26.876  1.00  0.00    -0.273 OA
ATOM     16  C   UNL A   1      30.053  26.601  24.558  1.00  0.00     0.177 C 
ATOM     17  S   UNL A   1      30.797  27.486  23.181  1.00  0.00    -0.086 SA
ATOM     18  S   UNL A   1      33.657  28.349  23.250  1.00  0.00    -0.052 S 
ENDBRANCH  11  12
ENDBRANCH  10  11
ENDBRANCH   3   5
ENDBRANCH   2   3
ENDBRANCH   1   2
BRANCH   1  19
ATOM     19  C   UNL A   1      34.663  33.725  31.709  1.00  0.00     0.275 C 
BRANCH  19  20
ATOM     20  O   UNL A   1      35.043  32.339  31.786  1.00  0.00    -0.458 OA
BRANCH  20  21
ATOM     21  C   UNL A   1      36.108  32.079  32.589  1.00  0.00     0.338 C 
ATOM     22  O   UNL A   1      36.133  32.187  33.805  1.00  0.00    -0.246 OA
BRANCH  21  23
ATOM     23  C   UNL A   1      37.231  31.500  31.809  1.00  0.00     0.060 A 
ATOM     24  C   UNL A   1      38.269  30.897  32.530  1.00  0.00     0.016 A 
ATOM     25  C   UNL A   1      37.296  31.542  30.412  1.00  0.00     0.016 A 
ATOM     26  C   UNL A   1      39.381  30.371  31.867  1.00  0.00     0.010 A 
ATOM     27  C   UNL A   1      38.408  30.999  29.745  1.00  0.00     0.010 A 
ATOM     28  C   UNL A   1      39.473  30.432  30.469  1.00  0.00    -0.014 A 
BRANCH  28  29
ATOM     29  C   UNL A   1      40.720  29.977  29.793  1.00  0.00     0.031 A 
ATOM     30  C   UNL A   1      40.833  28.561  29.296  1.00  0.00     0.074 A 
ATOM     31  C   UNL A   1      41.741  30.828  29.570  1.00  0.00     0.049 A 
ATOM     32  N   UNL A   1      41.798  28.001  28.608  1.00  0.00    -0.248 NA
ATOM     33  C   UNL A   1      39.714  27.659  29.607  1.00  0.00     0.031 C 
ATOM     34  C   UNL A   1      41.771  32.233  29.966  1.00  0.00     0.029 A 
ATOM     35  N   UNL A   1      42.951  30.633  28.948  1.00  0.00    -0.354 N 
ATOM     36  C   UNL A   1      41.390  26.695  28.377  1.00  0.00     0.074 A 
ATOM     37  C   UNL A   1      40.120  26.526  29.052  1.00  0.00     0.031 C 
ATOM     38  C   UNL A   1      42.947  32.770  29.599  1.00  0.00     0.029 A 
ATOM     39  C   UNL A   1      43.751  31.750  28.930  1.00  0.00     0.049 A 
ATOM     40  H   UNL A   1      43.220  29.773  28.552  1.00  0.00     0.167 HD
ATOM     41  C   UNL A   1      41.995  25.730  27.644  1.00  0.00     0.037 A 
ATOM     42  C   UNL A   1      44.986  31.936  28.426  1.00  0.00     0.037 A 
ATOM     43  C   UNL A   1      43.257  25.876  26.967  1.00  0.00     0.049 A 
ATOM     44  C   UNL A   1      45.674  30.821  27.684  1.00  0.00     0.074 A 
ATOM     45  C   UNL A   1      43.922  24.952  26.176  1.00  0.00     0.029 A 
ATOM     46  N   UNL A   1      44.052  27.008  27.007  1.00  0.00    -0.354 N 
ATOM     47  N   UNL A   1      45.238  29.617  27.408  1.00  0.00    -0.248 NA
ATOM     48  C   UNL A   1      47.021  31.103  27.161  1.00  0.00     0.031 C 
ATOM     49  C   UNL A   1      45.139  25.511  25.774  1.00  0.00     0.029 A 
ATOM     50  C   UNL A   1      45.214  26.797  26.280  1.00  0.00     0.049 A 
ATOM     51  H   UNL A   1      43.826  27.841  27.483  1.00  0.00     0.167 HD
ATOM     52  C   UNL A   1      46.237  29.015  26.650  1.00  0.00     0.074 A 
ATOM     53  C   UNL A   1      47.297  29.988  26.501  1.00  0.00     0.031 C 
ATOM     54  C   UNL A   1      46.265  27.768  26.122  1.00  0.00     0.037 A 
BRANCH  41  55
ATOM     55  C   UNL A   1      41.286  24.416  27.521  1.00  0.00     0.057 A 
ATOM     56  C   UNL A   1      40.200  24.252  26.650  1.00  0.00     0.134 A 
ATOM     57  C   UNL A   1      41.726  23.292  28.231  1.00  0.00     0.134 A 
ATOM     58  F   UNL A   1      39.727  25.294  25.950  1.00  0.00    -0.206 F 
ATOM     59  C   UNL A   1      39.566  23.018  26.501  1.00  0.00     0.040 A 
ATOM     60  C   UNL A   1      41.112  22.048  28.074  1.00  0.00     0.040 A 
ATOM     61  F   UNL A   1      42.764  23.383  29.075  1.00  0.00    -0.206 F 
ATOM     62  C   UNL A   1      40.028  21.909  27.209  1.00  0.00     0.006 A 
ENDBRANCH  41  55
BRANCH  42  63
ATOM     63  C   UNL A   1      45.670  33.245  28.585  1.00  0.00     0.057 A 
ATOM     64  C   UNL A   1      46.408  33.545  29.735  1.00  0.00     0.134 A 
ATOM     65  C   UNL A   1      45.541  34.247  27.617  1.00  0.00     0.134 A 
ATOM     66  F   UNL A   1      46.542  32.631  30.708  1.00  0.00    -0.206 F 
ATOM     67  C   UNL A   1      46.969  34.807  29.933  1.00  0.00     0.040 A 
ATOM     68  C   UNL A   1      46.115  35.507  27.791  1.00  0.00     0.040 A 
ATOM     69  F   UNL A   1      44.842  34.020  26.494  1.00  0.00    -0.206 F 
ATOM     70  C   UNL A   1      46.822  35.793  28.958  1.00  0.00     0.006 A 
ENDBRANCH  42  63
BRANCH  54  71
ATOM     71  C   UNL A   1      47.466  27.390  25.302  1.00  0.00     0.057 A 
ATOM     72  C   UNL A   1      48.585  26.767  25.870  1.00  0.00     0.134 A 
ATOM     73  C   UNL A   1      47.492  27.626  23.921  1.00  0.00     0.134 A 
ATOM     74  F   UNL A   1      48.631  26.524  27.188  1.00  0.00    -0.206 F 
ATOM     75  C   UNL A   1      49.696  26.417  25.100  1.00  0.00     0.040 A 
ATOM     76  C   UNL A   1      48.586  27.257  23.136  1.00  0.00     0.040 A 
ATOM     77  F   UNL A   1      46.450  28.211  23.310  1.00  0.00    -0.206 F 
ATOM     78  C   UNL A   1      49.696  26.657  23.727  1.00  0.00     0.006 A 
ENDBRANCH  54  71
ENDBRANCH  28  29
ENDBRANCH  21  23
ENDBRANCH  20  21
ENDBRANCH  19  20
ENDBRANCH   1  19
TORSDOF 13
ENDMDL
MODEL 3
REMARK VINA RESULT:     -10.9      3.244      8.248
REMARK SMILES O=C(OCCOC(=O)c1ccc(-c2c3nc(c(-c4c(F)cccc4F)c4ccc([nH]4)c(-c4c(F)cccc4F)c4nc(c(-c5c(F)cccc5F)c5ccc2[nH]5)C=C4)C=C3)cc1)c1ccc(CN2C(=O)CSC2=S)cc1
REMARK SMILES IDX 4 1 3 2 2 3 1 4 63 5 64 6 76 7 65 8 75 9 66 10 67 11 68 12
REMARK SMILES IDX 69 13 73 14 70 15 71 16 72 17 74 18 5 19 6 20 7 21 8 22 9 23
REMARK SMILES IDX 10 24 62 25 11 26 61 27 12 28 13 29 14 30 55 31 15 32 60 33
REMARK SMILES IDX 54 34 56 35 16 36 59 37 53 38 52 39 17 41 43 42 26 43 42 44
REMARK SMILES IDX 27 45 30 46 41 47 57 48 28 49 29 50 40 52 58 53 31 54 18 55
REMARK SMILES IDX 19 56 24 57 20 58 21 59 23 60 25 61 22 62 44 63 45 64 50 65
REMARK SMILES IDX 46 66 47 67 49 68 51 69 48 70 32 71 33 72 38 73 34 74 35 75
REMARK SMILES IDX 37 76 39 77 36 78
REMARK H PARENT 56 40 30 51
REMARK Flexibility Score: inf
ROOT
ATOM      1  C   UNL A   1      31.835  31.277  26.499  1.00  0.00     0.275 C 
ENDROOT
BRANCH   1   2
ATOM      2  O   UNL A   1      32.675  30.485  27.360  1.00  0.00    -0.458 OA
BRANCH   2   3
ATOM      3  C   UNL A   1      33.492  29.447  27.056  1.00  0.00     0.338 C 
ATOM      4  O   UNL A   1      34.697  29.670  26.949  1.00  0.00    -0.246 OA
BRANCH   3   5
ATOM      5  C   UNL A   1      33.010  28.066  26.704  1.00  0.00     0.060 A 
ATOM      6  C   UNL A   1      31.733  27.558  26.921  1.00  0.00     0.016 A 
ATOM      7  C   UNL A   1      33.924  27.224  26.038  1.00  0.00     0.016 A 
ATOM      8  C   UNL A   1      31.345  26.318  26.413  1.00  0.00     0.006 A 
ATOM      9  C   UNL A   1      33.553  25.950  25.577  1.00  0.00     0.006 A 
ATOM     10  C   UNL A   1      32.245  25.496  25.734  1.00  0.00    -0.028 A 
BRANCH  10  11
ATOM     11  C   UNL A   1      31.790  24.147  25.211  1.00  0.00     0.162 C 
BRANCH  11  12
ATOM     12  N   UNL A   1      32.689  23.092  25.677  1.00  0.00    -0.293 N 
ATOM     13  C   UNL A   1      32.568  22.639  26.979  1.00  0.00     0.238 C 
ATOM     14  C   UNL A   1      33.696  22.538  24.920  1.00  0.00     0.143 C 
ATOM     15  O   UNL A   1      31.648  22.909  27.745  1.00  0.00    -0.273 OA
ATOM     16  C   UNL A   1      33.758  21.827  27.403  1.00  0.00     0.177 C 
ATOM     17  S   UNL A   1      34.611  21.390  25.883  1.00  0.00    -0.086 SA
ATOM     18  S   UNL A   1      34.071  22.835  23.323  1.00  0.00    -0.052 S 
ENDBRANCH  11  12
ENDBRANCH  10  11
ENDBRANCH   3   5
ENDBRANCH   2   3
ENDBRANCH   1   2
BRANCH   1  19
ATOM     19  C   UNL A   1      31.543  32.670  27.076  1.00  0.00     0.275 C 
BRANCH  19  20
ATOM     20  O   UNL A   1      32.673  33.555  26.963  1.00  0.00    -0.458 OA
BRANCH  20  21
ATOM     21  C   UNL A   1      33.131  34.056  28.140  1.00  0.00     0.338 C 
ATOM     22  O   UNL A   1      32.558  34.873  28.843  1.00  0.00    -0.246 OA
BRANCH  21  23
ATOM     23  C   UNL A   1      34.382  33.373  28.556  1.00  0.00     0.060 A 
ATOM     24  C   UNL A   1      34.257  32.265  29.405  1.00  0.00     0.016 A 
ATOM     25  C   UNL A   1      35.655  33.790  28.151  1.00  0.00     0.016 A 
ATOM     26  C   UNL A   1      35.393  31.600  29.874  1.00  0.00     0.010 A 
ATOM     27  C   UNL A   1      36.795  33.110  28.612  1.00  0.00     0.010 A 
ATOM     28  C   UNL A   1      36.675  32.025  29.499  1.00  0.00    -0.014 A 
BRANCH  28  29
ATOM     29  C   UNL A   1      37.871  31.380  30.107  1.00  0.00     0.031 A 
ATOM     30  C   UNL A   1      38.259  31.698  31.527  1.00  0.00     0.074 A 
ATOM     31  C   UNL A   1      38.593  30.469  29.425  1.00  0.00     0.049 A 
ATOM     32  N   UNL A   1      39.211  31.176  32.261  1.00  0.00    -0.248 NA
ATOM     33  C   UNL A   1      37.471  32.733  32.212  1.00  0.00     0.031 C 
ATOM     34  C   UNL A   1      38.329  30.036  28.057  1.00  0.00     0.029 A 
ATOM     35  N   UNL A   1      39.697  29.738  29.798  1.00  0.00    -0.354 N 
ATOM     36  C   UNL A   1      39.116  31.793  33.500  1.00  0.00     0.074 A 
ATOM     37  C   UNL A   1      38.056  32.775  33.400  1.00  0.00     0.031 C 
ATOM     38  C   UNL A   1      39.255  29.133  27.693  1.00  0.00     0.029 A 
ATOM     39  C   UNL A   1      40.174  28.913  28.808  1.00  0.00     0.049 A 
ATOM     40  H   UNL A   1      40.108  29.801  30.690  1.00  0.00     0.167 HD
ATOM     41  C   UNL A   1      39.820  31.547  34.631  1.00  0.00     0.037 A 
ATOM     42  C   UNL A   1      41.223  28.068  28.800  1.00  0.00     0.037 A 
ATOM     43  C   UNL A   1      40.878  30.579  34.752  1.00  0.00     0.049 A 
ATOM     44  C   UNL A   1      42.043  27.872  30.048  1.00  0.00     0.074 A 
ATOM     45  C   UNL A   1      41.619  30.249  35.876  1.00  0.00     0.029 A 
ATOM     46  N   UNL A   1      41.355  29.793  33.717  1.00  0.00    -0.354 N 
ATOM     47  N   UNL A   1      41.889  28.408  31.234  1.00  0.00    -0.248 NA
ATOM     48  C   UNL A   1      43.172  26.932  29.960  1.00  0.00     0.031 C 
ATOM     49  C   UNL A   1      42.573  29.294  35.509  1.00  0.00     0.029 A 
ATOM     50  C   UNL A   1      42.399  29.000  34.168  1.00  0.00     0.049 A 
ATOM     51  H   UNL A   1      41.005  29.797  32.796  1.00  0.00     0.167 HD
ATOM     52  C   UNL A   1      42.872  27.842  32.037  1.00  0.00     0.074 A 
ATOM     53  C   UNL A   1      43.612  26.916  31.210  1.00  0.00     0.031 C 
ATOM     54  C   UNL A   1      43.130  28.070  33.348  1.00  0.00     0.037 A 
BRANCH  41  55
ATOM     55  C   UNL A   1      39.457  32.339  35.850  1.00  0.00     0.057 A 
ATOM     56  C   UNL A   1      40.026  33.594  36.101  1.00  0.00     0.134 A 
ATOM     57  C   UNL A   1      38.489  31.873  36.749  1.00  0.00     0.134 A 
ATOM     58  F   UNL A   1      40.966  34.090  35.282  1.00  0.00    -0.206 F 
ATOM     59  C   UNL A   1      39.657  34.353  37.213  1.00  0.00     0.040 A 
ATOM     60  C   UNL A   1      38.097  32.631  37.852  1.00  0.00     0.040 A 
ATOM     61  F   UNL A   1      37.902  30.682  36.560  1.00  0.00    -0.206 F 
ATOM     62  C   UNL A   1      38.683  33.874  38.088  1.00  0.00     0.006 A 
ENDBRANCH  41  55
BRANCH  42  63
ATOM     63  C   UNL A   1      41.568  27.316  27.568  1.00  0.00     0.057 A 
ATOM     64  C   UNL A   1      41.138  25.998  27.375  1.00  0.00     0.134 A 
ATOM     65  C   UNL A   1      42.394  27.878  26.588  1.00  0.00     0.134 A 
ATOM     66  F   UNL A   1      40.367  25.399  28.294  1.00  0.00    -0.206 F 
ATOM     67  C   UNL A   1      41.542  25.254  26.266  1.00  0.00     0.040 A 
ATOM     68  C   UNL A   1      42.788  27.153  25.462  1.00  0.00     0.040 A 
ATOM     69  F   UNL A   1      42.841  29.136  26.719  1.00  0.00    -0.206 F 
ATOM     70  C   UNL A   1      42.370  25.833  25.305  1.00  0.00     0.006 A 
ENDBRANCH  42  63
BRANCH  54  71
ATOM     71  C   UNL A   1      44.240  27.280  33.983  1.00  0.00     0.057 A 
ATOM     72  C   UNL A   1      44.013  26.035  34.584  1.00  0.00     0.134 A 
ATOM     73  C   UNL A   1      45.556  27.758  33.967  1.00  0.00     0.134 A 
ATOM     74  F   UNL A   1      42.774  25.526  34.645  1.00  0.00    -0.206 F 
ATOM     75  C   UNL A   1      45.051  25.307  35.169  1.00  0.00     0.040 A 
ATOM     76  C   UNL A   1      46.607  27.027  34.526  1.00  0.00     0.040 A 
ATOM     77  F   UNL A   1      45.846  28.939  33.400  1.00  0.00    -0.206 F 
ATOM     78  C   UNL A   1      46.354  25.801  35.136  1.00  0.00     0.006 A 
ENDBRANCH  54  71
ENDBRANCH  28  29
ENDBRANCH  21  23
ENDBRANCH  20  21
ENDBRANCH  19  20
ENDBRANCH   1  19
TORSDOF 13
ENDMDL
