MODEL 1
REMARK VINA RESULT:     -10.9      0.000      0.000
REMARK SMILES NC(=O)c1c(-c2ccc(Cl)cc2)csc1NC(=O)[C@H]1[C@@H](C(=O)OCCOC(=O)c2ccc(-c3c4nc(c(-c5c(F)cccc5F)c5ccc([nH]5)c(-c5c(F)cccc5F)c5nc(c(-c6c(F)cccc6F)c6ccc3[nH]6)C=C5)C=C4)cc2)[C@@H]2CC[C@H]1O2
REMARK SMILES IDX 24 1 23 2 21 3 22 4 20 5 19 6 86 7 83 8 85 9 87 10 84 11
REMARK SMILES IDX 17 12 16 13 18 15 15 16 4 17 5 18 13 19 14 20 2 21 1 22 3 25
REMARK SMILES IDX 6 26 7 27 12 28 8 29 11 30 9 31 10 32 25 33 26 34 27 35
REMARK SMILES IDX 28 36 29 37 30 38 82 39 31 40 81 41 32 42 33 43 34 44 75 45
REMARK SMILES IDX 35 46 80 47 74 48 76 49 36 50 79 51 73 52 72 53 37 55 63 56
REMARK SMILES IDX 46 57 62 58 47 59 50 60 61 61 77 62 48 63 49 64 60 66 78 67
REMARK SMILES IDX 51 68 38 69 39 70 44 71 40 72 41 73 43 74 45 75 42 76 64 77
REMARK SMILES IDX 65 78 70 79 66 80 67 81 69 82 71 83 68 84 52 85 53 86 58 87
REMARK SMILES IDX 54 88 55 89 57 90 59 91 56 92
REMARK H PARENT 16 14 1 23 1 24 76 54 50 65
REMARK Flexibility Score: inf
ROOT
ATOM      1  C   UNL A   1      33.617  32.955  28.164  1.00  0.00     0.274 C 
ENDROOT
BRANCH   1   2
ATOM      2  O   UNL A   1      34.313  34.129  28.618  1.00  0.00    -0.462 OA
BRANCH   2   3
ATOM      3  C   UNL A   1      33.558  35.038  29.252  1.00  0.00     0.312 C 
ATOM      4  O   UNL A   1      32.497  35.467  28.793  1.00  0.00    -0.252 OA
BRANCH   3   5
ATOM      5  C   UNL A   1      34.079  35.585  30.568  1.00  0.00     0.143 C 
ATOM      6  C   UNL A   1      34.649  34.862  31.821  1.00  0.00     0.124 C 
ATOM      7  C   UNL A   1      33.621  35.281  32.891  1.00  0.00     0.132 C 
ATOM      8  C   UNL A   1      32.879  36.349  31.163  1.00  0.00     0.133 C 
ATOM      9  C   UNL A   1      33.806  36.743  33.306  1.00  0.00     0.035 C 
ATOM     10  O   UNL A   1      32.405  35.398  32.128  1.00  0.00    -0.373 OA
ATOM     11  C   UNL A   1      33.325  37.492  32.069  1.00  0.00     0.036 C 
BRANCH   6  12
ATOM     12  C   UNL A   1      34.921  33.360  31.931  1.00  0.00     0.231 C 
ATOM     13  N   UNL A   1      36.184  32.813  31.998  1.00  0.00    -0.317 N 
ATOM     14  H   UNL A   1      36.154  31.829  32.035  1.00  0.00     0.170 HD
ATOM     15  O   UNL A   1      34.003  32.539  31.960  1.00  0.00    -0.274 OA
BRANCH  13  16
ATOM     16  C   UNL A   1      37.490  33.295  32.030  1.00  0.00     0.108 A 
ATOM     17  C   UNL A   1      38.318  33.560  30.929  1.00  0.00     0.082 A 
ATOM     18  C   UNL A   1      39.622  34.039  31.369  1.00  0.00     0.007 A 
ATOM     19  C   UNL A   1      39.723  34.054  32.743  1.00  0.00     0.076 A 
ATOM     20  S   UNL A   1      38.268  33.649  33.484  1.00  0.00    -0.125 S 
BRANCH  17  21
ATOM     21  C   UNL A   1      37.848  33.377  29.553  1.00  0.00     0.252 C 
ATOM     22  N   UNL A   1      37.087  34.372  29.011  1.00  0.00    -0.365 N 
ATOM     23  H   UNL A   1      36.751  34.288  28.090  1.00  0.00     0.159 HD
ATOM     24  H   UNL A   1      36.875  35.173  29.542  1.00  0.00     0.159 HD
ATOM     25  O   UNL A   1      38.141  32.396  28.876  1.00  0.00    -0.269 OA
ENDBRANCH  17  21
BRANCH  18  26
ATOM     26  C   UNL A   1      40.739  34.600  30.621  1.00  0.00    -0.017 A 
ATOM     27  C   UNL A   1      41.975  34.829  31.245  1.00  0.00     0.010 A 
ATOM     28  C   UNL A   1      40.535  35.042  29.308  1.00  0.00     0.010 A 
ATOM     29  C   UNL A   1      42.984  35.519  30.568  1.00  0.00     0.021 A 
ATOM     30  C   UNL A   1      41.546  35.730  28.634  1.00  0.00     0.021 A 
ATOM     31  C   UNL A   1      42.763  35.974  29.270  1.00  0.00     0.041 A 
ATOM     32  Cl  UNL A   1      43.988  36.864  28.455  1.00  0.00    -0.084 Cl
ENDBRANCH  18  26
ENDBRANCH  13  16
ENDBRANCH   6  12
ENDBRANCH   3   5
ENDBRANCH   2   3
ENDBRANCH   1   2
BRANCH   1  33
ATOM     33  C   UNL A   1      34.547  31.854  27.634  1.00  0.00     0.275 C 
BRANCH  33  34
ATOM     34  O   UNL A   1      35.130  31.062  28.678  1.00  0.00    -0.458 OA
BRANCH  34  35
ATOM     35  C   UNL A   1      35.356  29.766  28.348  1.00  0.00     0.338 C 
ATOM     36  O   UNL A   1      34.552  28.966  27.901  1.00  0.00    -0.246 OA
BRANCH  35  37
ATOM     37  C   UNL A   1      36.789  29.459  28.526  1.00  0.00     0.060 A 
ATOM     38  C   UNL A   1      37.619  29.582  27.410  1.00  0.00     0.016 A 
ATOM     39  C   UNL A   1      37.319  29.064  29.759  1.00  0.00     0.016 A 
ATOM     40  C   UNL A   1      38.992  29.380  27.542  1.00  0.00     0.010 A 
ATOM     41  C   UNL A   1      38.694  28.821  29.880  1.00  0.00     0.010 A 
ATOM     42  C   UNL A   1      39.545  29.001  28.777  1.00  0.00    -0.014 A 
BRANCH  42  43
ATOM     43  C   UNL A   1      41.004  28.719  28.860  1.00  0.00     0.031 A 
ATOM     44  C   UNL A   1      41.506  27.367  28.442  1.00  0.00     0.074 A 
ATOM     45  C   UNL A   1      41.888  29.668  29.225  1.00  0.00     0.049 A 
ATOM     46  N   UNL A   1      42.735  26.931  28.350  1.00  0.00    -0.248 NA
ATOM     47  C   UNL A   1      40.484  26.384  28.051  1.00  0.00     0.031 C 
ATOM     48  C   UNL A   1      41.554  31.046  29.578  1.00  0.00     0.029 A 
ATOM     49  N   UNL A   1      43.258  29.620  29.337  1.00  0.00    -0.354 N 
ATOM     50  C   UNL A   1      42.636  25.635  27.866  1.00  0.00     0.074 A 
ATOM     51  C   UNL A   1      41.229  25.357  27.676  1.00  0.00     0.031 C 
ATOM     52  C   UNL A   1      42.687  31.718  29.847  1.00  0.00     0.029 A 
ATOM     53  C   UNL A   1      43.827  30.810  29.729  1.00  0.00     0.049 A 
ATOM     54  H   UNL A   1      43.784  28.809  29.152  1.00  0.00     0.167 HD
ATOM     55  C   UNL A   1      43.623  24.741  27.627  1.00  0.00     0.037 A 
ATOM     56  C   UNL A   1      45.115  31.122  29.983  1.00  0.00     0.037 A 
ATOM     57  C   UNL A   1      45.013  24.962  27.909  1.00  0.00     0.049 A 
ATOM     58  C   UNL A   1      46.176  30.056  29.848  1.00  0.00     0.074 A 
ATOM     59  C   UNL A   1      46.067  24.074  27.793  1.00  0.00     0.029 A 
ATOM     60  N   UNL A   1      45.538  26.146  28.401  1.00  0.00    -0.354 N 
ATOM     61  N   UNL A   1      46.072  28.833  29.387  1.00  0.00    -0.248 NA
ATOM     62  C   UNL A   1      47.535  30.412  30.289  1.00  0.00     0.031 C 
ATOM     63  C   UNL A   1      47.222  24.703  28.268  1.00  0.00     0.029 A 
ATOM     64  C   UNL A   1      46.898  26.003  28.621  1.00  0.00     0.049 A 
ATOM     65  H   UNL A   1      45.022  26.968  28.569  1.00  0.00     0.167 HD
ATOM     66  C   UNL A   1      47.348  28.285  29.464  1.00  0.00     0.074 A 
ATOM     67  C   UNL A   1      48.216  29.314  29.994  1.00  0.00     0.031 C 
ATOM     68  C   UNL A   1      47.760  27.037  29.132  1.00  0.00     0.037 A 
BRANCH  55  69
ATOM     69  C   UNL A   1      43.195  23.401  27.114  1.00  0.00     0.057 A 
ATOM     70  C   UNL A   1      42.716  22.402  27.970  1.00  0.00     0.134 A 
ATOM     71  C   UNL A   1      43.301  23.099  25.751  1.00  0.00     0.134 A 
ATOM     72  F   UNL A   1      42.617  22.625  29.290  1.00  0.00    -0.206 F 
ATOM     73  C   UNL A   1      42.376  21.137  27.488  1.00  0.00     0.040 A 
ATOM     74  C   UNL A   1      42.946  21.844  25.256  1.00  0.00     0.040 A 
ATOM     75  F   UNL A   1      43.762  24.013  24.885  1.00  0.00    -0.206 F 
ATOM     76  C   UNL A   1      42.490  20.857  26.127  1.00  0.00     0.006 A 
ENDBRANCH  55  69
BRANCH  56  77
ATOM     77  C   UNL A   1      45.499  32.487  30.435  1.00  0.00     0.057 A 
ATOM     78  C   UNL A   1      45.948  33.455  29.527  1.00  0.00     0.134 A 
ATOM     79  C   UNL A   1      45.517  32.827  31.794  1.00  0.00     0.134 A 
ATOM     80  F   UNL A   1      45.988  33.182  28.215  1.00  0.00    -0.206 F 
ATOM     81  C   UNL A   1      46.427  34.696  29.954  1.00  0.00     0.040 A 
ATOM     82  C   UNL A   1      45.965  34.075  32.232  1.00  0.00     0.040 A 
ATOM     83  F   UNL A   1      45.113  31.945  32.720  1.00  0.00    -0.206 F 
ATOM     84  C   UNL A   1      46.434  35.010  31.312  1.00  0.00     0.006 A 
ENDBRANCH  56  77
BRANCH  68  85
ATOM     85  C   UNL A   1      49.218  26.712  29.293  1.00  0.00     0.057 A 
ATOM     86  C   UNL A   1      50.153  26.970  28.283  1.00  0.00     0.134 A 
ATOM     87  C   UNL A   1      49.702  26.200  30.505  1.00  0.00     0.134 A 
ATOM     88  F   UNL A   1      49.756  27.449  27.094  1.00  0.00    -0.206 F 
ATOM     89  C   UNL A   1      51.514  26.719  28.467  1.00  0.00     0.040 A 
ATOM     90  C   UNL A   1      51.063  25.970  30.710  1.00  0.00     0.040 A 
ATOM     91  F   UNL A   1      48.862  25.938  31.518  1.00  0.00    -0.206 F 
ATOM     92  C   UNL A   1      51.974  26.228  29.687  1.00  0.00     0.006 A 
ENDBRANCH  68  85
ENDBRANCH  42  43
ENDBRANCH  35  37
ENDBRANCH  34  35
ENDBRANCH  33  34
ENDBRANCH   1  33
TORSDOF 15
ENDMDL
MODEL 2
REMARK VINA RESULT:     -10.8      5.799     10.749
REMARK SMILES NC(=O)c1c(-c2ccc(Cl)cc2)csc1NC(=O)[C@H]1[C@@H](C(=O)OCCOC(=O)c2ccc(-c3c4nc(c(-c5c(F)cccc5F)c5ccc([nH]5)c(-c5c(F)cccc5F)c5nc(c(-c6c(F)cccc6F)c6ccc3[nH]6)C=C5)C=C4)cc2)[C@@H]2CC[C@H]1O2
REMARK SMILES IDX 24 1 23 2 21 3 22 4 20 5 19 6 86 7 83 8 85 9 87 10 84 11
REMARK SMILES IDX 17 12 16 13 18 15 15 16 4 17 5 18 13 19 14 20 2 21 1 22 3 25
REMARK SMILES IDX 6 26 7 27 12 28 8 29 11 30 9 31 10 32 25 33 26 34 27 35
REMARK SMILES IDX 28 36 29 37 30 38 82 39 31 40 81 41 32 42 33 43 34 44 75 45
REMARK SMILES IDX 35 46 80 47 74 48 76 49 36 50 79 51 73 52 72 53 37 55 63 56
REMARK SMILES IDX 46 57 62 58 47 59 50 60 61 61 77 62 48 63 49 64 60 66 78 67
REMARK SMILES IDX 51 68 38 69 39 70 44 71 40 72 41 73 43 74 45 75 42 76 64 77
REMARK SMILES IDX 65 78 70 79 66 80 67 81 69 82 71 83 68 84 52 85 53 86 58 87
REMARK SMILES IDX 54 88 55 89 57 90 59 91 56 92
REMARK H PARENT 16 14 1 23 1 24 76 54 50 65
REMARK Flexibility Score: inf
ROOT
ATOM      1  C   UNL A   1      32.402  31.340  26.803  1.00  0.00     0.274 C 
ENDROOT
BRANCH   1   2
ATOM      2  O   UNL A   1      31.504  30.500  26.057  1.00  0.00    -0.462 OA
BRANCH   2   3
ATOM      3  C   UNL A   1      31.481  29.210  26.423  1.00  0.00     0.312 C 
ATOM      4  O   UNL A   1      31.635  28.840  27.589  1.00  0.00    -0.252 OA
BRANCH   3   5
ATOM      5  C   UNL A   1      31.305  28.176  25.327  1.00  0.00     0.143 C 
ATOM      6  C   UNL A   1      32.285  27.109  24.761  1.00  0.00     0.124 C 
ATOM      7  C   UNL A   1      32.407  27.575  23.296  1.00  0.00     0.132 C 
ATOM      8  C   UNL A   1      30.982  29.007  24.069  1.00  0.00     0.133 C 
ATOM      9  C   UNL A   1      31.145  27.245  22.495  1.00  0.00     0.035 C 
ATOM     10  O   UNL A   1      32.257  29.003  23.409  1.00  0.00    -0.373 OA
ATOM     11  C   UNL A   1      30.132  28.224  23.073  1.00  0.00     0.036 C 
BRANCH   6  12
ATOM     12  C   UNL A   1      33.675  26.798  25.319  1.00  0.00     0.231 C 
ATOM     13  N   UNL A   1      34.111  25.529  25.630  1.00  0.00    -0.317 N 
ATOM     14  H   UNL A   1      35.022  25.536  26.004  1.00  0.00     0.170 HD
ATOM     15  O   UNL A   1      34.500  27.690  25.530  1.00  0.00    -0.274 OA
BRANCH  13  16
ATOM     16  C   UNL A   1      33.593  24.239  25.550  1.00  0.00     0.108 A 
ATOM     17  C   UNL A   1      34.070  23.185  24.756  1.00  0.00     0.082 A 
ATOM     18  C   UNL A   1      33.252  21.992  24.936  1.00  0.00     0.007 A 
ATOM     19  C   UNL A   1      32.196  22.222  25.790  1.00  0.00     0.076 A 
ATOM     20  S   UNL A   1      32.259  23.761  26.466  1.00  0.00    -0.125 S 
BRANCH  17  21
ATOM     21  C   UNL A   1      35.255  23.340  23.906  1.00  0.00     0.252 C 
ATOM     22  N   UNL A   1      36.475  23.276  24.513  1.00  0.00    -0.365 N 
ATOM     23  H   UNL A   1      37.296  23.375  23.978  1.00  0.00     0.159 HD
ATOM     24  H   UNL A   1      36.535  23.129  25.484  1.00  0.00     0.159 HD
ATOM     25  O   UNL A   1      35.185  23.486  22.690  1.00  0.00    -0.269 OA
ENDBRANCH  17  21
BRANCH  18  26
ATOM     26  C   UNL A   1      33.441  20.623  24.477  1.00  0.00    -0.017 A 
ATOM     27  C   UNL A   1      32.435  19.967  23.751  1.00  0.00     0.010 A 
ATOM     28  C   UNL A   1      34.578  19.912  24.882  1.00  0.00     0.010 A 
ATOM     29  C   UNL A   1      32.556  18.605  23.460  1.00  0.00     0.021 A 
ATOM     30  C   UNL A   1      34.696  18.551  24.589  1.00  0.00     0.021 A 
ATOM     31  C   UNL A   1      33.681  17.902  23.888  1.00  0.00     0.041 A 
ATOM     32  Cl  UNL A   1      33.807  16.216  23.572  1.00  0.00    -0.084 Cl
ENDBRANCH  18  26
ENDBRANCH  13  16
ENDBRANCH   6  12
ENDBRANCH   3   5
ENDBRANCH   2   3
ENDBRANCH   1   2
BRANCH   1  33
ATOM     33  C   UNL A   1      31.799  32.699  27.186  1.00  0.00     0.275 C 
BRANCH  33  34
ATOM     34  O   UNL A   1      32.732  33.781  27.059  1.00  0.00    -0.458 OA
BRANCH  34  35
ATOM     35  C   UNL A   1      33.094  34.358  28.232  1.00  0.00     0.338 C 
ATOM     36  O   UNL A   1      32.506  35.239  28.835  1.00  0.00    -0.246 OA
BRANCH  35  37
ATOM     37  C   UNL A   1      34.304  33.691  28.752  1.00  0.00     0.060 A 
ATOM     38  C   UNL A   1      34.129  32.701  29.721  1.00  0.00     0.016 A 
ATOM     39  C   UNL A   1      35.588  34.018  28.301  1.00  0.00     0.016 A 
ATOM     40  C   UNL A   1      35.231  31.986  30.189  1.00  0.00     0.010 A 
ATOM     41  C   UNL A   1      36.699  33.326  28.803  1.00  0.00     0.010 A 
ATOM     42  C   UNL A   1      36.527  32.288  29.733  1.00  0.00    -0.014 A 
BRANCH  42  43
ATOM     43  C   UNL A   1      37.685  31.555  30.312  1.00  0.00     0.031 A 
ATOM     44  C   UNL A   1      38.056  31.804  31.746  1.00  0.00     0.074 A 
ATOM     45  C   UNL A   1      38.356  30.623  29.608  1.00  0.00     0.049 A 
ATOM     46  N   UNL A   1      38.968  31.220  32.480  1.00  0.00    -0.248 NA
ATOM     47  C   UNL A   1      37.276  32.832  32.453  1.00  0.00     0.031 C 
ATOM     48  C   UNL A   1      38.057  30.218  28.237  1.00  0.00     0.029 A 
ATOM     49  N   UNL A   1      39.420  29.827  29.963  1.00  0.00    -0.354 N 
ATOM     50  C   UNL A   1      38.853  31.790  33.739  1.00  0.00     0.074 A 
ATOM     51  C   UNL A   1      37.781  32.759  33.674  1.00  0.00     0.031 C 
ATOM     52  C   UNL A   1      38.901  29.238  27.873  1.00  0.00     0.029 A 
ATOM     53  C   UNL A   1      39.832  28.971  28.967  1.00  0.00     0.049 A 
ATOM     54  H   UNL A   1      39.848  29.865  30.849  1.00  0.00     0.167 HD
ATOM     55  C   UNL A   1      39.591  31.552  34.848  1.00  0.00     0.037 A 
ATOM     56  C   UNL A   1      40.855  28.091  28.939  1.00  0.00     0.037 A 
ATOM     57  C   UNL A   1      40.726  30.673  34.902  1.00  0.00     0.049 A 
ATOM     58  C   UNL A   1      41.752  27.958  30.145  1.00  0.00     0.074 A 
ATOM     59  C   UNL A   1      41.593  30.452  35.958  1.00  0.00     0.029 A 
ATOM     60  N   UNL A   1      41.174  29.900  33.845  1.00  0.00    -0.354 N 
ATOM     61  N   UNL A   1      41.634  28.500  31.333  1.00  0.00    -0.248 NA
ATOM     62  C   UNL A   1      42.941  27.101  29.998  1.00  0.00     0.031 C 
ATOM     63  C   UNL A   1      42.599  29.585  35.520  1.00  0.00     0.029 A 
ATOM     64  C   UNL A   1      42.323  29.220  34.212  1.00  0.00     0.049 A 
ATOM     65  H   UNL A   1      40.740  29.841  32.962  1.00  0.00     0.167 HD
ATOM     66  C   UNL A   1      42.716  28.036  32.075  1.00  0.00     0.074 A 
ATOM     67  C   UNL A   1      43.468  27.150  31.213  1.00  0.00     0.031 C 
ATOM     68  C   UNL A   1      43.057  28.325  33.354  1.00  0.00     0.037 A 
BRANCH  55  69
ATOM     69  C   UNL A   1      39.232  32.343  36.067  1.00  0.00     0.057 A 
ATOM     70  C   UNL A   1      39.774  33.611  36.310  1.00  0.00     0.134 A 
ATOM     71  C   UNL A   1      38.362  31.810  37.025  1.00  0.00     0.134 A 
ATOM     72  F   UNL A   1      40.635  34.162  35.440  1.00  0.00    -0.206 F 
ATOM     73  C   UNL A   1      39.479  34.313  37.479  1.00  0.00     0.040 A 
ATOM     74  C   UNL A   1      38.044  32.511  38.188  1.00  0.00     0.040 A 
ATOM     75  F   UNL A   1      37.818  30.596  36.851  1.00  0.00    -0.206 F 
ATOM     76  C   UNL A   1      38.610  33.764  38.421  1.00  0.00     0.006 A 
ENDBRANCH  55  69
BRANCH  56  77
ATOM     77  C   UNL A   1      41.137  27.283  27.721  1.00  0.00     0.057 A 
ATOM     78  C   UNL A   1      40.675  25.966  27.598  1.00  0.00     0.134 A 
ATOM     79  C   UNL A   1      41.954  27.773  26.693  1.00  0.00     0.134 A 
ATOM     80  F   UNL A   1      39.917  25.425  28.563  1.00  0.00    -0.206 F 
ATOM     81  C   UNL A   1      41.037  25.159  26.517  1.00  0.00     0.040 A 
ATOM     82  C   UNL A   1      42.298  26.987  25.592  1.00  0.00     0.040 A 
ATOM     83  F   UNL A   1      42.441  29.021  26.750  1.00  0.00    -0.206 F 
ATOM     84  C   UNL A   1      41.850  25.671  25.508  1.00  0.00     0.006 A 
ENDBRANCH  56  77
BRANCH  68  85
ATOM     85  C   UNL A   1      44.277  27.658  33.925  1.00  0.00     0.057 A 
ATOM     86  C   UNL A   1      44.216  26.403  34.544  1.00  0.00     0.134 A 
ATOM     87  C   UNL A   1      45.540  28.249  33.787  1.00  0.00     0.134 A 
ATOM     88  F   UNL A   1      43.037  25.787  34.719  1.00  0.00    -0.206 F 
ATOM     89  C   UNL A   1      45.366  25.767  35.017  1.00  0.00     0.040 A 
ATOM     90  C   UNL A   1      46.699  27.610  34.231  1.00  0.00     0.040 A 
ATOM     91  F   UNL A   1      45.671  29.447  33.196  1.00  0.00    -0.206 F 
ATOM     92  C   UNL A   1      46.613  26.365  34.850  1.00  0.00     0.006 A 
ENDBRANCH  68  85
ENDBRANCH  42  43
ENDBRANCH  35  37
ENDBRANCH  34  35
ENDBRANCH  33  34
ENDBRANCH   1  33
TORSDOF 15
ENDMDL
MODEL 3
REMARK VINA RESULT:     -10.7      4.846     11.787
REMARK SMILES NC(=O)c1c(-c2ccc(Cl)cc2)csc1NC(=O)[C@H]1[C@@H](C(=O)OCCOC(=O)c2ccc(-c3c4nc(c(-c5c(F)cccc5F)c5ccc([nH]5)c(-c5c(F)cccc5F)c5nc(c(-c6c(F)cccc6F)c6ccc3[nH]6)C=C5)C=C4)cc2)[C@@H]2CC[C@H]1O2
REMARK SMILES IDX 24 1 23 2 21 3 22 4 20 5 19 6 86 7 83 8 85 9 87 10 84 11
REMARK SMILES IDX 17 12 16 13 18 15 15 16 4 17 5 18 13 19 14 20 2 21 1 22 3 25
REMARK SMILES IDX 6 26 7 27 12 28 8 29 11 30 9 31 10 32 25 33 26 34 27 35
REMARK SMILES IDX 28 36 29 37 30 38 82 39 31 40 81 41 32 42 33 43 34 44 75 45
REMARK SMILES IDX 35 46 80 47 74 48 76 49 36 50 79 51 73 52 72 53 37 55 63 56
REMARK SMILES IDX 46 57 62 58 47 59 50 60 61 61 77 62 48 63 49 64 60 66 78 67
REMARK SMILES IDX 51 68 38 69 39 70 44 71 40 72 41 73 43 74 45 75 42 76 64 77
REMARK SMILES IDX 65 78 70 79 66 80 67 81 69 82 71 83 68 84 52 85 53 86 58 87
REMARK SMILES IDX 54 88 55 89 57 90 59 91 56 92
REMARK H PARENT 16 14 1 23 1 24 76 54 50 65
REMARK Flexibility Score: inf
ROOT
ATOM      1  C   UNL A   1      40.159  20.373  26.274  1.00  0.00     0.274 C 
ENDROOT
BRANCH   1   2
ATOM      2  O   UNL A   1      41.546  20.738  26.171  1.00  0.00    -0.462 OA
BRANCH   2   3
ATOM      3  C   UNL A   1      42.387  19.735  25.878  1.00  0.00     0.312 C 
ATOM      4  O   UNL A   1      42.008  18.578  25.680  1.00  0.00    -0.252 OA
BRANCH   3   5
ATOM      5  C   UNL A   1      43.869  20.053  25.842  1.00  0.00     0.143 C 
ATOM      6  C   UNL A   1      44.628  21.347  25.431  1.00  0.00     0.124 C 
ATOM      7  C   UNL A   1      45.452  20.834  24.234  1.00  0.00     0.132 C 
ATOM      8  C   UNL A   1      44.456  19.019  24.860  1.00  0.00     0.133 C 
ATOM      9  C   UNL A   1      46.622  19.959  24.691  1.00  0.00     0.035 C 
ATOM     10  O   UNL A   1      44.594  19.820  23.676  1.00  0.00    -0.373 OA
ATOM     11  C   UNL A   1      45.914  18.700  25.173  1.00  0.00     0.036 C 
BRANCH   6  12
ATOM     12  C   UNL A   1      43.972  22.681  25.070  1.00  0.00     0.231 C 
ATOM     13  N   UNL A   1      44.055  23.813  25.852  1.00  0.00    -0.317 N 
ATOM     14  H   UNL A   1      43.543  24.562  25.466  1.00  0.00     0.170 HD
ATOM     15  O   UNL A   1      43.314  22.818  24.037  1.00  0.00    -0.274 OA
BRANCH  13  16
ATOM     16  C   UNL A   1      44.677  24.170  27.045  1.00  0.00     0.108 A 
ATOM     17  C   UNL A   1      44.199  23.948  28.345  1.00  0.00     0.082 A 
ATOM     18  C   UNL A   1      45.129  24.479  29.334  1.00  0.00     0.007 A 
ATOM     19  C   UNL A   1      46.202  25.107  28.739  1.00  0.00     0.076 A 
ATOM     20  S   UNL A   1      46.176  24.944  27.066  1.00  0.00    -0.125 S 
BRANCH  17  21
ATOM     21  C   UNL A   1      42.936  23.246  28.589  1.00  0.00     0.252 C 
ATOM     22  N   UNL A   1      42.979  21.884  28.663  1.00  0.00    -0.365 N 
ATOM     23  H   UNL A   1      42.153  21.373  28.825  1.00  0.00     0.159 HD
ATOM     24  H   UNL A   1      43.836  21.412  28.554  1.00  0.00     0.159 HD
ATOM     25  O   UNL A   1      41.873  23.833  28.762  1.00  0.00    -0.269 OA
ENDBRANCH  17  21
BRANCH  18  26
ATOM     26  C   UNL A   1      45.166  24.345  30.784  1.00  0.00    -0.017 A 
ATOM     27  C   UNL A   1      44.190  23.596  31.458  1.00  0.00     0.010 A 
ATOM     28  C   UNL A   1      46.103  25.082  31.519  1.00  0.00     0.010 A 
ATOM     29  C   UNL A   1      44.137  23.609  32.854  1.00  0.00     0.021 A 
ATOM     30  C   UNL A   1      46.048  25.093  32.915  1.00  0.00     0.021 A 
ATOM     31  C   UNL A   1      45.059  24.365  33.576  1.00  0.00     0.041 A 
ATOM     32  Cl  UNL A   1      44.964  24.419  35.292  1.00  0.00    -0.084 Cl
ENDBRANCH  18  26
ENDBRANCH  13  16
ENDBRANCH   6  12
ENDBRANCH   3   5
ENDBRANCH   2   3
ENDBRANCH   1   2
BRANCH   1  33
ATOM     33  C   UNL A   1      39.194  21.529  25.974  1.00  0.00     0.275 C 
BRANCH  33  34
ATOM     34  O   UNL A   1      39.616  22.774  26.547  1.00  0.00    -0.458 OA
BRANCH  34  35
ATOM     35  C   UNL A   1      38.766  23.811  26.338  1.00  0.00     0.338 C 
ATOM     36  O   UNL A   1      37.741  23.805  25.680  1.00  0.00    -0.246 OA
BRANCH  35  37
ATOM     37  C   UNL A   1      39.219  24.979  27.120  1.00  0.00     0.060 A 
ATOM     38  C   UNL A   1      38.734  25.111  28.422  1.00  0.00     0.016 A 
ATOM     39  C   UNL A   1      40.105  25.927  26.596  1.00  0.00     0.016 A 
ATOM     40  C   UNL A   1      39.191  26.153  29.229  1.00  0.00     0.010 A 
ATOM     41  C   UNL A   1      40.532  26.996  27.396  1.00  0.00     0.010 A 
ATOM     42  C   UNL A   1      40.096  27.104  28.727  1.00  0.00    -0.014 A 
BRANCH  42  43
ATOM     43  C   UNL A   1      40.501  28.244  29.593  1.00  0.00     0.031 A 
ATOM     44  C   UNL A   1      39.551  29.393  29.769  1.00  0.00     0.074 A 
ATOM     45  C   UNL A   1      41.660  28.234  30.281  1.00  0.00     0.049 A 
ATOM     46  N   UNL A   1      39.655  30.446  30.539  1.00  0.00    -0.248 NA
ATOM     47  C   UNL A   1      38.303  29.333  28.992  1.00  0.00     0.031 C 
ATOM     48  C   UNL A   1      42.640  27.152  30.272  1.00  0.00     0.029 A 
ATOM     49  N   UNL A   1      42.198  29.161  31.143  1.00  0.00    -0.354 N 
ATOM     50  C   UNL A   1      38.479  31.158  30.359  1.00  0.00     0.074 A 
ATOM     51  C   UNL A   1      37.671  30.417  29.414  1.00  0.00     0.031 C 
ATOM     52  C   UNL A   1      43.649  27.465  31.103  1.00  0.00     0.029 A 
ATOM     53  C   UNL A   1      43.412  28.789  31.673  1.00  0.00     0.049 A 
ATOM     54  H   UNL A   1      41.754  30.011  31.362  1.00  0.00     0.167 HD
ATOM     55  C   UNL A   1      38.110  32.339  30.905  1.00  0.00     0.037 A 
ATOM     56  C   UNL A   1      44.242  29.452  32.505  1.00  0.00     0.037 A 
ATOM     57  C   UNL A   1      38.941  33.140  31.760  1.00  0.00     0.049 A 
ATOM     58  C   UNL A   1      43.867  30.835  32.980  1.00  0.00     0.074 A 
ATOM     59  C   UNL A   1      38.686  34.398  32.276  1.00  0.00     0.029 A 
ATOM     60  N   UNL A   1      40.206  32.777  32.193  1.00  0.00    -0.354 N 
ATOM     61  N   UNL A   1      42.750  31.500  32.805  1.00  0.00    -0.248 NA
ATOM     62  C   UNL A   1      44.881  31.570  33.754  1.00  0.00     0.031 C 
ATOM     63  C   UNL A   1      39.820  34.820  32.976  1.00  0.00     0.029 A 
ATOM     64  C   UNL A   1      40.756  33.799  32.948  1.00  0.00     0.049 A 
ATOM     65  H   UNL A   1      40.648  31.919  31.995  1.00  0.00     0.167 HD
ATOM     66  C   UNL A   1      42.920  32.714  33.462  1.00  0.00     0.074 A 
ATOM     67  C   UNL A   1      44.238  32.689  34.059  1.00  0.00     0.031 C 
ATOM     68  C   UNL A   1      42.063  33.759  33.554  1.00  0.00     0.037 A 
BRANCH  55  69
ATOM     69  C   UNL A   1      36.769  32.868  30.502  1.00  0.00     0.057 A 
ATOM     70  C   UNL A   1      36.592  33.615  29.331  1.00  0.00     0.134 A 
ATOM     71  C   UNL A   1      35.651  32.657  31.317  1.00  0.00     0.134 A 
ATOM     72  F   UNL A   1      37.633  33.872  28.523  1.00  0.00    -0.206 F 
ATOM     73  C   UNL A   1      35.349  34.154  28.996  1.00  0.00     0.040 A 
ATOM     74  C   UNL A   1      34.400  33.174  30.982  1.00  0.00     0.040 A 
ATOM     75  F   UNL A   1      35.761  31.956  32.455  1.00  0.00    -0.206 F 
ATOM     76  C   UNL A   1      34.249  33.931  29.822  1.00  0.00     0.006 A 
ENDBRANCH  55  69
BRANCH  56  77
ATOM     77  C   UNL A   1      45.541  28.859  32.925  1.00  0.00     0.057 A 
ATOM     78  C   UNL A   1      45.715  28.325  34.209  1.00  0.00     0.134 A 
ATOM     79  C   UNL A   1      46.665  28.897  32.090  1.00  0.00     0.134 A 
ATOM     80  F   UNL A   1      44.688  28.290  35.070  1.00  0.00    -0.206 F 
ATOM     81  C   UNL A   1      46.961  27.879  34.655  1.00  0.00     0.040 A 
ATOM     82  C   UNL A   1      47.910  28.426  32.513  1.00  0.00     0.040 A 
ATOM     83  F   UNL A   1      46.574  29.406  30.852  1.00  0.00    -0.206 F 
ATOM     84  C   UNL A   1      48.064  27.927  33.804  1.00  0.00     0.006 A 
ENDBRANCH  56  77
BRANCH  68  85
ATOM     85  C   UNL A   1      42.494  34.955  34.356  1.00  0.00     0.057 A 
ATOM     86  C   UNL A   1      43.070  36.082  33.757  1.00  0.00     0.134 A 
ATOM     87  C   UNL A   1      42.262  35.005  35.737  1.00  0.00     0.134 A 
ATOM     88  F   UNL A   1      43.330  36.096  32.441  1.00  0.00    -0.206 F 
ATOM     89  C   UNL A   1      43.411  37.211  34.506  1.00  0.00     0.040 A 
ATOM     90  C   UNL A   1      42.574  36.138  36.490  1.00  0.00     0.040 A 
ATOM     91  F   UNL A   1      41.705  33.963  36.373  1.00  0.00    -0.206 F 
ATOM     92  C   UNL A   1      43.153  37.246  35.874  1.00  0.00     0.006 A 
ENDBRANCH  68  85
ENDBRANCH  42  43
ENDBRANCH  35  37
ENDBRANCH  34  35
ENDBRANCH  33  34
ENDBRANCH   1  33
TORSDOF 15
ENDMDL
