MODEL 1
REMARK VINA RESULT:     -11.2      0.000      0.000
REMARK SMILES Cc1nn(C)c(N[C@@H]2C=C[C@H](C(=O)OCCOC(=O)c3ccc(-c4c5nc(c(-c6c(F)cccc6F)c6ccc([nH]6)c(-c6c(F)cccc6F)c6nc(c(-c7c(F)cccc7F)c7ccc4[nH]7)C=C6)C=C5)cc3)C2)c1C#N
REMARK SMILES IDX 15 1 14 2 12 3 13 4 11 5 8 6 9 7 74 8 10 9 7 10 6 12 1 13
REMARK SMILES IDX 2 14 3 15 75 16 4 17 5 18 76 19 77 20 16 21 17 22 18 23
REMARK SMILES IDX 19 24 20 25 21 26 73 27 22 28 72 29 23 30 24 31 25 32 66 33
REMARK SMILES IDX 26 34 71 35 65 36 67 37 27 38 70 39 64 40 63 41 28 43 54 44
REMARK SMILES IDX 37 45 53 46 38 47 41 48 52 49 68 50 39 51 40 52 51 54 69 55
REMARK SMILES IDX 42 56 29 57 30 58 35 59 31 60 32 61 34 62 36 63 33 64 55 65
REMARK SMILES IDX 56 66 61 67 57 68 58 69 60 70 62 71 59 72 43 73 44 74 49 75
REMARK SMILES IDX 45 76 46 77 48 78 50 79 47 80
REMARK H PARENT 7 11 67 42 41 53
REMARK Flexibility Score: inf
ROOT
ATOM      1  C   UNL A   1      37.036  22.951  24.806  1.00  0.00     0.274 C 
ENDROOT
BRANCH   1   2
ATOM      2  O   UNL A   1      35.594  23.167  24.944  1.00  0.00    -0.462 OA
BRANCH   2   3
ATOM      3  C   UNL A   1      34.841  23.019  23.804  1.00  0.00     0.312 C 
ATOM      4  O   UNL A   1      35.009  23.700  22.796  1.00  0.00    -0.252 OA
BRANCH   3   5
ATOM      5  C   UNL A   1      33.737  21.952  23.895  1.00  0.00     0.124 C 
ATOM      6  C   UNL A   1      31.437  22.761  23.403  1.00  0.00     0.104 C 
ATOM      7  C   UNL A   1      31.613  22.439  24.836  1.00  0.00    -0.006 C 
ATOM      8  C   UNL A   1      32.705  22.180  22.758  1.00  0.00     0.048 C 
ATOM      9  C   UNL A   1      32.841  21.966  25.104  1.00  0.00    -0.014 C 
BRANCH   6  10
ATOM     10  N   UNL A   1      31.083  24.133  23.032  1.00  0.00    -0.363 N 
ATOM     11  H   UNL A   1      30.225  24.159  22.551  1.00  0.00     0.162 HD
BRANCH  10  12
ATOM     12  C   UNL A   1      31.614  25.400  23.167  1.00  0.00     0.142 A 
ATOM     13  C   UNL A   1      33.949  28.216  22.534  1.00  0.00     0.070 C 
ATOM     14  C   UNL A   1      32.890  27.248  22.902  1.00  0.00     0.079 A 
ATOM     15  N   UNL A   1      32.270  27.416  24.062  1.00  0.00    -0.175 NA
ATOM     16  C   UNL A   1      32.400  26.099  22.244  1.00  0.00     0.117 A 
ATOM     17  N   UNL A   1      31.522  26.307  24.207  1.00  0.00    -0.251 N 
ATOM     18  C   UNL A   1      31.112  26.112  25.553  1.00  0.00     0.176 C 
BRANCH  16  19
ATOM     19  C   UNL A   1      32.729  25.711  20.907  1.00  0.00     0.105 C 
ATOM     20  N   UNL A   1      32.946  25.395  19.822  1.00  0.00    -0.192 NA
ENDBRANCH  16  19
ENDBRANCH  10  12
ENDBRANCH   6  10
ENDBRANCH   3   5
ENDBRANCH   2   3
ENDBRANCH   1   2
BRANCH   1  21
ATOM     21  C   UNL A   1      37.586  21.626  25.303  1.00  0.00     0.275 C 
BRANCH  21  22
ATOM     22  O   UNL A   1      38.909  21.818  25.760  1.00  0.00    -0.458 OA
BRANCH  22  23
ATOM     23  C   UNL A   1      39.639  20.682  25.725  1.00  0.00     0.338 C 
ATOM     24  O   UNL A   1      39.269  19.578  25.358  1.00  0.00    -0.246 OA
BRANCH  23  25
ATOM     25  C   UNL A   1      40.966  20.948  26.290  1.00  0.00     0.060 A 
ATOM     26  C   UNL A   1      41.005  20.786  27.671  1.00  0.00     0.016 A 
ATOM     27  C   UNL A   1      41.739  21.897  25.622  1.00  0.00     0.016 A 
ATOM     28  C   UNL A   1      41.373  21.887  28.401  1.00  0.00     0.010 A 
ATOM     29  C   UNL A   1      42.141  22.975  26.353  1.00  0.00     0.010 A 
ATOM     30  C   UNL A   1      41.797  23.023  27.705  1.00  0.00    -0.014 A 
BRANCH  30  31
ATOM     31  C   UNL A   1      42.147  24.220  28.438  1.00  0.00     0.031 A 
ATOM     32  C   UNL A   1      41.103  25.229  28.148  1.00  0.00     0.074 A 
ATOM     33  C   UNL A   1      43.166  24.278  29.322  1.00  0.00     0.049 A 
ATOM     34  N   UNL A   1      41.155  26.154  27.243  1.00  0.00    -0.248 NA
ATOM     35  C   UNL A   1      39.727  24.943  28.609  1.00  0.00     0.031 C 
ATOM     36  C   UNL A   1      44.080  23.209  29.750  1.00  0.00     0.029 A 
ATOM     37  N   UNL A   1      43.559  25.332  30.102  1.00  0.00    -0.354 N 
ATOM     38  C   UNL A   1      39.896  26.746  27.300  1.00  0.00     0.074 A 
ATOM     39  C   UNL A   1      39.019  25.741  27.808  1.00  0.00     0.031 C 
ATOM     40  C   UNL A   1      44.748  23.594  30.868  1.00  0.00     0.029 A 
ATOM     41  C   UNL A   1      44.415  24.975  31.160  1.00  0.00     0.049 A 
ATOM     42  H   UNL A   1      43.267  26.257  29.938  1.00  0.00     0.167 HD
ATOM     43  C   UNL A   1      39.801  28.095  27.464  1.00  0.00     0.037 A 
ATOM     44  C   UNL A   1      44.759  25.793  32.195  1.00  0.00     0.037 A 
ATOM     45  C   UNL A   1      41.065  28.708  27.120  1.00  0.00     0.049 A 
ATOM     46  C   UNL A   1      44.476  27.173  31.736  1.00  0.00     0.074 A 
ATOM     47  C   UNL A   1      41.806  28.889  25.973  1.00  0.00     0.029 A 
ATOM     48  N   UNL A   1      41.932  28.769  28.182  1.00  0.00    -0.354 N 
ATOM     49  N   UNL A   1      45.144  27.752  30.778  1.00  0.00    -0.248 NA
ATOM     50  C   UNL A   1      43.161  27.732  32.016  1.00  0.00     0.031 C 
ATOM     51  C   UNL A   1      43.175  28.883  26.383  1.00  0.00     0.029 A 
ATOM     52  C   UNL A   1      43.234  28.798  27.772  1.00  0.00     0.049 A 
ATOM     53  H   UNL A   1      41.650  28.790  29.125  1.00  0.00     0.167 HD
ATOM     54  C   UNL A   1      44.180  28.427  30.051  1.00  0.00     0.074 A 
ATOM     55  C   UNL A   1      43.014  28.501  30.932  1.00  0.00     0.031 C 
ATOM     56  C   UNL A   1      44.316  28.562  28.699  1.00  0.00     0.037 A 
BRANCH  43  57
ATOM     57  C   UNL A   1      38.856  28.763  28.462  1.00  0.00     0.057 A 
ATOM     58  C   UNL A   1      38.966  28.396  29.815  1.00  0.00     0.134 A 
ATOM     59  C   UNL A   1      37.688  29.503  28.157  1.00  0.00     0.134 A 
ATOM     60  F   UNL A   1      40.023  27.695  30.251  1.00  0.00    -0.206 F 
ATOM     61  C   UNL A   1      37.965  28.671  30.759  1.00  0.00     0.040 A 
ATOM     62  C   UNL A   1      36.701  29.812  29.097  1.00  0.00     0.040 A 
ATOM     63  F   UNL A   1      37.364  29.916  26.930  1.00  0.00    -0.206 F 
ATOM     64  C   UNL A   1      36.822  29.370  30.399  1.00  0.00     0.006 A 
ENDBRANCH  43  57
BRANCH  44  65
ATOM     65  C   UNL A   1      45.019  25.518  33.632  1.00  0.00     0.057 A 
ATOM     66  C   UNL A   1      44.042  24.944  34.467  1.00  0.00     0.134 A 
ATOM     67  C   UNL A   1      46.333  25.490  34.123  1.00  0.00     0.134 A 
ATOM     68  F   UNL A   1      42.762  24.877  34.072  1.00  0.00    -0.206 F 
ATOM     69  C   UNL A   1      44.360  24.352  35.701  1.00  0.00     0.040 A 
ATOM     70  C   UNL A   1      46.665  24.897  35.350  1.00  0.00     0.040 A 
ATOM     71  F   UNL A   1      47.350  25.943  33.378  1.00  0.00    -0.206 F 
ATOM     72  C   UNL A   1      45.679  24.312  36.138  1.00  0.00     0.006 A 
ENDBRANCH  44  65
BRANCH  56  73
ATOM     73  C   UNL A   1      45.682  28.334  28.121  1.00  0.00     0.057 A 
ATOM     74  C   UNL A   1      46.751  29.240  28.192  1.00  0.00     0.134 A 
ATOM     75  C   UNL A   1      45.944  27.085  27.552  1.00  0.00     0.134 A 
ATOM     76  F   UNL A   1      46.611  30.431  28.789  1.00  0.00    -0.206 F 
ATOM     77  C   UNL A   1      48.016  28.922  27.687  1.00  0.00     0.040 A 
ATOM     78  C   UNL A   1      47.206  26.744  27.072  1.00  0.00     0.040 A 
ATOM     79  F   UNL A   1      44.976  26.155  27.496  1.00  0.00    -0.206 F 
ATOM     80  C   UNL A   1      48.247  27.667  27.129  1.00  0.00     0.006 A 
ENDBRANCH  56  73
ENDBRANCH  30  31
ENDBRANCH  23  25
ENDBRANCH  22  23
ENDBRANCH  21  22
ENDBRANCH   1  21
TORSDOF 14
ENDMDL
MODEL 2
REMARK VINA RESULT:     -11.2      0.966      1.498
REMARK SMILES Cc1nn(C)c(N[C@@H]2C=C[C@H](C(=O)OCCOC(=O)c3ccc(-c4c5nc(c(-c6c(F)cccc6F)c6ccc([nH]6)c(-c6c(F)cccc6F)c6nc(c(-c7c(F)cccc7F)c7ccc4[nH]7)C=C6)C=C5)cc3)C2)c1C#N
REMARK SMILES IDX 15 1 14 2 12 3 13 4 11 5 8 6 9 7 74 8 10 9 7 10 6 12 1 13
REMARK SMILES IDX 2 14 3 15 75 16 4 17 5 18 76 19 77 20 16 21 17 22 18 23
REMARK SMILES IDX 19 24 20 25 21 26 73 27 22 28 72 29 23 30 24 31 25 32 66 33
REMARK SMILES IDX 26 34 71 35 65 36 67 37 27 38 70 39 64 40 63 41 28 43 54 44
REMARK SMILES IDX 37 45 53 46 38 47 41 48 52 49 68 50 39 51 40 52 51 54 69 55
REMARK SMILES IDX 42 56 29 57 30 58 35 59 31 60 32 61 34 62 36 63 33 64 55 65
REMARK SMILES IDX 56 66 61 67 57 68 58 69 60 70 62 71 59 72 43 73 44 74 49 75
REMARK SMILES IDX 45 76 46 77 48 78 50 79 47 80
REMARK H PARENT 7 11 67 42 41 53
REMARK Flexibility Score: inf
ROOT
ATOM      1  C   UNL A   1      37.235  23.153  25.299  1.00  0.00     0.274 C 
ENDROOT
BRANCH   1   2
ATOM      2  O   UNL A   1      35.859  23.215  25.795  1.00  0.00    -0.462 OA
BRANCH   2   3
ATOM      3  C   UNL A   1      34.902  23.621  24.895  1.00  0.00     0.312 C 
ATOM      4  O   UNL A   1      34.364  24.724  24.940  1.00  0.00    -0.252 OA
BRANCH   3   5
ATOM      5  C   UNL A   1      34.522  22.569  23.840  1.00  0.00     0.124 C 
ATOM      6  C   UNL A   1      32.142  22.600  23.120  1.00  0.00     0.104 C 
ATOM      7  C   UNL A   1      32.455  21.405  23.934  1.00  0.00    -0.006 C 
ATOM      8  C   UNL A   1      33.528  23.193  22.824  1.00  0.00     0.048 C 
ATOM      9  C   UNL A   1      33.748  21.361  24.296  1.00  0.00    -0.014 C 
BRANCH   6  10
ATOM     10  N   UNL A   1      31.121  23.530  23.608  1.00  0.00    -0.363 N 
ATOM     11  H   UNL A   1      30.266  23.395  23.139  1.00  0.00     0.162 HD
BRANCH  10  12
ATOM     12  C   UNL A   1      31.020  24.544  24.539  1.00  0.00     0.142 A 
ATOM     13  C   UNL A   1      31.403  27.967  25.924  1.00  0.00     0.070 C 
ATOM     14  C   UNL A   1      31.117  26.561  25.556  1.00  0.00     0.079 A 
ATOM     15  N   UNL A   1      30.950  25.684  26.536  1.00  0.00    -0.175 NA
ATOM     16  C   UNL A   1      31.010  25.923  24.302  1.00  0.00     0.117 A 
ATOM     17  N   UNL A   1      30.902  24.492  25.915  1.00  0.00    -0.251 N 
ATOM     18  C   UNL A   1      31.139  23.414  26.810  1.00  0.00     0.176 C 
BRANCH  16  19
ATOM     19  C   UNL A   1      30.977  26.591  23.037  1.00  0.00     0.105 C 
ATOM     20  N   UNL A   1      30.991  27.153  22.032  1.00  0.00    -0.192 NA
ENDBRANCH  16  19
ENDBRANCH  10  12
ENDBRANCH   6  10
ENDBRANCH   3   5
ENDBRANCH   2   3
ENDBRANCH   1   2
BRANCH   1  21
ATOM     21  C   UNL A   1      37.871  21.777  25.198  1.00  0.00     0.275 C 
BRANCH  21  22
ATOM     22  O   UNL A   1      38.911  21.679  26.150  1.00  0.00    -0.458 OA
BRANCH  22  23
ATOM     23  C   UNL A   1      39.755  20.656  25.890  1.00  0.00     0.338 C 
ATOM     24  O   UNL A   1      39.470  19.565  25.422  1.00  0.00    -0.246 OA
BRANCH  23  25
ATOM     25  C   UNL A   1      41.100  21.018  26.346  1.00  0.00     0.060 A 
ATOM     26  C   UNL A   1      41.272  20.837  27.715  1.00  0.00     0.016 A 
ATOM     27  C   UNL A   1      41.736  22.038  25.638  1.00  0.00     0.016 A 
ATOM     28  C   UNL A   1      41.614  21.951  28.437  1.00  0.00     0.010 A 
ATOM     29  C   UNL A   1      42.113  23.133  26.358  1.00  0.00     0.010 A 
ATOM     30  C   UNL A   1      41.885  23.130  27.735  1.00  0.00    -0.014 A 
BRANCH  30  31
ATOM     31  C   UNL A   1      42.202  24.338  28.463  1.00  0.00     0.031 A 
ATOM     32  C   UNL A   1      41.140  25.323  28.157  1.00  0.00     0.074 A 
ATOM     33  C   UNL A   1      43.211  24.423  29.356  1.00  0.00     0.049 A 
ATOM     34  N   UNL A   1      41.180  26.243  27.247  1.00  0.00    -0.248 NA
ATOM     35  C   UNL A   1      39.766  25.010  28.606  1.00  0.00     0.031 C 
ATOM     36  C   UNL A   1      44.144  23.378  29.800  1.00  0.00     0.029 A 
ATOM     37  N   UNL A   1      43.574  25.491  30.133  1.00  0.00    -0.354 N 
ATOM     38  C   UNL A   1      39.908  26.808  27.287  1.00  0.00     0.074 A 
ATOM     39  C   UNL A   1      39.048  25.787  27.794  1.00  0.00     0.031 C 
ATOM     40  C   UNL A   1      44.792  23.784  30.922  1.00  0.00     0.029 A 
ATOM     41  C   UNL A   1      44.427  25.159  31.202  1.00  0.00     0.049 A 
ATOM     42  H   UNL A   1      43.263  26.409  29.961  1.00  0.00     0.167 HD
ATOM     43  C   UNL A   1      39.783  28.156  27.442  1.00  0.00     0.037 A 
ATOM     44  C   UNL A   1      44.743  25.991  32.235  1.00  0.00     0.037 A 
ATOM     45  C   UNL A   1      41.036  28.794  27.107  1.00  0.00     0.049 A 
ATOM     46  C   UNL A   1      44.435  27.362  31.764  1.00  0.00     0.074 A 
ATOM     47  C   UNL A   1      41.784  28.984  25.965  1.00  0.00     0.029 A 
ATOM     48  N   UNL A   1      41.892  28.880  28.176  1.00  0.00    -0.354 N 
ATOM     49  N   UNL A   1      45.099  27.949  30.808  1.00  0.00    -0.248 NA
ATOM     50  C   UNL A   1      43.105  27.893  32.028  1.00  0.00     0.031 C 
ATOM     51  C   UNL A   1      43.149  29.009  26.388  1.00  0.00     0.029 A 
ATOM     52  C   UNL A   1      43.196  28.935  27.778  1.00  0.00     0.049 A 
ATOM     53  H   UNL A   1      41.600  28.901  29.116  1.00  0.00     0.167 HD
ATOM     54  C   UNL A   1      44.128  28.599  30.069  1.00  0.00     0.074 A 
ATOM     55  C   UNL A   1      42.952  28.653  30.938  1.00  0.00     0.031 C 
ATOM     56  C   UNL A   1      44.274  28.727  28.716  1.00  0.00     0.037 A 
BRANCH  43  57
ATOM     57  C   UNL A   1      38.813  28.810  28.427  1.00  0.00     0.057 A 
ATOM     58  C   UNL A   1      38.916  28.450  29.782  1.00  0.00     0.134 A 
ATOM     59  C   UNL A   1      37.634  29.525  28.106  1.00  0.00     0.134 A 
ATOM     60  F   UNL A   1      39.982  27.772  30.233  1.00  0.00    -0.206 F 
ATOM     61  C   UNL A   1      37.900  28.710  30.714  1.00  0.00     0.040 A 
ATOM     62  C   UNL A   1      36.632  29.818  29.033  1.00  0.00     0.040 A 
ATOM     63  F   UNL A   1      37.316  29.925  26.873  1.00  0.00    -0.206 F 
ATOM     64  C   UNL A   1      36.747  29.384  30.339  1.00  0.00     0.006 A 
ENDBRANCH  43  57
BRANCH  44  65
ATOM     65  C   UNL A   1      44.995  25.730  33.675  1.00  0.00     0.057 A 
ATOM     66  C   UNL A   1      43.955  25.398  34.563  1.00  0.00     0.134 A 
ATOM     67  C   UNL A   1      46.295  25.463  34.132  1.00  0.00     0.134 A 
ATOM     68  F   UNL A   1      42.673  25.570  34.207  1.00  0.00    -0.206 F 
ATOM     69  C   UNL A   1      44.194  24.806  35.815  1.00  0.00     0.040 A 
ATOM     70  C   UNL A   1      46.547  24.868  35.376  1.00  0.00     0.040 A 
ATOM     71  F   UNL A   1      47.354  25.672  33.338  1.00  0.00    -0.206 F 
ATOM     72  C   UNL A   1      45.494  24.524  36.218  1.00  0.00     0.006 A 
ENDBRANCH  44  65
BRANCH  56  73
ATOM     73  C   UNL A   1      45.650  28.526  28.153  1.00  0.00     0.057 A 
ATOM     74  C   UNL A   1      46.143  27.316  27.638  1.00  0.00     0.134 A 
ATOM     75  C   UNL A   1      46.474  29.648  28.040  1.00  0.00     0.134 A 
ATOM     76  F   UNL A   1      45.392  26.208  27.634  1.00  0.00    -0.206 F 
ATOM     77  C   UNL A   1      47.417  27.229  27.066  1.00  0.00     0.040 A 
ATOM     78  C   UNL A   1      47.733  29.581  27.446  1.00  0.00     0.040 A 
ATOM     79  F   UNL A   1      46.043  30.844  28.471  1.00  0.00    -0.206 F 
ATOM     80  C   UNL A   1      48.214  28.366  26.965  1.00  0.00     0.006 A 
ENDBRANCH  56  73
ENDBRANCH  30  31
ENDBRANCH  23  25
ENDBRANCH  22  23
ENDBRANCH  21  22
ENDBRANCH   1  21
TORSDOF 14
ENDMDL
MODEL 3
REMARK VINA RESULT:     -11.0      2.340      6.323
REMARK SMILES Cc1nn(C)c(N[C@@H]2C=C[C@H](C(=O)OCCOC(=O)c3ccc(-c4c5nc(c(-c6c(F)cccc6F)c6ccc([nH]6)c(-c6c(F)cccc6F)c6nc(c(-c7c(F)cccc7F)c7ccc4[nH]7)C=C6)C=C5)cc3)C2)c1C#N
REMARK SMILES IDX 15 1 14 2 12 3 13 4 11 5 8 6 9 7 74 8 10 9 7 10 6 12 1 13
REMARK SMILES IDX 2 14 3 15 75 16 4 17 5 18 76 19 77 20 16 21 17 22 18 23
REMARK SMILES IDX 19 24 20 25 21 26 73 27 22 28 72 29 23 30 24 31 25 32 66 33
REMARK SMILES IDX 26 34 71 35 65 36 67 37 27 38 70 39 64 40 63 41 28 43 54 44
REMARK SMILES IDX 37 45 53 46 38 47 41 48 52 49 68 50 39 51 40 52 51 54 69 55
REMARK SMILES IDX 42 56 29 57 30 58 35 59 31 60 32 61 34 62 36 63 33 64 55 65
REMARK SMILES IDX 56 66 61 67 57 68 58 69 60 70 62 71 59 72 43 73 44 74 49 75
REMARK SMILES IDX 45 76 46 77 48 78 50 79 47 80
REMARK H PARENT 7 11 67 42 41 53
REMARK Flexibility Score: inf
ROOT
ATOM      1  C   UNL A   1      40.468  21.371  26.883  1.00  0.00     0.274 C 
ENDROOT
BRANCH   1   2
ATOM      2  O   UNL A   1      39.139  20.977  26.411  1.00  0.00    -0.462 OA
BRANCH   2   3
ATOM      3  C   UNL A   1      38.394  21.953  25.794  1.00  0.00     0.312 C 
ATOM      4  O   UNL A   1      38.424  23.133  26.131  1.00  0.00    -0.252 OA
BRANCH   3   5
ATOM      5  C   UNL A   1      37.482  21.449  24.663  1.00  0.00     0.124 C 
ATOM      6  C   UNL A   1      35.288  22.605  24.475  1.00  0.00     0.104 C 
ATOM      7  C   UNL A   1      35.139  21.218  24.966  1.00  0.00    -0.006 C 
ATOM      8  C   UNL A   1      36.752  22.656  24.013  1.00  0.00     0.048 C 
ATOM      9  C   UNL A   1      36.316  20.574  25.035  1.00  0.00    -0.014 C 
BRANCH   6  10
ATOM     10  N   UNL A   1      34.832  23.703  25.332  1.00  0.00    -0.363 N 
ATOM     11  H   UNL A   1      35.596  24.195  25.711  1.00  0.00     0.162 HD
BRANCH  10  12
ATOM     12  C   UNL A   1      33.635  24.240  25.759  1.00  0.00     0.142 A 
ATOM     13  C   UNL A   1      31.170  26.898  26.558  1.00  0.00     0.070 C 
ATOM     14  C   UNL A   1      31.977  25.690  26.269  1.00  0.00     0.079 A 
ATOM     15  N   UNL A   1      31.667  24.570  26.905  1.00  0.00    -0.175 NA
ATOM     16  C   UNL A   1      33.093  25.487  25.429  1.00  0.00     0.117 A 
ATOM     17  N   UNL A   1      32.665  23.722  26.597  1.00  0.00    -0.251 N 
ATOM     18  C   UNL A   1      32.730  22.624  27.496  1.00  0.00     0.176 C 
BRANCH  16  19
ATOM     19  C   UNL A   1      33.595  26.434  24.481  1.00  0.00     0.105 C 
ATOM     20  N   UNL A   1      33.969  27.229  23.737  1.00  0.00    -0.192 NA
ENDBRANCH  16  19
ENDBRANCH  10  12
ENDBRANCH   6  10
ENDBRANCH   3   5
ENDBRANCH   2   3
ENDBRANCH   1   2
BRANCH   1  21
ATOM     21  C   UNL A   1      41.662  20.718  26.210  1.00  0.00     0.275 C 
BRANCH  21  22
ATOM     22  O   UNL A   1      42.377  21.697  25.486  1.00  0.00    -0.458 OA
BRANCH  22  23
ATOM     23  C   UNL A   1      43.682  21.382  25.338  1.00  0.00     0.338 C 
ATOM     24  O   UNL A   1      44.170  20.264  25.284  1.00  0.00    -0.246 OA
BRANCH  23  25
ATOM     25  C   UNL A   1      44.475  22.615  25.336  1.00  0.00     0.060 A 
ATOM     26  C   UNL A   1      45.199  22.791  26.512  1.00  0.00     0.016 A 
ATOM     27  C   UNL A   1      43.949  23.683  24.610  1.00  0.00     0.016 A 
ATOM     28  C   UNL A   1      44.931  23.932  27.224  1.00  0.00     0.010 A 
ATOM     29  C   UNL A   1      43.717  24.833  25.305  1.00  0.00     0.010 A 
ATOM     30  C   UNL A   1      44.064  24.871  26.657  1.00  0.00    -0.014 A 
BRANCH  30  31
ATOM     31  C   UNL A   1      43.719  26.064  27.399  1.00  0.00     0.031 A 
ATOM     32  C   UNL A   1      44.759  27.075  27.104  1.00  0.00     0.074 A 
ATOM     33  C   UNL A   1      42.565  26.202  28.087  1.00  0.00     0.049 A 
ATOM     34  N   UNL A   1      45.813  27.326  27.813  1.00  0.00    -0.248 NA
ATOM     35  C   UNL A   1      44.864  27.564  25.712  1.00  0.00     0.031 C 
ATOM     36  C   UNL A   1      41.445  25.259  28.214  1.00  0.00     0.029 A 
ATOM     37  N   UNL A   1      42.113  27.292  28.782  1.00  0.00    -0.354 N 
ATOM     38  C   UNL A   1      46.511  28.260  27.053  1.00  0.00     0.074 A 
ATOM     39  C   UNL A   1      46.113  28.033  25.700  1.00  0.00     0.031 C 
ATOM     40  C   UNL A   1      40.361  25.897  28.724  1.00  0.00     0.029 A 
ATOM     41  C   UNL A   1      40.740  27.249  29.086  1.00  0.00     0.049 A 
ATOM     42  H   UNL A   1      42.697  28.039  29.044  1.00  0.00     0.167 HD
ATOM     43  C   UNL A   1      46.884  29.439  27.624  1.00  0.00     0.037 A 
ATOM     44  C   UNL A   1      40.015  28.299  29.565  1.00  0.00     0.037 A 
ATOM     45  C   UNL A   1      46.843  29.307  29.063  1.00  0.00     0.049 A 
ATOM     46  C   UNL A   1      40.999  29.252  30.130  1.00  0.00     0.074 A 
ATOM     47  C   UNL A   1      47.546  28.609  30.021  1.00  0.00     0.029 A 
ATOM     48  N   UNL A   1      45.608  29.592  29.588  1.00  0.00    -0.354 N 
ATOM     49  N   UNL A   1      41.714  28.988  31.188  1.00  0.00    -0.248 NA
ATOM     50  C   UNL A   1      41.523  30.293  29.257  1.00  0.00     0.031 C 
ATOM     51  C   UNL A   1      46.616  28.334  31.070  1.00  0.00     0.029 A 
ATOM     52  C   UNL A   1      45.402  28.952  30.776  1.00  0.00     0.049 A 
ATOM     53  H   UNL A   1      44.949  30.185  29.160  1.00  0.00     0.167 HD
ATOM     54  C   UNL A   1      42.967  29.488  30.884  1.00  0.00     0.074 A 
ATOM     55  C   UNL A   1      42.757  30.400  29.760  1.00  0.00     0.031 C 
ATOM     56  C   UNL A   1      44.084  28.859  31.358  1.00  0.00     0.037 A 
BRANCH  43  57
ATOM     57  C   UNL A   1      46.690  30.802  26.960  1.00  0.00     0.057 A 
ATOM     58  C   UNL A   1      47.790  31.677  26.925  1.00  0.00     0.134 A 
ATOM     59  C   UNL A   1      45.457  31.411  26.621  1.00  0.00     0.134 A 
ATOM     60  F   UNL A   1      49.023  31.239  27.220  1.00  0.00    -0.206 F 
ATOM     61  C   UNL A   1      47.661  33.048  26.657  1.00  0.00     0.040 A 
ATOM     62  C   UNL A   1      45.323  32.768  26.319  1.00  0.00     0.040 A 
ATOM     63  F   UNL A   1      44.283  30.777  26.631  1.00  0.00    -0.206 F 
ATOM     64  C   UNL A   1      46.422  33.601  26.364  1.00  0.00     0.006 A 
ENDBRANCH  43  57
BRANCH  44  65
ATOM     65  C   UNL A   1      38.609  28.721  29.331  1.00  0.00     0.057 A 
ATOM     66  C   UNL A   1      37.681  28.828  30.384  1.00  0.00     0.134 A 
ATOM     67  C   UNL A   1      38.247  29.355  28.134  1.00  0.00     0.134 A 
ATOM     68  F   UNL A   1      37.950  28.297  31.586  1.00  0.00    -0.206 F 
ATOM     69  C   UNL A   1      36.483  29.551  30.261  1.00  0.00     0.040 A 
ATOM     70  C   UNL A   1      37.057  30.084  27.998  1.00  0.00     0.040 A 
ATOM     71  F   UNL A   1      39.090  29.378  27.091  1.00  0.00    -0.206 F 
ATOM     72  C   UNL A   1      36.175  30.196  29.068  1.00  0.00     0.006 A 
ENDBRANCH  44  65
BRANCH  56  73
ATOM     73  C   UNL A   1      43.901  27.909  32.506  1.00  0.00     0.057 A 
ATOM     74  C   UNL A   1      43.824  26.513  32.394  1.00  0.00     0.134 A 
ATOM     75  C   UNL A   1      43.906  28.445  33.796  1.00  0.00     0.134 A 
ATOM     76  F   UNL A   1      43.890  25.908  31.201  1.00  0.00    -0.206 F 
ATOM     77  C   UNL A   1      43.723  25.692  33.523  1.00  0.00     0.040 A 
ATOM     78  C   UNL A   1      43.836  27.638  34.929  1.00  0.00     0.040 A 
ATOM     79  F   UNL A   1      44.025  29.771  33.973  1.00  0.00    -0.206 F 
ATOM     80  C   UNL A   1      43.734  26.256  34.796  1.00  0.00     0.006 A 
ENDBRANCH  56  73
ENDBRANCH  30  31
ENDBRANCH  23  25
ENDBRANCH  22  23
ENDBRANCH  21  22
ENDBRANCH   1  21
TORSDOF 14
ENDMDL
