MODEL 1
REMARK VINA RESULT:     -11.9      0.000      0.000
REMARK SMILES NS(=O)(=O)c1ccc(/N=C/c2ccc(O)c(C(=O)OCCOC(=O)c3ccc(-c4c5nc(c(-c6c(F)cccc6F)c6ccc([nH]6)c(-c6c(F)cccc6F)c6nc(c(-c7c(F)cccc7F)c7ccc4[nH]7)C=C6)C=C5)cc3)c2)cc1
REMARK SMILES IDX 20 1 19 2 17 3 18 4 16 5 11 6 12 7 79 8 13 9 14 10 10 11
REMARK SMILES IDX 9 12 8 13 5 14 6 15 81 16 7 17 80 18 2 19 3 20 4 21 1 22
REMARK SMILES IDX 15 25 21 27 22 28 23 29 24 30 25 31 26 32 78 33 27 34 77 35
REMARK SMILES IDX 28 36 29 37 30 38 71 39 31 40 76 41 70 42 72 43 32 44 75 45
REMARK SMILES IDX 69 46 68 47 33 49 59 50 42 51 58 52 43 53 46 54 57 55 73 56
REMARK SMILES IDX 44 57 45 58 56 60 74 61 47 62 34 63 35 64 40 65 36 66 37 67
REMARK SMILES IDX 39 68 41 69 38 70 60 71 61 72 66 73 62 74 63 75 65 76 67 77
REMARK SMILES IDX 64 78 48 79 49 80 54 81 50 82 51 83 53 84 55 85 52 86
REMARK H PARENT 1 23 1 24 15 26 72 48 46 59
REMARK Flexibility Score: inf
ROOT
ATOM      1  C   UNL A   1      31.391  28.965  25.093  1.00  0.00     0.275 C 
ENDROOT
BRANCH   1   2
ATOM      2  O   UNL A   1      32.275  28.046  25.769  1.00  0.00    -0.458 OA
BRANCH   2   3
ATOM      3  C   UNL A   1      31.693  27.139  26.588  1.00  0.00     0.342 C 
ATOM      4  O   UNL A   1      30.972  27.369  27.549  1.00  0.00    -0.246 OA
BRANCH   3   5
ATOM      5  C   UNL A   1      31.912  25.758  26.102  1.00  0.00     0.102 A 
ATOM      6  C   UNL A   1      33.345  23.943  25.416  1.00  0.00    -0.006 A 
ATOM      7  C   UNL A   1      32.232  23.178  25.051  1.00  0.00     0.013 A 
ATOM      8  C   UNL A   1      33.197  25.254  25.885  1.00  0.00     0.029 A 
ATOM      9  C   UNL A   1      30.955  23.671  25.294  1.00  0.00     0.048 A 
ATOM     10  C   UNL A   1      30.804  24.921  25.886  1.00  0.00     0.130 A 
BRANCH   6  11
ATOM     11  C   UNL A   1      34.652  23.263  25.454  1.00  0.00     0.119 C 
ATOM     12  N   UNL A   1      35.753  23.937  25.519  1.00  0.00    -0.256 NA
BRANCH  12  13
ATOM     13  C   UNL A   1      36.967  23.265  25.730  1.00  0.00     0.063 A 
ATOM     14  C   UNL A   1      39.296  21.753  26.125  1.00  0.00     0.082 A 
ATOM     15  C   UNL A   1      38.219  21.194  25.437  1.00  0.00     0.024 A 
ATOM     16  C   UNL A   1      39.228  23.063  26.604  1.00  0.00     0.024 A 
ATOM     17  C   UNL A   1      37.062  21.953  25.244  1.00  0.00     0.030 A 
ATOM     18  C   UNL A   1      38.062  23.809  26.414  1.00  0.00     0.030 A 
BRANCH  14  19
ATOM     19  S   UNL A   1      40.730  20.775  26.454  1.00  0.00     0.238 S 
ATOM     20  O   UNL A   1      40.875  20.613  27.881  1.00  0.00    -0.207 OA
ATOM     21  O   UNL A   1      41.804  21.230  25.603  1.00  0.00    -0.207 OA
BRANCH  19  22
ATOM     22  N   UNL A   1      40.280  19.260  25.884  1.00  0.00    -0.225 NA
ATOM     23  H   UNL A   1      40.942  18.954  25.172  1.00  0.00     0.137 HD
ATOM     24  H   UNL A   1      39.345  19.312  25.479  1.00  0.00     0.137 HD
ENDBRANCH  19  22
ENDBRANCH  14  19
ENDBRANCH  12  13
ENDBRANCH   6  11
BRANCH  10  25
ATOM     25  O   UNL A   1      29.530  25.245  26.272  1.00  0.00    -0.507 OA
ATOM     26  H   UNL A   1      28.996  24.608  26.704  1.00  0.00     0.293 HD
ENDBRANCH  10  25
ENDBRANCH   3   5
ENDBRANCH   2   3
ENDBRANCH   1   2
BRANCH   1  27
ATOM     27  C   UNL A   1      31.632  30.403  25.556  1.00  0.00     0.275 C 
BRANCH  27  28
ATOM     28  O   UNL A   1      32.313  30.403  26.825  1.00  0.00    -0.458 OA
BRANCH  28  29
ATOM     29  C   UNL A   1      32.912  31.565  27.170  1.00  0.00     0.338 C 
ATOM     30  O   UNL A   1      32.419  32.679  27.202  1.00  0.00    -0.246 OA
BRANCH  29  31
ATOM     31  C   UNL A   1      34.290  31.297  27.607  1.00  0.00     0.060 A 
ATOM     32  C   UNL A   1      34.629  29.986  27.914  1.00  0.00     0.016 A 
ATOM     33  C   UNL A   1      35.180  32.330  27.883  1.00  0.00     0.016 A 
ATOM     34  C   UNL A   1      35.817  29.696  28.578  1.00  0.00     0.010 A 
ATOM     35  C   UNL A   1      36.415  32.031  28.476  1.00  0.00     0.010 A 
ATOM     36  C   UNL A   1      36.731  30.716  28.874  1.00  0.00    -0.014 A 
BRANCH  36  37
ATOM     37  C   UNL A   1      37.957  30.424  29.676  1.00  0.00     0.031 A 
ATOM     38  C   UNL A   1      39.073  29.608  29.073  1.00  0.00     0.074 A 
ATOM     39  C   UNL A   1      38.107  30.909  30.926  1.00  0.00     0.049 A 
ATOM     40  N   UNL A   1      40.127  29.083  29.647  1.00  0.00    -0.248 NA
ATOM     41  C   UNL A   1      38.980  29.330  27.632  1.00  0.00     0.031 C 
ATOM     42  C   UNL A   1      37.152  31.769  31.624  1.00  0.00     0.029 A 
ATOM     43  N   UNL A   1      39.131  30.753  31.830  1.00  0.00    -0.354 N 
ATOM     44  C   UNL A   1      40.779  28.358  28.657  1.00  0.00     0.074 A 
ATOM     45  C   UNL A   1      40.003  28.509  27.446  1.00  0.00     0.031 C 
ATOM     46  C   UNL A   1      37.649  32.096  32.826  1.00  0.00     0.029 A 
ATOM     47  C   UNL A   1      38.914  31.396  33.024  1.00  0.00     0.049 A 
ATOM     48  H   UNL A   1      39.943  30.229  31.639  1.00  0.00     0.167 HD
ATOM     49  C   UNL A   1      41.920  27.631  28.749  1.00  0.00     0.037 A 
ATOM     50  C   UNL A   1      39.625  31.391  34.170  1.00  0.00     0.037 A 
ATOM     51  C   UNL A   1      42.731  27.539  29.937  1.00  0.00     0.049 A 
ATOM     52  C   UNL A   1      40.877  30.565  34.258  1.00  0.00     0.074 A 
ATOM     53  C   UNL A   1      43.910  26.837  30.126  1.00  0.00     0.029 A 
ATOM     54  N   UNL A   1      42.459  28.190  31.131  1.00  0.00    -0.354 N 
ATOM     55  N   UNL A   1      41.442  29.822  33.338  1.00  0.00    -0.248 NA
ATOM     56  C   UNL A   1      41.578  30.561  35.549  1.00  0.00     0.031 C 
ATOM     57  C   UNL A   1      44.331  27.035  31.446  1.00  0.00     0.029 A 
ATOM     58  C   UNL A   1      43.442  27.899  32.063  1.00  0.00     0.049 A 
ATOM     59  H   UNL A   1      41.682  28.772  31.293  1.00  0.00     0.167 HD
ATOM     60  C   UNL A   1      42.573  29.276  33.932  1.00  0.00     0.074 A 
ATOM     61  C   UNL A   1      42.622  29.788  35.287  1.00  0.00     0.031 C 
ATOM     62  C   UNL A   1      43.485  28.423  33.405  1.00  0.00     0.037 A 
BRANCH  49  63
ATOM     63  C   UNL A   1      42.335  26.838  27.542  1.00  0.00     0.057 A 
ATOM     64  C   UNL A   1      42.027  25.480  27.391  1.00  0.00     0.134 A 
ATOM     65  C   UNL A   1      43.046  27.456  26.504  1.00  0.00     0.134 A 
ATOM     66  F   UNL A   1      41.361  24.823  28.352  1.00  0.00    -0.206 F 
ATOM     67  C   UNL A   1      42.441  24.758  26.269  1.00  0.00     0.040 A 
ATOM     68  C   UNL A   1      43.440  26.752  25.365  1.00  0.00     0.040 A 
ATOM     69  F   UNL A   1      43.366  28.756  26.578  1.00  0.00    -0.206 F 
ATOM     70  C   UNL A   1      43.146  25.395  25.249  1.00  0.00     0.006 A 
ENDBRANCH  49  63
BRANCH  50  71
ATOM     71  C   UNL A   1      39.144  32.168  35.341  1.00  0.00     0.057 A 
ATOM     72  C   UNL A   1      39.471  33.518  35.502  1.00  0.00     0.134 A 
ATOM     73  C   UNL A   1      38.337  31.579  36.324  1.00  0.00     0.134 A 
ATOM     74  F   UNL A   1      40.261  34.133  34.609  1.00  0.00    -0.206 F 
ATOM     75  C   UNL A   1      39.018  34.255  36.599  1.00  0.00     0.040 A 
ATOM     76  C   UNL A   1      37.854  32.311  37.410  1.00  0.00     0.040 A 
ATOM     77  F   UNL A   1      37.989  30.287  36.231  1.00  0.00    -0.206 F 
ATOM     78  C   UNL A   1      38.199  33.653  37.552  1.00  0.00     0.006 A 
ENDBRANCH  50  71
BRANCH  62  79
ATOM     79  C   UNL A   1      44.639  28.029  34.279  1.00  0.00     0.057 A 
ATOM     80  C   UNL A   1      45.819  28.780  34.335  1.00  0.00     0.134 A 
ATOM     81  C   UNL A   1      44.555  26.893  35.096  1.00  0.00     0.134 A 
ATOM     82  F   UNL A   1      45.968  29.871  33.567  1.00  0.00    -0.206 F 
ATOM     83  C   UNL A   1      46.885  28.403  35.154  1.00  0.00     0.040 A 
ATOM     84  C   UNL A   1      45.604  26.520  35.937  1.00  0.00     0.040 A 
ATOM     85  F   UNL A   1      43.449  26.135  35.095  1.00  0.00    -0.206 F 
ATOM     86  C   UNL A   1      46.776  27.273  35.962  1.00  0.00     0.006 A 
ENDBRANCH  62  79
ENDBRANCH  36  37
ENDBRANCH  29  31
ENDBRANCH  28  29
ENDBRANCH  27  28
ENDBRANCH   1  27
TORSDOF 16
ENDMDL
MODEL 2
REMARK VINA RESULT:     -11.9      4.444      9.193
REMARK SMILES NS(=O)(=O)c1ccc(/N=C/c2ccc(O)c(C(=O)OCCOC(=O)c3ccc(-c4c5nc(c(-c6c(F)cccc6F)c6ccc([nH]6)c(-c6c(F)cccc6F)c6nc(c(-c7c(F)cccc7F)c7ccc4[nH]7)C=C6)C=C5)cc3)c2)cc1
REMARK SMILES IDX 20 1 19 2 17 3 18 4 16 5 11 6 12 7 79 8 13 9 14 10 10 11
REMARK SMILES IDX 9 12 8 13 5 14 6 15 81 16 7 17 80 18 2 19 3 20 4 21 1 22
REMARK SMILES IDX 15 25 21 27 22 28 23 29 24 30 25 31 26 32 78 33 27 34 77 35
REMARK SMILES IDX 28 36 29 37 30 38 71 39 31 40 76 41 70 42 72 43 32 44 75 45
REMARK SMILES IDX 69 46 68 47 33 49 59 50 42 51 58 52 43 53 46 54 57 55 73 56
REMARK SMILES IDX 44 57 45 58 56 60 74 61 47 62 34 63 35 64 40 65 36 66 37 67
REMARK SMILES IDX 39 68 41 69 38 70 60 71 61 72 66 73 62 74 63 75 65 76 67 77
REMARK SMILES IDX 64 78 48 79 49 80 54 81 50 82 51 83 53 84 55 85 52 86
REMARK H PARENT 1 23 1 24 15 26 72 48 46 59
REMARK Flexibility Score: inf
ROOT
ATOM      1  C   UNL A   1      34.769  35.499  33.405  1.00  0.00     0.275 C 
ENDROOT
BRANCH   1   2
ATOM      2  O   UNL A   1      33.467  35.140  32.896  1.00  0.00    -0.458 OA
BRANCH   2   3
ATOM      3  C   UNL A   1      32.840  36.065  32.133  1.00  0.00     0.342 C 
ATOM      4  O   UNL A   1      32.173  37.013  32.522  1.00  0.00    -0.246 OA
BRANCH   3   5
ATOM      5  C   UNL A   1      33.170  35.891  30.699  1.00  0.00     0.102 A 
ATOM      6  C   UNL A   1      33.560  34.520  28.755  1.00  0.00    -0.006 A 
ATOM      7  C   UNL A   1      33.934  35.645  28.013  1.00  0.00     0.013 A 
ATOM      8  C   UNL A   1      33.235  34.625  30.113  1.00  0.00     0.029 A 
ATOM      9  C   UNL A   1      33.841  36.906  28.592  1.00  0.00     0.048 A 
ATOM     10  C   UNL A   1      33.388  37.027  29.902  1.00  0.00     0.130 A 
BRANCH   6  11
ATOM     11  C   UNL A   1      33.354  33.260  28.018  1.00  0.00     0.119 C 
ATOM     12  N   UNL A   1      34.207  32.293  28.098  1.00  0.00    -0.256 NA
BRANCH  12  13
ATOM     13  C   UNL A   1      33.899  31.047  27.528  1.00  0.00     0.063 A 
ATOM     14  C   UNL A   1      33.095  28.603  26.414  1.00  0.00     0.082 A 
ATOM     15  C   UNL A   1      32.204  29.676  26.438  1.00  0.00     0.024 A 
ATOM     16  C   UNL A   1      34.386  28.741  26.926  1.00  0.00     0.024 A 
ATOM     17  C   UNL A   1      32.612  30.890  26.995  1.00  0.00     0.030 A 
ATOM     18  C   UNL A   1      34.779  29.958  27.489  1.00  0.00     0.030 A 
BRANCH  14  19
ATOM     19  S   UNL A   1      32.564  27.035  25.795  1.00  0.00     0.238 S 
ATOM     20  O   UNL A   1      33.616  26.066  25.992  1.00  0.00    -0.207 OA
ATOM     21  O   UNL A   1      31.913  27.238  24.522  1.00  0.00    -0.207 OA
BRANCH  19  22
ATOM     22  N   UNL A   1      31.358  26.600  26.882  1.00  0.00    -0.225 NA
ATOM     23  H   UNL A   1      31.675  26.784  27.833  1.00  0.00     0.137 HD
ATOM     24  H   UNL A   1      31.150  25.606  26.779  1.00  0.00     0.137 HD
ENDBRANCH  19  22
ENDBRANCH  14  19
ENDBRANCH  12  13
ENDBRANCH   6  11
BRANCH  10  25
ATOM     25  O   UNL A   1      33.136  38.305  30.327  1.00  0.00    -0.507 OA
ATOM     26  H   UNL A   1      33.489  38.605  31.141  1.00  0.00     0.293 HD
ENDBRANCH  10  25
ENDBRANCH   3   5
ENDBRANCH   2   3
ENDBRANCH   1   2
BRANCH   1  27
ATOM     27  C   UNL A   1      35.620  34.255  33.668  1.00  0.00     0.275 C 
BRANCH  27  28
ATOM     28  O   UNL A   1      36.102  33.716  32.423  1.00  0.00    -0.458 OA
BRANCH  28  29
ATOM     29  C   UNL A   1      35.562  32.535  32.046  1.00  0.00     0.338 C 
ATOM     30  O   UNL A   1      34.402  32.176  32.150  1.00  0.00    -0.246 OA
BRANCH  29  31
ATOM     31  C   UNL A   1      36.586  31.716  31.381  1.00  0.00     0.060 A 
ATOM     32  C   UNL A   1      37.438  30.967  32.183  1.00  0.00     0.016 A 
ATOM     33  C   UNL A   1      36.824  31.817  30.015  1.00  0.00     0.016 A 
ATOM     34  C   UNL A   1      38.583  30.384  31.651  1.00  0.00     0.010 A 
ATOM     35  C   UNL A   1      37.933  31.158  29.461  1.00  0.00     0.010 A 
ATOM     36  C   UNL A   1      38.853  30.472  30.280  1.00  0.00    -0.014 A 
BRANCH  36  37
ATOM     37  C   UNL A   1      40.132  29.936  29.724  1.00  0.00     0.031 A 
ATOM     38  C   UNL A   1      41.349  30.824  29.646  1.00  0.00     0.074 A 
ATOM     39  C   UNL A   1      40.235  28.653  29.320  1.00  0.00     0.049 A 
ATOM     40  N   UNL A   1      42.489  30.624  29.034  1.00  0.00    -0.248 NA
ATOM     41  C   UNL A   1      41.263  32.118  30.338  1.00  0.00     0.031 C 
ATOM     42  C   UNL A   1      39.172  27.650  29.392  1.00  0.00     0.029 A 
ATOM     43  N   UNL A   1      41.295  27.969  28.773  1.00  0.00    -0.354 N 
ATOM     44  C   UNL A   1      43.224  31.792  29.205  1.00  0.00     0.074 A 
ATOM     45  C   UNL A   1      42.400  32.696  29.979  1.00  0.00     0.031 C 
ATOM     46  C   UNL A   1      39.643  26.475  28.948  1.00  0.00     0.029 A 
ATOM     47  C   UNL A   1      41.010  26.659  28.472  1.00  0.00     0.049 A 
ATOM     48  H   UNL A   1      42.176  28.379  28.612  1.00  0.00     0.167 HD
ATOM     49  C   UNL A   1      44.470  32.084  28.758  1.00  0.00     0.037 A 
ATOM     50  C   UNL A   1      41.743  25.720  27.842  1.00  0.00     0.037 A 
ATOM     51  C   UNL A   1      45.317  31.159  28.051  1.00  0.00     0.049 A 
ATOM     52  C   UNL A   1      43.115  26.069  27.338  1.00  0.00     0.074 A 
ATOM     53  C   UNL A   1      46.599  31.358  27.565  1.00  0.00     0.029 A 
ATOM     54  N   UNL A   1      44.976  29.849  27.747  1.00  0.00    -0.354 N 
ATOM     55  N   UNL A   1      43.768  27.200  27.438  1.00  0.00    -0.248 NA
ATOM     56  C   UNL A   1      43.842  25.017  26.615  1.00  0.00     0.031 C 
ATOM     57  C   UNL A   1      47.019  30.179  26.938  1.00  0.00     0.029 A 
ATOM     58  C   UNL A   1      46.018  29.232  27.074  1.00  0.00     0.049 A 
ATOM     59  H   UNL A   1      44.119  29.422  27.975  1.00  0.00     0.167 HD
ATOM     60  C   UNL A   1      44.988  26.993  26.808  1.00  0.00     0.074 A 
ATOM     61  C   UNL A   1      44.991  25.621  26.344  1.00  0.00     0.031 C 
ATOM     62  C   UNL A   1      46.012  27.862  26.626  1.00  0.00     0.037 A 
BRANCH  49  63
ATOM     63  C   UNL A   1      44.975  33.482  28.983  1.00  0.00     0.057 A 
ATOM     64  C   UNL A   1      44.732  34.524  28.079  1.00  0.00     0.134 A 
ATOM     65  C   UNL A   1      45.708  33.789  30.136  1.00  0.00     0.134 A 
ATOM     66  F   UNL A   1      44.048  34.298  26.947  1.00  0.00    -0.206 F 
ATOM     67  C   UNL A   1      45.229  35.812  28.298  1.00  0.00     0.040 A 
ATOM     68  C   UNL A   1      46.185  35.078  30.381  1.00  0.00     0.040 A 
ATOM     69  F   UNL A   1      45.970  32.842  31.049  1.00  0.00    -0.206 F 
ATOM     70  C   UNL A   1      45.954  36.092  29.455  1.00  0.00     0.006 A 
ENDBRANCH  49  63
BRANCH  50  71
ATOM     71  C   UNL A   1      41.174  24.365  27.619  1.00  0.00     0.057 A 
ATOM     72  C   UNL A   1      40.186  24.142  26.654  1.00  0.00     0.134 A 
ATOM     73  C   UNL A   1      41.613  23.260  28.360  1.00  0.00     0.134 A 
ATOM     74  F   UNL A   1      39.705  25.164  25.931  1.00  0.00    -0.206 F 
ATOM     75  C   UNL A   1      39.651  22.870  26.436  1.00  0.00     0.040 A 
ATOM     76  C   UNL A   1      41.108  21.979  28.133  1.00  0.00     0.040 A 
ATOM     77  F   UNL A   1      42.556  23.407  29.302  1.00  0.00    -0.206 F 
ATOM     78  C   UNL A   1      40.119  21.783  27.172  1.00  0.00     0.006 A 
ENDBRANCH  50  71
BRANCH  62  79
ATOM     79  C   UNL A   1      47.238  27.341  25.936  1.00  0.00     0.057 A 
ATOM     80  C   UNL A   1      47.413  27.451  24.552  1.00  0.00     0.134 A 
ATOM     81  C   UNL A   1      48.268  26.743  26.674  1.00  0.00     0.134 A 
ATOM     82  F   UNL A   1      46.458  28.001  23.786  1.00  0.00    -0.206 F 
ATOM     83  C   UNL A   1      48.560  26.962  23.921  1.00  0.00     0.040 A 
ATOM     84  C   UNL A   1      49.428  26.273  26.058  1.00  0.00     0.040 A 
ATOM     85  F   UNL A   1      48.166  26.613  28.005  1.00  0.00    -0.206 F 
ATOM     86  C   UNL A   1      49.574  26.376  24.676  1.00  0.00     0.006 A 
ENDBRANCH  62  79
ENDBRANCH  36  37
ENDBRANCH  29  31
ENDBRANCH  28  29
ENDBRANCH  27  28
ENDBRANCH   1  27
TORSDOF 16
ENDMDL
MODEL 3
REMARK VINA RESULT:     -11.7      2.331      8.286
REMARK SMILES NS(=O)(=O)c1ccc(/N=C/c2ccc(O)c(C(=O)OCCOC(=O)c3ccc(-c4c5nc(c(-c6c(F)cccc6F)c6ccc([nH]6)c(-c6c(F)cccc6F)c6nc(c(-c7c(F)cccc7F)c7ccc4[nH]7)C=C6)C=C5)cc3)c2)cc1
REMARK SMILES IDX 20 1 19 2 17 3 18 4 16 5 11 6 12 7 79 8 13 9 14 10 10 11
REMARK SMILES IDX 9 12 8 13 5 14 6 15 81 16 7 17 80 18 2 19 3 20 4 21 1 22
REMARK SMILES IDX 15 25 21 27 22 28 23 29 24 30 25 31 26 32 78 33 27 34 77 35
REMARK SMILES IDX 28 36 29 37 30 38 71 39 31 40 76 41 70 42 72 43 32 44 75 45
REMARK SMILES IDX 69 46 68 47 33 49 59 50 42 51 58 52 43 53 46 54 57 55 73 56
REMARK SMILES IDX 44 57 45 58 56 60 74 61 47 62 34 63 35 64 40 65 36 66 37 67
REMARK SMILES IDX 39 68 41 69 38 70 60 71 61 72 66 73 62 74 63 75 65 76 67 77
REMARK SMILES IDX 64 78 48 79 49 80 54 81 50 82 51 83 53 84 55 85 52 86
REMARK H PARENT 1 23 1 24 15 26 72 48 46 59
REMARK Flexibility Score: inf
ROOT
ATOM      1  C   UNL A   1      42.666  20.832  26.142  1.00  0.00     0.275 C 
ENDROOT
BRANCH   1   2
ATOM      2  O   UNL A   1      41.344  21.134  25.649  1.00  0.00    -0.458 OA
BRANCH   2   3
ATOM      3  C   UNL A   1      40.363  21.245  26.575  1.00  0.00     0.342 C 
ATOM      4  O   UNL A   1      40.499  21.483  27.767  1.00  0.00    -0.246 OA
BRANCH   3   5
ATOM      5  C   UNL A   1      39.023  21.186  25.949  1.00  0.00     0.102 A 
ATOM      6  C   UNL A   1      36.973  22.216  25.204  1.00  0.00    -0.006 A 
ATOM      7  C   UNL A   1      36.443  20.964  24.875  1.00  0.00     0.013 A 
ATOM      8  C   UNL A   1      38.237  22.331  25.796  1.00  0.00     0.029 A 
ATOM      9  C   UNL A   1      37.237  19.831  25.002  1.00  0.00     0.048 A 
ATOM     10  C   UNL A   1      38.543  19.957  25.464  1.00  0.00     0.130 A 
BRANCH   6  11
ATOM     11  C   UNL A   1      36.235  23.407  24.748  1.00  0.00     0.119 C 
ATOM     12  N   UNL A   1      34.960  23.512  24.930  1.00  0.00    -0.256 NA
BRANCH  12  13
ATOM     13  C   UNL A   1      34.315  24.726  24.644  1.00  0.00     0.063 A 
ATOM     14  C   UNL A   1      32.952  27.145  24.253  1.00  0.00     0.082 A 
ATOM     15  C   UNL A   1      33.206  26.698  25.550  1.00  0.00     0.024 A 
ATOM     16  C   UNL A   1      33.384  26.405  23.150  1.00  0.00     0.024 A 
ATOM     17  C   UNL A   1      33.885  25.493  25.736  1.00  0.00     0.030 A 
ATOM     18  C   UNL A   1      34.055  25.195  23.350  1.00  0.00     0.030 A 
BRANCH  14  19
ATOM     19  S   UNL A   1      32.016  28.622  24.001  1.00  0.00     0.238 S 
ATOM     20  O   UNL A   1      32.628  29.702  24.737  1.00  0.00    -0.207 OA
ATOM     21  O   UNL A   1      30.612  28.301  24.101  1.00  0.00    -0.207 OA
BRANCH  19  22
ATOM     22  N   UNL A   1      32.310  28.972  22.383  1.00  0.00    -0.225 NA
ATOM     23  H   UNL A   1      33.108  29.603  22.312  1.00  0.00     0.137 HD
ATOM     24  H   UNL A   1      31.487  29.418  21.977  1.00  0.00     0.137 HD
ENDBRANCH  19  22
ENDBRANCH  14  19
ENDBRANCH  12  13
ENDBRANCH   6  11
BRANCH  10  25
ATOM     25  O   UNL A   1      39.319  18.832  25.371  1.00  0.00    -0.507 OA
ATOM     26  H   UNL A   1      38.917  17.997  25.229  1.00  0.00     0.293 HD
ENDBRANCH  10  25
ENDBRANCH   3   5
ENDBRANCH   2   3
ENDBRANCH   1   2
BRANCH   1  27
ATOM     27  C   UNL A   1      43.718  21.725  25.480  1.00  0.00     0.275 C 
BRANCH  27  28
ATOM     28  O   UNL A   1      43.084  22.872  24.885  1.00  0.00    -0.458 OA
BRANCH  28  29
ATOM     29  C   UNL A   1      43.757  24.039  24.996  1.00  0.00     0.338 C 
ATOM     30  O   UNL A   1      44.777  24.372  24.417  1.00  0.00    -0.246 OA
BRANCH  29  31
ATOM     31  C   UNL A   1      43.025  24.946  25.891  1.00  0.00     0.060 A 
ATOM     32  C   UNL A   1      43.392  26.286  25.897  1.00  0.00     0.016 A 
ATOM     33  C   UNL A   1      42.122  24.467  26.834  1.00  0.00     0.016 A 
ATOM     34  C   UNL A   1      42.935  27.143  26.893  1.00  0.00     0.010 A 
ATOM     35  C   UNL A   1      41.593  25.349  27.788  1.00  0.00     0.010 A 
ATOM     36  C   UNL A   1      42.028  26.688  27.859  1.00  0.00    -0.014 A 
BRANCH  36  37
ATOM     37  C   UNL A   1      41.616  27.576  28.988  1.00  0.00     0.031 A 
ATOM     38  C   UNL A   1      42.406  27.575  30.272  1.00  0.00     0.074 A 
ATOM     39  C   UNL A   1      40.566  28.415  28.870  1.00  0.00     0.049 A 
ATOM     40  N   UNL A   1      42.117  28.117  31.430  1.00  0.00    -0.248 NA
ATOM     41  C   UNL A   1      43.685  26.850  30.257  1.00  0.00     0.031 C 
ATOM     42  C   UNL A   1      39.743  28.584  27.672  1.00  0.00     0.029 A 
ATOM     43  N   UNL A   1      40.015  29.292  29.774  1.00  0.00    -0.354 N 
ATOM     44  C   UNL A   1      43.139  27.739  32.293  1.00  0.00     0.074 A 
ATOM     45  C   UNL A   1      44.055  26.921  31.527  1.00  0.00     0.031 C 
ATOM     46  C   UNL A   1      38.822  29.532  27.900  1.00  0.00     0.029 A 
ATOM     47  C   UNL A   1      38.926  29.973  29.287  1.00  0.00     0.049 A 
ATOM     48  H   UNL A   1      40.368  29.420  30.684  1.00  0.00     0.167 HD
ATOM     49  C   UNL A   1      43.299  28.045  33.605  1.00  0.00     0.037 A 
ATOM     50  C   UNL A   1      38.074  30.823  29.894  1.00  0.00     0.037 A 
ATOM     51  C   UNL A   1      42.427  28.918  34.347  1.00  0.00     0.049 A 
ATOM     52  C   UNL A   1      38.258  31.135  31.353  1.00  0.00     0.074 A 
ATOM     53  C   UNL A   1      42.511  29.297  35.677  1.00  0.00     0.029 A 
ATOM     54  N   UNL A   1      41.321  29.567  33.818  1.00  0.00    -0.354 N 
ATOM     55  N   UNL A   1      39.183  30.711  32.178  1.00  0.00    -0.248 NA
ATOM     56  C   UNL A   1      37.266  32.028  31.968  1.00  0.00     0.031 C 
ATOM     57  C   UNL A   1      41.436  30.148  35.959  1.00  0.00     0.029 A 
ATOM     58  C   UNL A   1      40.711  30.337  34.795  1.00  0.00     0.049 A 
ATOM     59  H   UNL A   1      41.015  29.491  32.885  1.00  0.00     0.167 HD
ATOM     60  C   UNL A   1      38.897  31.297  33.405  1.00  0.00     0.074 A 
ATOM     61  C   UNL A   1      37.721  32.121  33.210  1.00  0.00     0.031 C 
ATOM     62  C   UNL A   1      39.547  31.160  34.586  1.00  0.00     0.037 A 
BRANCH  49  63
ATOM     63  C   UNL A   1      44.440  27.391  34.333  1.00  0.00     0.057 A 
ATOM     64  C   UNL A   1      44.325  26.133  34.937  1.00  0.00     0.134 A 
ATOM     65  C   UNL A   1      45.682  28.035  34.417  1.00  0.00     0.134 A 
ATOM     66  F   UNL A   1      43.161  25.468  34.906  1.00  0.00    -0.206 F 
ATOM     67  C   UNL A   1      45.393  25.554  35.627  1.00  0.00     0.040 A 
ATOM     68  C   UNL A   1      46.766  27.453  35.079  1.00  0.00     0.040 A 
ATOM     69  F   UNL A   1      45.866  29.238  33.853  1.00  0.00    -0.206 F 
ATOM     70  C   UNL A   1      46.620  26.213  35.694  1.00  0.00     0.006 A 
ENDBRANCH  49  63
BRANCH  50  71
ATOM     71  C   UNL A   1      36.944  31.410  29.129  1.00  0.00     0.057 A 
ATOM     72  C   UNL A   1      35.804  30.658  28.826  1.00  0.00     0.134 A 
ATOM     73  C   UNL A   1      36.974  32.740  28.690  1.00  0.00     0.134 A 
ATOM     74  F   UNL A   1      35.725  29.371  29.195  1.00  0.00    -0.206 F 
ATOM     75  C   UNL A   1      34.736  31.205  28.110  1.00  0.00     0.040 A 
ATOM     76  C   UNL A   1      35.902  33.308  28.000  1.00  0.00     0.040 A 
ATOM     77  F   UNL A   1      38.039  33.514  28.946  1.00  0.00    -0.206 F 
ATOM     78  C   UNL A   1      34.780  32.538  27.704  1.00  0.00     0.006 A 
ENDBRANCH  50  71
BRANCH  62  79
ATOM     79  C   UNL A   1      39.028  31.955  35.748  1.00  0.00     0.057 A 
ATOM     80  C   UNL A   1      39.369  33.300  35.938  1.00  0.00     0.134 A 
ATOM     81  C   UNL A   1      38.156  31.371  36.675  1.00  0.00     0.134 A 
ATOM     82  F   UNL A   1      40.211  33.914  35.094  1.00  0.00    -0.206 F 
ATOM     83  C   UNL A   1      38.878  34.030  37.023  1.00  0.00     0.040 A 
ATOM     84  C   UNL A   1      37.640  32.097  37.749  1.00  0.00     0.040 A 
ATOM     85  F   UNL A   1      37.784  30.089  36.546  1.00  0.00    -0.206 F 
ATOM     86  C   UNL A   1      38.006  33.429  37.929  1.00  0.00     0.006 A 
ENDBRANCH  62  79
ENDBRANCH  36  37
ENDBRANCH  29  31
ENDBRANCH  28  29
ENDBRANCH  27  28
ENDBRANCH   1  27
TORSDOF 16
ENDMDL
