MODEL 1
REMARK VINA RESULT:     -11.1      0.000      0.000
REMARK SMILES C=Cc1cncc(-c2ccc([C@@H](C)C(=O)OCCOC(=O)c3ccc(-c4c5nc(c(-c6c(F)cccc6F)c6ccc([nH]6)c(-c6c(F)cccc6F)c6nc(c(-c7c(F)cccc7F)c7ccc4[nH]7)C=C6)C=C5)cc3)cc2)c1
REMARK SMILES IDX 17 1 16 2 14 3 15 4 12 5 13 6 11 7 8 8 9 9 77 10 10 11 76 12
REMARK SMILES IDX 7 13 3 14 4 15 78 16 5 17 6 18 2 19 1 20 18 21 19 22 20 23
REMARK SMILES IDX 21 24 22 25 23 26 75 27 24 28 74 29 25 30 26 31 27 32 68 33
REMARK SMILES IDX 28 34 73 35 67 36 69 37 29 38 72 39 66 40 65 41 30 43 56 44
REMARK SMILES IDX 39 45 55 46 40 47 43 48 54 49 70 50 41 51 42 52 53 54 71 55
REMARK SMILES IDX 44 56 31 57 32 58 37 59 33 60 34 61 36 62 38 63 35 64 57 65
REMARK SMILES IDX 58 66 63 67 59 68 60 69 62 70 64 71 61 72 45 73 46 74 51 75
REMARK SMILES IDX 47 76 48 77 50 78 52 79 49 80
REMARK H PARENT 69 42 43 53
REMARK Flexibility Score: inf
ROOT
ATOM      1  C   UNL A   1      43.660  22.025  25.378  1.00  0.00     0.274 C 
ENDROOT
BRANCH   1   2
ATOM      2  O   UNL A   1      42.234  22.056  25.564  1.00  0.00    -0.462 OA
BRANCH   2   3
ATOM      3  C   UNL A   1      41.764  21.712  26.789  1.00  0.00     0.313 C 
ATOM      4  O   UNL A   1      42.344  21.949  27.845  1.00  0.00    -0.252 OA
BRANCH   3   5
ATOM      5  C   UNL A   1      40.436  20.965  26.750  1.00  0.00     0.126 C 
ATOM      6  C   UNL A   1      40.629  19.603  26.084  1.00  0.00     0.025 C 
BRANCH   5   7
ATOM      7  C   UNL A   1      39.256  21.734  26.174  1.00  0.00    -0.034 A 
ATOM      8  C   UNL A   1      37.017  23.179  25.182  1.00  0.00    -0.017 A 
ATOM      9  C   UNL A   1      37.272  21.861  24.774  1.00  0.00     0.009 A 
ATOM     10  C   UNL A   1      37.921  23.773  26.074  1.00  0.00     0.009 A 
ATOM     11  C   UNL A   1      38.369  21.148  25.264  1.00  0.00     0.005 A 
ATOM     12  C   UNL A   1      39.023  23.063  26.564  1.00  0.00     0.005 A 
BRANCH   8  13
ATOM     13  C   UNL A   1      35.818  23.887  24.718  1.00  0.00     0.001 A 
ATOM     14  C   UNL A   1      34.030  25.517  24.997  1.00  0.00    -0.007 A 
ATOM     15  C   UNL A   1      33.573  25.140  23.737  1.00  0.00     0.119 A 
ATOM     16  C   UNL A   1      35.166  24.860  25.489  1.00  0.00     0.020 A 
ATOM     17  N   UNL A   1      34.161  24.208  22.955  1.00  0.00    -0.263 NA
ATOM     18  C   UNL A   1      35.263  23.610  23.466  1.00  0.00     0.119 A 
BRANCH  14  19
ATOM     19  C   UNL A   1      33.290  26.525  25.763  1.00  0.00     0.002 C 
ATOM     20  C   UNL A   1      33.711  27.782  25.954  1.00  0.00     0.009 C 
ENDBRANCH  14  19
ENDBRANCH   8  13
ENDBRANCH   5   7
ENDBRANCH   3   5
ENDBRANCH   2   3
ENDBRANCH   1   2
BRANCH   1  21
ATOM     21  C   UNL A   1      44.096  23.113  24.398  1.00  0.00     0.275 C 
BRANCH  21  22
ATOM     22  O   UNL A   1      43.464  24.363  24.726  1.00  0.00    -0.458 OA
BRANCH  22  23
ATOM     23  C   UNL A   1      44.290  25.343  25.159  1.00  0.00     0.338 C 
ATOM     24  O   UNL A   1      45.347  25.707  24.681  1.00  0.00    -0.246 OA
BRANCH  23  25
ATOM     25  C   UNL A   1      43.669  25.987  26.323  1.00  0.00     0.060 A 
ATOM     26  C   UNL A   1      44.106  27.256  26.705  1.00  0.00     0.016 A 
ATOM     27  C   UNL A   1      42.696  25.314  27.060  1.00  0.00     0.016 A 
ATOM     28  C   UNL A   1      43.569  27.867  27.834  1.00  0.00     0.010 A 
ATOM     29  C   UNL A   1      42.140  25.937  28.181  1.00  0.00     0.010 A 
ATOM     30  C   UNL A   1      42.575  27.216  28.575  1.00  0.00    -0.014 A 
BRANCH  30  31
ATOM     31  C   UNL A   1      41.981  27.869  29.763  1.00  0.00     0.031 A 
ATOM     32  C   UNL A   1      40.732  28.687  29.624  1.00  0.00     0.074 A 
ATOM     33  C   UNL A   1      42.579  27.737  30.962  1.00  0.00     0.049 A 
ATOM     34  N   UNL A   1      40.144  29.452  30.507  1.00  0.00    -0.248 NA
ATOM     35  C   UNL A   1      40.056  28.637  28.319  1.00  0.00     0.031 C 
ATOM     36  C   UNL A   1      43.769  26.928  31.227  1.00  0.00     0.029 A 
ATOM     37  N   UNL A   1      42.272  28.293  32.177  1.00  0.00    -0.354 N 
ATOM     38  C   UNL A   1      39.042  29.995  29.860  1.00  0.00     0.074 A 
ATOM     39  C   UNL A   1      39.049  29.479  28.506  1.00  0.00     0.031 C 
ATOM     40  C   UNL A   1      44.096  27.045  32.524  1.00  0.00     0.029 A 
ATOM     41  C   UNL A   1      43.175  27.981  33.164  1.00  0.00     0.049 A 
ATOM     42  H   UNL A   1      41.483  28.862  32.328  1.00  0.00     0.167 HD
ATOM     43  C   UNL A   1      38.112  30.845  30.354  1.00  0.00     0.037 A 
ATOM     44  C   UNL A   1      43.275  28.432  34.427  1.00  0.00     0.037 A 
ATOM     45  C   UNL A   1      38.107  31.343  31.705  1.00  0.00     0.049 A 
ATOM     46  C   UNL A   1      42.285  29.446  34.923  1.00  0.00     0.074 A 
ATOM     47  C   UNL A   1      37.192  32.185  32.311  1.00  0.00     0.029 A 
ATOM     48  N   UNL A   1      39.069  31.045  32.658  1.00  0.00    -0.354 N 
ATOM     49  N   UNL A   1      41.251  29.962  34.303  1.00  0.00    -0.248 NA
ATOM     50  C   UNL A   1      42.487  29.958  36.286  1.00  0.00     0.031 C 
ATOM     51  C   UNL A   1      37.624  32.432  33.619  1.00  0.00     0.029 A 
ATOM     52  C   UNL A   1      38.789  31.713  33.838  1.00  0.00     0.049 A 
ATOM     53  H   UNL A   1      39.838  30.447  32.516  1.00  0.00     0.167 HD
ATOM     54  C   UNL A   1      40.676  30.853  35.199  1.00  0.00     0.074 A 
ATOM     55  C   UNL A   1      41.465  30.794  36.413  1.00  0.00     0.031 C 
ATOM     56  C   UNL A   1      39.594  31.650  35.030  1.00  0.00     0.037 A 
BRANCH  43  57
ATOM     57  C   UNL A   1      37.041  31.316  29.417  1.00  0.00     0.057 A 
ATOM     58  C   UNL A   1      37.072  32.590  28.838  1.00  0.00     0.134 A 
ATOM     59  C   UNL A   1      35.981  30.470  29.067  1.00  0.00     0.134 A 
ATOM     60  F   UNL A   1      38.053  33.453  29.143  1.00  0.00    -0.206 F 
ATOM     61  C   UNL A   1      36.073  33.014  27.958  1.00  0.00     0.040 A 
ATOM     62  C   UNL A   1      34.988  30.876  28.174  1.00  0.00     0.040 A 
ATOM     63  F   UNL A   1      35.895  29.236  29.585  1.00  0.00    -0.206 F 
ATOM     64  C   UNL A   1      35.030  32.153  27.620  1.00  0.00     0.006 A 
ENDBRANCH  43  57
BRANCH  44  65
ATOM     65  C   UNL A   1      44.385  27.964  35.293  1.00  0.00     0.057 A 
ATOM     66  C   UNL A   1      45.575  28.690  35.399  1.00  0.00     0.134 A 
ATOM     67  C   UNL A   1      44.279  26.782  36.037  1.00  0.00     0.134 A 
ATOM     68  F   UNL A   1      45.744  29.816  34.692  1.00  0.00    -0.206 F 
ATOM     69  C   UNL A   1      46.623  28.256  36.213  1.00  0.00     0.040 A 
ATOM     70  C   UNL A   1      45.310  26.349  36.871  1.00  0.00     0.040 A 
ATOM     71  F   UNL A   1      43.163  26.040  35.975  1.00  0.00    -0.206 F 
ATOM     72  C   UNL A   1      46.488  27.086  36.957  1.00  0.00     0.006 A 
ENDBRANCH  44  65
BRANCH  56  73
ATOM     73  C   UNL A   1      39.203  32.520  36.186  1.00  0.00     0.057 A 
ATOM     74  C   UNL A   1      38.320  32.068  37.175  1.00  0.00     0.134 A 
ATOM     75  C   UNL A   1      39.742  33.804  36.333  1.00  0.00     0.134 A 
ATOM     76  F   UNL A   1      37.759  30.853  37.080  1.00  0.00    -0.206 F 
ATOM     77  C   UNL A   1      37.977  32.869  38.265  1.00  0.00     0.040 A 
ATOM     78  C   UNL A   1      39.423  34.606  37.429  1.00  0.00     0.040 A 
ATOM     79  F   UNL A   1      40.596  34.292  35.422  1.00  0.00    -0.206 F 
ATOM     80  C   UNL A   1      38.535  34.139  38.397  1.00  0.00     0.006 A 
ENDBRANCH  56  73
ENDBRANCH  30  31
ENDBRANCH  23  25
ENDBRANCH  22  23
ENDBRANCH  21  22
ENDBRANCH   1  21
TORSDOF 14
ENDMDL
MODEL 2
REMARK VINA RESULT:     -11.0      4.285      9.889
REMARK SMILES C=Cc1cncc(-c2ccc([C@@H](C)C(=O)OCCOC(=O)c3ccc(-c4c5nc(c(-c6c(F)cccc6F)c6ccc([nH]6)c(-c6c(F)cccc6F)c6nc(c(-c7c(F)cccc7F)c7ccc4[nH]7)C=C6)C=C5)cc3)cc2)c1
REMARK SMILES IDX 17 1 16 2 14 3 15 4 12 5 13 6 11 7 8 8 9 9 77 10 10 11 76 12
REMARK SMILES IDX 7 13 3 14 4 15 78 16 5 17 6 18 2 19 1 20 18 21 19 22 20 23
REMARK SMILES IDX 21 24 22 25 23 26 75 27 24 28 74 29 25 30 26 31 27 32 68 33
REMARK SMILES IDX 28 34 73 35 67 36 69 37 29 38 72 39 66 40 65 41 30 43 56 44
REMARK SMILES IDX 39 45 55 46 40 47 43 48 54 49 70 50 41 51 42 52 53 54 71 55
REMARK SMILES IDX 44 56 31 57 32 58 37 59 33 60 34 61 36 62 38 63 35 64 57 65
REMARK SMILES IDX 58 66 63 67 59 68 60 69 62 70 64 71 61 72 45 73 46 74 51 75
REMARK SMILES IDX 47 76 48 77 50 78 52 79 49 80
REMARK H PARENT 69 42 43 53
REMARK Flexibility Score: inf
ROOT
ATOM      1  C   UNL A   1      33.599  36.256  28.973  1.00  0.00     0.274 C 
ENDROOT
BRANCH   1   2
ATOM      2  O   UNL A   1      33.799  34.833  29.051  1.00  0.00    -0.462 OA
BRANCH   2   3
ATOM      3  C   UNL A   1      34.617  34.275  28.123  1.00  0.00     0.313 C 
ATOM      4  O   UNL A   1      34.779  34.715  26.988  1.00  0.00    -0.252 OA
BRANCH   3   5
ATOM      5  C   UNL A   1      35.318  33.009  28.604  1.00  0.00     0.126 C 
ATOM      6  C   UNL A   1      36.824  33.137  28.383  1.00  0.00     0.025 C 
BRANCH   5   7
ATOM      7  C   UNL A   1      34.759  31.697  28.075  1.00  0.00    -0.034 A 
ATOM      8  C   UNL A   1      33.654  29.244  27.156  1.00  0.00    -0.017 A 
ATOM      9  C   UNL A   1      34.989  29.328  27.577  1.00  0.00     0.009 A 
ATOM     10  C   UNL A   1      32.887  30.418  27.174  1.00  0.00     0.009 A 
ATOM     11  C   UNL A   1      35.532  30.531  28.034  1.00  0.00     0.005 A 
ATOM     12  C   UNL A   1      33.430  31.626  27.627  1.00  0.00     0.005 A 
BRANCH   8  13
ATOM     13  C   UNL A   1      33.077  27.956  26.752  1.00  0.00     0.001 A 
ATOM     14  C   UNL A   1      33.212  25.770  25.687  1.00  0.00    -0.007 A 
ATOM     15  C   UNL A   1      31.881  25.580  26.048  1.00  0.00     0.119 A 
ATOM     16  C   UNL A   1      33.803  26.990  26.040  1.00  0.00     0.020 A 
ATOM     17  N   UNL A   1      31.135  26.478  26.729  1.00  0.00    -0.263 NA
ATOM     18  C   UNL A   1      31.753  27.635  27.061  1.00  0.00     0.119 A 
BRANCH  14  19
ATOM     19  C   UNL A   1      33.910  24.730  24.922  1.00  0.00     0.002 C 
ATOM     20  C   UNL A   1      35.171  24.346  25.155  1.00  0.00     0.009 C 
ENDBRANCH  14  19
ENDBRANCH   8  13
ENDBRANCH   5   7
ENDBRANCH   3   5
ENDBRANCH   2   3
ENDBRANCH   1   2
BRANCH   1  21
ATOM     21  C   UNL A   1      32.527  36.700  29.967  1.00  0.00     0.275 C 
BRANCH  21  22
ATOM     22  O   UNL A   1      33.077  36.778  31.294  1.00  0.00    -0.458 OA
BRANCH  22  23
ATOM     23  C   UNL A   1      32.657  35.830  32.162  1.00  0.00     0.338 C 
ATOM     24  O   UNL A   1      31.523  35.601  32.540  1.00  0.00    -0.246 OA
BRANCH  23  25
ATOM     25  C   UNL A   1      33.818  35.029  32.567  1.00  0.00     0.060 A 
ATOM     26  C   UNL A   1      35.098  35.486  32.250  1.00  0.00     0.016 A 
ATOM     27  C   UNL A   1      33.636  33.806  33.212  1.00  0.00     0.016 A 
ATOM     28  C   UNL A   1      36.213  34.721  32.579  1.00  0.00     0.010 A 
ATOM     29  C   UNL A   1      34.756  33.049  33.563  1.00  0.00     0.010 A 
ATOM     30  C   UNL A   1      36.050  33.501  33.246  1.00  0.00    -0.014 A 
BRANCH  30  31
ATOM     31  C   UNL A   1      37.233  32.693  33.621  1.00  0.00     0.031 A 
ATOM     32  C   UNL A   1      37.967  32.984  34.895  1.00  0.00     0.074 A 
ATOM     33  C   UNL A   1      37.651  31.709  32.804  1.00  0.00     0.049 A 
ATOM     34  N   UNL A   1      39.101  32.493  35.325  1.00  0.00    -0.248 NA
ATOM     35  C   UNL A   1      37.345  33.958  35.805  1.00  0.00     0.031 C 
ATOM     36  C   UNL A   1      36.988  31.303  31.563  1.00  0.00     0.029 A 
ATOM     37  N   UNL A   1      38.741  30.882  32.888  1.00  0.00    -0.354 N 
ATOM     38  C   UNL A   1      39.341  33.112  36.544  1.00  0.00     0.074 A 
ATOM     39  C   UNL A   1      38.240  34.024  36.780  1.00  0.00     0.031 C 
ATOM     40  C   UNL A   1      37.690  30.307  31.000  1.00  0.00     0.029 A 
ATOM     41  C   UNL A   1      38.878  30.047  31.807  1.00  0.00     0.049 A 
ATOM     42  H   UNL A   1      39.366  30.886  33.649  1.00  0.00     0.167 HD
ATOM     43  C   UNL A   1      40.386  32.934  37.386  1.00  0.00     0.037 A 
ATOM     44  C   UNL A   1      39.872  29.201  31.481  1.00  0.00     0.037 A 
ATOM     45  C   UNL A   1      41.470  32.017  37.148  1.00  0.00     0.049 A 
ATOM     46  C   UNL A   1      41.065  29.089  32.386  1.00  0.00     0.074 A 
ATOM     47  C   UNL A   1      42.561  31.741  37.953  1.00  0.00     0.029 A 
ATOM     48  N   UNL A   1      41.600  31.228  36.015  1.00  0.00    -0.354 N 
ATOM     49  N   UNL A   1      41.291  29.684  33.532  1.00  0.00    -0.248 NA
ATOM     50  C   UNL A   1      42.153  28.204  31.942  1.00  0.00     0.031 C 
ATOM     51  C   UNL A   1      43.374  30.817  37.288  1.00  0.00     0.029 A 
ATOM     52  C   UNL A   1      42.769  30.490  36.084  1.00  0.00     0.049 A 
ATOM     53  H   UNL A   1      40.955  31.198  35.271  1.00  0.00     0.167 HD
ATOM     54  C   UNL A   1      42.539  29.245  33.950  1.00  0.00     0.074 A 
ATOM     55  C   UNL A   1      43.015  28.317  32.943  1.00  0.00     0.031 C 
ATOM     56  C   UNL A   1      43.230  29.582  35.065  1.00  0.00     0.037 A 
BRANCH  43  57
ATOM     57  C   UNL A   1      40.422  33.773  38.627  1.00  0.00     0.057 A 
ATOM     58  C   UNL A   1      39.712  33.419  39.781  1.00  0.00     0.134 A 
ATOM     59  C   UNL A   1      41.202  34.935  38.677  1.00  0.00     0.134 A 
ATOM     60  F   UNL A   1      38.936  32.325  39.793  1.00  0.00    -0.206 F 
ATOM     61  C   UNL A   1      39.761  34.205  40.935  1.00  0.00     0.040 A 
ATOM     62  C   UNL A   1      41.275  35.717  39.831  1.00  0.00     0.040 A 
ATOM     63  F   UNL A   1      41.909  35.328  37.606  1.00  0.00    -0.206 F 
ATOM     64  C   UNL A   1      40.549  35.354  40.963  1.00  0.00     0.006 A 
ENDBRANCH  43  57
BRANCH  44  65
ATOM     65  C   UNL A   1      39.801  28.431  30.215  1.00  0.00     0.057 A 
ATOM     66  C   UNL A   1      40.407  28.903  29.046  1.00  0.00     0.134 A 
ATOM     67  C   UNL A   1      39.130  27.203  30.146  1.00  0.00     0.134 A 
ATOM     68  F   UNL A   1      41.043  30.083  29.045  1.00  0.00    -0.206 F 
ATOM     69  C   UNL A   1      40.345  28.183  27.851  1.00  0.00     0.040 A 
ATOM     70  C   UNL A   1      39.080  26.464  28.964  1.00  0.00     0.040 A 
ATOM     71  F   UNL A   1      38.527  26.698  31.233  1.00  0.00    -0.206 F 
ATOM     72  C   UNL A   1      39.686  26.956  27.811  1.00  0.00     0.006 A 
ENDBRANCH  44  65
BRANCH  56  73
ATOM     73  C   UNL A   1      44.572  28.942  35.253  1.00  0.00     0.057 A 
ATOM     74  C   UNL A   1      44.709  27.703  35.891  1.00  0.00     0.134 A 
ATOM     75  C   UNL A   1      45.733  29.550  34.759  1.00  0.00     0.134 A 
ATOM     76  F   UNL A   1      43.635  27.079  36.399  1.00  0.00    -0.206 F 
ATOM     77  C   UNL A   1      45.956  27.095  36.042  1.00  0.00     0.040 A 
ATOM     78  C   UNL A   1      46.983  28.944  34.885  1.00  0.00     0.040 A 
ATOM     79  F   UNL A   1      45.668  30.736  34.135  1.00  0.00    -0.206 F 
ATOM     80  C   UNL A   1      47.096  27.713  35.531  1.00  0.00     0.006 A 
ENDBRANCH  56  73
ENDBRANCH  30  31
ENDBRANCH  23  25
ENDBRANCH  22  23
ENDBRANCH  21  22
ENDBRANCH   1  21
TORSDOF 14
ENDMDL
MODEL 3
REMARK VINA RESULT:     -11.0      4.407     10.712
REMARK SMILES C=Cc1cncc(-c2ccc([C@@H](C)C(=O)OCCOC(=O)c3ccc(-c4c5nc(c(-c6c(F)cccc6F)c6ccc([nH]6)c(-c6c(F)cccc6F)c6nc(c(-c7c(F)cccc7F)c7ccc4[nH]7)C=C6)C=C5)cc3)cc2)c1
REMARK SMILES IDX 17 1 16 2 14 3 15 4 12 5 13 6 11 7 8 8 9 9 77 10 10 11 76 12
REMARK SMILES IDX 7 13 3 14 4 15 78 16 5 17 6 18 2 19 1 20 18 21 19 22 20 23
REMARK SMILES IDX 21 24 22 25 23 26 75 27 24 28 74 29 25 30 26 31 27 32 68 33
REMARK SMILES IDX 28 34 73 35 67 36 69 37 29 38 72 39 66 40 65 41 30 43 56 44
REMARK SMILES IDX 39 45 55 46 40 47 43 48 54 49 70 50 41 51 42 52 53 54 71 55
REMARK SMILES IDX 44 56 31 57 32 58 37 59 33 60 34 61 36 62 38 63 35 64 57 65
REMARK SMILES IDX 58 66 63 67 59 68 60 69 62 70 64 71 61 72 45 73 46 74 51 75
REMARK SMILES IDX 47 76 48 77 50 78 52 79 49 80
REMARK H PARENT 69 42 43 53
REMARK Flexibility Score: inf
ROOT
ATOM      1  C   UNL A   1      35.197  33.720  29.519  1.00  0.00     0.274 C 
ENDROOT
BRANCH   1   2
ATOM      2  O   UNL A   1      35.883  32.995  30.556  1.00  0.00    -0.462 OA
BRANCH   2   3
ATOM      3  C   UNL A   1      35.245  32.873  31.747  1.00  0.00     0.313 C 
ATOM      4  O   UNL A   1      34.096  32.460  31.879  1.00  0.00    -0.252 OA
BRANCH   3   5
ATOM      5  C   UNL A   1      36.080  33.327  32.939  1.00  0.00     0.126 C 
ATOM      6  C   UNL A   1      36.494  34.786  32.755  1.00  0.00     0.025 C 
BRANCH   5   7
ATOM      7  C   UNL A   1      37.251  32.429  33.311  1.00  0.00    -0.034 A 
ATOM      8  C   UNL A   1      39.386  30.711  34.069  1.00  0.00    -0.017 A 
ATOM      9  C   UNL A   1      39.480  32.102  34.228  1.00  0.00     0.009 A 
ATOM     10  C   UNL A   1      38.215  30.196  33.495  1.00  0.00     0.009 A 
ATOM     11  C   UNL A   1      38.429  32.947  33.861  1.00  0.00     0.005 A 
ATOM     12  C   UNL A   1      37.163  31.041  33.122  1.00  0.00     0.005 A 
BRANCH   8  13
ATOM     13  C   UNL A   1      40.467  29.832  34.531  1.00  0.00     0.001 A 
ATOM     14  C   UNL A   1      42.208  28.172  34.153  1.00  0.00    -0.007 A 
ATOM     15  C   UNL A   1      42.470  28.225  35.519  1.00  0.00     0.119 A 
ATOM     16  C   UNL A   1      41.176  28.985  33.666  1.00  0.00     0.020 A 
ATOM     17  N   UNL A   1      41.814  29.018  36.395  1.00  0.00    -0.263 NA
ATOM     18  C   UNL A   1      40.836  29.796  35.877  1.00  0.00     0.119 A 
BRANCH  14  19
ATOM     19  C   UNL A   1      42.972  27.248  33.306  1.00  0.00     0.002 C 
ATOM     20  C   UNL A   1      44.225  26.854  33.564  1.00  0.00     0.009 C 
ENDBRANCH  14  19
ENDBRANCH   8  13
ENDBRANCH   5   7
ENDBRANCH   3   5
ENDBRANCH   2   3
ENDBRANCH   1   2
BRANCH   1  21
ATOM     21  C   UNL A   1      35.004  32.837  28.287  1.00  0.00     0.275 C 
BRANCH  21  22
ATOM     22  O   UNL A   1      34.391  31.589  28.658  1.00  0.00    -0.458 OA
BRANCH  22  23
ATOM     23  C   UNL A   1      34.726  30.521  27.899  1.00  0.00     0.338 C 
ATOM     24  O   UNL A   1      34.082  29.991  27.014  1.00  0.00    -0.246 OA
BRANCH  23  25
ATOM     25  C   UNL A   1      36.081  30.097  28.274  1.00  0.00     0.060 A 
ATOM     26  C   UNL A   1      37.094  30.150  27.315  1.00  0.00     0.016 A 
ATOM     27  C   UNL A   1      36.332  29.601  29.552  1.00  0.00     0.016 A 
ATOM     28  C   UNL A   1      38.375  29.707  27.629  1.00  0.00     0.010 A 
ATOM     29  C   UNL A   1      37.624  29.178  29.875  1.00  0.00     0.010 A 
ATOM     30  C   UNL A   1      38.651  29.227  28.915  1.00  0.00    -0.014 A 
BRANCH  30  31
ATOM     31  C   UNL A   1      40.018  28.776  29.265  1.00  0.00     0.031 A 
ATOM     32  C   UNL A   1      40.936  29.687  30.023  1.00  0.00     0.074 A 
ATOM     33  C   UNL A   1      40.432  27.553  28.885  1.00  0.00     0.049 A 
ATOM     34  N   UNL A   1      42.208  29.537  30.294  1.00  0.00    -0.248 NA
ATOM     35  C   UNL A   1      40.348  30.930  30.543  1.00  0.00     0.031 C 
ATOM     36  C   UNL A   1      39.611  26.563  28.186  1.00  0.00     0.029 A 
ATOM     37  N   UNL A   1      41.652  26.943  29.020  1.00  0.00    -0.354 N 
ATOM     38  C   UNL A   1      42.579  30.676  30.997  1.00  0.00     0.074 A 
ATOM     39  C   UNL A   1      41.401  31.512  31.101  1.00  0.00     0.031 C 
ATOM     40  C   UNL A   1      40.353  25.470  27.950  1.00  0.00     0.029 A 
ATOM     41  C   UNL A   1      41.713  25.706  28.426  1.00  0.00     0.049 A 
ATOM     42  H   UNL A   1      42.411  27.350  29.497  1.00  0.00     0.167 HD
ATOM     43  C   UNL A   1      43.793  30.990  31.506  1.00  0.00     0.037 A 
ATOM     44  C   UNL A   1      42.757  24.877  28.246  1.00  0.00     0.037 A 
ATOM     45  C   UNL A   1      44.955  30.147  31.408  1.00  0.00     0.049 A 
ATOM     46  C   UNL A   1      44.114  25.290  28.739  1.00  0.00     0.074 A 
ATOM     47  C   UNL A   1      46.224  30.361  31.917  1.00  0.00     0.029 A 
ATOM     48  N   UNL A   1      44.989  28.926  30.751  1.00  0.00    -0.354 N 
ATOM     49  N   UNL A   1      44.460  26.372  29.394  1.00  0.00    -0.248 NA
ATOM     50  C   UNL A   1      45.230  24.378  28.450  1.00  0.00     0.031 C 
ATOM     51  C   UNL A   1      47.038  29.291  31.530  1.00  0.00     0.029 A 
ATOM     52  C   UNL A   1      46.265  28.391  30.813  1.00  0.00     0.049 A 
ATOM     53  H   UNL A   1      44.220  28.502  30.307  1.00  0.00     0.167 HD
ATOM     54  C   UNL A   1      45.828  26.270  29.601  1.00  0.00     0.074 A 
ATOM     55  C   UNL A   1      46.247  25.012  29.018  1.00  0.00     0.031 C 
ATOM     56  C   UNL A   1      46.663  27.143  30.215  1.00  0.00     0.037 A 
BRANCH  43  57
ATOM     57  C   UNL A   1      43.931  32.318  32.187  1.00  0.00     0.057 A 
ATOM     58  C   UNL A   1      43.730  32.468  33.565  1.00  0.00     0.134 A 
ATOM     59  C   UNL A   1      44.300  33.455  31.458  1.00  0.00     0.134 A 
ATOM     60  F   UNL A   1      43.361  31.420  34.317  1.00  0.00    -0.206 F 
ATOM     61  C   UNL A   1      43.871  33.709  34.190  1.00  0.00     0.040 A 
ATOM     62  C   UNL A   1      44.464  34.697  32.076  1.00  0.00     0.040 A 
ATOM     63  F   UNL A   1      44.511  33.378  30.136  1.00  0.00    -0.206 F 
ATOM     64  C   UNL A   1      44.245  34.827  33.445  1.00  0.00     0.006 A 
ENDBRANCH  43  57
BRANCH  44  65
ATOM     65  C   UNL A   1      42.566  23.596  27.523  1.00  0.00     0.057 A 
ATOM     66  C   UNL A   1      42.697  23.524  26.132  1.00  0.00     0.134 A 
ATOM     67  C   UNL A   1      42.255  22.413  28.206  1.00  0.00     0.134 A 
ATOM     68  F   UNL A   1      42.970  24.628  25.422  1.00  0.00    -0.206 F 
ATOM     69  C   UNL A   1      42.520  22.322  25.445  1.00  0.00     0.040 A 
ATOM     70  C   UNL A   1      42.098  21.201  27.533  1.00  0.00     0.040 A 
ATOM     71  F   UNL A   1      42.114  22.419  29.540  1.00  0.00    -0.206 F 
ATOM     72  C   UNL A   1      42.227  21.155  26.148  1.00  0.00     0.006 A 
ENDBRANCH  44  65
BRANCH  56  73
ATOM     73  C   UNL A   1      48.111  26.763  30.287  1.00  0.00     0.057 A 
ATOM     74  C   UNL A   1      49.026  27.177  29.311  1.00  0.00     0.134 A 
ATOM     75  C   UNL A   1      48.603  26.008  31.360  1.00  0.00     0.134 A 
ATOM     76  F   UNL A   1      48.612  27.889  28.251  1.00  0.00    -0.206 F 
ATOM     77  C   UNL A   1      50.378  26.844  29.393  1.00  0.00     0.040 A 
ATOM     78  C   UNL A   1      49.956  25.687  31.464  1.00  0.00     0.040 A 
ATOM     79  F   UNL A   1      47.777  25.585  32.328  1.00  0.00    -0.206 F 
ATOM     80  C   UNL A   1      50.847  26.103  30.476  1.00  0.00     0.006 A 
ENDBRANCH  56  73
ENDBRANCH  30  31
ENDBRANCH  23  25
ENDBRANCH  22  23
ENDBRANCH  21  22
ENDBRANCH   1  21
TORSDOF 14
ENDMDL
