MODEL 1
REMARK VINA RESULT:     -11.8      0.000      0.000
REMARK SMILES CCN(CC)C(=O)[C@@H]1CC=CC[C@H]1C(=O)Nc1ccc(C(=O)OCCOC(=O)c2ccc(-c3c4nc(c(-c5c(F)cccc5F)c5ccc([nH]5)c(-c5c(F)cccc5F)c5nc(c(-c6c(F)cccc6F)c6ccc3[nH]6)C=C5)C=C4)cc2)cc1
REMARK SMILES IDX 24 1 23 2 21 3 22 4 20 5 17 6 18 7 84 8 19 9 83 10 16 11
REMARK SMILES IDX 14 12 15 13 13 15 8 16 9 17 10 18 12 19 11 20 6 21 3 22 7 23
REMARK SMILES IDX 2 24 1 25 4 26 5 27 25 28 26 29 27 30 28 31 29 32 30 33
REMARK SMILES IDX 82 34 31 35 81 36 32 37 33 38 34 39 75 40 35 41 80 42 74 43
REMARK SMILES IDX 76 44 36 45 79 46 73 47 72 48 37 50 63 51 46 52 62 53 47 54
REMARK SMILES IDX 50 55 61 56 77 57 48 58 49 59 60 61 78 62 51 63 38 64 39 65
REMARK SMILES IDX 44 66 40 67 41 68 43 69 45 70 42 71 64 72 65 73 70 74 66 75
REMARK SMILES IDX 67 76 69 77 71 78 68 79 52 80 53 81 58 82 54 83 55 84 57 85
REMARK SMILES IDX 59 86 56 87
REMARK H PARENT 16 14 76 49 50 60
REMARK Flexibility Score: inf
ROOT
ATOM      1  C   UNL A   1      42.500  20.933  26.400  1.00  0.00     0.275 C 
ENDROOT
BRANCH   1   2
ATOM      2  O   UNL A   1      41.131  20.890  25.960  1.00  0.00    -0.458 OA
BRANCH   2   3
ATOM      3  C   UNL A   1      40.237  21.431  26.818  1.00  0.00     0.338 C 
ATOM      4  O   UNL A   1      40.406  21.627  28.013  1.00  0.00    -0.246 OA
BRANCH   3   5
ATOM      5  C   UNL A   1      39.005  21.859  26.113  1.00  0.00     0.060 A 
ATOM      6  C   UNL A   1      36.882  22.575  24.482  1.00  0.00     0.041 A 
ATOM      7  C   UNL A   1      37.214  21.230  24.606  1.00  0.00     0.027 A 
ATOM      8  C   UNL A   1      37.464  23.536  25.307  1.00  0.00     0.027 A 
ATOM      9  C   UNL A   1      38.310  20.882  25.383  1.00  0.00     0.018 A 
ATOM     10  C   UNL A   1      38.539  23.179  26.124  1.00  0.00     0.018 A 
BRANCH   6  11
ATOM     11  N   UNL A   1      36.067  22.958  23.415  1.00  0.00    -0.326 N 
ATOM     12  C   UNL A   1      34.824  23.525  23.569  1.00  0.00     0.228 C 
ATOM     13  O   UNL A   1      34.489  24.382  22.744  1.00  0.00    -0.274 OA
ATOM     14  H   UNL A   1      36.402  22.814  22.500  1.00  0.00     0.169 HD
BRANCH  12  15
ATOM     15  C   UNL A   1      33.858  23.139  24.713  1.00  0.00     0.095 C 
ATOM     16  C   UNL A   1      32.788  24.191  25.022  1.00  0.00     0.095 C 
ATOM     17  C   UNL A   1      31.834  23.807  26.162  1.00  0.00     0.041 C 
ATOM     18  C   UNL A   1      31.429  22.363  26.122  1.00  0.00    -0.030 C 
ATOM     19  C   UNL A   1      33.281  21.721  24.558  1.00  0.00     0.041 C 
ATOM     20  C   UNL A   1      32.068  21.438  25.395  1.00  0.00    -0.030 C 
BRANCH  16  21
ATOM     21  C   UNL A   1      33.172  25.667  25.144  1.00  0.00     0.226 C 
ATOM     22  N   UNL A   1      32.606  26.693  24.402  1.00  0.00    -0.343 N 
ATOM     23  O   UNL A   1      34.112  25.917  25.916  1.00  0.00    -0.275 OA
BRANCH  22  24
ATOM     24  C   UNL A   1      33.153  28.037  24.634  1.00  0.00     0.116 C 
ATOM     25  C   UNL A   1      33.832  28.605  23.392  1.00  0.00     0.027 C 
ENDBRANCH  22  24
BRANCH  22  26
ATOM     26  C   UNL A   1      31.476  26.639  23.467  1.00  0.00     0.116 C 
ATOM     27  C   UNL A   1      30.117  26.712  24.140  1.00  0.00     0.027 C 
ENDBRANCH  22  26
ENDBRANCH  16  21
ENDBRANCH  12  15
ENDBRANCH   6  11
ENDBRANCH   3   5
ENDBRANCH   2   3
ENDBRANCH   1   2
BRANCH   1  28
ATOM     28  C   UNL A   1      43.362  21.608  25.335  1.00  0.00     0.275 C 
BRANCH  28  29
ATOM     29  O   UNL A   1      42.759  22.852  24.925  1.00  0.00    -0.458 OA
BRANCH  29  30
ATOM     30  C   UNL A   1      43.542  23.950  25.026  1.00  0.00     0.338 C 
ATOM     31  O   UNL A   1      44.575  24.187  24.424  1.00  0.00    -0.246 OA
BRANCH  30  32
ATOM     32  C   UNL A   1      42.958  24.892  25.996  1.00  0.00     0.060 A 
ATOM     33  C   UNL A   1      43.323  26.235  25.955  1.00  0.00     0.016 A 
ATOM     34  C   UNL A   1      42.151  24.425  27.029  1.00  0.00     0.016 A 
ATOM     35  C   UNL A   1      42.955  27.102  26.982  1.00  0.00     0.010 A 
ATOM     36  C   UNL A   1      41.699  25.318  28.011  1.00  0.00     0.010 A 
ATOM     37  C   UNL A   1      42.122  26.661  28.017  1.00  0.00    -0.014 A 
BRANCH  37  38
ATOM     38  C   UNL A   1      41.728  27.584  29.121  1.00  0.00     0.031 A 
ATOM     39  C   UNL A   1      42.516  27.605  30.407  1.00  0.00     0.074 A 
ATOM     40  C   UNL A   1      40.674  28.414  28.986  1.00  0.00     0.049 A 
ATOM     41  N   UNL A   1      42.222  28.172  31.549  1.00  0.00    -0.248 NA
ATOM     42  C   UNL A   1      43.797  26.880  30.411  1.00  0.00     0.031 C 
ATOM     43  C   UNL A   1      39.841  28.545  27.789  1.00  0.00     0.029 A 
ATOM     44  N   UNL A   1      40.121  29.310  29.869  1.00  0.00    -0.354 N 
ATOM     45  C   UNL A   1      43.241  27.817  32.424  1.00  0.00     0.074 A 
ATOM     46  C   UNL A   1      44.169  26.994  31.678  1.00  0.00     0.031 C 
ATOM     47  C   UNL A   1      38.910  29.488  28.000  1.00  0.00     0.029 A 
ATOM     48  C   UNL A   1      39.021  29.966  29.373  1.00  0.00     0.049 A 
ATOM     49  H   UNL A   1      40.479  29.466  30.773  1.00  0.00     0.167 HD
ATOM     50  C   UNL A   1      43.387  28.143  33.731  1.00  0.00     0.037 A 
ATOM     51  C   UNL A   1      38.165  30.823  29.964  1.00  0.00     0.037 A 
ATOM     52  C   UNL A   1      42.507  29.020  34.456  1.00  0.00     0.049 A 
ATOM     53  C   UNL A   1      38.345  31.164  31.416  1.00  0.00     0.074 A 
ATOM     54  C   UNL A   1      42.588  29.424  35.779  1.00  0.00     0.029 A 
ATOM     55  N   UNL A   1      41.399  29.651  33.914  1.00  0.00    -0.354 N 
ATOM     56  N   UNL A   1      39.274  30.765  32.249  1.00  0.00    -0.248 NA
ATOM     57  C   UNL A   1      37.341  32.055  32.017  1.00  0.00     0.031 C 
ATOM     58  C   UNL A   1      41.515  30.281  36.043  1.00  0.00     0.029 A 
ATOM     59  C   UNL A   1      40.784  30.436  34.877  1.00  0.00     0.049 A 
ATOM     60  H   UNL A   1      41.092  29.555  32.983  1.00  0.00     0.167 HD
ATOM     61  C   UNL A   1      38.971  31.358  33.467  1.00  0.00     0.074 A 
ATOM     62  C   UNL A   1      37.786  32.164  33.261  1.00  0.00     0.031 C 
ATOM     63  C   UNL A   1      39.611  31.237  34.654  1.00  0.00     0.037 A 
BRANCH  50  64
ATOM     64  C   UNL A   1      44.529  27.524  34.480  1.00  0.00     0.057 A 
ATOM     65  C   UNL A   1      44.414  26.292  35.132  1.00  0.00     0.134 A 
ATOM     66  C   UNL A   1      45.783  28.152  34.496  1.00  0.00     0.134 A 
ATOM     67  F   UNL A   1      43.237  25.648  35.165  1.00  0.00    -0.206 F 
ATOM     68  C   UNL A   1      45.502  25.709  35.783  1.00  0.00     0.040 A 
ATOM     69  C   UNL A   1      46.884  27.569  35.125  1.00  0.00     0.040 A 
ATOM     70  F   UNL A   1      45.961  29.332  33.883  1.00  0.00    -0.206 F 
ATOM     71  C   UNL A   1      46.744  26.344  35.774  1.00  0.00     0.006 A 
ENDBRANCH  50  64
BRANCH  51  72
ATOM     72  C   UNL A   1      37.024  31.381  29.197  1.00  0.00     0.057 A 
ATOM     73  C   UNL A   1      35.895  30.605  28.910  1.00  0.00     0.134 A 
ATOM     74  C   UNL A   1      37.039  32.698  28.720  1.00  0.00     0.134 A 
ATOM     75  F   UNL A   1      35.834  29.328  29.316  1.00  0.00    -0.206 F 
ATOM     76  C   UNL A   1      34.828  31.114  28.169  1.00  0.00     0.040 A 
ATOM     77  C   UNL A   1      35.968  33.228  28.001  1.00  0.00     0.040 A 
ATOM     78  F   UNL A   1      38.093  33.492  28.960  1.00  0.00    -0.206 F 
ATOM     79  C   UNL A   1      34.860  32.432  27.718  1.00  0.00     0.006 A 
ENDBRANCH  51  72
BRANCH  63  80
ATOM     80  C   UNL A   1      39.057  32.013  35.810  1.00  0.00     0.057 A 
ATOM     81  C   UNL A   1      39.400  33.353  36.024  1.00  0.00     0.134 A 
ATOM     82  C   UNL A   1      38.154  31.422  36.702  1.00  0.00     0.134 A 
ATOM     83  F   UNL A   1      40.272  33.970  35.213  1.00  0.00    -0.206 F 
ATOM     84  C   UNL A   1      38.877  34.075  37.098  1.00  0.00     0.040 A 
ATOM     85  C   UNL A   1      37.609  32.138  37.767  1.00  0.00     0.040 A 
ATOM     86  F   UNL A   1      37.782  30.142  36.546  1.00  0.00    -0.206 F 
ATOM     87  C   UNL A   1      37.974  33.468  37.971  1.00  0.00     0.006 A 
ENDBRANCH  63  80
ENDBRANCH  37  38
ENDBRANCH  30  32
ENDBRANCH  29  30
ENDBRANCH  28  29
ENDBRANCH   1  28
TORSDOF 16
ENDMDL
MODEL 2
REMARK VINA RESULT:     -11.7      4.295      9.750
REMARK SMILES CCN(CC)C(=O)[C@@H]1CC=CC[C@H]1C(=O)Nc1ccc(C(=O)OCCOC(=O)c2ccc(-c3c4nc(c(-c5c(F)cccc5F)c5ccc([nH]5)c(-c5c(F)cccc5F)c5nc(c(-c6c(F)cccc6F)c6ccc3[nH]6)C=C5)C=C4)cc2)cc1
REMARK SMILES IDX 24 1 23 2 21 3 22 4 20 5 17 6 18 7 84 8 19 9 83 10 16 11
REMARK SMILES IDX 14 12 15 13 13 15 8 16 9 17 10 18 12 19 11 20 6 21 3 22 7 23
REMARK SMILES IDX 2 24 1 25 4 26 5 27 25 28 26 29 27 30 28 31 29 32 30 33
REMARK SMILES IDX 82 34 31 35 81 36 32 37 33 38 34 39 75 40 35 41 80 42 74 43
REMARK SMILES IDX 76 44 36 45 79 46 73 47 72 48 37 50 63 51 46 52 62 53 47 54
REMARK SMILES IDX 50 55 61 56 77 57 48 58 49 59 60 61 78 62 51 63 38 64 39 65
REMARK SMILES IDX 44 66 40 67 41 68 43 69 45 70 42 71 64 72 65 73 70 74 66 75
REMARK SMILES IDX 67 76 69 77 71 78 68 79 52 80 53 81 58 82 54 83 55 84 57 85
REMARK SMILES IDX 59 86 56 87
REMARK H PARENT 16 14 76 49 50 60
REMARK Flexibility Score: inf
ROOT
ATOM      1  C   UNL A   1      34.671  33.975  29.794  1.00  0.00     0.275 C 
ENDROOT
BRANCH   1   2
ATOM      2  O   UNL A   1      33.875  33.185  28.891  1.00  0.00    -0.458 OA
BRANCH   2   3
ATOM      3  C   UNL A   1      34.578  32.505  27.957  1.00  0.00     0.338 C 
ATOM      4  O   UNL A   1      35.668  32.814  27.501  1.00  0.00    -0.246 OA
BRANCH   3   5
ATOM      5  C   UNL A   1      33.895  31.242  27.585  1.00  0.00     0.060 A 
ATOM      6  C   UNL A   1      32.394  28.948  27.179  1.00  0.00     0.041 A 
ATOM      7  C   UNL A   1      31.821  30.185  26.909  1.00  0.00     0.027 A 
ATOM      8  C   UNL A   1      33.756  28.833  27.457  1.00  0.00     0.027 A 
ATOM      9  C   UNL A   1      32.560  31.333  27.164  1.00  0.00     0.018 A 
ATOM     10  C   UNL A   1      34.512  29.988  27.669  1.00  0.00     0.018 A 
BRANCH   6  11
ATOM     11  N   UNL A   1      31.549  27.844  27.313  1.00  0.00    -0.326 N 
ATOM     12  C   UNL A   1      31.537  26.782  26.441  1.00  0.00     0.228 C 
ATOM     13  O   UNL A   1      31.321  25.662  26.918  1.00  0.00    -0.274 OA
ATOM     14  H   UNL A   1      30.927  27.826  28.077  1.00  0.00     0.169 HD
BRANCH  12  15
ATOM     15  C   UNL A   1      31.783  26.935  24.922  1.00  0.00     0.095 C 
ATOM     16  C   UNL A   1      32.341  25.683  24.239  1.00  0.00     0.095 C 
ATOM     17  C   UNL A   1      32.588  25.842  22.732  1.00  0.00     0.041 C 
ATOM     18  C   UNL A   1      31.502  26.611  22.041  1.00  0.00    -0.030 C 
ATOM     19  C   UNL A   1      30.579  27.541  24.179  1.00  0.00     0.041 C 
ATOM     20  C   UNL A   1      30.599  27.357  22.689  1.00  0.00    -0.030 C 
BRANCH  16  21
ATOM     21  C   UNL A   1      33.499  24.911  24.876  1.00  0.00     0.226 C 
ATOM     22  N   UNL A   1      33.485  23.551  25.146  1.00  0.00    -0.343 N 
ATOM     23  O   UNL A   1      34.473  25.596  25.230  1.00  0.00    -0.275 OA
BRANCH  22  24
ATOM     24  C   UNL A   1      34.680  23.011  25.809  1.00  0.00     0.116 C 
ATOM     25  C   UNL A   1      34.368  22.451  27.194  1.00  0.00     0.027 C 
ENDBRANCH  22  24
BRANCH  22  26
ATOM     26  C   UNL A   1      32.469  22.551  24.793  1.00  0.00     0.116 C 
ATOM     27  C   UNL A   1      32.563  22.060  23.360  1.00  0.00     0.027 C 
ENDBRANCH  22  26
ENDBRANCH  16  21
ENDBRANCH  12  15
ENDBRANCH   6  11
ENDBRANCH   3   5
ENDBRANCH   2   3
ENDBRANCH   1   2
BRANCH   1  28
ATOM     28  C   UNL A   1      34.347  33.591  31.236  1.00  0.00     0.275 C 
BRANCH  28  29
ATOM     29  O   UNL A   1      34.701  32.213  31.472  1.00  0.00    -0.458 OA
BRANCH  29  30
ATOM     30  C   UNL A   1      35.692  32.001  32.368  1.00  0.00     0.338 C 
ATOM     31  O   UNL A   1      35.706  32.301  33.550  1.00  0.00    -0.246 OA
BRANCH  30  32
ATOM     32  C   UNL A   1      36.817  31.311  31.714  1.00  0.00     0.060 A 
ATOM     33  C   UNL A   1      37.758  30.642  32.492  1.00  0.00     0.016 A 
ATOM     34  C   UNL A   1      37.016  31.437  30.342  1.00  0.00     0.016 A 
ATOM     35  C   UNL A   1      38.937  30.165  31.924  1.00  0.00     0.010 A 
ATOM     36  C   UNL A   1      38.156  30.872  29.755  1.00  0.00     0.010 A 
ATOM     37  C   UNL A   1      39.147  30.256  30.543  1.00  0.00    -0.014 A 
BRANCH  37  38
ATOM     38  C   UNL A   1      40.410  29.751  29.930  1.00  0.00     0.031 A 
ATOM     39  C   UNL A   1      41.601  30.663  29.790  1.00  0.00     0.074 A 
ATOM     40  C   UNL A   1      40.508  28.475  29.502  1.00  0.00     0.049 A 
ATOM     41  N   UNL A   1      42.705  30.487  29.110  1.00  0.00    -0.248 NA
ATOM     42  C   UNL A   1      41.535  31.952  30.499  1.00  0.00     0.031 C 
ATOM     43  C   UNL A   1      39.462  27.457  29.609  1.00  0.00     0.029 A 
ATOM     44  N   UNL A   1      41.546  27.815  28.888  1.00  0.00    -0.354 N 
ATOM     45  C   UNL A   1      43.432  31.662  29.251  1.00  0.00     0.074 A 
ATOM     46  C   UNL A   1      42.650  32.543  30.092  1.00  0.00     0.031 C 
ATOM     47  C   UNL A   1      39.921  26.298  29.113  1.00  0.00     0.029 A 
ATOM     48  C   UNL A   1      41.258  26.509  28.573  1.00  0.00     0.049 A 
ATOM     49  H   UNL A   1      42.413  28.239  28.691  1.00  0.00     0.167 HD
ATOM     50  C   UNL A   1      44.638  31.980  28.723  1.00  0.00     0.037 A 
ATOM     51  C   UNL A   1      41.968  25.592  27.886  1.00  0.00     0.037 A 
ATOM     52  C   UNL A   1      45.453  31.081  27.948  1.00  0.00     0.049 A 
ATOM     53  C   UNL A   1      43.301  25.971  27.306  1.00  0.00     0.074 A 
ATOM     54  C   UNL A   1      46.699  31.310  27.389  1.00  0.00     0.029 A 
ATOM     55  N   UNL A   1      45.114  29.772  27.645  1.00  0.00    -0.354 N 
ATOM     56  N   UNL A   1      43.944  27.110  27.388  1.00  0.00    -0.248 NA
ATOM     57  C   UNL A   1      43.995  24.944  26.514  1.00  0.00     0.031 C 
ATOM     58  C   UNL A   1      47.105  30.147  26.728  1.00  0.00     0.029 A 
ATOM     59  C   UNL A   1      46.125  29.184  26.902  1.00  0.00     0.049 A 
ATOM     60  H   UNL A   1      44.279  29.327  27.916  1.00  0.00     0.167 HD
ATOM     61  C   UNL A   1      45.116  26.935  26.666  1.00  0.00     0.074 A 
ATOM     62  C   UNL A   1      45.110  25.574  26.173  1.00  0.00     0.031 C 
ATOM     63  C   UNL A   1      46.106  27.827  26.424  1.00  0.00     0.037 A 
BRANCH  50  64
ATOM     64  C   UNL A   1      45.148  33.374  28.937  1.00  0.00     0.057 A 
ATOM     65  C   UNL A   1      45.992  33.704  30.002  1.00  0.00     0.134 A 
ATOM     66  C   UNL A   1      44.829  34.388  28.023  1.00  0.00     0.134 A 
ATOM     67  F   UNL A   1      46.323  32.781  30.919  1.00  0.00    -0.206 F 
ATOM     68  C   UNL A   1      46.496  34.997  30.158  1.00  0.00     0.040 A 
ATOM     69  C   UNL A   1      45.343  35.679  28.156  1.00  0.00     0.040 A 
ATOM     70  F   UNL A   1      44.029  34.135  26.976  1.00  0.00    -0.206 F 
ATOM     71  C   UNL A   1      46.178  35.987  29.229  1.00  0.00     0.006 A 
ENDBRANCH  50  64
BRANCH  51  72
ATOM     72  C   UNL A   1      41.409  24.235  27.662  1.00  0.00     0.057 A 
ATOM     73  C   UNL A   1      40.406  24.013  26.711  1.00  0.00     0.134 A 
ATOM     74  C   UNL A   1      41.852  23.132  28.402  1.00  0.00     0.134 A 
ATOM     75  F   UNL A   1      39.921  25.036  25.991  1.00  0.00    -0.206 F 
ATOM     76  C   UNL A   1      39.858  22.746  26.510  1.00  0.00     0.040 A 
ATOM     77  C   UNL A   1      41.332  21.855  28.193  1.00  0.00     0.040 A 
ATOM     78  F   UNL A   1      42.809  23.280  29.330  1.00  0.00    -0.206 F 
ATOM     79  C   UNL A   1      40.326  21.661  27.248  1.00  0.00     0.006 A 
ENDBRANCH  51  72
BRANCH  63  80
ATOM     80  C   UNL A   1      47.272  27.349  25.613  1.00  0.00     0.057 A 
ATOM     81  C   UNL A   1      47.335  27.553  24.230  1.00  0.00     0.134 A 
ATOM     82  C   UNL A   1      48.352  26.702  26.226  1.00  0.00     0.134 A 
ATOM     83  F   UNL A   1      46.325  28.155  23.584  1.00  0.00    -0.206 F 
ATOM     84  C   UNL A   1      48.426  27.114  23.479  1.00  0.00     0.040 A 
ATOM     85  C   UNL A   1      49.457  26.275  25.489  1.00  0.00     0.040 A 
ATOM     86  F   UNL A   1      48.353  26.482  27.549  1.00  0.00    -0.206 F 
ATOM     87  C   UNL A   1      49.494  26.476  24.110  1.00  0.00     0.006 A 
ENDBRANCH  63  80
ENDBRANCH  37  38
ENDBRANCH  30  32
ENDBRANCH  29  30
ENDBRANCH  28  29
ENDBRANCH   1  28
TORSDOF 16
ENDMDL
MODEL 3
REMARK VINA RESULT:     -11.5      3.258      8.335
REMARK SMILES CCN(CC)C(=O)[C@@H]1CC=CC[C@H]1C(=O)Nc1ccc(C(=O)OCCOC(=O)c2ccc(-c3c4nc(c(-c5c(F)cccc5F)c5ccc([nH]5)c(-c5c(F)cccc5F)c5nc(c(-c6c(F)cccc6F)c6ccc3[nH]6)C=C5)C=C4)cc2)cc1
REMARK SMILES IDX 24 1 23 2 21 3 22 4 20 5 17 6 18 7 84 8 19 9 83 10 16 11
REMARK SMILES IDX 14 12 15 13 13 15 8 16 9 17 10 18 12 19 11 20 6 21 3 22 7 23
REMARK SMILES IDX 2 24 1 25 4 26 5 27 25 28 26 29 27 30 28 31 29 32 30 33
REMARK SMILES IDX 82 34 31 35 81 36 32 37 33 38 34 39 75 40 35 41 80 42 74 43
REMARK SMILES IDX 76 44 36 45 79 46 73 47 72 48 37 50 63 51 46 52 62 53 47 54
REMARK SMILES IDX 50 55 61 56 77 57 48 58 49 59 60 61 78 62 51 63 38 64 39 65
REMARK SMILES IDX 44 66 40 67 41 68 43 69 45 70 42 71 64 72 65 73 70 74 66 75
REMARK SMILES IDX 67 76 69 77 71 78 68 79 52 80 53 81 58 82 54 83 55 84 57 85
REMARK SMILES IDX 59 86 56 87
REMARK H PARENT 16 14 76 49 50 60
REMARK Flexibility Score: inf
ROOT
ATOM      1  C   UNL A   1      32.381  30.530  27.027  1.00  0.00     0.275 C 
ENDROOT
BRANCH   1   2
ATOM      2  O   UNL A   1      32.957  29.235  27.279  1.00  0.00    -0.458 OA
BRANCH   2   3
ATOM      3  C   UNL A   1      32.074  28.211  27.295  1.00  0.00     0.338 C 
ATOM      4  O   UNL A   1      31.087  28.115  28.008  1.00  0.00    -0.246 OA
BRANCH   3   5
ATOM      5  C   UNL A   1      32.395  27.208  26.251  1.00  0.00     0.060 A 
ATOM      6  C   UNL A   1      33.158  25.613  24.118  1.00  0.00     0.041 A 
ATOM      7  C   UNL A   1      34.133  26.088  24.987  1.00  0.00     0.027 A 
ATOM      8  C   UNL A   1      31.803  25.758  24.411  1.00  0.00     0.027 A 
ATOM      9  C   UNL A   1      33.751  26.929  26.023  1.00  0.00     0.018 A 
ATOM     10  C   UNL A   1      31.416  26.568  25.481  1.00  0.00     0.018 A 
BRANCH   6  11
ATOM     11  N   UNL A   1      33.564  25.120  22.875  1.00  0.00    -0.326 N 
ATOM     12  C   UNL A   1      34.028  23.842  22.676  1.00  0.00     0.228 C 
ATOM     13  O   UNL A   1      33.740  23.297  21.604  1.00  0.00    -0.274 OA
ATOM     14  H   UNL A   1      33.514  25.723  22.098  1.00  0.00     0.169 HD
BRANCH  12  15
ATOM     15  C   UNL A   1      34.873  23.078  23.722  1.00  0.00     0.095 C 
ATOM     16  C   UNL A   1      34.240  21.777  24.223  1.00  0.00     0.095 C 
ATOM     17  C   UNL A   1      35.080  21.025  25.266  1.00  0.00     0.041 C 
ATOM     18  C   UNL A   1      36.545  21.033  24.949  1.00  0.00    -0.030 C 
ATOM     19  C   UNL A   1      36.342  22.908  23.297  1.00  0.00     0.041 C 
ATOM     20  C   UNL A   1      37.103  21.864  24.061  1.00  0.00    -0.030 C 
BRANCH  16  21
ATOM     21  C   UNL A   1      32.763  21.745  24.627  1.00  0.00     0.226 C 
ATOM     22  N   UNL A   1      32.249  22.319  25.779  1.00  0.00    -0.343 N 
ATOM     23  O   UNL A   1      32.017  21.086  23.885  1.00  0.00    -0.275 OA
BRANCH  22  24
ATOM     24  C   UNL A   1      30.810  22.131  26.009  1.00  0.00     0.116 C 
ATOM     25  C   UNL A   1      30.192  23.293  26.780  1.00  0.00     0.027 C 
ENDBRANCH  22  24
BRANCH  22  26
ATOM     26  C   UNL A   1      32.928  23.160  26.773  1.00  0.00     0.116 C 
ATOM     27  C   UNL A   1      33.456  22.391  27.971  1.00  0.00     0.027 C 
ENDBRANCH  22  26
ENDBRANCH  16  21
ENDBRANCH  12  15
ENDBRANCH   6  11
ENDBRANCH   3   5
ENDBRANCH   2   3
ENDBRANCH   1   2
BRANCH   1  28
ATOM     28  C   UNL A   1      33.274  31.615  27.625  1.00  0.00     0.275 C 
BRANCH  28  29
ATOM     29  O   UNL A   1      32.676  32.913  27.427  1.00  0.00    -0.458 OA
BRANCH  29  30
ATOM     30  C   UNL A   1      33.070  33.883  28.284  1.00  0.00     0.338 C 
ATOM     31  O   UNL A   1      32.458  34.885  28.609  1.00  0.00    -0.246 OA
BRANCH  30  32
ATOM     32  C   UNL A   1      34.403  33.560  28.823  1.00  0.00     0.060 A 
ATOM     33  C   UNL A   1      35.539  33.900  28.095  1.00  0.00     0.016 A 
ATOM     34  C   UNL A   1      34.526  32.802  29.985  1.00  0.00     0.016 A 
ATOM     35  C   UNL A   1      36.793  33.424  28.472  1.00  0.00     0.010 A 
ATOM     36  C   UNL A   1      35.798  32.405  30.418  1.00  0.00     0.010 A 
ATOM     37  C   UNL A   1      36.945  32.684  29.651  1.00  0.00    -0.014 A 
BRANCH  37  38
ATOM     38  C   UNL A   1      38.284  32.168  30.057  1.00  0.00     0.031 A 
ATOM     39  C   UNL A   1      38.806  30.878  29.477  1.00  0.00     0.074 A 
ATOM     40  C   UNL A   1      39.048  32.846  30.938  1.00  0.00     0.049 A 
ATOM     41  N   UNL A   1      39.836  30.160  29.847  1.00  0.00    -0.248 NA
ATOM     42  C   UNL A   1      38.062  30.315  28.339  1.00  0.00     0.031 C 
ATOM     43  C   UNL A   1      38.704  34.130  31.552  1.00  0.00     0.029 A 
ATOM     44  N   UNL A   1      40.279  32.547  31.472  1.00  0.00    -0.354 N 
ATOM     45  C   UNL A   1      39.825  29.032  29.037  1.00  0.00     0.074 A 
ATOM     46  C   UNL A   1      38.691  29.164  28.146  1.00  0.00     0.031 C 
ATOM     47  C   UNL A   1      39.712  34.523  32.348  1.00  0.00     0.029 A 
ATOM     48  C   UNL A   1      40.732  33.482  32.370  1.00  0.00     0.049 A 
ATOM     49  H   UNL A   1      40.787  31.738  31.233  1.00  0.00     0.167 HD
ATOM     50  C   UNL A   1      40.677  27.979  29.040  1.00  0.00     0.037 A 
ATOM     51  C   UNL A   1      41.823  33.486  33.162  1.00  0.00     0.037 A 
ATOM     52  C   UNL A   1      41.847  27.878  29.871  1.00  0.00     0.049 A 
ATOM     53  C   UNL A   1      42.750  32.304  33.150  1.00  0.00     0.074 A 
ATOM     54  C   UNL A   1      42.781  26.857  29.927  1.00  0.00     0.029 A 
ATOM     55  N   UNL A   1      42.259  28.845  30.775  1.00  0.00    -0.354 N 
ATOM     56  N   UNL A   1      42.687  31.213  32.429  1.00  0.00    -0.248 NA
ATOM     57  C   UNL A   1      43.887  32.345  34.083  1.00  0.00     0.031 C 
ATOM     58  C   UNL A   1      43.746  27.195  30.882  1.00  0.00     0.029 A 
ATOM     59  C   UNL A   1      43.429  28.441  31.397  1.00  0.00     0.049 A 
ATOM     60  H   UNL A   1      41.788  29.692  30.950  1.00  0.00     0.167 HD
ATOM     61  C   UNL A   1      43.774  30.441  32.815  1.00  0.00     0.074 A 
ATOM     62  C   UNL A   1      44.495  31.198  33.817  1.00  0.00     0.031 C 
ATOM     63  C   UNL A   1      44.138  29.208  32.387  1.00  0.00     0.037 A 
BRANCH  50  64
ATOM     64  C   UNL A   1      40.365  26.827  28.132  1.00  0.00     0.057 A 
ATOM     65  C   UNL A   1      40.970  26.678  26.880  1.00  0.00     0.134 A 
ATOM     66  C   UNL A   1      39.484  25.820  28.550  1.00  0.00     0.134 A 
ATOM     67  F   UNL A   1      41.813  27.615  26.416  1.00  0.00    -0.206 F 
ATOM     68  C   UNL A   1      40.704  25.573  26.069  1.00  0.00     0.040 A 
ATOM     69  C   UNL A   1      39.226  24.700  27.758  1.00  0.00     0.040 A 
ATOM     70  F   UNL A   1      38.876  25.899  29.743  1.00  0.00    -0.206 F 
ATOM     71  C   UNL A   1      39.835  24.576  26.511  1.00  0.00     0.006 A 
ENDBRANCH  50  64
BRANCH  51  72
ATOM     72  C   UNL A   1      42.073  34.629  34.075  1.00  0.00     0.057 A 
ATOM     73  C   UNL A   1      42.790  35.753  33.649  1.00  0.00     0.134 A 
ATOM     74  C   UNL A   1      41.615  34.619  35.399  1.00  0.00     0.134 A 
ATOM     75  F   UNL A   1      43.278  35.808  32.401  1.00  0.00    -0.206 F 
ATOM     76  C   UNL A   1      43.051  36.822  34.508  1.00  0.00     0.040 A 
ATOM     77  C   UNL A   1      41.846  35.692  36.261  1.00  0.00     0.040 A 
ATOM     78  F   UNL A   1      40.924  33.570  35.868  1.00  0.00    -0.206 F 
ATOM     79  C   UNL A   1      42.572  36.795  35.816  1.00  0.00     0.006 A 
ENDBRANCH  51  72
BRANCH  63  80
ATOM     80  C   UNL A   1      45.380  28.618  32.979  1.00  0.00     0.057 A 
ATOM     81  C   UNL A   1      45.331  27.779  34.099  1.00  0.00     0.134 A 
ATOM     82  C   UNL A   1      46.634  28.871  32.410  1.00  0.00     0.134 A 
ATOM     83  F   UNL A   1      44.162  27.511  34.697  1.00  0.00    -0.206 F 
ATOM     84  C   UNL A   1      46.491  27.226  34.643  1.00  0.00     0.040 A 
ATOM     85  C   UNL A   1      47.798  28.309  32.933  1.00  0.00     0.040 A 
ATOM     86  F   UNL A   1      46.746  29.663  31.332  1.00  0.00    -0.206 F 
ATOM     87  C   UNL A   1      47.729  27.486  34.057  1.00  0.00     0.006 A 
ENDBRANCH  63  80
ENDBRANCH  37  38
ENDBRANCH  30  32
ENDBRANCH  29  30
ENDBRANCH  28  29
ENDBRANCH   1  28
TORSDOF 16
ENDMDL
