MODEL 1
REMARK VINA RESULT:     -11.5      0.000      0.000
REMARK SMILES COc1cc(Cl)c2c(c1)C=C(C(=O)OCCOC(=O)c1ccc(-c3c4nc(c(-c5c(F)cccc5F)c5ccc([nH]5)c(-c5c(F)cccc5F)c5nc(c(-c6c(F)cccc6F)c6ccc3[nH]6)C=C5)C=C4)cc1)[C@@H](C(F)(F)F)O2
REMARK SMILES IDX 16 1 15 2 14 3 12 4 13 5 11 6 3 7 4 8 9 9 5 10 8 11 6 12
REMARK SMILES IDX 7 13 10 14 79 15 74 16 2 17 1 18 75 19 76 20 77 21 78 22
REMARK SMILES IDX 17 23 18 24 19 25 20 26 21 27 73 28 22 29 72 30 23 31 24 32
REMARK SMILES IDX 25 33 66 34 26 35 71 36 65 37 67 38 27 39 70 40 64 41 63 42
REMARK SMILES IDX 28 44 54 45 37 46 53 47 38 48 41 49 52 50 68 51 39 52 40 53
REMARK SMILES IDX 51 55 69 56 42 57 29 58 30 59 35 60 31 61 32 62 34 63 36 64
REMARK SMILES IDX 33 65 55 66 56 67 61 68 57 69 58 70 60 71 62 72 59 73 43 74
REMARK SMILES IDX 44 75 49 76 45 77 46 78 48 79 50 80 47 81
REMARK H PARENT 67 43 41 54
REMARK Flexibility Score: inf
ROOT
ATOM      1  C   UNL A   1      36.611  20.417  25.062  1.00  0.00     0.275 C 
ENDROOT
BRANCH   1   2
ATOM      2  C   UNL A   1      35.274  21.094  24.763  1.00  0.00     0.275 C 
BRANCH   2   3
ATOM      3  O   UNL A   1      35.388  22.530  24.847  1.00  0.00    -0.459 OA
BRANCH   3   4
ATOM      4  C   UNL A   1      35.215  23.193  23.681  1.00  0.00     0.338 C 
ATOM      5  O   UNL A   1      35.764  22.956  22.616  1.00  0.00    -0.246 OA
BRANCH   4   6
ATOM      6  C   UNL A   1      34.238  24.282  23.845  1.00  0.00     0.087 C 
ATOM      7  C   UNL A   1      32.600  27.949  26.488  1.00  0.00     0.121 A 
ATOM      8  C   UNL A   1      31.409  27.958  25.766  1.00  0.00     0.070 A 
ATOM      9  C   UNL A   1      33.629  27.084  26.127  1.00  0.00     0.058 A 
ATOM     10  C   UNL A   1      31.244  27.072  24.696  1.00  0.00     0.087 A 
ATOM     11  C   UNL A   1      33.452  26.178  25.074  1.00  0.00     0.022 A 
ATOM     12  Cl  UNL A   1      29.750  27.113  23.827  1.00  0.00    -0.080 Cl
ATOM     13  C   UNL A   1      32.258  26.168  24.349  1.00  0.00     0.146 A 
ATOM     14  C   UNL A   1      34.494  25.218  24.765  1.00  0.00     0.027 C 
ATOM     15  O   UNL A   1      32.049  25.329  23.286  1.00  0.00    -0.474 OA
ATOM     16  C   UNL A   1      32.944  24.201  23.088  1.00  0.00     0.316 C 
BRANCH   7  17
ATOM     17  O   UNL A   1      32.858  28.805  27.521  1.00  0.00    -0.497 OA
ATOM     18  C   UNL A   1      32.620  30.173  27.191  1.00  0.00     0.278 C 
ENDBRANCH   7  17
BRANCH  16  19
ATOM     19  C   UNL A   1      32.191  22.898  23.397  1.00  0.00     0.430 C 
ATOM     20  F   UNL A   1      30.878  22.997  23.083  1.00  0.00    -0.167 F 
ATOM     21  F   UNL A   1      32.682  21.859  22.678  1.00  0.00    -0.167 F 
ATOM     22  F   UNL A   1      32.275  22.560  24.704  1.00  0.00    -0.167 F 
ENDBRANCH  16  19
ENDBRANCH   4   6
ENDBRANCH   3   4
ENDBRANCH   2   3
ENDBRANCH   1   2
BRANCH   1  23
ATOM     23  O   UNL A   1      37.682  21.377  25.008  1.00  0.00    -0.458 OA
BRANCH  23  24
ATOM     24  C   UNL A   1      38.764  21.076  25.759  1.00  0.00     0.338 C 
ATOM     25  O   UNL A   1      39.303  19.990  25.887  1.00  0.00    -0.246 OA
BRANCH  24  26
ATOM     26  C   UNL A   1      39.277  22.290  26.411  1.00  0.00     0.060 A 
ATOM     27  C   UNL A   1      38.699  23.522  26.115  1.00  0.00     0.016 A 
ATOM     28  C   UNL A   1      40.441  22.226  27.175  1.00  0.00     0.016 A 
ATOM     29  C   UNL A   1      39.358  24.698  26.460  1.00  0.00     0.010 A 
ATOM     30  C   UNL A   1      41.035  23.408  27.625  1.00  0.00     0.010 A 
ATOM     31  C   UNL A   1      40.531  24.658  27.225  1.00  0.00    -0.014 A 
BRANCH  31  32
ATOM     32  C   UNL A   1      41.249  25.920  27.552  1.00  0.00     0.031 A 
ATOM     33  C   UNL A   1      40.581  26.979  28.392  1.00  0.00     0.074 A 
ATOM     34  C   UNL A   1      42.519  26.099  27.135  1.00  0.00     0.049 A 
ATOM     35  N   UNL A   1      41.000  28.181  28.701  1.00  0.00    -0.248 NA
ATOM     36  C   UNL A   1      39.263  26.644  28.954  1.00  0.00     0.031 C 
ATOM     37  C   UNL A   1      43.302  25.136  26.358  1.00  0.00     0.029 A 
ATOM     38  N   UNL A   1      43.381  27.151  27.320  1.00  0.00    -0.354 N 
ATOM     39  C   UNL A   1      39.989  28.753  29.465  1.00  0.00     0.074 A 
ATOM     40  C   UNL A   1      38.920  27.779  29.544  1.00  0.00     0.031 C 
ATOM     41  C   UNL A   1      44.539  25.620  26.172  1.00  0.00     0.029 A 
ATOM     42  C   UNL A   1      44.614  26.958  26.746  1.00  0.00     0.049 A 
ATOM     43  H   UNL A   1      43.139  27.966  27.817  1.00  0.00     0.167 HD
ATOM     44  C   UNL A   1      39.955  29.972  30.057  1.00  0.00     0.037 A 
ATOM     45  C   UNL A   1      45.677  27.778  26.666  1.00  0.00     0.037 A 
ATOM     46  C   UNL A   1      41.026  30.933  29.994  1.00  0.00     0.049 A 
ATOM     47  C   UNL A   1      45.584  29.151  27.268  1.00  0.00     0.074 A 
ATOM     48  C   UNL A   1      41.081  32.208  30.530  1.00  0.00     0.029 A 
ATOM     49  N   UNL A   1      42.242  30.714  29.363  1.00  0.00    -0.354 N 
ATOM     50  N   UNL A   1      44.602  29.697  27.943  1.00  0.00    -0.248 NA
ATOM     51  C   UNL A   1      46.750  30.026  27.087  1.00  0.00     0.031 C 
ATOM     52  C   UNL A   1      42.319  32.772  30.197  1.00  0.00     0.029 A 
ATOM     53  C   UNL A   1      43.053  31.831  29.494  1.00  0.00     0.049 A 
ATOM     54  H   UNL A   1      42.492  29.887  28.891  1.00  0.00     0.167 HD
ATOM     55  C   UNL A   1      45.044  30.966  28.295  1.00  0.00     0.074 A 
ATOM     56  C   UNL A   1      46.389  31.098  27.775  1.00  0.00     0.031 C 
ATOM     57  C   UNL A   1      44.394  31.937  28.982  1.00  0.00     0.037 A 
BRANCH  44  58
ATOM     58  C   UNL A   1      38.703  30.337  30.807  1.00  0.00     0.057 A 
ATOM     59  C   UNL A   1      37.654  31.006  30.166  1.00  0.00     0.134 A 
ATOM     60  C   UNL A   1      38.536  30.029  32.164  1.00  0.00     0.134 A 
ATOM     61  F   UNL A   1      37.749  31.340  28.869  1.00  0.00    -0.206 F 
ATOM     62  C   UNL A   1      36.483  31.351  30.843  1.00  0.00     0.040 A 
ATOM     63  C   UNL A   1      37.358  30.342  32.845  1.00  0.00     0.040 A 
ATOM     64  F   UNL A   1      39.496  29.375  32.835  1.00  0.00    -0.206 F 
ATOM     65  C   UNL A   1      36.328  31.009  32.185  1.00  0.00     0.006 A 
ENDBRANCH  44  58
BRANCH  45  66
ATOM     66  C   UNL A   1      46.916  27.344  25.970  1.00  0.00     0.057 A 
ATOM     67  C   UNL A   1      47.949  26.690  26.652  1.00  0.00     0.134 A 
ATOM     68  C   UNL A   1      47.073  27.533  24.591  1.00  0.00     0.134 A 
ATOM     69  F   UNL A   1      47.863  26.481  27.974  1.00  0.00    -0.206 F 
ATOM     70  C   UNL A   1      49.091  26.238  25.990  1.00  0.00     0.040 A 
ATOM     71  C   UNL A   1      48.195  27.058  23.911  1.00  0.00     0.040 A 
ATOM     72  F   UNL A   1      46.109  28.133  23.878  1.00  0.00    -0.206 F 
ATOM     73  C   UNL A   1      49.210  26.410  24.612  1.00  0.00     0.006 A 
ENDBRANCH  45  66
BRANCH  57  74
ATOM     74  C   UNL A   1      45.167  33.194  29.258  1.00  0.00     0.057 A 
ATOM     75  C   UNL A   1      45.105  34.273  28.365  1.00  0.00     0.134 A 
ATOM     76  C   UNL A   1      45.948  33.352  30.410  1.00  0.00     0.134 A 
ATOM     77  F   UNL A   1      44.382  34.186  27.239  1.00  0.00    -0.206 F 
ATOM     78  C   UNL A   1      45.780  35.468  28.618  1.00  0.00     0.040 A 
ATOM     79  C   UNL A   1      46.603  34.552  30.688  1.00  0.00     0.040 A 
ATOM     80  F   UNL A   1      46.034  32.362  31.313  1.00  0.00    -0.206 F 
ATOM     81  C   UNL A   1      46.521  35.614  29.789  1.00  0.00     0.006 A 
ENDBRANCH  57  74
ENDBRANCH  31  32
ENDBRANCH  24  26
ENDBRANCH  23  24
ENDBRANCH   1  23
TORSDOF 13
ENDMDL
MODEL 2
REMARK VINA RESULT:     -11.5      3.652      8.683
REMARK SMILES COc1cc(Cl)c2c(c1)C=C(C(=O)OCCOC(=O)c1ccc(-c3c4nc(c(-c5c(F)cccc5F)c5ccc([nH]5)c(-c5c(F)cccc5F)c5nc(c(-c6c(F)cccc6F)c6ccc3[nH]6)C=C5)C=C4)cc1)[C@@H](C(F)(F)F)O2
REMARK SMILES IDX 16 1 15 2 14 3 12 4 13 5 11 6 3 7 4 8 9 9 5 10 8 11 6 12
REMARK SMILES IDX 7 13 10 14 79 15 74 16 2 17 1 18 75 19 76 20 77 21 78 22
REMARK SMILES IDX 17 23 18 24 19 25 20 26 21 27 73 28 22 29 72 30 23 31 24 32
REMARK SMILES IDX 25 33 66 34 26 35 71 36 65 37 67 38 27 39 70 40 64 41 63 42
REMARK SMILES IDX 28 44 54 45 37 46 53 47 38 48 41 49 52 50 68 51 39 52 40 53
REMARK SMILES IDX 51 55 69 56 42 57 29 58 30 59 35 60 31 61 32 62 34 63 36 64
REMARK SMILES IDX 33 65 55 66 56 67 61 68 57 69 58 70 60 71 62 72 59 73 43 74
REMARK SMILES IDX 44 75 49 76 45 77 46 78 48 79 50 80 47 81
REMARK H PARENT 67 43 41 54
REMARK Flexibility Score: inf
ROOT
ATOM      1  C   UNL A   1      31.611  30.080  25.357  1.00  0.00     0.275 C 
ENDROOT
BRANCH   1   2
ATOM      2  C   UNL A   1      31.492  28.656  24.816  1.00  0.00     0.275 C 
BRANCH   2   3
ATOM      3  O   UNL A   1      32.334  27.745  25.555  1.00  0.00    -0.459 OA
BRANCH   3   4
ATOM      4  C   UNL A   1      31.681  26.772  26.230  1.00  0.00     0.338 C 
ATOM      5  O   UNL A   1      30.743  26.918  26.999  1.00  0.00    -0.246 OA
BRANCH   4   6
ATOM      6  C   UNL A   1      32.250  25.452  25.913  1.00  0.00     0.087 C 
ATOM      7  C   UNL A   1      36.140  22.796  24.952  1.00  0.00     0.121 A 
ATOM      8  C   UNL A   1      35.337  21.766  24.469  1.00  0.00     0.070 A 
ATOM      9  C   UNL A   1      35.560  23.932  25.508  1.00  0.00     0.058 A 
ATOM     10  C   UNL A   1      33.945  21.895  24.519  1.00  0.00     0.087 A 
ATOM     11  C   UNL A   1      34.167  24.072  25.533  1.00  0.00     0.022 A 
ATOM     12  Cl  UNL A   1      32.984  20.596  23.907  1.00  0.00    -0.080 Cl
ATOM     13  C   UNL A   1      33.350  23.052  25.041  1.00  0.00     0.146 A 
ATOM     14  C   UNL A   1      33.574  25.299  26.030  1.00  0.00     0.027 C 
ATOM     15  O   UNL A   1      31.982  23.123  25.076  1.00  0.00    -0.474 OA
ATOM     16  C   UNL A   1      31.345  24.404  25.333  1.00  0.00     0.316 C 
BRANCH   7  17
ATOM     17  O   UNL A   1      37.506  22.735  24.975  1.00  0.00    -0.497 OA
ATOM     18  C   UNL A   1      38.005  21.465  25.390  1.00  0.00     0.278 C 
ENDBRANCH   7  17
BRANCH  16  19
ATOM     19  C   UNL A   1      30.664  24.897  24.048  1.00  0.00     0.430 C 
ATOM     20  F   UNL A   1      30.257  23.863  23.275  1.00  0.00    -0.167 F 
ATOM     21  F   UNL A   1      29.558  25.631  24.324  1.00  0.00    -0.167 F 
ATOM     22  F   UNL A   1      31.485  25.669  23.300  1.00  0.00    -0.167 F 
ENDBRANCH  16  19
ENDBRANCH   4   6
ENDBRANCH   3   4
ENDBRANCH   2   3
ENDBRANCH   1   2
BRANCH   1  23
ATOM     23  O   UNL A   1      32.141  30.064  26.696  1.00  0.00    -0.458 OA
BRANCH  23  24
ATOM     24  C   UNL A   1      32.736  31.210  27.094  1.00  0.00     0.338 C 
ATOM     25  O   UNL A   1      32.252  32.329  27.123  1.00  0.00    -0.246 OA
BRANCH  24  26
ATOM     26  C   UNL A   1      34.103  30.932  27.557  1.00  0.00     0.060 A 
ATOM     27  C   UNL A   1      34.518  29.612  27.715  1.00  0.00     0.016 A 
ATOM     28  C   UNL A   1      34.909  31.979  28.001  1.00  0.00     0.016 A 
ATOM     29  C   UNL A   1      35.668  29.329  28.443  1.00  0.00     0.010 A 
ATOM     30  C   UNL A   1      36.127  31.693  28.625  1.00  0.00     0.010 A 
ATOM     31  C   UNL A   1      36.493  30.364  28.903  1.00  0.00    -0.014 A 
BRANCH  31  32
ATOM     32  C   UNL A   1      37.699  30.050  29.717  1.00  0.00     0.031 A 
ATOM     33  C   UNL A   1      38.808  29.210  29.138  1.00  0.00     0.074 A 
ATOM     34  C   UNL A   1      37.822  30.557  30.960  1.00  0.00     0.049 A 
ATOM     35  N   UNL A   1      39.888  28.746  29.716  1.00  0.00    -0.248 NA
ATOM     36  C   UNL A   1      38.684  28.835  27.720  1.00  0.00     0.031 C 
ATOM     37  C   UNL A   1      36.848  31.425  31.625  1.00  0.00     0.029 A 
ATOM     38  N   UNL A   1      38.830  30.426  31.883  1.00  0.00    -0.354 N 
ATOM     39  C   UNL A   1      40.552  28.004  28.746  1.00  0.00     0.074 A 
ATOM     40  C   UNL A   1      39.738  28.051  27.550  1.00  0.00     0.031 C 
ATOM     41  C   UNL A   1      37.324  31.784  32.827  1.00  0.00     0.029 A 
ATOM     42  C   UNL A   1      38.597  31.111  33.051  1.00  0.00     0.049 A 
ATOM     43  H   UNL A   1      39.641  29.892  31.723  1.00  0.00     0.167 HD
ATOM     44  C   UNL A   1      41.739  27.353  28.836  1.00  0.00     0.037 A 
ATOM     45  C   UNL A   1      39.315  31.167  34.187  1.00  0.00     0.037 A 
ATOM     46  C   UNL A   1      42.558  27.323  30.020  1.00  0.00     0.049 A 
ATOM     47  C   UNL A   1      40.588  30.376  34.283  1.00  0.00     0.074 A 
ATOM     48  C   UNL A   1      43.759  26.666  30.228  1.00  0.00     0.029 A 
ATOM     49  N   UNL A   1      42.263  27.994  31.197  1.00  0.00    -0.354 N 
ATOM     50  N   UNL A   1      41.178  29.638  33.375  1.00  0.00    -0.248 NA
ATOM     51  C   UNL A   1      41.290  30.421  35.573  1.00  0.00     0.031 C 
ATOM     52  C   UNL A   1      44.175  26.917  31.542  1.00  0.00     0.029 A 
ATOM     53  C   UNL A   1      43.257  27.767  32.136  1.00  0.00     0.049 A 
ATOM     54  H   UNL A   1      41.464  28.551  31.345  1.00  0.00     0.167 HD
ATOM     55  C   UNL A   1      42.336  29.157  33.972  1.00  0.00     0.074 A 
ATOM     56  C   UNL A   1      42.373  29.706  35.312  1.00  0.00     0.031 C 
ATOM     57  C   UNL A   1      43.283  28.333  33.460  1.00  0.00     0.037 A 
BRANCH  44  58
ATOM     58  C   UNL A   1      42.203  26.602  27.619  1.00  0.00     0.057 A 
ATOM     59  C   UNL A   1      41.888  25.248  27.450  1.00  0.00     0.134 A 
ATOM     60  C   UNL A   1      42.965  27.215  26.615  1.00  0.00     0.134 A 
ATOM     61  F   UNL A   1      41.169  24.594  28.375  1.00  0.00    -0.206 F 
ATOM     62  C   UNL A   1      42.308  24.533  26.325  1.00  0.00     0.040 A 
ATOM     63  C   UNL A   1      43.365  26.520  25.472  1.00  0.00     0.040 A 
ATOM     64  F   UNL A   1      43.289  28.514  26.707  1.00  0.00    -0.206 F 
ATOM     65  C   UNL A   1      43.040  25.173  25.327  1.00  0.00     0.006 A 
ENDBRANCH  44  58
BRANCH  45  66
ATOM     66  C   UNL A   1      38.844  31.979  35.339  1.00  0.00     0.057 A 
ATOM     67  C   UNL A   1      38.174  31.396  36.421  1.00  0.00     0.134 A 
ATOM     68  C   UNL A   1      39.101  33.354  35.406  1.00  0.00     0.134 A 
ATOM     69  F   UNL A   1      37.894  30.085  36.419  1.00  0.00    -0.206 F 
ATOM     70  C   UNL A   1      37.775  32.149  37.526  1.00  0.00     0.040 A 
ATOM     71  C   UNL A   1      38.736  34.113  36.518  1.00  0.00     0.040 A 
ATOM     72  F   UNL A   1      39.759  33.967  34.411  1.00  0.00    -0.206 F 
ATOM     73  C   UNL A   1      38.068  33.510  37.582  1.00  0.00     0.006 A 
ENDBRANCH  45  66
BRANCH  57  74
ATOM     74  C   UNL A   1      44.462  28.037  34.341  1.00  0.00     0.057 A 
ATOM     75  C   UNL A   1      44.450  26.921  35.188  1.00  0.00     0.134 A 
ATOM     76  C   UNL A   1      45.614  28.833  34.336  1.00  0.00     0.134 A 
ATOM     77  F   UNL A   1      43.374  26.121  35.247  1.00  0.00    -0.206 F 
ATOM     78  C   UNL A   1      45.548  26.600  35.986  1.00  0.00     0.040 A 
ATOM     79  C   UNL A   1      46.730  28.505  35.107  1.00  0.00     0.040 A 
ATOM     80  F   UNL A   1      45.696  29.906  33.533  1.00  0.00    -0.206 F 
ATOM     81  C   UNL A   1      46.697  27.385  35.937  1.00  0.00     0.006 A 
ENDBRANCH  57  74
ENDBRANCH  31  32
ENDBRANCH  24  26
ENDBRANCH  23  24
ENDBRANCH   1  23
TORSDOF 13
ENDMDL
MODEL 3
REMARK VINA RESULT:     -11.4      0.853      1.953
REMARK SMILES COc1cc(Cl)c2c(c1)C=C(C(=O)OCCOC(=O)c1ccc(-c3c4nc(c(-c5c(F)cccc5F)c5ccc([nH]5)c(-c5c(F)cccc5F)c5nc(c(-c6c(F)cccc6F)c6ccc3[nH]6)C=C5)C=C4)cc1)[C@@H](C(F)(F)F)O2
REMARK SMILES IDX 16 1 15 2 14 3 12 4 13 5 11 6 3 7 4 8 9 9 5 10 8 11 6 12
REMARK SMILES IDX 7 13 10 14 79 15 74 16 2 17 1 18 75 19 76 20 77 21 78 22
REMARK SMILES IDX 17 23 18 24 19 25 20 26 21 27 73 28 22 29 72 30 23 31 24 32
REMARK SMILES IDX 25 33 66 34 26 35 71 36 65 37 67 38 27 39 70 40 64 41 63 42
REMARK SMILES IDX 28 44 54 45 37 46 53 47 38 48 41 49 52 50 68 51 39 52 40 53
REMARK SMILES IDX 51 55 69 56 42 57 29 58 30 59 35 60 31 61 32 62 34 63 36 64
REMARK SMILES IDX 33 65 55 66 56 67 61 68 57 69 58 70 60 71 62 72 59 73 43 74
REMARK SMILES IDX 44 75 49 76 45 77 46 78 48 79 50 80 47 81
REMARK H PARENT 67 43 41 54
REMARK Flexibility Score: inf
ROOT
ATOM      1  C   UNL A   1      36.575  20.316  25.001  1.00  0.00     0.275 C 
ENDROOT
BRANCH   1   2
ATOM      2  C   UNL A   1      35.187  20.908  25.238  1.00  0.00     0.275 C 
BRANCH   2   3
ATOM      3  O   UNL A   1      35.190  22.338  25.043  1.00  0.00    -0.459 OA
BRANCH   3   4
ATOM      4  C   UNL A   1      34.677  23.062  26.064  1.00  0.00     0.338 C 
ATOM      5  O   UNL A   1      34.882  22.893  27.256  1.00  0.00    -0.246 OA
BRANCH   4   6
ATOM      6  C   UNL A   1      33.808  24.134  25.551  1.00  0.00     0.087 C 
ATOM      7  C   UNL A   1      32.650  28.800  25.520  1.00  0.00     0.121 A 
ATOM      8  C   UNL A   1      31.425  28.508  24.926  1.00  0.00     0.070 A 
ATOM      9  C   UNL A   1      33.578  27.786  25.742  1.00  0.00     0.058 A 
ATOM     10  C   UNL A   1      31.122  27.187  24.583  1.00  0.00     0.087 A 
ATOM     11  C   UNL A   1      33.262  26.460  25.424  1.00  0.00     0.022 A 
ATOM     12  Cl  UNL A   1      29.590  26.866  23.850  1.00  0.00    -0.080 Cl
ATOM     13  C   UNL A   1      32.032  26.152  24.839  1.00  0.00     0.146 A 
ATOM     14  C   UNL A   1      34.198  25.399  25.744  1.00  0.00     0.027 C 
ATOM     15  O   UNL A   1      31.690  24.876  24.473  1.00  0.00    -0.474 OA
ATOM     16  C   UNL A   1      32.471  23.760  24.981  1.00  0.00     0.316 C 
BRANCH   7  17
ATOM     17  O   UNL A   1      33.041  30.067  25.852  1.00  0.00    -0.497 OA
ATOM     18  C   UNL A   1      32.162  30.701  26.781  1.00  0.00     0.278 C 
ENDBRANCH   7  17
BRANCH  16  19
ATOM     19  C   UNL A   1      31.628  22.973  25.996  1.00  0.00     0.430 C 
ATOM     20  F   UNL A   1      31.997  21.671  26.043  1.00  0.00    -0.167 F 
ATOM     21  F   UNL A   1      31.778  23.462  27.251  1.00  0.00    -0.167 F 
ATOM     22  F   UNL A   1      30.308  23.013  25.701  1.00  0.00    -0.167 F 
ENDBRANCH  16  19
ENDBRANCH   4   6
ENDBRANCH   3   4
ENDBRANCH   2   3
ENDBRANCH   1   2
BRANCH   1  23
ATOM     23  O   UNL A   1      37.576  21.350  25.048  1.00  0.00    -0.458 OA
BRANCH  23  24
ATOM     24  C   UNL A   1      38.688  21.045  25.752  1.00  0.00     0.338 C 
ATOM     25  O   UNL A   1      39.239  19.961  25.840  1.00  0.00    -0.246 OA
BRANCH  24  26
ATOM     26  C   UNL A   1      39.217  22.251  26.406  1.00  0.00     0.060 A 
ATOM     27  C   UNL A   1      38.640  23.488  26.128  1.00  0.00     0.016 A 
ATOM     28  C   UNL A   1      40.392  22.175  27.151  1.00  0.00     0.016 A 
ATOM     29  C   UNL A   1      39.310  24.658  26.472  1.00  0.00     0.010 A 
ATOM     30  C   UNL A   1      40.999  23.351  27.601  1.00  0.00     0.010 A 
ATOM     31  C   UNL A   1      40.494  24.606  27.219  1.00  0.00    -0.014 A 
BRANCH  31  32
ATOM     32  C   UNL A   1      41.224  25.862  27.544  1.00  0.00     0.031 A 
ATOM     33  C   UNL A   1      40.565  26.928  28.382  1.00  0.00     0.074 A 
ATOM     34  C   UNL A   1      42.496  26.030  27.128  1.00  0.00     0.049 A 
ATOM     35  N   UNL A   1      40.995  28.127  28.691  1.00  0.00    -0.248 NA
ATOM     36  C   UNL A   1      39.244  26.606  28.945  1.00  0.00     0.031 C 
ATOM     37  C   UNL A   1      43.270  25.058  26.352  1.00  0.00     0.029 A 
ATOM     38  N   UNL A   1      43.367  27.073  27.312  1.00  0.00    -0.354 N 
ATOM     39  C   UNL A   1      39.988  28.708  29.453  1.00  0.00     0.074 A 
ATOM     40  C   UNL A   1      38.911  27.745  29.533  1.00  0.00     0.031 C 
ATOM     41  C   UNL A   1      44.512  25.531  26.167  1.00  0.00     0.029 A 
ATOM     42  C   UNL A   1      44.598  26.869  26.739  1.00  0.00     0.049 A 
ATOM     43  H   UNL A   1      43.132  27.891  27.808  1.00  0.00     0.167 HD
ATOM     44  C   UNL A   1      39.965  29.929  30.044  1.00  0.00     0.037 A 
ATOM     45  C   UNL A   1      45.669  27.680  26.658  1.00  0.00     0.037 A 
ATOM     46  C   UNL A   1      41.045  30.880  29.980  1.00  0.00     0.049 A 
ATOM     47  C   UNL A   1      45.588  29.054  27.259  1.00  0.00     0.074 A 
ATOM     48  C   UNL A   1      41.111  32.156  30.514  1.00  0.00     0.029 A 
ATOM     49  N   UNL A   1      42.259  30.649  29.350  1.00  0.00    -0.354 N 
ATOM     50  N   UNL A   1      44.610  29.610  27.933  1.00  0.00    -0.248 NA
ATOM     51  C   UNL A   1      46.762  29.918  27.077  1.00  0.00     0.031 C 
ATOM     52  C   UNL A   1      42.354  32.707  30.182  1.00  0.00     0.029 A 
ATOM     53  C   UNL A   1      43.080  31.759  29.480  1.00  0.00     0.049 A 
ATOM     54  H   UNL A   1      42.502  29.820  28.879  1.00  0.00     0.167 HD
ATOM     55  C   UNL A   1      45.063  30.875  28.283  1.00  0.00     0.074 A 
ATOM     56  C   UNL A   1      46.410  30.994  27.763  1.00  0.00     0.031 C 
ATOM     57  C   UNL A   1      44.423  31.853  28.969  1.00  0.00     0.037 A 
BRANCH  44  58
ATOM     58  C   UNL A   1      38.716  30.306  30.792  1.00  0.00     0.057 A 
ATOM     59  C   UNL A   1      38.566  29.978  32.146  1.00  0.00     0.134 A 
ATOM     60  C   UNL A   1      37.661  30.991  30.175  1.00  0.00     0.134 A 
ATOM     61  F   UNL A   1      39.534  29.316  32.798  1.00  0.00    -0.206 F 
ATOM     62  C   UNL A   1      37.416  30.323  32.859  1.00  0.00     0.040 A 
ATOM     63  C   UNL A   1      36.519  31.366  30.885  1.00  0.00     0.040 A 
ATOM     64  F   UNL A   1      37.746  31.349  28.885  1.00  0.00    -0.206 F 
ATOM     65  C   UNL A   1      36.392  31.028  32.231  1.00  0.00     0.006 A 
ENDBRANCH  44  58
BRANCH  45  66
ATOM     66  C   UNL A   1      46.904  27.234  25.964  1.00  0.00     0.057 A 
ATOM     67  C   UNL A   1      47.100  27.463  24.597  1.00  0.00     0.134 A 
ATOM     68  C   UNL A   1      47.942  26.609  26.668  1.00  0.00     0.134 A 
ATOM     69  F   UNL A   1      46.145  28.054  23.865  1.00  0.00    -0.206 F 
ATOM     70  C   UNL A   1      48.281  27.089  23.954  1.00  0.00     0.040 A 
ATOM     71  C   UNL A   1      49.140  26.258  26.044  1.00  0.00     0.040 A 
ATOM     72  F   UNL A   1      47.824  26.382  27.984  1.00  0.00    -0.206 F 
ATOM     73  C   UNL A   1      49.311  26.496  24.682  1.00  0.00     0.006 A 
ENDBRANCH  45  66
BRANCH  57  74
ATOM     74  C   UNL A   1      45.206  33.103  29.243  1.00  0.00     0.057 A 
ATOM     75  C   UNL A   1      46.012  33.197  30.386  1.00  0.00     0.134 A 
ATOM     76  C   UNL A   1      45.189  34.199  28.372  1.00  0.00     0.134 A 
ATOM     77  F   UNL A   1      46.068  32.186  31.266  1.00  0.00    -0.206 F 
ATOM     78  C   UNL A   1      46.782  34.331  30.644  1.00  0.00     0.040 A 
ATOM     79  C   UNL A   1      45.979  35.327  28.603  1.00  0.00     0.040 A 
ATOM     80  F   UNL A   1      44.453  34.165  27.250  1.00  0.00    -0.206 F 
ATOM     81  C   UNL A   1      46.777  35.395  29.744  1.00  0.00     0.006 A 
ENDBRANCH  57  74
ENDBRANCH  31  32
ENDBRANCH  24  26
ENDBRANCH  23  24
ENDBRANCH   1  23
TORSDOF 13
ENDMDL
