MODEL 1
REMARK VINA RESULT:     -13.0      0.000      0.000
REMARK SMILES Cc1c(C(=O)Nc2ccc(C(=O)Nc3ccccc3C(=O)OCCOC(=O)c3ccc(-c4c5nc(c(-c6c(F)cccc6F)c6ccc([nH]6)c(-c6c(F)cccc6F)c6nc(c(-c7c(F)cccc7F)c7ccc4[nH]7)C=C6)C=C5)cc3)cc2)cccc1[N+](=O)[O-]
REMARK SMILES IDX 22 1 20 2 21 3 19 4 14 5 15 6 16 7 18 8 17 9 13 10 11 11
REMARK SMILES IDX 12 12 10 14 7 15 8 16 83 17 9 18 82 19 6 20 4 21 5 22 3 24
REMARK SMILES IDX 1 25 2 26 87 27 84 28 86 29 85 30 88 31 89 32 90 33 23 34
REMARK SMILES IDX 24 35 25 36 26 37 27 38 28 39 29 40 81 41 30 42 80 43 31 44
REMARK SMILES IDX 32 45 33 46 74 47 34 48 79 49 73 50 75 51 35 52 78 53 72 54
REMARK SMILES IDX 71 55 36 57 62 58 45 59 61 60 46 61 49 62 60 63 76 64 47 65
REMARK SMILES IDX 48 66 59 68 77 69 50 70 37 71 38 72 43 73 39 74 40 75 42 76
REMARK SMILES IDX 44 77 41 78 63 79 64 80 69 81 65 82 66 83 68 84 70 85 67 86
REMARK SMILES IDX 51 87 52 88 57 89 53 90 54 91 56 92 58 93 55 94
REMARK H PARENT 13 13 6 23 75 56 49 67
REMARK Flexibility Score: inf
ROOT
ATOM      1  O   UNL A   1      31.603  30.215  25.575  1.00  0.00    -0.458 OA
ENDROOT
BRANCH   1   2
ATOM      2  C   UNL A   1      30.714  31.105  25.048  1.00  0.00     0.340 C 
ATOM      3  O   UNL A   1      30.454  32.163  25.624  1.00  0.00    -0.246 OA
BRANCH   2   4
ATOM      4  C   UNL A   1      29.926  30.744  23.800  1.00  0.00     0.083 A 
ATOM      5  C   UNL A   1      30.245  29.984  22.647  1.00  0.00     0.056 A 
ATOM      6  C   UNL A   1      29.289  29.916  21.596  1.00  0.00     0.027 A 
ATOM      7  C   UNL A   1      28.016  30.469  21.693  1.00  0.00     0.002 A 
ATOM      8  C   UNL A   1      28.614  31.302  23.854  1.00  0.00     0.018 A 
ATOM      9  C   UNL A   1      27.670  31.154  22.838  1.00  0.00     0.001 A 
BRANCH   5  10
ATOM     10  N   UNL A   1      31.363  29.183  22.327  1.00  0.00    -0.321 N 
ATOM     11  C   UNL A   1      31.855  27.968  22.746  1.00  0.00     0.255 C 
ATOM     12  O   UNL A   1      32.830  27.520  22.138  1.00  0.00    -0.269 OA
ATOM     13  H   UNL A   1      31.929  29.595  21.635  1.00  0.00     0.170 HD
BRANCH  11  14
ATOM     14  C   UNL A   1      31.272  27.168  23.836  1.00  0.00     0.040 A 
ATOM     15  C   UNL A   1      30.136  25.724  25.923  1.00  0.00     0.041 A 
ATOM     16  C   UNL A   1      29.398  26.008  24.786  1.00  0.00     0.027 A 
ATOM     17  C   UNL A   1      31.390  26.306  26.104  1.00  0.00     0.027 A 
ATOM     18  C   UNL A   1      30.032  26.566  23.698  1.00  0.00     0.016 A 
ATOM     19  C   UNL A   1      31.958  27.034  25.050  1.00  0.00     0.016 A 
BRANCH  15  20
ATOM     20  N   UNL A   1      29.715  24.697  26.773  1.00  0.00    -0.322 N 
ATOM     21  C   UNL A   1      30.161  23.378  26.766  1.00  0.00     0.256 C 
ATOM     22  O   UNL A   1      29.588  22.537  27.456  1.00  0.00    -0.269 OA
ATOM     23  H   UNL A   1      29.034  24.931  27.445  1.00  0.00     0.170 HD
BRANCH  21  24
ATOM     24  C   UNL A   1      31.327  22.943  25.908  1.00  0.00     0.049 A 
ATOM     25  C   UNL A   1      32.955  22.568  27.839  1.00  0.00     0.053 C 
ATOM     26  C   UNL A   1      32.659  22.746  26.371  1.00  0.00     0.039 A 
ATOM     27  C   UNL A   1      33.694  22.750  25.399  1.00  0.00     0.273 A 
ATOM     28  C   UNL A   1      31.046  22.867  24.532  1.00  0.00     0.014 A 
ATOM     29  C   UNL A   1      33.394  22.693  24.027  1.00  0.00     0.086 A 
ATOM     30  C   UNL A   1      32.070  22.697  23.601  1.00  0.00     0.008 A 
BRANCH  27  31
ATOM     31  N   UNL A   1      35.116  22.957  25.755  1.00  0.00     0.063 N 
ATOM     32  O   UNL A   1      35.796  21.950  26.004  1.00  0.00    -0.258 OA
ATOM     33  O   UNL A   1      35.577  24.104  25.702  1.00  0.00    -0.258 OA
ENDBRANCH  27  31
ENDBRANCH  21  24
ENDBRANCH  15  20
ENDBRANCH  11  14
ENDBRANCH   5  10
ENDBRANCH   2   4
ENDBRANCH   1   2
BRANCH   1  34
ATOM     34  C   UNL A   1      32.158  30.680  26.824  1.00  0.00     0.275 C 
BRANCH  34  35
ATOM     35  C   UNL A   1      33.575  30.213  27.253  1.00  0.00     0.275 C 
BRANCH  35  36
ATOM     36  O   UNL A   1      34.425  30.951  28.173  1.00  0.00    -0.458 OA
BRANCH  36  37
ATOM     37  C   UNL A   1      35.643  31.501  27.974  1.00  0.00     0.338 C 
ATOM     38  O   UNL A   1      35.826  32.657  27.612  1.00  0.00    -0.246 OA
BRANCH  37  39
ATOM     39  C   UNL A   1      36.748  30.648  28.348  1.00  0.00     0.060 A 
ATOM     40  C   UNL A   1      36.648  29.918  29.540  1.00  0.00     0.016 A 
ATOM     41  C   UNL A   1      37.753  30.446  27.410  1.00  0.00     0.016 A 
ATOM     42  C   UNL A   1      37.507  28.864  29.762  1.00  0.00     0.010 A 
ATOM     43  C   UNL A   1      38.560  29.358  27.578  1.00  0.00     0.010 A 
ATOM     44  C   UNL A   1      38.474  28.633  28.789  1.00  0.00    -0.014 A 
BRANCH  44  45
ATOM     45  C   UNL A   1      39.778  28.145  29.183  1.00  0.00     0.031 A 
ATOM     46  C   UNL A   1      40.192  26.785  28.852  1.00  0.00     0.074 A 
ATOM     47  C   UNL A   1      40.536  29.245  29.400  1.00  0.00     0.049 A 
ATOM     48  N   UNL A   1      41.305  26.257  29.210  1.00  0.00    -0.248 NA
ATOM     49  C   UNL A   1      39.338  25.847  28.124  1.00  0.00     0.031 C 
ATOM     50  C   UNL A   1      41.921  29.546  29.117  1.00  0.00     0.029 A 
ATOM     51  N   UNL A   1      40.057  30.434  29.982  1.00  0.00    -0.354 N 
ATOM     52  C   UNL A   1      41.490  25.163  28.387  1.00  0.00     0.074 A 
ATOM     53  C   UNL A   1      40.174  24.827  27.912  1.00  0.00     0.031 C 
ATOM     54  C   UNL A   1      42.254  30.672  29.786  1.00  0.00     0.029 A 
ATOM     55  C   UNL A   1      41.122  31.019  30.648  1.00  0.00     0.049 A 
ATOM     56  H   UNL A   1      39.138  30.784  29.925  1.00  0.00     0.167 HD
ATOM     57  C   UNL A   1      42.763  24.867  27.990  1.00  0.00     0.037 A 
ATOM     58  C   UNL A   1      41.101  30.915  32.012  1.00  0.00     0.037 A 
ATOM     59  C   UNL A   1      43.691  25.820  28.612  1.00  0.00     0.049 A 
ATOM     60  C   UNL A   1      42.190  29.971  32.456  1.00  0.00     0.074 A 
ATOM     61  C   UNL A   1      44.275  26.981  28.130  1.00  0.00     0.029 A 
ATOM     62  N   UNL A   1      43.779  25.888  30.001  1.00  0.00    -0.354 N 
ATOM     63  N   UNL A   1      42.557  28.898  31.806  1.00  0.00    -0.248 NA
ATOM     64  C   UNL A   1      43.038  30.270  33.600  1.00  0.00     0.031 C 
ATOM     65  C   UNL A   1      44.652  27.779  29.243  1.00  0.00     0.029 A 
ATOM     66  C   UNL A   1      44.273  27.116  30.401  1.00  0.00     0.049 A 
ATOM     67  H   UNL A   1      43.523  25.161  30.613  1.00  0.00     0.167 HD
ATOM     68  C   UNL A   1      43.728  28.434  32.347  1.00  0.00     0.074 A 
ATOM     69  C   UNL A   1      43.968  29.307  33.485  1.00  0.00     0.031 C 
ATOM     70  C   UNL A   1      44.461  27.411  31.812  1.00  0.00     0.037 A 
BRANCH  57  71
ATOM     71  C   UNL A   1      43.122  24.011  26.787  1.00  0.00     0.057 A 
ATOM     72  C   UNL A   1      43.132  22.605  26.885  1.00  0.00     0.134 A 
ATOM     73  C   UNL A   1      43.491  24.495  25.518  1.00  0.00     0.134 A 
ATOM     74  F   UNL A   1      42.716  21.969  27.988  1.00  0.00    -0.206 F 
ATOM     75  C   UNL A   1      43.559  21.760  25.850  1.00  0.00     0.040 A 
ATOM     76  C   UNL A   1      43.954  23.664  24.482  1.00  0.00     0.040 A 
ATOM     77  F   UNL A   1      43.368  25.786  25.190  1.00  0.00    -0.206 F 
ATOM     78  C   UNL A   1      43.998  22.289  24.649  1.00  0.00     0.006 A 
ENDBRANCH  57  71
BRANCH  58  79
ATOM     79  C   UNL A   1      39.722  31.010  32.608  1.00  0.00     0.057 A 
ATOM     80  C   UNL A   1      39.067  32.263  32.616  1.00  0.00     0.134 A 
ATOM     81  C   UNL A   1      38.919  29.898  32.886  1.00  0.00     0.134 A 
ATOM     82  F   UNL A   1      39.759  33.384  32.354  1.00  0.00    -0.206 F 
ATOM     83  C   UNL A   1      37.683  32.391  32.800  1.00  0.00     0.040 A 
ATOM     84  C   UNL A   1      37.530  30.017  33.088  1.00  0.00     0.040 A 
ATOM     85  F   UNL A   1      39.436  28.663  32.884  1.00  0.00    -0.206 F 
ATOM     86  C   UNL A   1      36.905  31.261  33.016  1.00  0.00     0.006 A 
ENDBRANCH  58  79
BRANCH  70  87
ATOM     87  C   UNL A   1      45.511  26.629  32.559  1.00  0.00     0.057 A 
ATOM     88  C   UNL A   1      45.222  25.530  33.378  1.00  0.00     0.134 A 
ATOM     89  C   UNL A   1      46.887  26.845  32.307  1.00  0.00     0.134 A 
ATOM     90  F   UNL A   1      43.964  25.126  33.603  1.00  0.00    -0.206 F 
ATOM     91  C   UNL A   1      46.222  24.744  33.956  1.00  0.00     0.040 A 
ATOM     92  C   UNL A   1      47.888  26.019  32.815  1.00  0.00     0.040 A 
ATOM     93  F   UNL A   1      47.323  27.841  31.522  1.00  0.00    -0.206 F 
ATOM     94  C   UNL A   1      47.559  24.973  33.661  1.00  0.00     0.006 A 
ENDBRANCH  70  87
ENDBRANCH  44  45
ENDBRANCH  37  39
ENDBRANCH  36  37
ENDBRANCH  35  36
ENDBRANCH  34  35
ENDBRANCH   1  34
TORSDOF 16
ENDMDL
MODEL 2
REMARK VINA RESULT:     -12.9      3.605      9.183
REMARK SMILES Cc1c(C(=O)Nc2ccc(C(=O)Nc3ccccc3C(=O)OCCOC(=O)c3ccc(-c4c5nc(c(-c6c(F)cccc6F)c6ccc([nH]6)c(-c6c(F)cccc6F)c6nc(c(-c7c(F)cccc7F)c7ccc4[nH]7)C=C6)C=C5)cc3)cc2)cccc1[N+](=O)[O-]
REMARK SMILES IDX 22 1 20 2 21 3 19 4 14 5 15 6 16 7 18 8 17 9 13 10 11 11
REMARK SMILES IDX 12 12 10 14 7 15 8 16 83 17 9 18 82 19 6 20 4 21 5 22 3 24
REMARK SMILES IDX 1 25 2 26 87 27 84 28 86 29 85 30 88 31 89 32 90 33 23 34
REMARK SMILES IDX 24 35 25 36 26 37 27 38 28 39 29 40 81 41 30 42 80 43 31 44
REMARK SMILES IDX 32 45 33 46 74 47 34 48 79 49 73 50 75 51 35 52 78 53 72 54
REMARK SMILES IDX 71 55 36 57 62 58 45 59 61 60 46 61 49 62 60 63 76 64 47 65
REMARK SMILES IDX 48 66 59 68 77 69 50 70 37 71 38 72 43 73 39 74 40 75 42 76
REMARK SMILES IDX 44 77 41 78 63 79 64 80 69 81 65 82 66 83 68 84 70 85 67 86
REMARK SMILES IDX 51 87 52 88 57 89 53 90 54 91 56 92 58 93 55 94
REMARK H PARENT 13 13 6 23 75 56 49 67
REMARK Flexibility Score: inf
ROOT
ATOM      1  O   UNL A   1      40.503  19.793  26.198  1.00  0.00    -0.458 OA
ENDROOT
BRANCH   1   2
ATOM      2  C   UNL A   1      40.272  20.964  26.859  1.00  0.00     0.340 C 
ATOM      3  O   UNL A   1      40.850  21.223  27.915  1.00  0.00    -0.246 OA
BRANCH   2   4
ATOM      4  C   UNL A   1      39.194  21.914  26.366  1.00  0.00     0.083 A 
ATOM      5  C   UNL A   1      38.000  21.716  25.628  1.00  0.00     0.056 A 
ATOM      6  C   UNL A   1      37.246  22.859  25.243  1.00  0.00     0.027 A 
ATOM      7  C   UNL A   1      37.566  24.150  25.651  1.00  0.00     0.002 A 
ATOM      8  C   UNL A   1      39.490  23.255  26.754  1.00  0.00     0.018 A 
ATOM      9  C   UNL A   1      38.688  24.348  26.426  1.00  0.00     0.001 A 
BRANCH   5  10
ATOM     10  N   UNL A   1      37.332  20.543  25.216  1.00  0.00    -0.321 N 
ATOM     11  C   UNL A   1      36.020  20.165  25.047  1.00  0.00     0.255 C 
ATOM     12  O   UNL A   1      35.816  19.056  24.547  1.00  0.00    -0.269 OA
ATOM     13  H   UNL A   1      37.959  19.816  24.997  1.00  0.00     0.170 HD
BRANCH  11  14
ATOM     14  C   UNL A   1      34.863  21.011  25.386  1.00  0.00     0.040 A 
ATOM     15  C   UNL A   1      32.724  22.673  26.011  1.00  0.00     0.041 A 
ATOM     16  C   UNL A   1      32.970  22.314  24.697  1.00  0.00     0.027 A 
ATOM     17  C   UNL A   1      33.644  22.350  27.007  1.00  0.00     0.027 A 
ATOM     18  C   UNL A   1      33.920  21.353  24.431  1.00  0.00     0.016 A 
ATOM     19  C   UNL A   1      34.722  21.512  26.688  1.00  0.00     0.016 A 
BRANCH  15  20
ATOM     20  N   UNL A   1      31.463  23.167  26.361  1.00  0.00    -0.322 N 
ATOM     21  C   UNL A   1      31.024  24.483  26.239  1.00  0.00     0.256 C 
ATOM     22  O   UNL A   1      29.951  24.817  26.738  1.00  0.00    -0.269 OA
ATOM     23  H   UNL A   1      30.820  22.518  26.730  1.00  0.00     0.170 HD
BRANCH  21  24
ATOM     24  C   UNL A   1      31.850  25.529  25.524  1.00  0.00     0.049 A 
ATOM     25  C   UNL A   1      30.938  25.039  23.190  1.00  0.00     0.053 C 
ATOM     26  C   UNL A   1      31.953  25.667  24.111  1.00  0.00     0.039 A 
ATOM     27  C   UNL A   1      33.061  26.399  23.607  1.00  0.00     0.273 A 
ATOM     28  C   UNL A   1      32.659  26.314  26.365  1.00  0.00     0.014 A 
ATOM     29  C   UNL A   1      33.870  27.164  24.465  1.00  0.00     0.086 A 
ATOM     30  C   UNL A   1      33.632  27.160  25.836  1.00  0.00     0.008 A 
BRANCH  27  31
ATOM     31  N   UNL A   1      33.511  26.290  22.201  1.00  0.00     0.063 N 
ATOM     32  O   UNL A   1      33.851  27.334  21.626  1.00  0.00    -0.258 OA
ATOM     33  O   UNL A   1      33.609  25.163  21.698  1.00  0.00    -0.258 OA
ENDBRANCH  27  31
ENDBRANCH  21  24
ENDBRANCH  15  20
ENDBRANCH  11  14
ENDBRANCH   5  10
ENDBRANCH   2   4
ENDBRANCH   1   2
BRANCH   1  34
ATOM     34  C   UNL A   1      41.820  19.267  26.472  1.00  0.00     0.275 C 
BRANCH  34  35
ATOM     35  C   UNL A   1      43.025  19.735  25.612  1.00  0.00     0.275 C 
BRANCH  35  36
ATOM     36  O   UNL A   1      43.755  20.969  25.850  1.00  0.00    -0.458 OA
BRANCH  36  37
ATOM     37  C   UNL A   1      44.043  21.982  25.003  1.00  0.00     0.338 C 
ATOM     38  O   UNL A   1      44.169  21.852  23.791  1.00  0.00    -0.246 OA
BRANCH  37  39
ATOM     39  C   UNL A   1      44.069  23.287  25.624  1.00  0.00     0.060 A 
ATOM     40  C   UNL A   1      43.843  23.368  27.005  1.00  0.00     0.016 A 
ATOM     41  C   UNL A   1      44.513  24.358  24.857  1.00  0.00     0.016 A 
ATOM     42  C   UNL A   1      44.182  24.521  27.678  1.00  0.00     0.010 A 
ATOM     43  C   UNL A   1      44.926  25.477  25.521  1.00  0.00     0.010 A 
ATOM     44  C   UNL A   1      44.680  25.569  26.910  1.00  0.00    -0.014 A 
BRANCH  44  45
ATOM     45  C   UNL A   1      44.375  26.932  27.284  1.00  0.00     0.031 A 
ATOM     46  C   UNL A   1      43.002  27.425  27.238  1.00  0.00     0.074 A 
ATOM     47  C   UNL A   1      45.411  27.349  28.048  1.00  0.00     0.049 A 
ATOM     48  N   UNL A   1      42.653  28.631  27.499  1.00  0.00    -0.248 NA
ATOM     49  C   UNL A   1      41.873  26.596  26.817  1.00  0.00     0.031 C 
ATOM     50  C   UNL A   1      45.480  28.173  29.233  1.00  0.00     0.029 A 
ATOM     51  N   UNL A   1      46.755  26.997  27.819  1.00  0.00    -0.354 N 
ATOM     52  C   UNL A   1      41.294  28.591  27.740  1.00  0.00     0.074 A 
ATOM     53  C   UNL A   1      40.835  27.392  27.091  1.00  0.00     0.031 C 
ATOM     54  C   UNL A   1      46.771  28.515  29.436  1.00  0.00     0.029 A 
ATOM     55  C   UNL A   1      47.535  28.047  28.278  1.00  0.00     0.049 A 
ATOM     56  H   UNL A   1      47.080  26.161  27.410  1.00  0.00     0.167 HD
ATOM     57  C   UNL A   1      40.787  29.423  28.697  1.00  0.00     0.037 A 
ATOM     58  C   UNL A   1      48.085  28.845  27.314  1.00  0.00     0.037 A 
ATOM     59  C   UNL A   1      41.876  30.244  29.241  1.00  0.00     0.049 A 
ATOM     60  C   UNL A   1      47.412  30.194  27.340  1.00  0.00     0.074 A 
ATOM     61  C   UNL A   1      42.646  30.106  30.387  1.00  0.00     0.029 A 
ATOM     62  N   UNL A   1      42.585  31.095  28.397  1.00  0.00    -0.354 N 
ATOM     63  N   UNL A   1      46.143  30.390  27.589  1.00  0.00    -0.248 NA
ATOM     64  C   UNL A   1      48.174  31.429  27.231  1.00  0.00     0.031 C 
ATOM     65  C   UNL A   1      43.855  30.826  30.193  1.00  0.00     0.029 A 
ATOM     66  C   UNL A   1      43.833  31.378  28.922  1.00  0.00     0.049 A 
ATOM     67  H   UNL A   1      42.244  31.446  27.543  1.00  0.00     0.167 HD
ATOM     68  C   UNL A   1      45.935  31.729  27.790  1.00  0.00     0.074 A 
ATOM     69  C   UNL A   1      47.228  32.338  27.522  1.00  0.00     0.031 C 
ATOM     70  C   UNL A   1      44.748  32.260  28.214  1.00  0.00     0.037 A 
BRANCH  57  71
ATOM     71  C   UNL A   1      39.451  29.235  29.395  1.00  0.00     0.057 A 
ATOM     72  C   UNL A   1      38.252  29.640  28.771  1.00  0.00     0.134 A 
ATOM     73  C   UNL A   1      39.266  28.692  30.680  1.00  0.00     0.134 A 
ATOM     74  F   UNL A   1      38.228  30.089  27.510  1.00  0.00    -0.206 F 
ATOM     75  C   UNL A   1      36.999  29.597  29.400  1.00  0.00     0.040 A 
ATOM     76  C   UNL A   1      38.023  28.674  31.337  1.00  0.00     0.040 A 
ATOM     77  F   UNL A   1      40.262  28.096  31.345  1.00  0.00    -0.206 F 
ATOM     78  C   UNL A   1      36.882  29.137  30.700  1.00  0.00     0.006 A 
ENDBRANCH  57  71
BRANCH  58  79
ATOM     79  C   UNL A   1      48.513  28.100  26.077  1.00  0.00     0.057 A 
ATOM     80  C   UNL A   1      49.690  27.318  26.125  1.00  0.00     0.134 A 
ATOM     81  C   UNL A   1      47.679  27.882  24.975  1.00  0.00     0.134 A 
ATOM     82  F   UNL A   1      50.546  27.457  27.151  1.00  0.00    -0.206 F 
ATOM     83  C   UNL A   1      49.973  26.320  25.183  1.00  0.00     0.040 A 
ATOM     84  C   UNL A   1      47.962  26.893  24.014  1.00  0.00     0.040 A 
ATOM     85  F   UNL A   1      46.529  28.556  24.844  1.00  0.00    -0.206 F 
ATOM     86  C   UNL A   1      49.095  26.090  24.132  1.00  0.00     0.006 A 
ENDBRANCH  58  79
BRANCH  70  87
ATOM     87  C   UNL A   1      44.361  33.710  28.077  1.00  0.00     0.057 A 
ATOM     88  C   UNL A   1      44.564  34.664  29.082  1.00  0.00     0.134 A 
ATOM     89  C   UNL A   1      43.951  34.232  26.827  1.00  0.00     0.134 A 
ATOM     90  F   UNL A   1      45.072  34.336  30.277  1.00  0.00    -0.206 F 
ATOM     91  C   UNL A   1      44.316  36.025  28.883  1.00  0.00     0.040 A 
ATOM     92  C   UNL A   1      43.777  35.596  26.596  1.00  0.00     0.040 A 
ATOM     93  F   UNL A   1      43.740  33.449  25.758  1.00  0.00    -0.206 F 
ATOM     94  C   UNL A   1      43.940  36.498  27.633  1.00  0.00     0.006 A 
ENDBRANCH  70  87
ENDBRANCH  44  45
ENDBRANCH  37  39
ENDBRANCH  36  37
ENDBRANCH  35  36
ENDBRANCH  34  35
ENDBRANCH   1  34
TORSDOF 16
ENDMDL
MODEL 3
REMARK VINA RESULT:     -12.8      1.877      3.363
REMARK SMILES Cc1c(C(=O)Nc2ccc(C(=O)Nc3ccccc3C(=O)OCCOC(=O)c3ccc(-c4c5nc(c(-c6c(F)cccc6F)c6ccc([nH]6)c(-c6c(F)cccc6F)c6nc(c(-c7c(F)cccc7F)c7ccc4[nH]7)C=C6)C=C5)cc3)cc2)cccc1[N+](=O)[O-]
REMARK SMILES IDX 22 1 20 2 21 3 19 4 14 5 15 6 16 7 18 8 17 9 13 10 11 11
REMARK SMILES IDX 12 12 10 14 7 15 8 16 83 17 9 18 82 19 6 20 4 21 5 22 3 24
REMARK SMILES IDX 1 25 2 26 87 27 84 28 86 29 85 30 88 31 89 32 90 33 23 34
REMARK SMILES IDX 24 35 25 36 26 37 27 38 28 39 29 40 81 41 30 42 80 43 31 44
REMARK SMILES IDX 32 45 33 46 74 47 34 48 79 49 73 50 75 51 35 52 78 53 72 54
REMARK SMILES IDX 71 55 36 57 62 58 45 59 61 60 46 61 49 62 60 63 76 64 47 65
REMARK SMILES IDX 48 66 59 68 77 69 50 70 37 71 38 72 43 73 39 74 40 75 42 76
REMARK SMILES IDX 44 77 41 78 63 79 64 80 69 81 65 82 66 83 68 84 70 85 67 86
REMARK SMILES IDX 51 87 52 88 57 89 53 90 54 91 56 92 58 93 55 94
REMARK H PARENT 13 13 6 23 75 56 49 67
REMARK Flexibility Score: inf
ROOT
ATOM      1  O   UNL A   1      31.850  29.698  26.728  1.00  0.00    -0.458 OA
ENDROOT
BRANCH   1   2
ATOM      2  C   UNL A   1      31.396  28.412  26.707  1.00  0.00     0.340 C 
ATOM      3  O   UNL A   1      31.383  27.725  27.730  1.00  0.00    -0.246 OA
BRANCH   2   4
ATOM      4  C   UNL A   1      31.021  27.760  25.388  1.00  0.00     0.083 A 
ATOM      5  C   UNL A   1      30.458  26.501  25.061  1.00  0.00     0.056 A 
ATOM      6  C   UNL A   1      30.317  26.158  23.688  1.00  0.00     0.027 A 
ATOM      7  C   UNL A   1      30.604  27.044  22.653  1.00  0.00     0.002 A 
ATOM      8  C   UNL A   1      31.310  28.632  24.296  1.00  0.00     0.018 A 
ATOM      9  C   UNL A   1      31.089  28.296  22.960  1.00  0.00     0.001 A 
BRANCH   5  10
ATOM     10  N   UNL A   1      29.923  25.473  25.866  1.00  0.00    -0.321 N 
ATOM     11  C   UNL A   1      30.436  24.421  26.590  1.00  0.00     0.255 C 
ATOM     12  O   UNL A   1      29.643  23.779  27.284  1.00  0.00    -0.269 OA
ATOM     13  H   UNL A   1      28.941  25.520  25.925  1.00  0.00     0.170 HD
BRANCH  11  14
ATOM     14  C   UNL A   1      31.860  24.047  26.614  1.00  0.00     0.040 A 
ATOM     15  C   UNL A   1      34.557  23.382  26.726  1.00  0.00     0.041 A 
ATOM     16  C   UNL A   1      33.623  22.636  27.425  1.00  0.00     0.027 A 
ATOM     17  C   UNL A   1      34.177  24.571  26.104  1.00  0.00     0.027 A 
ATOM     18  C   UNL A   1      32.283  22.873  27.214  1.00  0.00     0.016 A 
ATOM     19  C   UNL A   1      32.817  24.902  26.051  1.00  0.00     0.016 A 
BRANCH  15  20
ATOM     20  N   UNL A   1      35.818  22.834  26.471  1.00  0.00    -0.322 N 
ATOM     21  C   UNL A   1      36.092  21.709  25.697  1.00  0.00     0.256 C 
ATOM     22  O   UNL A   1      37.227  21.236  25.690  1.00  0.00    -0.269 OA
ATOM     23  H   UNL A   1      36.590  23.290  26.879  1.00  0.00     0.170 HD
BRANCH  21  24
ATOM     24  C   UNL A   1      35.018  21.032  24.877  1.00  0.00     0.049 A 
ATOM     25  C   UNL A   1      34.810  22.882  23.130  1.00  0.00     0.053 C 
ATOM     26  C   UNL A   1      34.297  21.638  23.809  1.00  0.00     0.039 A 
ATOM     27  C   UNL A   1      33.068  21.037  23.429  1.00  0.00     0.273 A 
ATOM     28  C   UNL A   1      34.651  19.752  25.331  1.00  0.00     0.014 A 
ATOM     29  C   UNL A   1      32.709  19.764  23.908  1.00  0.00     0.086 A 
ATOM     30  C   UNL A   1      33.530  19.104  24.817  1.00  0.00     0.008 A 
BRANCH  27  31
ATOM     31  N   UNL A   1      32.044  21.756  22.638  1.00  0.00     0.063 N 
ATOM     32  O   UNL A   1      31.804  21.336  21.496  1.00  0.00    -0.258 OA
ATOM     33  O   UNL A   1      31.419  22.677  23.180  1.00  0.00    -0.258 OA
ENDBRANCH  27  31
ENDBRANCH  21  24
ENDBRANCH  15  20
ENDBRANCH  11  14
ENDBRANCH   5  10
ENDBRANCH   2   4
ENDBRANCH   1   2
BRANCH   1  34
ATOM     34  C   UNL A   1      33.072  29.829  27.487  1.00  0.00     0.275 C 
BRANCH  34  35
ATOM     35  C   UNL A   1      34.242  28.842  27.231  1.00  0.00     0.275 C 
BRANCH  35  36
ATOM     36  O   UNL A   1      35.597  29.260  26.910  1.00  0.00    -0.458 OA
BRANCH  36  37
ATOM     37  C   UNL A   1      36.415  30.116  27.561  1.00  0.00     0.338 C 
ATOM     38  O   UNL A   1      36.129  31.279  27.821  1.00  0.00    -0.246 OA
BRANCH  37  39
ATOM     39  C   UNL A   1      37.635  29.515  28.051  1.00  0.00     0.060 A 
ATOM     40  C   UNL A   1      38.777  29.579  27.242  1.00  0.00     0.016 A 
ATOM     41  C   UNL A   1      37.657  29.088  29.374  1.00  0.00     0.016 A 
ATOM     42  C   UNL A   1      40.012  29.323  27.795  1.00  0.00     0.010 A 
ATOM     43  C   UNL A   1      38.879  28.908  29.955  1.00  0.00     0.010 A 
ATOM     44  C   UNL A   1      40.030  28.952  29.136  1.00  0.00    -0.014 A 
BRANCH  44  45
ATOM     45  C   UNL A   1      41.020  28.004  29.599  1.00  0.00     0.031 A 
ATOM     46  C   UNL A   1      41.110  26.675  29.000  1.00  0.00     0.074 A 
ATOM     47  C   UNL A   1      41.978  28.735  30.214  1.00  0.00     0.049 A 
ATOM     48  N   UNL A   1      41.919  25.758  29.386  1.00  0.00    -0.248 NA
ATOM     49  C   UNL A   1      40.228  26.224  27.925  1.00  0.00     0.031 C 
ATOM     50  C   UNL A   1      43.418  28.625  30.248  1.00  0.00     0.029 A 
ATOM     51  N   UNL A   1      41.721  29.877  30.996  1.00  0.00    -0.354 N 
ATOM     52  C   UNL A   1      41.985  24.847  28.350  1.00  0.00     0.074 A 
ATOM     53  C   UNL A   1      40.777  25.052  27.595  1.00  0.00     0.031 C 
ATOM     54  C   UNL A   1      43.880  29.429  31.231  1.00  0.00     0.029 A 
ATOM     55  C   UNL A   1      42.718  29.946  31.956  1.00  0.00     0.049 A 
ATOM     56  H   UNL A   1      40.973  30.508  30.883  1.00  0.00     0.167 HD
ATOM     57  C   UNL A   1      43.184  24.241  28.104  1.00  0.00     0.037 A 
ATOM     58  C   UNL A   1      42.350  29.588  33.224  1.00  0.00     0.037 A 
ATOM     59  C   UNL A   1      44.165  24.703  29.094  1.00  0.00     0.049 A 
ATOM     60  C   UNL A   1      43.002  28.276  33.581  1.00  0.00     0.074 A 
ATOM     61  C   UNL A   1      45.142  25.685  29.030  1.00  0.00     0.029 A 
ATOM     62  N   UNL A   1      43.940  24.464  30.448  1.00  0.00    -0.354 N 
ATOM     63  N   UNL A   1      43.203  27.292  32.745  1.00  0.00    -0.248 NA
ATOM     64  C   UNL A   1      43.607  28.056  34.886  1.00  0.00     0.031 C 
ATOM     65  C   UNL A   1      45.451  26.084  30.358  1.00  0.00     0.029 A 
ATOM     66  C   UNL A   1      44.643  25.365  31.227  1.00  0.00     0.049 A 
ATOM     67  H   UNL A   1      43.358  23.753  30.801  1.00  0.00     0.167 HD
ATOM     68  C   UNL A   1      44.041  26.379  33.331  1.00  0.00     0.074 A 
ATOM     69  C   UNL A   1      44.237  26.887  34.680  1.00  0.00     0.031 C 
ATOM     70  C   UNL A   1      44.569  25.301  32.678  1.00  0.00     0.037 A 
BRANCH  57  71
ATOM     71  C   UNL A   1      43.567  23.568  26.796  1.00  0.00     0.057 A 
ATOM     72  C   UNL A   1      43.341  22.189  26.605  1.00  0.00     0.134 A 
ATOM     73  C   UNL A   1      44.178  24.200  25.698  1.00  0.00     0.134 A 
ATOM     74  F   UNL A   1      42.682  21.449  27.506  1.00  0.00    -0.206 F 
ATOM     75  C   UNL A   1      43.769  21.484  25.470  1.00  0.00     0.040 A 
ATOM     76  C   UNL A   1      44.643  23.502  24.568  1.00  0.00     0.040 A 
ATOM     77  F   UNL A   1      44.306  25.530  25.629  1.00  0.00    -0.206 F 
ATOM     78  C   UNL A   1      44.447  22.136  24.455  1.00  0.00     0.006 A 
ENDBRANCH  57  71
BRANCH  58  79
ATOM     79  C   UNL A   1      40.950  30.003  33.591  1.00  0.00     0.057 A 
ATOM     80  C   UNL A   1      40.703  31.355  33.921  1.00  0.00     0.134 A 
ATOM     81  C   UNL A   1      39.818  29.218  33.343  1.00  0.00     0.134 A 
ATOM     82  F   UNL A   1      41.731  32.184  34.169  1.00  0.00    -0.206 F 
ATOM     83  C   UNL A   1      39.417  31.913  33.916  1.00  0.00     0.040 A 
ATOM     84  C   UNL A   1      38.520  29.763  33.351  1.00  0.00     0.040 A 
ATOM     85  F   UNL A   1      39.941  27.929  33.002  1.00  0.00    -0.206 F 
ATOM     86  C   UNL A   1      38.320  31.119  33.609  1.00  0.00     0.006 A 
ENDBRANCH  58  79
BRANCH  70  87
ATOM     87  C   UNL A   1      45.159  24.092  33.358  1.00  0.00     0.057 A 
ATOM     88  C   UNL A   1      46.452  24.059  33.895  1.00  0.00     0.134 A 
ATOM     89  C   UNL A   1      44.349  22.975  33.674  1.00  0.00     0.134 A 
ATOM     90  F   UNL A   1      47.290  25.099  33.787  1.00  0.00    -0.206 F 
ATOM     91  C   UNL A   1      46.929  22.972  34.633  1.00  0.00     0.040 A 
ATOM     92  C   UNL A   1      44.789  21.923  34.476  1.00  0.00     0.040 A 
ATOM     93  F   UNL A   1      43.078  22.871  33.256  1.00  0.00    -0.206 F 
ATOM     94  C   UNL A   1      46.092  21.909  34.943  1.00  0.00     0.006 A 
ENDBRANCH  70  87
ENDBRANCH  44  45
ENDBRANCH  37  39
ENDBRANCH  36  37
ENDBRANCH  35  36
ENDBRANCH  34  35
ENDBRANCH   1  34
TORSDOF 16
ENDMDL
