MODEL 1
REMARK VINA RESULT:     -12.5      0.000      0.000
REMARK SMILES O=C1C[C@@H](c2cccc(O)c2)c2c(c(C(=O)OCCOC(=O)c3ccc(-c4c5nc(c(-c6c(F)cccc6F)c6ccc([nH]6)c(-c6c(F)cccc6F)c6nc(c(-c7c(F)cccc7F)c7ccc4[nH]7)C=C6)C=C5)cc3)cn2-c2cccc(C(F)(F)F)c2)N1
REMARK SMILES IDX 18 1 17 2 15 3 16 4 14 5 1 6 2 7 3 8 89 9 4 10 13 11 12 13
REMARK SMILES IDX 78 14 77 15 5 16 6 17 11 18 7 19 9 20 8 21 10 22 79 24 80 25
REMARK SMILES IDX 88 26 81 27 83 28 82 29 84 30 85 31 86 32 87 33 19 34 20 35
REMARK SMILES IDX 21 36 22 37 23 38 24 39 76 40 25 41 75 42 26 43 27 44 28 45
REMARK SMILES IDX 69 46 29 47 74 48 68 49 70 50 30 51 73 52 67 53 66 54 31 56
REMARK SMILES IDX 57 57 40 58 56 59 41 60 44 61 55 62 71 63 42 64 43 65 54 67
REMARK SMILES IDX 72 68 45 69 32 70 33 71 38 72 34 73 35 74 37 75 39 76 36 77
REMARK SMILES IDX 58 78 59 79 64 80 60 81 61 82 63 83 65 84 62 85 46 86 47 87
REMARK SMILES IDX 52 88 48 89 49 90 51 91 53 92 50 93
REMARK H PARENT 89 12 10 23 70 55 44 66
REMARK Flexibility Score: inf
ROOT
ATOM      1  C   UNL A   1      36.037  21.260  25.369  1.00  0.00     0.275 C 
ENDROOT
BRANCH   1   2
ATOM      2  O   UNL A   1      35.393  22.519  25.614  1.00  0.00    -0.458 OA
BRANCH   2   3
ATOM      3  C   UNL A   1      34.235  22.740  24.923  1.00  0.00     0.341 C 
ATOM      4  O   UNL A   1      33.485  21.854  24.520  1.00  0.00    -0.246 OA
BRANCH   3   5
ATOM      5  C   UNL A   1      33.918  24.151  24.788  1.00  0.00     0.102 A 
ATOM      6  O   UNL A   1      32.859  24.750  20.167  1.00  0.00    -0.275 OA
ATOM      7  C   UNL A   1      33.144  25.203  21.275  1.00  0.00     0.225 C 
ATOM      8  C   UNL A   1      33.417  26.685  21.498  1.00  0.00     0.115 C 
ATOM      9  N   UNL A   1      33.376  24.369  22.338  1.00  0.00    -0.324 N 
ATOM     10  C   UNL A   1      33.004  27.210  22.888  1.00  0.00     0.078 C 
ATOM     11  C   UNL A   1      33.533  24.840  23.619  1.00  0.00     0.078 A 
ATOM     12  H   UNL A   1      33.431  23.399  22.178  1.00  0.00     0.170 HD
ATOM     13  C   UNL A   1      33.289  26.160  23.926  1.00  0.00     0.055 A 
ATOM     14  N   UNL A   1      33.491  26.318  25.287  1.00  0.00    -0.317 N 
ATOM     15  C   UNL A   1      33.912  25.101  25.795  1.00  0.00     0.109 A 
BRANCH  10  16
ATOM     16  C   UNL A   1      31.573  27.718  22.851  1.00  0.00    -0.035 A 
ATOM     17  C   UNL A   1      30.485  26.949  23.289  1.00  0.00     0.005 A 
ATOM     18  C   UNL A   1      31.328  29.014  22.366  1.00  0.00     0.050 A 
ATOM     19  C   UNL A   1      29.192  27.479  23.275  1.00  0.00     0.004 A 
ATOM     20  C   UNL A   1      30.043  29.542  22.386  1.00  0.00     0.115 A 
ATOM     21  C   UNL A   1      28.969  28.784  22.834  1.00  0.00     0.046 A 
BRANCH  20  22
ATOM     22  O   UNL A   1      29.887  30.835  21.987  1.00  0.00    -0.508 OA
ATOM     23  H   UNL A   1      29.221  31.369  22.374  1.00  0.00     0.293 HD
ENDBRANCH  20  22
ENDBRANCH  10  16
BRANCH  14  24
ATOM     24  C   UNL A   1      33.344  27.480  26.084  1.00  0.00     0.046 A 
ATOM     25  C   UNL A   1      32.058  27.928  26.404  1.00  0.00     0.026 A 
ATOM     26  C   UNL A   1      34.462  28.216  26.485  1.00  0.00     0.039 A 
ATOM     27  C   UNL A   1      31.898  29.069  27.188  1.00  0.00     0.003 A 
ATOM     28  C   UNL A   1      34.309  29.374  27.265  1.00  0.00     0.058 A 
ATOM     29  C   UNL A   1      33.015  29.780  27.626  1.00  0.00     0.013 A 
BRANCH  28  30
ATOM     30  C   UNL A   1      35.501  30.190  27.706  1.00  0.00     0.416 C 
ATOM     31  F   UNL A   1      36.599  29.956  26.932  1.00  0.00    -0.166 F 
ATOM     32  F   UNL A   1      35.275  31.530  27.626  1.00  0.00    -0.166 F 
ATOM     33  F   UNL A   1      35.903  29.950  28.985  1.00  0.00    -0.166 F 
ENDBRANCH  28  30
ENDBRANCH  14  24
ENDBRANCH   3   5
ENDBRANCH   2   3
ENDBRANCH   1   2
BRANCH   1  34
ATOM     34  C   UNL A   1      37.548  21.412  25.230  1.00  0.00     0.275 C 
BRANCH  34  35
ATOM     35  O   UNL A   1      38.048  22.555  25.929  1.00  0.00    -0.458 OA
BRANCH  35  36
ATOM     36  C   UNL A   1      39.257  22.385  26.508  1.00  0.00     0.338 C 
ATOM     37  O   UNL A   1      39.774  21.333  26.844  1.00  0.00    -0.246 OA
BRANCH  36  38
ATOM     38  C   UNL A   1      39.809  23.690  26.879  1.00  0.00     0.060 A 
ATOM     39  C   UNL A   1      40.987  23.714  27.632  1.00  0.00     0.016 A 
ATOM     40  C   UNL A   1      39.033  24.843  26.689  1.00  0.00     0.016 A 
ATOM     41  C   UNL A   1      41.323  24.875  28.299  1.00  0.00     0.010 A 
ATOM     42  C   UNL A   1      39.363  25.996  27.365  1.00  0.00     0.010 A 
ATOM     43  C   UNL A   1      40.474  25.986  28.207  1.00  0.00    -0.014 A 
BRANCH  43  44
ATOM     44  C   UNL A   1      40.872  27.213  28.872  1.00  0.00     0.031 A 
ATOM     45  C   UNL A   1      42.103  27.804  28.287  1.00  0.00     0.074 A 
ATOM     46  C   UNL A   1      40.111  27.815  29.810  1.00  0.00     0.049 A 
ATOM     47  N   UNL A   1      43.226  28.036  28.878  1.00  0.00    -0.248 NA
ATOM     48  C   UNL A   1      42.139  28.017  26.826  1.00  0.00     0.031 C 
ATOM     49  C   UNL A   1      38.760  27.443  30.239  1.00  0.00     0.029 A 
ATOM     50  N   UNL A   1      40.343  28.960  30.509  1.00  0.00    -0.354 N 
ATOM     51  C   UNL A   1      44.043  28.620  27.914  1.00  0.00     0.074 A 
ATOM     52  C   UNL A   1      43.397  28.418  26.646  1.00  0.00     0.031 C 
ATOM     53  C   UNL A   1      38.214  28.466  30.935  1.00  0.00     0.029 A 
ATOM     54  C   UNL A   1      39.212  29.510  31.105  1.00  0.00     0.049 A 
ATOM     55  H   UNL A   1      41.237  29.365  30.587  1.00  0.00     0.167 HD
ATOM     56  C   UNL A   1      45.037  29.472  28.277  1.00  0.00     0.037 A 
ATOM     57  C   UNL A   1      39.095  30.757  31.629  1.00  0.00     0.037 A 
ATOM     58  C   UNL A   1      45.428  29.254  29.646  1.00  0.00     0.049 A 
ATOM     59  C   UNL A   1      40.465  31.279  31.858  1.00  0.00     0.074 A 
ATOM     60  C   UNL A   1      45.913  28.173  30.356  1.00  0.00     0.029 A 
ATOM     61  N   UNL A   1      44.983  30.149  30.586  1.00  0.00    -0.354 N 
ATOM     62  N   UNL A   1      41.273  30.824  32.772  1.00  0.00    -0.248 NA
ATOM     63  C   UNL A   1      41.098  32.004  30.768  1.00  0.00     0.031 C 
ATOM     64  C   UNL A   1      45.299  28.267  31.640  1.00  0.00     0.029 A 
ATOM     65  C   UNL A   1      44.536  29.435  31.666  1.00  0.00     0.049 A 
ATOM     66  H   UNL A   1      44.983  31.129  30.499  1.00  0.00     0.167 HD
ATOM     67  C   UNL A   1      42.513  30.793  32.152  1.00  0.00     0.074 A 
ATOM     68  C   UNL A   1      42.362  31.617  30.956  1.00  0.00     0.031 C 
ATOM     69  C   UNL A   1      43.451  29.867  32.512  1.00  0.00     0.037 A 
BRANCH  56  70
ATOM     70  C   UNL A   1      45.315  30.768  27.549  1.00  0.00     0.057 A 
ATOM     71  C   UNL A   1      46.639  31.070  27.185  1.00  0.00     0.134 A 
ATOM     72  C   UNL A   1      44.415  31.853  27.477  1.00  0.00     0.134 A 
ATOM     73  F   UNL A   1      47.595  30.129  27.223  1.00  0.00    -0.206 F 
ATOM     74  C   UNL A   1      47.052  32.370  26.869  1.00  0.00     0.040 A 
ATOM     75  C   UNL A   1      44.808  33.144  27.113  1.00  0.00     0.040 A 
ATOM     76  F   UNL A   1      43.135  31.761  27.853  1.00  0.00    -0.206 F 
ATOM     77  C   UNL A   1      46.137  33.414  26.843  1.00  0.00     0.006 A 
ENDBRANCH  56  70
BRANCH  57  78
ATOM     78  C   UNL A   1      37.915  31.658  31.657  1.00  0.00     0.057 A 
ATOM     79  C   UNL A   1      37.424  32.246  30.479  1.00  0.00     0.134 A 
ATOM     80  C   UNL A   1      37.070  31.732  32.776  1.00  0.00     0.134 A 
ATOM     81  F   UNL A   1      38.136  32.196  29.344  1.00  0.00    -0.206 F 
ATOM     82  C   UNL A   1      36.157  32.841  30.412  1.00  0.00     0.040 A 
ATOM     83  C   UNL A   1      35.805  32.330  32.726  1.00  0.00     0.040 A 
ATOM     84  F   UNL A   1      37.400  31.144  33.935  1.00  0.00    -0.206 F 
ATOM     85  C   UNL A   1      35.337  32.872  31.536  1.00  0.00     0.006 A 
ENDBRANCH  57  78
BRANCH  69  86
ATOM     86  C   UNL A   1      43.218  29.088  33.777  1.00  0.00     0.057 A 
ATOM     87  C   UNL A   1      42.415  27.940  33.873  1.00  0.00     0.134 A 
ATOM     88  C   UNL A   1      43.938  29.452  34.920  1.00  0.00     0.134 A 
ATOM     89  F   UNL A   1      41.766  27.453  32.807  1.00  0.00    -0.206 F 
ATOM     90  C   UNL A   1      42.296  27.224  35.068  1.00  0.00     0.040 A 
ATOM     91  C   UNL A   1      43.857  28.723  36.107  1.00  0.00     0.040 A 
ATOM     92  F   UNL A   1      44.768  30.506  34.889  1.00  0.00    -0.206 F 
ATOM     93  C   UNL A   1      43.022  27.612  36.189  1.00  0.00     0.006 A 
ENDBRANCH  69  86
ENDBRANCH  43  44
ENDBRANCH  36  38
ENDBRANCH  35  36
ENDBRANCH  34  35
ENDBRANCH   1  34
TORSDOF 15
ENDMDL
MODEL 2
REMARK VINA RESULT:     -12.5      2.820      7.734
REMARK SMILES O=C1C[C@@H](c2cccc(O)c2)c2c(c(C(=O)OCCOC(=O)c3ccc(-c4c5nc(c(-c6c(F)cccc6F)c6ccc([nH]6)c(-c6c(F)cccc6F)c6nc(c(-c7c(F)cccc7F)c7ccc4[nH]7)C=C6)C=C5)cc3)cn2-c2cccc(C(F)(F)F)c2)N1
REMARK SMILES IDX 18 1 17 2 15 3 16 4 14 5 1 6 2 7 3 8 89 9 4 10 13 11 12 13
REMARK SMILES IDX 78 14 77 15 5 16 6 17 11 18 7 19 9 20 8 21 10 22 79 24 80 25
REMARK SMILES IDX 88 26 81 27 83 28 82 29 84 30 85 31 86 32 87 33 19 34 20 35
REMARK SMILES IDX 21 36 22 37 23 38 24 39 76 40 25 41 75 42 26 43 27 44 28 45
REMARK SMILES IDX 69 46 29 47 74 48 68 49 70 50 30 51 73 52 67 53 66 54 31 56
REMARK SMILES IDX 57 57 40 58 56 59 41 60 44 61 55 62 71 63 42 64 43 65 54 67
REMARK SMILES IDX 72 68 45 69 32 70 33 71 38 72 34 73 35 74 37 75 39 76 36 77
REMARK SMILES IDX 58 78 59 79 64 80 60 81 61 82 63 83 65 84 62 85 46 86 47 87
REMARK SMILES IDX 52 88 48 89 49 90 51 91 53 92 50 93
REMARK H PARENT 89 12 10 23 70 55 44 66
REMARK Flexibility Score: inf
ROOT
ATOM      1  C   UNL A   1      32.157  29.853  25.714  1.00  0.00     0.275 C 
ENDROOT
BRANCH   1   2
ATOM      2  O   UNL A   1      32.826  28.640  25.336  1.00  0.00    -0.458 OA
BRANCH   2   3
ATOM      3  C   UNL A   1      32.019  27.567  25.088  1.00  0.00     0.341 C 
ATOM      4  O   UNL A   1      30.881  27.643  24.632  1.00  0.00    -0.246 OA
BRANCH   3   5
ATOM      5  C   UNL A   1      32.678  26.296  25.330  1.00  0.00     0.102 A 
ATOM      6  O   UNL A   1      29.303  23.485  27.213  1.00  0.00    -0.275 OA
ATOM      7  C   UNL A   1      30.481  23.734  26.963  1.00  0.00     0.225 C 
ATOM      8  C   UNL A   1      31.622  22.873  27.492  1.00  0.00     0.115 C 
ATOM      9  N   UNL A   1      30.834  24.890  26.314  1.00  0.00    -0.324 N 
ATOM     10  C   UNL A   1      32.849  22.794  26.561  1.00  0.00     0.078 C 
ATOM     11  C   UNL A   1      32.115  25.122  25.874  1.00  0.00     0.078 A 
ATOM     12  H   UNL A   1      30.146  25.577  26.159  1.00  0.00     0.170 HD
ATOM     13  C   UNL A   1      33.068  24.129  25.904  1.00  0.00     0.055 A 
ATOM     14  N   UNL A   1      34.232  24.649  25.362  1.00  0.00    -0.317 N 
ATOM     15  C   UNL A   1      33.997  25.977  25.054  1.00  0.00     0.109 A 
BRANCH  10  16
ATOM     16  C   UNL A   1      32.710  21.617  25.611  1.00  0.00    -0.035 A 
ATOM     17  C   UNL A   1      32.279  21.760  24.285  1.00  0.00     0.005 A 
ATOM     18  C   UNL A   1      33.035  20.331  26.077  1.00  0.00     0.050 A 
ATOM     19  C   UNL A   1      32.209  20.650  23.439  1.00  0.00     0.004 A 
ATOM     20  C   UNL A   1      32.992  19.239  25.218  1.00  0.00     0.115 A 
ATOM     21  C   UNL A   1      32.579  19.387  23.901  1.00  0.00     0.046 A 
BRANCH  20  22
ATOM     22  O   UNL A   1      33.405  18.036  25.707  1.00  0.00    -0.508 OA
ATOM     23  H   UNL A   1      34.317  17.823  25.719  1.00  0.00     0.293 HD
ENDBRANCH  20  22
ENDBRANCH  10  16
BRANCH  14  24
ATOM     24  C   UNL A   1      35.482  24.015  25.153  1.00  0.00     0.046 A 
ATOM     25  C   UNL A   1      35.612  23.095  24.108  1.00  0.00     0.026 A 
ATOM     26  C   UNL A   1      36.552  24.245  26.022  1.00  0.00     0.039 A 
ATOM     27  C   UNL A   1      36.836  22.465  23.889  1.00  0.00     0.003 A 
ATOM     28  C   UNL A   1      37.784  23.605  25.817  1.00  0.00     0.058 A 
ATOM     29  C   UNL A   1      37.918  22.726  24.730  1.00  0.00     0.013 A 
BRANCH  28  30
ATOM     30  C   UNL A   1      38.954  23.831  26.744  1.00  0.00     0.416 C 
ATOM     31  F   UNL A   1      38.565  24.341  27.948  1.00  0.00    -0.166 F 
ATOM     32  F   UNL A   1      39.623  22.681  27.033  1.00  0.00    -0.166 F 
ATOM     33  F   UNL A   1      39.888  24.701  26.269  1.00  0.00    -0.166 F 
ENDBRANCH  28  30
ENDBRANCH  14  24
ENDBRANCH   3   5
ENDBRANCH   2   3
ENDBRANCH   1   2
BRANCH   1  34
ATOM     34  C   UNL A   1      32.784  30.485  26.952  1.00  0.00     0.275 C 
BRANCH  34  35
ATOM     35  O   UNL A   1      34.205  30.324  26.988  1.00  0.00    -0.458 OA
BRANCH  35  36
ATOM     36  C   UNL A   1      34.874  31.313  27.620  1.00  0.00     0.338 C 
ATOM     37  O   UNL A   1      34.645  32.509  27.570  1.00  0.00    -0.246 OA
BRANCH  36  38
ATOM     38  C   UNL A   1      36.083  30.765  28.241  1.00  0.00     0.060 A 
ATOM     39  C   UNL A   1      37.040  31.665  28.718  1.00  0.00     0.016 A 
ATOM     40  C   UNL A   1      36.356  29.395  28.121  1.00  0.00     0.016 A 
ATOM     41  C   UNL A   1      38.319  31.204  28.962  1.00  0.00     0.010 A 
ATOM     42  C   UNL A   1      37.634  28.939  28.352  1.00  0.00     0.010 A 
ATOM     43  C   UNL A   1      38.618  29.857  28.717  1.00  0.00    -0.014 A 
BRANCH  43  44
ATOM     44  C   UNL A   1      39.953  29.381  29.030  1.00  0.00     0.031 A 
ATOM     45  C   UNL A   1      40.250  29.434  30.484  1.00  0.00     0.074 A 
ATOM     46  C   UNL A   1      40.758  28.812  28.109  1.00  0.00     0.049 A 
ATOM     47  N   UNL A   1      41.190  30.094  31.074  1.00  0.00    -0.248 NA
ATOM     48  C   UNL A   1      39.288  28.804  31.409  1.00  0.00     0.031 C 
ATOM     49  C   UNL A   1      40.431  28.473  26.721  1.00  0.00     0.029 A 
ATOM     50  N   UNL A   1      42.019  28.315  28.250  1.00  0.00    -0.354 N 
ATOM     51  C   UNL A   1      41.066  29.791  32.427  1.00  0.00     0.074 A 
ATOM     52  C   UNL A   1      39.789  29.153  32.594  1.00  0.00     0.031 C 
ATOM     53  C   UNL A   1      41.368  27.627  26.235  1.00  0.00     0.029 A 
ATOM     54  C   UNL A   1      42.418  27.462  27.226  1.00  0.00     0.049 A 
ATOM     55  H   UNL A   1      42.599  28.541  29.013  1.00  0.00     0.167 HD
ATOM     56  C   UNL A   1      42.150  29.833  33.245  1.00  0.00     0.037 A 
ATOM     57  C   UNL A   1      43.493  26.631  27.234  1.00  0.00     0.037 A 
ATOM     58  C   UNL A   1      43.178  30.678  32.695  1.00  0.00     0.049 A 
ATOM     59  C   UNL A   1      44.407  27.090  28.309  1.00  0.00     0.074 A 
ATOM     60  C   UNL A   1      43.245  32.005  32.318  1.00  0.00     0.029 A 
ATOM     61  N   UNL A   1      44.256  30.067  32.106  1.00  0.00    -0.354 N 
ATOM     62  N   UNL A   1      45.092  28.196  28.259  1.00  0.00    -0.248 NA
ATOM     63  C   UNL A   1      44.211  26.535  29.639  1.00  0.00     0.031 C 
ATOM     64  C   UNL A   1      44.065  32.019  31.152  1.00  0.00     0.029 A 
ATOM     65  C   UNL A   1      44.512  30.716  30.927  1.00  0.00     0.049 A 
ATOM     66  H   UNL A   1      44.756  29.300  32.465  1.00  0.00     0.167 HD
ATOM     67  C   UNL A   1      45.008  28.713  29.543  1.00  0.00     0.074 A 
ATOM     68  C   UNL A   1      44.536  27.604  30.370  1.00  0.00     0.031 C 
ATOM     69  C   UNL A   1      45.047  30.061  29.758  1.00  0.00     0.037 A 
BRANCH  56  70
ATOM     70  C   UNL A   1      42.439  28.769  34.280  1.00  0.00     0.057 A 
ATOM     71  C   UNL A   1      42.602  27.439  33.858  1.00  0.00     0.134 A 
ATOM     72  C   UNL A   1      42.248  28.934  35.670  1.00  0.00     0.134 A 
ATOM     73  F   UNL A   1      42.778  27.146  32.560  1.00  0.00    -0.206 F 
ATOM     74  C   UNL A   1      42.488  26.353  34.735  1.00  0.00     0.040 A 
ATOM     75  C   UNL A   1      42.183  27.859  36.561  1.00  0.00     0.040 A 
ATOM     76  F   UNL A   1      42.007  30.122  36.234  1.00  0.00    -0.206 F 
ATOM     77  C   UNL A   1      42.267  26.561  36.090  1.00  0.00     0.006 A 
ENDBRANCH  56  70
BRANCH  57  78
ATOM     78  C   UNL A   1      43.653  25.295  26.607  1.00  0.00     0.057 A 
ATOM     79  C   UNL A   1      42.904  24.192  27.050  1.00  0.00     0.134 A 
ATOM     80  C   UNL A   1      44.318  25.130  25.381  1.00  0.00     0.134 A 
ATOM     81  F   UNL A   1      42.199  24.259  28.189  1.00  0.00    -0.206 F 
ATOM     82  C   UNL A   1      42.797  23.011  26.302  1.00  0.00     0.040 A 
ATOM     83  C   UNL A   1      44.227  23.955  24.627  1.00  0.00     0.040 A 
ATOM     84  F   UNL A   1      45.004  26.138  24.823  1.00  0.00    -0.206 F 
ATOM     85  C   UNL A   1      43.450  22.895  25.079  1.00  0.00     0.006 A 
ENDBRANCH  57  78
BRANCH  69  86
ATOM     86  C   UNL A   1      45.473  30.941  28.616  1.00  0.00     0.057 A 
ATOM     87  C   UNL A   1      44.629  31.369  27.579  1.00  0.00     0.134 A 
ATOM     88  C   UNL A   1      46.767  31.474  28.638  1.00  0.00     0.134 A 
ATOM     89  F   UNL A   1      43.343  30.996  27.527  1.00  0.00    -0.206 F 
ATOM     90  C   UNL A   1      45.074  32.244  26.582  1.00  0.00     0.040 A 
ATOM     91  C   UNL A   1      47.210  32.377  27.671  1.00  0.00     0.040 A 
ATOM     92  F   UNL A   1      47.613  31.153  29.629  1.00  0.00    -0.206 F 
ATOM     93  C   UNL A   1      46.367  32.754  26.629  1.00  0.00     0.006 A 
ENDBRANCH  69  86
ENDBRANCH  43  44
ENDBRANCH  36  38
ENDBRANCH  35  36
ENDBRANCH  34  35
ENDBRANCH   1  34
TORSDOF 15
ENDMDL
MODEL 3
REMARK VINA RESULT:     -12.0      1.066      1.366
REMARK SMILES O=C1C[C@@H](c2cccc(O)c2)c2c(c(C(=O)OCCOC(=O)c3ccc(-c4c5nc(c(-c6c(F)cccc6F)c6ccc([nH]6)c(-c6c(F)cccc6F)c6nc(c(-c7c(F)cccc7F)c7ccc4[nH]7)C=C6)C=C5)cc3)cn2-c2cccc(C(F)(F)F)c2)N1
REMARK SMILES IDX 18 1 17 2 15 3 16 4 14 5 1 6 2 7 3 8 89 9 4 10 13 11 12 13
REMARK SMILES IDX 78 14 77 15 5 16 6 17 11 18 7 19 9 20 8 21 10 22 79 24 80 25
REMARK SMILES IDX 88 26 81 27 83 28 82 29 84 30 85 31 86 32 87 33 19 34 20 35
REMARK SMILES IDX 21 36 22 37 23 38 24 39 76 40 25 41 75 42 26 43 27 44 28 45
REMARK SMILES IDX 69 46 29 47 74 48 68 49 70 50 30 51 73 52 67 53 66 54 31 56
REMARK SMILES IDX 57 57 40 58 56 59 41 60 44 61 55 62 71 63 42 64 43 65 54 67
REMARK SMILES IDX 72 68 45 69 32 70 33 71 38 72 34 73 35 74 37 75 39 76 36 77
REMARK SMILES IDX 58 78 59 79 64 80 60 81 61 82 63 83 65 84 62 85 46 86 47 87
REMARK SMILES IDX 52 88 48 89 49 90 51 91 53 92 50 93
REMARK H PARENT 89 12 10 23 70 55 44 66
REMARK Flexibility Score: inf
ROOT
ATOM      1  C   UNL A   1      36.654  22.075  25.072  1.00  0.00     0.275 C 
ENDROOT
BRANCH   1   2
ATOM      2  O   UNL A   1      35.683  22.865  25.774  1.00  0.00    -0.458 OA
BRANCH   2   3
ATOM      3  C   UNL A   1      34.468  22.996  25.163  1.00  0.00     0.341 C 
ATOM      4  O   UNL A   1      33.735  22.058  24.862  1.00  0.00    -0.246 OA
BRANCH   3   5
ATOM      5  C   UNL A   1      34.074  24.383  24.982  1.00  0.00     0.102 A 
ATOM      6  O   UNL A   1      32.906  24.752  20.363  1.00  0.00    -0.275 OA
ATOM      7  C   UNL A   1      33.186  25.261  21.448  1.00  0.00     0.225 C 
ATOM      8  C   UNL A   1      33.383  26.762  21.612  1.00  0.00     0.115 C 
ATOM      9  N   UNL A   1      33.480  24.480  22.537  1.00  0.00    -0.324 N 
ATOM     10  C   UNL A   1      32.966  27.316  22.990  1.00  0.00     0.078 C 
ATOM     11  C   UNL A   1      33.633  25.007  23.796  1.00  0.00     0.078 A 
ATOM     12  H   UNL A   1      33.584  23.509  22.411  1.00  0.00     0.170 HD
ATOM     13  C   UNL A   1      33.324  26.322  24.060  1.00  0.00     0.055 A 
ATOM     14  N   UNL A   1      33.540  26.541  25.410  1.00  0.00    -0.317 N 
ATOM     15  C   UNL A   1      34.035  25.368  25.953  1.00  0.00     0.109 A 
BRANCH  10  16
ATOM     16  C   UNL A   1      31.510  27.746  22.961  1.00  0.00    -0.035 A 
ATOM     17  C   UNL A   1      30.476  26.953  23.480  1.00  0.00     0.005 A 
ATOM     18  C   UNL A   1      31.183  28.993  22.400  1.00  0.00     0.050 A 
ATOM     19  C   UNL A   1      29.156  27.414  23.468  1.00  0.00     0.004 A 
ATOM     20  C   UNL A   1      29.873  29.454  22.422  1.00  0.00     0.115 A 
ATOM     21  C   UNL A   1      28.853  28.673  22.950  1.00  0.00     0.046 A 
BRANCH  20  22
ATOM     22  O   UNL A   1      29.638  30.708  21.944  1.00  0.00    -0.508 OA
ATOM     23  H   UNL A   1      29.993  30.968  21.117  1.00  0.00     0.293 HD
ENDBRANCH  20  22
ENDBRANCH  10  16
BRANCH  14  24
ATOM     24  C   UNL A   1      33.345  27.723  26.167  1.00  0.00     0.046 A 
ATOM     25  C   UNL A   1      32.041  28.131  26.467  1.00  0.00     0.026 A 
ATOM     26  C   UNL A   1      34.433  28.515  26.546  1.00  0.00     0.039 A 
ATOM     27  C   UNL A   1      31.833  29.292  27.212  1.00  0.00     0.003 A 
ATOM     28  C   UNL A   1      34.231  29.691  27.286  1.00  0.00     0.058 A 
ATOM     29  C   UNL A   1      32.921  30.060  27.628  1.00  0.00     0.013 A 
BRANCH  28  30
ATOM     30  C   UNL A   1      35.388  30.567  27.703  1.00  0.00     0.416 C 
ATOM     31  F   UNL A   1      35.253  31.847  27.251  1.00  0.00    -0.166 F 
ATOM     32  F   UNL A   1      35.506  30.667  29.056  1.00  0.00    -0.166 F 
ATOM     33  F   UNL A   1      36.601  30.150  27.248  1.00  0.00    -0.166 F 
ENDBRANCH  28  30
ENDBRANCH  14  24
ENDBRANCH   3   5
ENDBRANCH   2   3
ENDBRANCH   1   2
BRANCH   1  34
ATOM     34  C   UNL A   1      37.979  22.003  25.824  1.00  0.00     0.275 C 
BRANCH  34  35
ATOM     35  O   UNL A   1      38.546  23.295  26.054  1.00  0.00    -0.458 OA
BRANCH  35  36
ATOM     36  C   UNL A   1      39.739  23.287  26.691  1.00  0.00     0.338 C 
ATOM     37  O   UNL A   1      40.544  22.374  26.740  1.00  0.00    -0.246 OA
BRANCH  36  38
ATOM     38  C   UNL A   1      39.859  24.493  27.514  1.00  0.00     0.060 A 
ATOM     39  C   UNL A   1      38.929  25.518  27.315  1.00  0.00     0.016 A 
ATOM     40  C   UNL A   1      41.017  24.689  28.281  1.00  0.00     0.016 A 
ATOM     41  C   UNL A   1      39.222  26.781  27.790  1.00  0.00     0.010 A 
ATOM     42  C   UNL A   1      41.314  25.951  28.742  1.00  0.00     0.010 A 
ATOM     43  C   UNL A   1      40.442  26.997  28.445  1.00  0.00    -0.014 A 
BRANCH  43  44
ATOM     44  C   UNL A   1      40.709  28.319  28.983  1.00  0.00     0.031 A 
ATOM     45  C   UNL A   1      41.937  28.928  28.412  1.00  0.00     0.074 A 
ATOM     46  C   UNL A   1      39.844  28.967  29.791  1.00  0.00     0.049 A 
ATOM     47  N   UNL A   1      42.997  29.308  29.043  1.00  0.00    -0.248 NA
ATOM     48  C   UNL A   1      42.066  28.974  26.942  1.00  0.00     0.031 C 
ATOM     49  C   UNL A   1      38.492  28.548  30.173  1.00  0.00     0.029 A 
ATOM     50  N   UNL A   1      39.948  30.199  30.362  1.00  0.00    -0.354 N 
ATOM     51  C   UNL A   1      43.842  29.837  28.071  1.00  0.00     0.074 A 
ATOM     52  C   UNL A   1      43.305  29.443  26.797  1.00  0.00     0.031 C 
ATOM     53  C   UNL A   1      37.831  29.602  30.705  1.00  0.00     0.029 A 
ATOM     54  C   UNL A   1      38.743  30.728  30.813  1.00  0.00     0.049 A 
ATOM     55  H   UNL A   1      40.806  30.675  30.448  1.00  0.00     0.167 HD
ATOM     56  C   UNL A   1      44.748  30.796  28.393  1.00  0.00     0.037 A 
ATOM     57  C   UNL A   1      38.506  32.016  31.175  1.00  0.00     0.037 A 
ATOM     58  C   UNL A   1      45.052  30.766  29.801  1.00  0.00     0.049 A 
ATOM     59  C   UNL A   1      39.819  32.659  31.429  1.00  0.00     0.074 A 
ATOM     60  C   UNL A   1      45.554  29.812  30.665  1.00  0.00     0.029 A 
ATOM     61  N   UNL A   1      44.482  31.728  30.596  1.00  0.00    -0.354 N 
ATOM     62  N   UNL A   1      40.586  32.373  32.440  1.00  0.00    -0.248 NA
ATOM     63  C   UNL A   1      40.481  33.300  30.303  1.00  0.00     0.031 C 
ATOM     64  C   UNL A   1      44.843  30.007  31.886  1.00  0.00     0.029 A 
ATOM     65  C   UNL A   1      44.005  31.111  31.722  1.00  0.00     0.049 A 
ATOM     66  H   UNL A   1      44.424  32.689  30.393  1.00  0.00     0.167 HD
ATOM     67  C   UNL A   1      41.867  32.363  31.911  1.00  0.00     0.074 A 
ATOM     68  C   UNL A   1      41.751  33.031  30.617  1.00  0.00     0.031 C 
ATOM     69  C   UNL A   1      42.835  31.556  32.439  1.00  0.00     0.037 A 
BRANCH  56  70
ATOM     70  C   UNL A   1      44.993  32.016  27.534  1.00  0.00     0.057 A 
ATOM     71  C   UNL A   1      46.267  32.203  26.970  1.00  0.00     0.134 A 
ATOM     72  C   UNL A   1      44.155  33.152  27.502  1.00  0.00     0.134 A 
ATOM     73  F   UNL A   1      47.164  31.204  26.950  1.00  0.00    -0.206 F 
ATOM     74  C   UNL A   1      46.705  33.447  26.499  1.00  0.00     0.040 A 
ATOM     75  C   UNL A   1      44.565  34.384  26.988  1.00  0.00     0.040 A 
ATOM     76  F   UNL A   1      42.939  33.172  28.056  1.00  0.00    -0.206 F 
ATOM     77  C   UNL A   1      45.856  34.546  26.518  1.00  0.00     0.006 A 
ENDBRANCH  56  70
BRANCH  57  78
ATOM     78  C   UNL A   1      37.271  32.824  31.018  1.00  0.00     0.057 A 
ATOM     79  C   UNL A   1      36.928  33.392  29.780  1.00  0.00     0.134 A 
ATOM     80  C   UNL A   1      36.257  32.817  31.990  1.00  0.00     0.134 A 
ATOM     81  F   UNL A   1      37.812  33.413  28.771  1.00  0.00    -0.206 F 
ATOM     82  C   UNL A   1      35.645  33.891  29.514  1.00  0.00     0.040 A 
ATOM     83  C   UNL A   1      34.974  33.318  31.742  1.00  0.00     0.040 A 
ATOM     84  F   UNL A   1      36.444  32.237  33.184  1.00  0.00    -0.206 F 
ATOM     85  C   UNL A   1      34.658  33.842  30.494  1.00  0.00     0.006 A 
ENDBRANCH  57  78
BRANCH  69  86
ATOM     86  C   UNL A   1      42.562  30.912  33.770  1.00  0.00     0.057 A 
ATOM     87  C   UNL A   1      41.873  29.702  33.947  1.00  0.00     0.134 A 
ATOM     88  C   UNL A   1      43.130  31.489  34.912  1.00  0.00     0.134 A 
ATOM     89  F   UNL A   1      41.381  29.022  32.903  1.00  0.00    -0.206 F 
ATOM     90  C   UNL A   1      41.713  29.125  35.210  1.00  0.00     0.040 A 
ATOM     91  C   UNL A   1      43.010  30.902  36.172  1.00  0.00     0.040 A 
ATOM     92  F   UNL A   1      43.849  32.618  34.814  1.00  0.00    -0.206 F 
ATOM     93  C   UNL A   1      42.287  29.722  36.328  1.00  0.00     0.006 A 
ENDBRANCH  69  86
ENDBRANCH  43  44
ENDBRANCH  36  38
ENDBRANCH  35  36
ENDBRANCH  34  35
ENDBRANCH   1  34
TORSDOF 15
ENDMDL
