MODEL 1
REMARK VINA RESULT:     -11.5      0.000      0.000
REMARK SMILES COc1ccc(CCn2cc(C(=O)OCCOC(=O)c3ccc(-c4c5nc(c(-c6c(F)cccc6F)c6ccc([nH]6)c(-c6c(F)cccc6F)c6nc(c(-c7c(F)cccc7F)c7ccc4[nH]7)C=C6)C=C5)cc3)c(=O)[nH]c2=O)cc1
REMARK SMILES IDX 15 1 14 2 12 3 13 4 11 5 9 6 10 7 77 8 76 9 78 10 74 11
REMARK SMILES IDX 75 13 8 14 7 15 6 16 3 17 4 18 80 19 5 20 79 21 2 22 1 23
REMARK SMILES IDX 16 24 17 25 18 26 19 27 20 28 21 29 73 30 22 31 72 32 23 33
REMARK SMILES IDX 24 34 25 35 66 36 26 37 71 38 65 39 67 40 27 41 70 42 64 43
REMARK SMILES IDX 63 44 28 46 54 47 37 48 53 49 38 50 41 51 52 52 68 53 39 54
REMARK SMILES IDX 40 55 51 57 69 58 42 59 29 60 30 61 35 62 31 63 32 64 34 65
REMARK SMILES IDX 36 66 33 67 55 68 56 69 61 70 57 71 58 72 60 73 62 74 59 75
REMARK SMILES IDX 43 76 44 77 49 78 45 79 46 80 48 81 50 82 47 83
REMARK H PARENT 76 12 67 45 41 56
REMARK Flexibility Score: inf
ROOT
ATOM      1  C   UNL A   1      32.252  29.141  25.013  1.00  0.00     0.275 C 
ENDROOT
BRANCH   1   2
ATOM      2  O   UNL A   1      31.781  27.931  25.651  1.00  0.00    -0.458 OA
BRANCH   2   3
ATOM      3  C   UNL A   1      31.198  27.027  24.824  1.00  0.00     0.345 C 
ATOM      4  O   UNL A   1      30.208  26.359  25.093  1.00  0.00    -0.246 OA
BRANCH   3   5
ATOM      5  C   UNL A   1      31.961  26.801  23.584  1.00  0.00     0.141 A 
ATOM      6  N   UNL A   1      33.373  25.135  22.648  1.00  0.00    -0.299 N 
ATOM      7  C   UNL A   1      33.000  25.964  23.690  1.00  0.00     0.112 A 
ATOM      8  C   UNL A   1      32.860  25.311  21.360  1.00  0.00     0.328 A 
ATOM      9  N   UNL A   1      31.963  26.332  21.221  1.00  0.00    -0.273 N 
ATOM     10  O   UNL A   1      33.118  24.578  20.408  1.00  0.00    -0.248 OA
ATOM     11  C   UNL A   1      31.379  27.017  22.247  1.00  0.00     0.268 A 
ATOM     12  H   UNL A   1      31.716  26.594  20.304  1.00  0.00     0.175 HD
ATOM     13  O   UNL A   1      30.435  27.769  22.041  1.00  0.00    -0.268 OA
BRANCH   6  14
ATOM     14  C   UNL A   1      34.049  23.852  22.888  1.00  0.00     0.132 C 
BRANCH  14  15
ATOM     15  C   UNL A   1      34.404  23.408  24.316  1.00  0.00     0.057 C 
BRANCH  15  16
ATOM     16  C   UNL A   1      35.843  23.137  24.725  1.00  0.00    -0.046 A 
ATOM     17  C   UNL A   1      38.319  22.607  25.988  1.00  0.00     0.118 A 
ATOM     18  C   UNL A   1      37.749  21.675  25.123  1.00  0.00     0.046 A 
ATOM     19  C   UNL A   1      37.708  23.847  26.139  1.00  0.00     0.046 A 
ATOM     20  C   UNL A   1      36.547  21.956  24.462  1.00  0.00     0.007 A 
ATOM     21  C   UNL A   1      36.474  24.101  25.529  1.00  0.00     0.007 A 
BRANCH  17  22
ATOM     22  O   UNL A   1      39.461  22.194  26.619  1.00  0.00    -0.497 OA
ATOM     23  C   UNL A   1      40.024  20.970  26.161  1.00  0.00     0.278 C 
ENDBRANCH  17  22
ENDBRANCH  15  16
ENDBRANCH  14  15
ENDBRANCH   6  14
ENDBRANCH   3   5
ENDBRANCH   2   3
ENDBRANCH   1   2
BRANCH   1  24
ATOM     24  C   UNL A   1      31.744  30.379  25.746  1.00  0.00     0.275 C 
BRANCH  24  25
ATOM     25  O   UNL A   1      32.412  30.479  27.015  1.00  0.00    -0.458 OA
BRANCH  25  26
ATOM     26  C   UNL A   1      33.051  31.648  27.247  1.00  0.00     0.338 C 
ATOM     27  O   UNL A   1      32.600  32.776  27.172  1.00  0.00    -0.246 OA
BRANCH  26  28
ATOM     28  C   UNL A   1      34.407  31.353  27.729  1.00  0.00     0.060 A 
ATOM     29  C   UNL A   1      34.714  30.039  28.061  1.00  0.00     0.016 A 
ATOM     30  C   UNL A   1      35.317  32.372  27.994  1.00  0.00     0.016 A 
ATOM     31  C   UNL A   1      35.879  29.740  28.747  1.00  0.00     0.010 A 
ATOM     32  C   UNL A   1      36.544  32.052  28.587  1.00  0.00     0.010 A 
ATOM     33  C   UNL A   1      36.824  30.736  29.002  1.00  0.00    -0.014 A 
BRANCH  33  34
ATOM     34  C   UNL A   1      38.058  30.399  29.758  1.00  0.00     0.031 A 
ATOM     35  C   UNL A   1      39.117  29.553  29.111  1.00  0.00     0.074 A 
ATOM     36  C   UNL A   1      38.257  30.886  30.999  1.00  0.00     0.049 A 
ATOM     37  N   UNL A   1      40.142  28.949  29.655  1.00  0.00    -0.248 NA
ATOM     38  C   UNL A   1      38.996  29.343  27.660  1.00  0.00     0.031 C 
ATOM     39  C   UNL A   1      37.361  31.800  31.710  1.00  0.00     0.029 A 
ATOM     40  N   UNL A   1      39.291  30.689  31.880  1.00  0.00    -0.354 N 
ATOM     41  C   UNL A   1      40.742  28.229  28.629  1.00  0.00     0.074 A 
ATOM     42  C   UNL A   1      39.976  28.480  27.429  1.00  0.00     0.031 C 
ATOM     43  C   UNL A   1      37.902  32.118  32.895  1.00  0.00     0.029 A 
ATOM     44  C   UNL A   1      39.123  31.344  33.076  1.00  0.00     0.049 A 
ATOM     45  H   UNL A   1      40.077  30.131  31.676  1.00  0.00     0.167 HD
ATOM     46  C   UNL A   1      41.829  27.425  28.696  1.00  0.00     0.037 A 
ATOM     47  C   UNL A   1      39.835  31.283  34.216  1.00  0.00     0.037 A 
ATOM     48  C   UNL A   1      42.621  27.245  29.885  1.00  0.00     0.049 A 
ATOM     49  C   UNL A   1      41.007  30.348  34.284  1.00  0.00     0.074 A 
ATOM     50  C   UNL A   1      43.746  26.459  30.065  1.00  0.00     0.029 A 
ATOM     51  N   UNL A   1      42.379  27.880  31.095  1.00  0.00    -0.354 N 
ATOM     52  N   UNL A   1      41.508  29.584  33.344  1.00  0.00    -0.248 NA
ATOM     53  C   UNL A   1      41.690  30.239  35.580  1.00  0.00     0.031 C 
ATOM     54  C   UNL A   1      44.165  26.594  31.394  1.00  0.00     0.029 A 
ATOM     55  C   UNL A   1      43.324  27.494  32.030  1.00  0.00     0.049 A 
ATOM     56  H   UNL A   1      41.644  28.514  31.263  1.00  0.00     0.167 HD
ATOM     57  C   UNL A   1      42.560  28.898  33.933  1.00  0.00     0.074 A 
ATOM     58  C   UNL A   1      42.644  29.360  35.304  1.00  0.00     0.031 C 
ATOM     59  C   UNL A   1      43.377  27.961  33.393  1.00  0.00     0.037 A 
BRANCH  46  60
ATOM     60  C   UNL A   1      42.187  26.642  27.468  1.00  0.00     0.057 A 
ATOM     61  C   UNL A   1      43.080  27.122  26.502  1.00  0.00     0.134 A 
ATOM     62  C   UNL A   1      41.632  25.372  27.259  1.00  0.00     0.134 A 
ATOM     63  F   UNL A   1      43.633  28.337  26.630  1.00  0.00    -0.206 F 
ATOM     64  C   UNL A   1      43.387  26.378  25.360  1.00  0.00     0.040 A 
ATOM     65  C   UNL A   1      41.951  24.609  26.134  1.00  0.00     0.040 A 
ATOM     66  F   UNL A   1      40.772  24.850  28.146  1.00  0.00    -0.206 F 
ATOM     67  C   UNL A   1      42.827  25.115  25.177  1.00  0.00     0.006 A 
ENDBRANCH  46  60
BRANCH  47  68
ATOM     68  C   UNL A   1      39.409  32.074  35.398  1.00  0.00     0.057 A 
ATOM     69  C   UNL A   1      39.852  33.386  35.591  1.00  0.00     0.134 A 
ATOM     70  C   UNL A   1      38.526  31.545  36.349  1.00  0.00     0.134 A 
ATOM     71  F   UNL A   1      40.719  33.939  34.731  1.00  0.00    -0.206 F 
ATOM     72  C   UNL A   1      39.430  34.145  36.684  1.00  0.00     0.040 A 
ATOM     73  C   UNL A   1      38.074  32.303  37.430  1.00  0.00     0.040 A 
ATOM     74  F   UNL A   1      38.065  30.292  36.224  1.00  0.00    -0.206 F 
ATOM     75  C   UNL A   1      38.529  33.607  37.602  1.00  0.00     0.006 A 
ENDBRANCH  47  68
BRANCH  59  76
ATOM     76  C   UNL A   1      44.431  27.388  34.290  1.00  0.00     0.057 A 
ATOM     77  C   UNL A   1      44.207  26.218  35.025  1.00  0.00     0.134 A 
ATOM     78  C   UNL A   1      45.683  28.001  34.404  1.00  0.00     0.134 A 
ATOM     79  F   UNL A   1      43.021  25.594  34.970  1.00  0.00    -0.206 F 
ATOM     80  C   UNL A   1      45.190  25.687  35.862  1.00  0.00     0.040 A 
ATOM     81  C   UNL A   1      46.682  27.468  35.219  1.00  0.00     0.040 A 
ATOM     82  F   UNL A   1      45.959  29.122  33.721  1.00  0.00    -0.206 F 
ATOM     83  C   UNL A   1      46.434  26.311  35.956  1.00  0.00     0.006 A 
ENDBRANCH  59  76
ENDBRANCH  33  34
ENDBRANCH  26  28
ENDBRANCH  25  26
ENDBRANCH  24  25
ENDBRANCH   1  24
TORSDOF 15
ENDMDL
MODEL 2
REMARK VINA RESULT:     -11.4      3.777      8.958
REMARK SMILES COc1ccc(CCn2cc(C(=O)OCCOC(=O)c3ccc(-c4c5nc(c(-c6c(F)cccc6F)c6ccc([nH]6)c(-c6c(F)cccc6F)c6nc(c(-c7c(F)cccc7F)c7ccc4[nH]7)C=C6)C=C5)cc3)c(=O)[nH]c2=O)cc1
REMARK SMILES IDX 15 1 14 2 12 3 13 4 11 5 9 6 10 7 77 8 76 9 78 10 74 11
REMARK SMILES IDX 75 13 8 14 7 15 6 16 3 17 4 18 80 19 5 20 79 21 2 22 1 23
REMARK SMILES IDX 16 24 17 25 18 26 19 27 20 28 21 29 73 30 22 31 72 32 23 33
REMARK SMILES IDX 24 34 25 35 66 36 26 37 71 38 65 39 67 40 27 41 70 42 64 43
REMARK SMILES IDX 63 44 28 46 54 47 37 48 53 49 38 50 41 51 52 52 68 53 39 54
REMARK SMILES IDX 40 55 51 57 69 58 42 59 29 60 30 61 35 62 31 63 32 64 34 65
REMARK SMILES IDX 36 66 33 67 55 68 56 69 61 70 57 71 58 72 60 73 62 74 59 75
REMARK SMILES IDX 43 76 44 77 49 78 45 79 46 80 48 81 50 82 47 83
REMARK H PARENT 76 12 67 45 41 56
REMARK Flexibility Score: inf
ROOT
ATOM      1  C   UNL A   1      34.997  20.245  24.993  1.00  0.00     0.275 C 
ENDROOT
BRANCH   1   2
ATOM      2  O   UNL A   1      33.939  20.961  25.672  1.00  0.00    -0.458 OA
BRANCH   2   3
ATOM      3  C   UNL A   1      32.732  20.941  25.052  1.00  0.00     0.345 C 
ATOM      4  O   UNL A   1      31.950  20.000  25.057  1.00  0.00    -0.246 OA
BRANCH   3   5
ATOM      5  C   UNL A   1      32.490  22.134  24.222  1.00  0.00     0.141 A 
ATOM      6  N   UNL A   1      33.327  24.349  24.012  1.00  0.00    -0.299 N 
ATOM      7  C   UNL A   1      32.841  23.302  24.774  1.00  0.00     0.112 A 
ATOM      8  C   UNL A   1      33.231  24.337  22.618  1.00  0.00     0.328 A 
ATOM      9  N   UNL A   1      32.651  23.223  22.079  1.00  0.00    -0.273 N 
ATOM     10  O   UNL A   1      33.685  25.215  21.888  1.00  0.00    -0.248 OA
ATOM     11  C   UNL A   1      32.380  22.068  22.754  1.00  0.00     0.268 A 
ATOM     12  H   UNL A   1      32.410  23.256  21.125  1.00  0.00     0.175 HD
ATOM     13  O   UNL A   1      32.057  21.053  22.152  1.00  0.00    -0.268 OA
BRANCH   6  14
ATOM     14  C   UNL A   1      34.245  25.350  24.573  1.00  0.00     0.132 C 
BRANCH  14  15
ATOM     15  C   UNL A   1      33.705  26.663  25.162  1.00  0.00     0.057 C 
BRANCH  15  16
ATOM     16  C   UNL A   1      32.579  27.430  24.486  1.00  0.00    -0.046 A 
ATOM     17  C   UNL A   1      30.632  28.582  22.786  1.00  0.00     0.118 A 
ATOM     18  C   UNL A   1      30.254  27.753  23.840  1.00  0.00     0.046 A 
ATOM     19  C   UNL A   1      31.973  28.923  22.647  1.00  0.00     0.046 A 
ATOM     20  C   UNL A   1      31.214  27.220  24.710  1.00  0.00     0.007 A 
ATOM     21  C   UNL A   1      32.937  28.338  23.476  1.00  0.00     0.007 A 
BRANCH  17  22
ATOM     22  O   UNL A   1      29.612  28.992  21.972  1.00  0.00    -0.497 OA
ATOM     23  C   UNL A   1      28.326  29.081  22.573  1.00  0.00     0.278 C 
ENDBRANCH  17  22
ENDBRANCH  15  16
ENDBRANCH  14  15
ENDBRANCH   6  14
ENDBRANCH   3   5
ENDBRANCH   2   3
ENDBRANCH   1   2
BRANCH   1  24
ATOM     24  C   UNL A   1      36.133  21.187  24.605  1.00  0.00     0.275 C 
BRANCH  24  25
ATOM     25  O   UNL A   1      36.863  21.554  25.787  1.00  0.00    -0.458 OA
BRANCH  25  26
ATOM     26  C   UNL A   1      38.194  21.316  25.748  1.00  0.00     0.338 C 
ATOM     27  O   UNL A   1      38.775  20.401  25.197  1.00  0.00    -0.246 OA
BRANCH  26  28
ATOM     28  C   UNL A   1      38.888  22.429  26.409  1.00  0.00     0.060 A 
ATOM     29  C   UNL A   1      38.444  23.722  26.157  1.00  0.00     0.016 A 
ATOM     30  C   UNL A   1      40.050  22.221  27.146  1.00  0.00     0.016 A 
ATOM     31  C   UNL A   1      39.201  24.815  26.546  1.00  0.00     0.010 A 
ATOM     32  C   UNL A   1      40.755  23.327  27.636  1.00  0.00     0.010 A 
ATOM     33  C   UNL A   1      40.355  24.638  27.310  1.00  0.00    -0.014 A 
BRANCH  33  34
ATOM     34  C   UNL A   1      41.165  25.821  27.700  1.00  0.00     0.031 A 
ATOM     35  C   UNL A   1      40.565  26.869  28.594  1.00  0.00     0.074 A 
ATOM     36  C   UNL A   1      42.447  25.939  27.299  1.00  0.00     0.049 A 
ATOM     37  N   UNL A   1      40.994  28.076  28.862  1.00  0.00    -0.248 NA
ATOM     38  C   UNL A   1      39.303  26.518  29.265  1.00  0.00     0.031 C 
ATOM     39  C   UNL A   1      43.187  24.951  26.513  1.00  0.00     0.029 A 
ATOM     40  N   UNL A   1      43.360  26.942  27.511  1.00  0.00    -0.354 N 
ATOM     41  C   UNL A   1      40.020  28.651  29.667  1.00  0.00     0.074 A 
ATOM     42  C   UNL A   1      38.984  27.660  29.856  1.00  0.00     0.031 C 
ATOM     43  C   UNL A   1      44.449  25.373  26.347  1.00  0.00     0.029 A 
ATOM     44  C   UNL A   1      44.575  26.710  26.913  1.00  0.00     0.049 A 
ATOM     45  H   UNL A   1      43.164  27.749  28.040  1.00  0.00     0.167 HD
ATOM     46  C   UNL A   1      39.997  29.901  30.188  1.00  0.00     0.037 A 
ATOM     47  C   UNL A   1      45.651  27.506  26.779  1.00  0.00     0.037 A 
ATOM     48  C   UNL A   1      41.072  30.848  30.048  1.00  0.00     0.049 A 
ATOM     49  C   UNL A   1      45.586  28.904  27.322  1.00  0.00     0.074 A 
ATOM     50  C   UNL A   1      41.158  32.139  30.539  1.00  0.00     0.029 A 
ATOM     51  N   UNL A   1      42.262  30.594  29.380  1.00  0.00    -0.354 N 
ATOM     52  N   UNL A   1      44.619  29.484  27.989  1.00  0.00    -0.248 NA
ATOM     53  C   UNL A   1      46.744  29.768  27.061  1.00  0.00     0.031 C 
ATOM     54  C   UNL A   1      42.387  32.678  30.139  1.00  0.00     0.029 A 
ATOM     55  C   UNL A   1      43.082  31.708  29.433  1.00  0.00     0.049 A 
ATOM     56  H   UNL A   1      42.490  29.746  28.934  1.00  0.00     0.167 HD
ATOM     57  C   UNL A   1      45.046  30.783  28.224  1.00  0.00     0.074 A 
ATOM     58  C   UNL A   1      46.374  30.895  27.654  1.00  0.00     0.031 C 
ATOM     59  C   UNL A   1      44.395  31.797  28.846  1.00  0.00     0.037 A 
BRANCH  46  60
ATOM     60  C   UNL A   1      38.752  30.328  30.907  1.00  0.00     0.057 A 
ATOM     61  C   UNL A   1      37.687  30.964  30.257  1.00  0.00     0.134 A 
ATOM     62  C   UNL A   1      38.615  30.083  32.280  1.00  0.00     0.134 A 
ATOM     63  F   UNL A   1      37.760  31.245  28.948  1.00  0.00    -0.206 F 
ATOM     64  C   UNL A   1      36.542  31.363  30.952  1.00  0.00     0.040 A 
ATOM     65  C   UNL A   1      37.465  30.453  32.980  1.00  0.00     0.040 A 
ATOM     66  F   UNL A   1      39.595  29.474  32.964  1.00  0.00    -0.206 F 
ATOM     67  C   UNL A   1      36.427  31.102  32.316  1.00  0.00     0.006 A 
ENDBRANCH  46  60
BRANCH  47  68
ATOM     68  C   UNL A   1      46.843  27.021  26.038  1.00  0.00     0.057 A 
ATOM     69  C   UNL A   1      46.987  27.252  24.666  1.00  0.00     0.134 A 
ATOM     70  C   UNL A   1      47.878  26.337  26.688  1.00  0.00     0.134 A 
ATOM     71  F   UNL A   1      46.018  27.876  23.981  1.00  0.00    -0.206 F 
ATOM     72  C   UNL A   1      48.118  26.824  23.969  1.00  0.00     0.040 A 
ATOM     73  C   UNL A   1      49.028  25.931  26.010  1.00  0.00     0.040 A 
ATOM     74  F   UNL A   1      47.801  26.081  28.002  1.00  0.00    -0.206 F 
ATOM     75  C   UNL A   1      49.149  26.171  24.644  1.00  0.00     0.006 A 
ENDBRANCH  47  68
BRANCH  59  76
ATOM     76  C   UNL A   1      45.121  33.104  28.942  1.00  0.00     0.057 A 
ATOM     77  C   UNL A   1      45.990  33.381  30.003  1.00  0.00     0.134 A 
ATOM     78  C   UNL A   1      44.963  34.083  27.955  1.00  0.00     0.134 A 
ATOM     79  F   UNL A   1      46.170  32.488  30.988  1.00  0.00    -0.206 F 
ATOM     80  C   UNL A   1      46.664  34.600  30.090  1.00  0.00     0.040 A 
ATOM     81  C   UNL A   1      45.648  35.296  28.018  1.00  0.00     0.040 A 
ATOM     82  F   UNL A   1      44.147  33.873  26.910  1.00  0.00    -0.206 F 
ATOM     83  C   UNL A   1      46.497  35.559  29.092  1.00  0.00     0.006 A 
ENDBRANCH  59  76
ENDBRANCH  33  34
ENDBRANCH  26  28
ENDBRANCH  25  26
ENDBRANCH  24  25
ENDBRANCH   1  24
TORSDOF 15
ENDMDL
MODEL 3
REMARK VINA RESULT:     -11.4      5.010     10.039
REMARK SMILES COc1ccc(CCn2cc(C(=O)OCCOC(=O)c3ccc(-c4c5nc(c(-c6c(F)cccc6F)c6ccc([nH]6)c(-c6c(F)cccc6F)c6nc(c(-c7c(F)cccc7F)c7ccc4[nH]7)C=C6)C=C5)cc3)c(=O)[nH]c2=O)cc1
REMARK SMILES IDX 15 1 14 2 12 3 13 4 11 5 9 6 10 7 77 8 76 9 78 10 74 11
REMARK SMILES IDX 75 13 8 14 7 15 6 16 3 17 4 18 80 19 5 20 79 21 2 22 1 23
REMARK SMILES IDX 16 24 17 25 18 26 19 27 20 28 21 29 73 30 22 31 72 32 23 33
REMARK SMILES IDX 24 34 25 35 66 36 26 37 71 38 65 39 67 40 27 41 70 42 64 43
REMARK SMILES IDX 63 44 28 46 54 47 37 48 53 49 38 50 41 51 52 52 68 53 39 54
REMARK SMILES IDX 40 55 51 57 69 58 42 59 29 60 30 61 35 62 31 63 32 64 34 65
REMARK SMILES IDX 36 66 33 67 55 68 56 69 61 70 57 71 58 72 60 73 62 74 59 75
REMARK SMILES IDX 43 76 44 77 49 78 45 79 46 80 48 81 50 82 47 83
REMARK H PARENT 76 12 67 45 41 56
REMARK Flexibility Score: inf
ROOT
ATOM      1  C   UNL A   1      35.157  33.481  28.169  1.00  0.00     0.275 C 
ENDROOT
BRANCH   1   2
ATOM      2  O   UNL A   1      34.548  33.992  29.378  1.00  0.00    -0.458 OA
BRANCH   2   3
ATOM      3  C   UNL A   1      33.343  34.594  29.213  1.00  0.00     0.345 C 
ATOM      4  O   UNL A   1      32.578  34.401  28.278  1.00  0.00    -0.246 OA
BRANCH   3   5
ATOM      5  C   UNL A   1      33.080  35.643  30.214  1.00  0.00     0.141 A 
ATOM      6  N   UNL A   1      33.655  36.128  32.469  1.00  0.00    -0.299 N 
ATOM      7  C   UNL A   1      33.196  35.263  31.492  1.00  0.00     0.112 A 
ATOM      8  C   UNL A   1      33.771  37.500  32.227  1.00  0.00     0.328 A 
ATOM      9  N   UNL A   1      33.423  37.905  30.969  1.00  0.00    -0.273 N 
ATOM     10  O   UNL A   1      34.215  38.308  33.038  1.00  0.00    -0.248 OA
ATOM     11  C   UNL A   1      33.200  37.079  29.906  1.00  0.00     0.268 A 
ATOM     12  H   UNL A   1      33.325  38.873  30.818  1.00  0.00     0.175 HD
ATOM     13  O   UNL A   1      33.100  37.530  28.773  1.00  0.00    -0.268 OA
BRANCH   6  14
ATOM     14  C   UNL A   1      34.346  35.638  33.670  1.00  0.00     0.132 C 
BRANCH  14  15
ATOM     15  C   UNL A   1      34.692  34.149  33.822  1.00  0.00     0.057 C 
BRANCH  15  16
ATOM     16  C   UNL A   1      35.847  33.523  33.056  1.00  0.00    -0.046 A 
ATOM     17  C   UNL A   1      38.283  32.467  32.076  1.00  0.00     0.118 A 
ATOM     18  C   UNL A   1      37.194  31.633  32.323  1.00  0.00     0.046 A 
ATOM     19  C   UNL A   1      38.121  33.841  32.217  1.00  0.00     0.046 A 
ATOM     20  C   UNL A   1      35.974  32.160  32.763  1.00  0.00     0.007 A 
ATOM     21  C   UNL A   1      36.923  34.361  32.720  1.00  0.00     0.007 A 
BRANCH  17  22
ATOM     22  O   UNL A   1      39.435  31.829  31.708  1.00  0.00    -0.497 OA
ATOM     23  C   UNL A   1      40.361  31.550  32.752  1.00  0.00     0.278 C 
ENDBRANCH  17  22
ENDBRANCH  15  16
ENDBRANCH  14  15
ENDBRANCH   6  14
ENDBRANCH   3   5
ENDBRANCH   2   3
ENDBRANCH   1   2
BRANCH   1  24
ATOM     24  C   UNL A   1      34.654  32.075  27.856  1.00  0.00     0.275 C 
BRANCH  24  25
ATOM     25  O   UNL A   1      35.169  31.163  28.839  1.00  0.00    -0.458 OA
BRANCH  25  26
ATOM     26  C   UNL A   1      35.454  29.920  28.388  1.00  0.00     0.338 C 
ATOM     27  O   UNL A   1      34.695  29.115  27.882  1.00  0.00    -0.246 OA
BRANCH  26  28
ATOM     28  C   UNL A   1      36.901  29.699  28.504  1.00  0.00     0.060 A 
ATOM     29  C   UNL A   1      37.682  29.855  27.365  1.00  0.00     0.016 A 
ATOM     30  C   UNL A   1      37.465  29.202  29.675  1.00  0.00     0.016 A 
ATOM     31  C   UNL A   1      38.999  29.425  27.349  1.00  0.00     0.010 A 
ATOM     32  C   UNL A   1      38.826  28.872  29.691  1.00  0.00     0.010 A 
ATOM     33  C   UNL A   1      39.599  28.948  28.516  1.00  0.00    -0.014 A 
BRANCH  33  34
ATOM     34  C   UNL A   1      41.006  28.472  28.474  1.00  0.00     0.031 A 
ATOM     35  C   UNL A   1      42.123  29.428  28.786  1.00  0.00     0.074 A 
ATOM     36  C   UNL A   1      41.287  27.181  28.207  1.00  0.00     0.049 A 
ATOM     37  N   UNL A   1      43.408  29.297  28.581  1.00  0.00    -0.248 NA
ATOM     38  C   UNL A   1      41.739  30.712  29.394  1.00  0.00     0.031 C 
ATOM     39  C   UNL A   1      40.300  26.123  27.985  1.00  0.00     0.029 A 
ATOM     40  N   UNL A   1      42.493  26.535  28.091  1.00  0.00    -0.354 N 
ATOM     41  C   UNL A   1      43.975  30.506  28.963  1.00  0.00     0.074 A 
ATOM     42  C   UNL A   1      42.898  31.354  29.425  1.00  0.00     0.031 C 
ATOM     43  C   UNL A   1      40.935  24.957  27.803  1.00  0.00     0.029 A 
ATOM     44  C   UNL A   1      42.371  25.202  27.781  1.00  0.00     0.049 A 
ATOM     45  H   UNL A   1      43.361  26.984  28.216  1.00  0.00     0.167 HD
ATOM     46  C   UNL A   1      45.279  30.869  28.919  1.00  0.00     0.037 A 
ATOM     47  C   UNL A   1      43.305  24.290  27.455  1.00  0.00     0.037 A 
ATOM     48  C   UNL A   1      46.345  29.986  28.524  1.00  0.00     0.049 A 
ATOM     49  C   UNL A   1      44.738  24.727  27.364  1.00  0.00     0.074 A 
ATOM     50  C   UNL A   1      47.702  30.246  28.449  1.00  0.00     0.029 A 
ATOM     51  N   UNL A   1      46.171  28.659  28.158  1.00  0.00    -0.354 N 
ATOM     52  N   UNL A   1      45.260  25.901  27.621  1.00  0.00    -0.248 NA
ATOM     53  C   UNL A   1      45.706  23.723  26.904  1.00  0.00     0.031 C 
ATOM     54  C   UNL A   1      48.345  29.085  28.004  1.00  0.00     0.029 A 
ATOM     55  C   UNL A   1      47.393  28.091  27.842  1.00  0.00     0.049 A 
ATOM     56  H   UNL A   1      45.306  28.189  28.129  1.00  0.00     0.167 HD
ATOM     57  C   UNL A   1      46.615  25.783  27.349  1.00  0.00     0.074 A 
ATOM     58  C   UNL A   1      46.839  24.411  26.936  1.00  0.00     0.031 C 
ATOM     59  C   UNL A   1      47.586  26.725  27.422  1.00  0.00     0.037 A 
BRANCH  46  60
ATOM     60  C   UNL A   1      45.612  32.293  29.254  1.00  0.00     0.057 A 
ATOM     61  C   UNL A   1      45.613  33.313  28.294  1.00  0.00     0.134 A 
ATOM     62  C   UNL A   1      45.925  32.649  30.573  1.00  0.00     0.134 A 
ATOM     63  F   UNL A   1      45.340  33.038  27.010  1.00  0.00    -0.206 F 
ATOM     64  C   UNL A   1      45.939  34.629  28.629  1.00  0.00     0.040 A 
ATOM     65  C   UNL A   1      46.227  33.966  30.925  1.00  0.00     0.040 A 
ATOM     66  F   UNL A   1      45.939  31.723  31.543  1.00  0.00    -0.206 F 
ATOM     67  C   UNL A   1      46.241  34.960  29.950  1.00  0.00     0.006 A 
ENDBRANCH  46  60
BRANCH  47  68
ATOM     68  C   UNL A   1      42.897  22.903  27.117  1.00  0.00     0.057 A 
ATOM     69  C   UNL A   1      42.850  22.464  25.791  1.00  0.00     0.134 A 
ATOM     70  C   UNL A   1      42.572  21.975  28.115  1.00  0.00     0.134 A 
ATOM     71  F   UNL A   1      43.123  23.312  24.788  1.00  0.00    -0.206 F 
ATOM     72  C   UNL A   1      42.497  21.152  25.468  1.00  0.00     0.040 A 
ATOM     73  C   UNL A   1      42.246  20.653  27.809  1.00  0.00     0.040 A 
ATOM     74  F   UNL A   1      42.595  22.333  29.407  1.00  0.00    -0.206 F 
ATOM     75  C   UNL A   1      42.205  20.239  26.481  1.00  0.00     0.006 A 
ENDBRANCH  47  68
BRANCH  59  76
ATOM     76  C   UNL A   1      48.972  26.293  27.054  1.00  0.00     0.057 A 
ATOM     77  C   UNL A   1      49.459  26.432  25.749  1.00  0.00     0.134 A 
ATOM     78  C   UNL A   1      49.832  25.754  28.017  1.00  0.00     0.134 A 
ATOM     79  F   UNL A   1      48.676  26.927  24.778  1.00  0.00    -0.206 F 
ATOM     80  C   UNL A   1      50.751  26.028  25.409  1.00  0.00     0.040 A 
ATOM     81  C   UNL A   1      51.133  25.367  27.695  1.00  0.00     0.040 A 
ATOM     82  F   UNL A   1      49.425  25.601  29.286  1.00  0.00    -0.206 F 
ATOM     83  C   UNL A   1      51.593  25.498  26.386  1.00  0.00     0.006 A 
ENDBRANCH  59  76
ENDBRANCH  33  34
ENDBRANCH  26  28
ENDBRANCH  25  26
ENDBRANCH  24  25
ENDBRANCH   1  24
TORSDOF 15
ENDMDL
