MODEL 1
REMARK VINA RESULT:     -10.7      0.000      0.000
REMARK SMILES Nc1ccc(-c2cc(Cl)cc3c2O[C@H](C(F)(F)F)C(C(=O)OCCOC(=O)c2ccc(-c4c5nc(c(-c6c(F)cccc6F)c6ccc([nH]6)c(-c6c(F)cccc6F)c6nc(c(-c7c(F)cccc7F)c7ccc4[nH]7)C=C6)C=C5)cc2)=C3)cc1
REMARK SMILES IDX 23 1 22 2 20 3 21 4 19 5 6 6 7 7 12 8 8 9 11 10 13 11 9 12
REMARK SMILES IDX 10 13 82 14 14 15 5 16 2 17 3 18 84 19 4 20 83 21 1 22 15 25
REMARK SMILES IDX 16 26 17 27 18 28 24 29 25 30 26 31 27 32 28 33 29 34 81 35
REMARK SMILES IDX 30 36 80 37 31 38 32 39 33 40 74 41 34 42 79 43 73 44 75 45
REMARK SMILES IDX 35 46 78 47 72 48 71 49 36 51 62 52 45 53 61 54 46 55 49 56
REMARK SMILES IDX 60 57 76 58 47 59 48 60 59 62 77 63 50 64 37 65 38 66 43 67
REMARK SMILES IDX 39 68 40 69 42 70 44 71 41 72 63 73 64 74 69 75 65 76 66 77
REMARK SMILES IDX 68 78 70 79 67 80 51 81 52 82 57 83 53 84 54 85 56 86 58 87
REMARK SMILES IDX 55 88
REMARK H PARENT 1 23 1 24 75 50 49 61
REMARK Flexibility Score: inf
ROOT
ATOM      1  C   UNL A   1      34.439  34.888  28.936  1.00  0.00     0.275 C 
ENDROOT
BRANCH   1   2
ATOM      2  O   UNL A   1      34.217  34.803  30.361  1.00  0.00    -0.459 OA
BRANCH   2   3
ATOM      3  C   UNL A   1      34.756  33.725  30.978  1.00  0.00     0.338 C 
ATOM      4  O   UNL A   1      34.326  32.582  30.962  1.00  0.00    -0.246 OA
BRANCH   3   5
ATOM      5  C   UNL A   1      36.006  34.103  31.667  1.00  0.00     0.087 C 
ATOM      6  C   UNL A   1      39.594  34.835  33.715  1.00  0.00     0.026 A 
ATOM      7  C   UNL A   1      40.806  34.700  33.010  1.00  0.00     0.033 A 
ATOM      8  C   UNL A   1      38.383  34.645  33.018  1.00  0.00     0.135 A 
ATOM      9  C   UNL A   1      40.809  34.382  31.655  1.00  0.00     0.042 A 
ATOM     10  C   UNL A   1      38.400  34.285  31.669  1.00  0.00     0.019 A 
ATOM     11  O   UNL A   1      37.215  34.864  33.703  1.00  0.00    -0.475 OA
ATOM     12  Cl  UNL A   1      42.300  34.229  30.812  1.00  0.00    -0.084 Cl
ATOM     13  C   UNL A   1      39.613  34.168  30.982  1.00  0.00     0.032 A 
ATOM     14  C   UNL A   1      37.154  33.999  30.989  1.00  0.00     0.027 C 
ATOM     15  C   UNL A   1      35.947  34.465  33.122  1.00  0.00     0.316 C 
BRANCH   6  16
ATOM     16  C   UNL A   1      39.617  35.127  35.156  1.00  0.00    -0.014 A 
ATOM     17  C   UNL A   1      39.602  35.711  37.923  1.00  0.00     0.031 A 
ATOM     18  C   UNL A   1      38.834  34.664  37.416  1.00  0.00     0.026 A 
ATOM     19  C   UNL A   1      40.423  36.424  37.050  1.00  0.00     0.026 A 
ATOM     20  C   UNL A   1      38.835  34.379  36.049  1.00  0.00     0.011 A 
ATOM     21  C   UNL A   1      40.424  36.146  35.678  1.00  0.00     0.011 A 
BRANCH  17  22
ATOM     22  N   UNL A   1      39.644  35.952  39.287  1.00  0.00    -0.399 N 
ATOM     23  H   UNL A   1      39.402  35.239  39.921  1.00  0.00     0.156 HD
ATOM     24  H   UNL A   1      39.915  36.838  39.621  1.00  0.00     0.156 HD
ENDBRANCH  17  22
ENDBRANCH   6  16
BRANCH  15  25
ATOM     25  C   UNL A   1      35.369  33.311  33.957  1.00  0.00     0.430 C 
ATOM     26  F   UNL A   1      35.854  32.113  33.554  1.00  0.00    -0.167 F 
ATOM     27  F   UNL A   1      35.686  33.437  35.267  1.00  0.00    -0.167 F 
ATOM     28  F   UNL A   1      34.020  33.251  33.871  1.00  0.00    -0.167 F 
ENDBRANCH  15  25
ENDBRANCH   3   5
ENDBRANCH   2   3
ENDBRANCH   1   2
BRANCH   1  29
ATOM     29  C   UNL A   1      33.847  33.681  28.210  1.00  0.00     0.275 C 
BRANCH  29  30
ATOM     30  O   UNL A   1      34.898  32.887  27.633  1.00  0.00    -0.458 OA
BRANCH  30  31
ATOM     31  C   UNL A   1      34.744  31.546  27.730  1.00  0.00     0.338 C 
ATOM     32  O   UNL A   1      33.837  30.863  27.291  1.00  0.00    -0.246 OA
BRANCH  31  33
ATOM     33  C   UNL A   1      35.926  30.974  28.392  1.00  0.00     0.060 A 
ATOM     34  C   UNL A   1      35.901  29.712  28.970  1.00  0.00     0.016 A 
ATOM     35  C   UNL A   1      37.123  31.675  28.309  1.00  0.00     0.016 A 
ATOM     36  C   UNL A   1      37.088  29.177  29.488  1.00  0.00     0.010 A 
ATOM     37  C   UNL A   1      38.324  31.083  28.685  1.00  0.00     0.010 A 
ATOM     38  C   UNL A   1      38.322  29.841  29.324  1.00  0.00    -0.014 A 
BRANCH  38  39
ATOM     39  C   UNL A   1      39.599  29.260  29.832  1.00  0.00     0.031 A 
ATOM     40  C   UNL A   1      40.209  29.734  31.134  1.00  0.00     0.074 A 
ATOM     41  C   UNL A   1      40.245  28.326  29.104  1.00  0.00     0.049 A 
ATOM     42  N   UNL A   1      41.303  29.326  31.733  1.00  0.00    -0.248 NA
ATOM     43  C   UNL A   1      39.534  30.840  31.833  1.00  0.00     0.031 C 
ATOM     44  C   UNL A   1      39.840  27.855  27.778  1.00  0.00     0.029 A 
ATOM     45  N   UNL A   1      41.372  27.594  29.385  1.00  0.00    -0.354 N 
ATOM     46  C   UNL A   1      41.455  30.144  32.848  1.00  0.00     0.074 A 
ATOM     47  C   UNL A   1      40.391  31.120  32.801  1.00  0.00     0.031 C 
ATOM     48  C   UNL A   1      40.656  26.859  27.396  1.00  0.00     0.029 A 
ATOM     49  C   UNL A   1      41.662  26.645  28.432  1.00  0.00     0.049 A 
ATOM     50  H   UNL A   1      41.920  27.733  30.190  1.00  0.00     0.167 HD
ATOM     51  C   UNL A   1      42.366  30.068  33.849  1.00  0.00     0.037 A 
ATOM     52  C   UNL A   1      42.614  25.694  28.407  1.00  0.00     0.037 A 
ATOM     53  C   UNL A   1      43.384  29.056  33.938  1.00  0.00     0.049 A 
ATOM     54  C   UNL A   1      43.566  25.576  29.563  1.00  0.00     0.074 A 
ATOM     55  C   UNL A   1      44.293  28.830  34.956  1.00  0.00     0.029 A 
ATOM     56  N   UNL A   1      43.617  28.091  32.971  1.00  0.00    -0.354 N 
ATOM     57  N   UNL A   1      43.633  26.296  30.657  1.00  0.00    -0.248 NA
ATOM     58  C   UNL A   1      44.571  24.506  29.483  1.00  0.00     0.031 C 
ATOM     59  C   UNL A   1      45.094  27.741  34.594  1.00  0.00     0.029 A 
ATOM     60  C   UNL A   1      44.662  27.272  33.364  1.00  0.00     0.049 A 
ATOM     61  H   UNL A   1      43.115  28.003  32.128  1.00  0.00     0.167 HD
ATOM     62  C   UNL A   1      44.674  25.756  31.402  1.00  0.00     0.074 A 
ATOM     63  C   UNL A   1      45.192  24.635  30.647  1.00  0.00     0.031 C 
ATOM     64  C   UNL A   1      45.161  26.158  32.601  1.00  0.00     0.037 A 
BRANCH  51  65
ATOM     65  C   UNL A   1      42.273  31.090  34.948  1.00  0.00     0.057 A 
ATOM     66  C   UNL A   1      42.996  32.288  34.881  1.00  0.00     0.134 A 
ATOM     67  C   UNL A   1      41.475  30.883  36.083  1.00  0.00     0.134 A 
ATOM     68  F   UNL A   1      43.788  32.549  33.831  1.00  0.00    -0.206 F 
ATOM     69  C   UNL A   1      42.918  33.245  35.895  1.00  0.00     0.040 A 
ATOM     70  C   UNL A   1      41.366  31.844  37.087  1.00  0.00     0.040 A 
ATOM     71  F   UNL A   1      40.749  29.760  36.205  1.00  0.00    -0.206 F 
ATOM     72  C   UNL A   1      42.093  33.029  36.997  1.00  0.00     0.006 A 
ENDBRANCH  51  65
BRANCH  52  73
ATOM     73  C   UNL A   1      42.675  24.732  27.279  1.00  0.00     0.057 A 
ATOM     74  C   UNL A   1      43.452  24.977  26.143  1.00  0.00     0.134 A 
ATOM     75  C   UNL A   1      41.954  23.532  27.322  1.00  0.00     0.134 A 
ATOM     76  F   UNL A   1      44.158  26.113  26.037  1.00  0.00    -0.206 F 
ATOM     77  C   UNL A   1      43.511  24.064  25.088  1.00  0.00     0.040 A 
ATOM     78  C   UNL A   1      42.022  22.600  26.285  1.00  0.00     0.040 A 
ATOM     79  F   UNL A   1      41.203  23.233  28.393  1.00  0.00    -0.206 F 
ATOM     80  C   UNL A   1      42.800  22.868  25.162  1.00  0.00     0.006 A 
ENDBRANCH  52  73
BRANCH  64  81
ATOM     81  C   UNL A   1      46.296  25.364  33.173  1.00  0.00     0.057 A 
ATOM     82  C   UNL A   1      46.051  24.245  33.978  1.00  0.00     0.134 A 
ATOM     83  C   UNL A   1      47.631  25.722  32.945  1.00  0.00     0.134 A 
ATOM     84  F   UNL A   1      44.795  23.856  34.240  1.00  0.00    -0.206 F 
ATOM     85  C   UNL A   1      47.096  23.507  34.535  1.00  0.00     0.040 A 
ATOM     86  C   UNL A   1      48.685  24.978  33.478  1.00  0.00     0.040 A 
ATOM     87  F   UNL A   1      47.929  26.776  32.170  1.00  0.00    -0.206 F 
ATOM     88  C   UNL A   1      48.417  23.870  34.280  1.00  0.00     0.006 A 
ENDBRANCH  64  81
ENDBRANCH  38  39
ENDBRANCH  31  33
ENDBRANCH  30  31
ENDBRANCH  29  30
ENDBRANCH   1  29
TORSDOF 14
ENDMDL
MODEL 2
REMARK VINA RESULT:     -10.7      4.927     11.785
REMARK SMILES Nc1ccc(-c2cc(Cl)cc3c2O[C@H](C(F)(F)F)C(C(=O)OCCOC(=O)c2ccc(-c4c5nc(c(-c6c(F)cccc6F)c6ccc([nH]6)c(-c6c(F)cccc6F)c6nc(c(-c7c(F)cccc7F)c7ccc4[nH]7)C=C6)C=C5)cc2)=C3)cc1
REMARK SMILES IDX 23 1 22 2 20 3 21 4 19 5 6 6 7 7 12 8 8 9 11 10 13 11 9 12
REMARK SMILES IDX 10 13 82 14 14 15 5 16 2 17 3 18 84 19 4 20 83 21 1 22 15 25
REMARK SMILES IDX 16 26 17 27 18 28 24 29 25 30 26 31 27 32 28 33 29 34 81 35
REMARK SMILES IDX 30 36 80 37 31 38 32 39 33 40 74 41 34 42 79 43 73 44 75 45
REMARK SMILES IDX 35 46 78 47 72 48 71 49 36 51 62 52 45 53 61 54 46 55 49 56
REMARK SMILES IDX 60 57 76 58 47 59 48 60 59 62 77 63 50 64 37 65 38 66 43 67
REMARK SMILES IDX 39 68 40 69 42 70 44 71 41 72 63 73 64 74 69 75 65 76 66 77
REMARK SMILES IDX 68 78 70 79 67 80 51 81 52 82 57 83 53 84 54 85 56 86 58 87
REMARK SMILES IDX 55 88
REMARK H PARENT 1 23 1 24 75 50 49 61
REMARK Flexibility Score: inf
ROOT
ATOM      1  C   UNL A   1      42.161  20.105  27.218  1.00  0.00     0.275 C 
ENDROOT
BRANCH   1   2
ATOM      2  O   UNL A   1      43.178  20.409  26.238  1.00  0.00    -0.459 OA
BRANCH   2   3
ATOM      3  C   UNL A   1      43.201  21.686  25.789  1.00  0.00     0.338 C 
ATOM      4  O   UNL A   1      42.422  22.198  25.001  1.00  0.00    -0.246 OA
BRANCH   3   5
ATOM      5  C   UNL A   1      44.302  22.432  26.430  1.00  0.00     0.087 C 
ATOM      6  C   UNL A   1      47.303  24.845  28.097  1.00  0.00     0.026 A 
ATOM      7  C   UNL A   1      47.051  25.465  29.336  1.00  0.00     0.033 A 
ATOM      8  C   UNL A   1      46.321  23.988  27.559  1.00  0.00     0.135 A 
ATOM      9  C   UNL A   1      45.856  25.240  30.014  1.00  0.00     0.042 A 
ATOM     10  C   UNL A   1      45.109  23.804  28.227  1.00  0.00     0.019 A 
ATOM     11  O   UNL A   1      46.622  23.330  26.394  1.00  0.00    -0.475 OA
ATOM     12  Cl  UNL A   1      45.571  26.002  31.530  1.00  0.00    -0.084 Cl
ATOM     13  C   UNL A   1      44.881  24.418  29.464  1.00  0.00     0.032 A 
ATOM     14  C   UNL A   1      44.071  22.999  27.619  1.00  0.00     0.027 C 
ATOM     15  C   UNL A   1      45.582  22.623  25.670  1.00  0.00     0.316 C 
BRANCH   6  16
ATOM     16  C   UNL A   1      48.553  25.133  27.379  1.00  0.00    -0.014 A 
ATOM     17  C   UNL A   1      50.968  25.737  26.036  1.00  0.00     0.031 A 
ATOM     18  C   UNL A   1      50.988  25.203  27.323  1.00  0.00     0.026 A 
ATOM     19  C   UNL A   1      49.738  25.910  25.402  1.00  0.00     0.026 A 
ATOM     20  C   UNL A   1      49.796  24.911  27.991  1.00  0.00     0.011 A 
ATOM     21  C   UNL A   1      48.541  25.624  26.067  1.00  0.00     0.011 A 
BRANCH  17  22
ATOM     22  N   UNL A   1      52.152  25.969  25.356  1.00  0.00    -0.399 N 
ATOM     23  H   UNL A   1      52.979  25.514  25.636  1.00  0.00     0.156 HD
ATOM     24  H   UNL A   1      52.167  26.591  24.592  1.00  0.00     0.156 HD
ENDBRANCH  17  22
ENDBRANCH   6  16
BRANCH  15  25
ATOM     25  C   UNL A   1      45.332  23.353  24.340  1.00  0.00     0.430 C 
ATOM     26  F   UNL A   1      44.416  24.340  24.478  1.00  0.00    -0.167 F 
ATOM     27  F   UNL A   1      46.461  23.934  23.870  1.00  0.00    -0.167 F 
ATOM     28  F   UNL A   1      44.880  22.513  23.380  1.00  0.00    -0.167 F 
ENDBRANCH  15  25
ENDBRANCH   3   5
ENDBRANCH   2   3
ENDBRANCH   1   2
BRANCH   1  29
ATOM     29  C   UNL A   1      40.760  20.349  26.657  1.00  0.00     0.275 C 
BRANCH  29  30
ATOM     30  O   UNL A   1      40.126  21.429  27.365  1.00  0.00    -0.458 OA
BRANCH  30  31
ATOM     31  C   UNL A   1      39.503  22.351  26.596  1.00  0.00     0.338 C 
ATOM     32  O   UNL A   1      38.603  22.173  25.795  1.00  0.00    -0.246 OA
BRANCH  31  33
ATOM     33  C   UNL A   1      40.016  23.685  26.937  1.00  0.00     0.060 A 
ATOM     34  C   UNL A   1      39.784  24.787  26.124  1.00  0.00     0.016 A 
ATOM     35  C   UNL A   1      40.631  23.852  28.172  1.00  0.00     0.016 A 
ATOM     36  C   UNL A   1      40.203  26.052  26.556  1.00  0.00     0.010 A 
ATOM     37  C   UNL A   1      40.908  25.122  28.664  1.00  0.00     0.010 A 
ATOM     38  C   UNL A   1      40.743  26.242  27.846  1.00  0.00    -0.014 A 
BRANCH  38  39
ATOM     39  C   UNL A   1      41.152  27.593  28.334  1.00  0.00     0.031 A 
ATOM     40  C   UNL A   1      42.588  28.059  28.228  1.00  0.00     0.074 A 
ATOM     41  C   UNL A   1      40.239  28.397  28.916  1.00  0.00     0.049 A 
ATOM     42  N   UNL A   1      43.115  29.206  28.585  1.00  0.00    -0.248 NA
ATOM     43  C   UNL A   1      43.572  27.100  27.699  1.00  0.00     0.031 C 
ATOM     44  C   UNL A   1      38.846  28.041  29.192  1.00  0.00     0.029 A 
ATOM     45  N   UNL A   1      40.344  29.690  29.366  1.00  0.00    -0.354 N 
ATOM     46  C   UNL A   1      44.481  29.087  28.353  1.00  0.00     0.074 A 
ATOM     47  C   UNL A   1      44.715  27.735  27.902  1.00  0.00     0.031 C 
ATOM     48  C   UNL A   1      38.206  29.112  29.688  1.00  0.00     0.029 A 
ATOM     49  C   UNL A   1      39.150  30.220  29.799  1.00  0.00     0.049 A 
ATOM     50  H   UNL A   1      41.191  30.191  29.378  1.00  0.00     0.167 HD
ATOM     51  C   UNL A   1      45.453  30.026  28.459  1.00  0.00     0.037 A 
ATOM     52  C   UNL A   1      38.845  31.463  30.214  1.00  0.00     0.037 A 
ATOM     53  C   UNL A   1      45.216  31.392  28.839  1.00  0.00     0.049 A 
ATOM     54  C   UNL A   1      39.921  32.511  30.249  1.00  0.00     0.074 A 
ATOM     55  C   UNL A   1      46.112  32.446  28.883  1.00  0.00     0.029 A 
ATOM     56  N   UNL A   1      43.986  31.896  29.231  1.00  0.00    -0.354 N 
ATOM     57  N   UNL A   1      41.189  32.407  29.931  1.00  0.00    -0.248 NA
ATOM     58  C   UNL A   1      39.520  33.854  30.695  1.00  0.00     0.031 C 
ATOM     59  C   UNL A   1      45.428  33.584  29.326  1.00  0.00     0.029 A 
ATOM     60  C   UNL A   1      44.100  33.244  29.527  1.00  0.00     0.049 A 
ATOM     61  H   UNL A   1      43.155  31.372  29.292  1.00  0.00     0.167 HD
ATOM     62  C   UNL A   1      41.731  33.672  30.122  1.00  0.00     0.074 A 
ATOM     63  C   UNL A   1      40.650  34.530  30.559  1.00  0.00     0.031 C 
ATOM     64  C   UNL A   1      43.012  34.083  29.957  1.00  0.00     0.037 A 
BRANCH  51  65
ATOM     65  C   UNL A   1      46.857  29.610  28.118  1.00  0.00     0.057 A 
ATOM     66  C   UNL A   1      47.715  29.100  29.100  1.00  0.00     0.134 A 
ATOM     67  C   UNL A   1      47.366  29.725  26.816  1.00  0.00     0.134 A 
ATOM     68  F   UNL A   1      47.300  28.971  30.369  1.00  0.00    -0.206 F 
ATOM     69  C   UNL A   1      49.022  28.709  28.797  1.00  0.00     0.040 A 
ATOM     70  C   UNL A   1      48.659  29.311  26.496  1.00  0.00     0.040 A 
ATOM     71  F   UNL A   1      46.593  30.198  25.825  1.00  0.00    -0.206 F 
ATOM     72  C   UNL A   1      49.493  28.804  27.489  1.00  0.00     0.006 A 
ENDBRANCH  51  65
BRANCH  52  73
ATOM     73  C   UNL A   1      37.445  31.807  30.566  1.00  0.00     0.057 A 
ATOM     74  C   UNL A   1      36.527  32.236  29.603  1.00  0.00     0.134 A 
ATOM     75  C   UNL A   1      36.994  31.703  31.888  1.00  0.00     0.134 A 
ATOM     76  F   UNL A   1      36.901  32.365  28.321  1.00  0.00    -0.206 F 
ATOM     77  C   UNL A   1      35.209  32.552  29.940  1.00  0.00     0.040 A 
ATOM     78  C   UNL A   1      35.674  31.993  32.235  1.00  0.00     0.040 A 
ATOM     79  F   UNL A   1      37.824  31.282  32.854  1.00  0.00    -0.206 F 
ATOM     80  C   UNL A   1      34.778  32.423  31.259  1.00  0.00     0.006 A 
ENDBRANCH  52  73
BRANCH  64  81
ATOM     81  C   UNL A   1      43.302  35.528  30.230  1.00  0.00     0.057 A 
ATOM     82  C   UNL A   1      43.162  36.488  29.220  1.00  0.00     0.134 A 
ATOM     83  C   UNL A   1      43.741  35.964  31.486  1.00  0.00     0.134 A 
ATOM     84  F   UNL A   1      42.754  36.132  27.993  1.00  0.00    -0.206 F 
ATOM     85  C   UNL A   1      43.448  37.834  29.451  1.00  0.00     0.040 A 
ATOM     86  C   UNL A   1      44.006  37.311  31.736  1.00  0.00     0.040 A 
ATOM     87  F   UNL A   1      43.879  35.094  32.497  1.00  0.00    -0.206 F 
ATOM     88  C   UNL A   1      43.865  38.249  30.715  1.00  0.00     0.006 A 
ENDBRANCH  64  81
ENDBRANCH  38  39
ENDBRANCH  31  33
ENDBRANCH  30  31
ENDBRANCH  29  30
ENDBRANCH   1  29
TORSDOF 14
ENDMDL
MODEL 3
REMARK VINA RESULT:     -10.6      5.167      9.132
REMARK SMILES Nc1ccc(-c2cc(Cl)cc3c2O[C@H](C(F)(F)F)C(C(=O)OCCOC(=O)c2ccc(-c4c5nc(c(-c6c(F)cccc6F)c6ccc([nH]6)c(-c6c(F)cccc6F)c6nc(c(-c7c(F)cccc7F)c7ccc4[nH]7)C=C6)C=C5)cc2)=C3)cc1
REMARK SMILES IDX 23 1 22 2 20 3 21 4 19 5 6 6 7 7 12 8 8 9 11 10 13 11 9 12
REMARK SMILES IDX 10 13 82 14 14 15 5 16 2 17 3 18 84 19 4 20 83 21 1 22 15 25
REMARK SMILES IDX 16 26 17 27 18 28 24 29 25 30 26 31 27 32 28 33 29 34 81 35
REMARK SMILES IDX 30 36 80 37 31 38 32 39 33 40 74 41 34 42 79 43 73 44 75 45
REMARK SMILES IDX 35 46 78 47 72 48 71 49 36 51 62 52 45 53 61 54 46 55 49 56
REMARK SMILES IDX 60 57 76 58 47 59 48 60 59 62 77 63 50 64 37 65 38 66 43 67
REMARK SMILES IDX 39 68 40 69 42 70 44 71 41 72 63 73 64 74 69 75 65 76 66 77
REMARK SMILES IDX 68 78 70 79 67 80 51 81 52 82 57 83 53 84 54 85 56 86 58 87
REMARK SMILES IDX 55 88
REMARK H PARENT 1 23 1 24 75 50 49 61
REMARK Flexibility Score: inf
ROOT
ATOM      1  C   UNL A   1      31.136  28.858  24.818  1.00  0.00     0.275 C 
ENDROOT
BRANCH   1   2
ATOM      2  O   UNL A   1      32.085  27.870  25.280  1.00  0.00    -0.459 OA
BRANCH   2   3
ATOM      3  C   UNL A   1      31.584  26.903  26.084  1.00  0.00     0.338 C 
ATOM      4  O   UNL A   1      30.661  27.015  26.876  1.00  0.00    -0.246 OA
BRANCH   3   5
ATOM      5  C   UNL A   1      32.287  25.627  25.846  1.00  0.00     0.087 C 
ATOM      6  C   UNL A   1      34.353  22.116  24.841  1.00  0.00     0.026 A 
ATOM      7  C   UNL A   1      35.747  22.080  25.039  1.00  0.00     0.033 A 
ATOM      8  C   UNL A   1      33.645  23.272  25.229  1.00  0.00     0.135 A 
ATOM      9  C   UNL A   1      36.413  23.165  25.603  1.00  0.00     0.042 A 
ATOM     10  C   UNL A   1      34.330  24.370  25.754  1.00  0.00     0.019 A 
ATOM     11  O   UNL A   1      32.279  23.253  25.105  1.00  0.00    -0.475 OA
ATOM     12  Cl  UNL A   1      38.115  23.097  25.843  1.00  0.00    -0.084 Cl
ATOM     13  C   UNL A   1      35.713  24.311  25.956  1.00  0.00     0.032 A 
ATOM     14  C   UNL A   1      33.607  25.586  26.059  1.00  0.00     0.027 C 
ATOM     15  C   UNL A   1      31.519  24.478  25.263  1.00  0.00     0.316 C 
BRANCH   6  16
ATOM     16  C   UNL A   1      33.678  20.976  24.202  1.00  0.00    -0.014 A 
ATOM     17  C   UNL A   1      32.436  18.766  22.949  1.00  0.00     0.031 A 
ATOM     18  C   UNL A   1      33.294  18.576  24.030  1.00  0.00     0.026 A 
ATOM     19  C   UNL A   1      32.154  20.069  22.538  1.00  0.00     0.026 A 
ATOM     20  C   UNL A   1      33.915  19.666  24.646  1.00  0.00     0.011 A 
ATOM     21  C   UNL A   1      32.776  21.164  23.148  1.00  0.00     0.011 A 
BRANCH  17  22
ATOM     22  N   UNL A   1      31.777  17.688  22.380  1.00  0.00    -0.399 N 
ATOM     23  H   UNL A   1      31.241  17.085  22.943  1.00  0.00     0.156 HD
ATOM     24  H   UNL A   1      31.847  17.525  21.411  1.00  0.00     0.156 HD
ENDBRANCH  17  22
ENDBRANCH   6  16
BRANCH  15  25
ATOM     25  C   UNL A   1      30.909  24.853  23.902  1.00  0.00     0.430 C 
ATOM     26  F   UNL A   1      30.540  23.755  23.202  1.00  0.00    -0.167 F 
ATOM     27  F   UNL A   1      29.797  25.612  24.047  1.00  0.00    -0.167 F 
ATOM     28  F   UNL A   1      31.777  25.550  23.134  1.00  0.00    -0.167 F 
ENDBRANCH  15  25
ENDBRANCH   3   5
ENDBRANCH   2   3
ENDBRANCH   1   2
BRANCH   1  29
ATOM     29  C   UNL A   1      31.427  30.231  25.424  1.00  0.00     0.275 C 
BRANCH  29  30
ATOM     30  O   UNL A   1      32.777  30.277  25.919  1.00  0.00    -0.458 OA
BRANCH  30  31
ATOM     31  C   UNL A   1      33.026  31.214  26.862  1.00  0.00     0.338 C 
ATOM     32  O   UNL A   1      32.287  32.099  27.252  1.00  0.00    -0.246 OA
BRANCH  31  33
ATOM     33  C   UNL A   1      34.345  30.956  27.457  1.00  0.00     0.060 A 
ATOM     34  C   UNL A   1      35.160  31.988  27.906  1.00  0.00     0.016 A 
ATOM     35  C   UNL A   1      34.710  29.635  27.688  1.00  0.00     0.016 A 
ATOM     36  C   UNL A   1      36.356  31.674  28.564  1.00  0.00     0.010 A 
ATOM     37  C   UNL A   1      35.817  29.327  28.471  1.00  0.00     0.010 A 
ATOM     38  C   UNL A   1      36.686  30.340  28.884  1.00  0.00    -0.014 A 
BRANCH  38  39
ATOM     39  C   UNL A   1      37.937  29.997  29.623  1.00  0.00     0.031 A 
ATOM     40  C   UNL A   1      38.159  30.474  31.043  1.00  0.00     0.074 A 
ATOM     41  C   UNL A   1      38.903  29.286  29.008  1.00  0.00     0.049 A 
ATOM     42  N   UNL A   1      39.178  30.255  31.839  1.00  0.00    -0.248 NA
ATOM     43  C   UNL A   1      37.132  31.350  31.630  1.00  0.00     0.031 C 
ATOM     44  C   UNL A   1      38.881  28.857  27.608  1.00  0.00     0.029 A 
ATOM     45  N   UNL A   1      40.088  28.785  29.487  1.00  0.00    -0.354 N 
ATOM     46  C   UNL A   1      38.924  30.987  32.994  1.00  0.00     0.074 A 
ATOM     47  C   UNL A   1      37.699  31.719  32.767  1.00  0.00     0.031 C 
ATOM     48  C   UNL A   1      39.957  28.091  27.365  1.00  0.00     0.029 A 
ATOM     49  C   UNL A   1      40.762  28.004  28.578  1.00  0.00     0.049 A 
ATOM     50  H   UNL A   1      40.424  28.966  30.395  1.00  0.00     0.167 HD
ATOM     51  C   UNL A   1      39.616  31.019  34.159  1.00  0.00     0.037 A 
ATOM     52  C   UNL A   1      41.889  27.280  28.713  1.00  0.00     0.037 A 
ATOM     53  C   UNL A   1      40.796  30.239  34.417  1.00  0.00     0.049 A 
ATOM     54  C   UNL A   1      42.599  27.265  30.037  1.00  0.00     0.074 A 
ATOM     55  C   UNL A   1      41.517  30.121  35.593  1.00  0.00     0.029 A 
ATOM     56  N   UNL A   1      41.423  29.431  33.481  1.00  0.00    -0.354 N 
ATOM     57  N   UNL A   1      42.289  27.885  31.149  1.00  0.00    -0.248 NA
ATOM     58  C   UNL A   1      43.814  26.441  30.125  1.00  0.00     0.031 C 
ATOM     59  C   UNL A   1      42.595  29.260  35.361  1.00  0.00     0.029 A 
ATOM     60  C   UNL A   1      42.526  28.818  34.050  1.00  0.00     0.049 A 
ATOM     61  H   UNL A   1      41.127  29.312  32.549  1.00  0.00     0.167 HD
ATOM     62  C   UNL A   1      43.259  27.514  32.072  1.00  0.00     0.074 A 
ATOM     63  C   UNL A   1      44.151  26.595  31.396  1.00  0.00     0.031 C 
ATOM     64  C   UNL A   1      43.401  27.904  33.363  1.00  0.00     0.037 A 
BRANCH  51  65
ATOM     65  C   UNL A   1      39.085  31.899  35.257  1.00  0.00     0.057 A 
ATOM     66  C   UNL A   1      39.379  33.268  35.287  1.00  0.00     0.134 A 
ATOM     67  C   UNL A   1      38.290  31.389  36.293  1.00  0.00     0.134 A 
ATOM     68  F   UNL A   1      40.144  33.823  34.335  1.00  0.00    -0.206 F 
ATOM     69  C   UNL A   1      38.892  34.097  36.300  1.00  0.00     0.040 A 
ATOM     70  C   UNL A   1      37.773  32.212  37.293  1.00  0.00     0.040 A 
ATOM     71  F   UNL A   1      37.962  30.087  36.319  1.00  0.00    -0.206 F 
ATOM     72  C   UNL A   1      38.078  33.571  37.301  1.00  0.00     0.006 A 
ENDBRANCH  51  65
BRANCH  52  73
ATOM     73  C   UNL A   1      42.382  26.453  27.583  1.00  0.00     0.057 A 
ATOM     74  C   UNL A   1      43.246  26.970  26.614  1.00  0.00     0.134 A 
ATOM     75  C   UNL A   1      41.998  25.112  27.458  1.00  0.00     0.134 A 
ATOM     76  F   UNL A   1      43.643  28.250  26.674  1.00  0.00    -0.206 F 
ATOM     77  C   UNL A   1      43.713  26.185  25.558  1.00  0.00     0.040 A 
ATOM     78  C   UNL A   1      42.474  24.309  26.420  1.00  0.00     0.040 A 
ATOM     79  F   UNL A   1      41.182  24.555  28.366  1.00  0.00    -0.206 F 
ATOM     80  C   UNL A   1      43.332  24.847  25.464  1.00  0.00     0.006 A 
ENDBRANCH  52  73
BRANCH  64  81
ATOM     81  C   UNL A   1      44.550  27.320  34.126  1.00  0.00     0.057 A 
ATOM     82  C   UNL A   1      45.791  27.968  34.156  1.00  0.00     0.134 A 
ATOM     83  C   UNL A   1      44.435  26.105  34.812  1.00  0.00     0.134 A 
ATOM     84  F   UNL A   1      45.968  29.131  33.512  1.00  0.00    -0.206 F 
ATOM     85  C   UNL A   1      46.878  27.428  34.844  1.00  0.00     0.040 A 
ATOM     86  C   UNL A   1      45.508  25.566  35.524  1.00  0.00     0.040 A 
ATOM     87  F   UNL A   1      43.268  25.444  34.832  1.00  0.00    -0.206 F 
ATOM     88  C   UNL A   1      46.735  26.227  35.536  1.00  0.00     0.006 A 
ENDBRANCH  64  81
ENDBRANCH  38  39
ENDBRANCH  31  33
ENDBRANCH  30  31
ENDBRANCH  29  30
ENDBRANCH   1  29
TORSDOF 14
ENDMDL
