MODEL 1
REMARK VINA RESULT:     -10.1      0.000      0.000
REMARK SMILES O=C(OCCOC(=O)[C@@H]1C[C@@H]2CC(=O)[C@H]1C2)c1ccc(-c2c3nc(c(-c4c(F)cccc4F)c4ccc([nH]4)c(-c4c(F)cccc4F)c4nc(c(-c5c(F)cccc5F)c5ccc2[nH]5)C=C4)C=C3)cc1
REMARK SMILES IDX 4 1 3 2 2 3 1 4 17 5 18 6 70 7 19 8 69 9 20 10 21 11 22 12
REMARK SMILES IDX 63 13 23 14 68 15 62 16 64 17 24 18 67 19 61 20 60 21 25 23
REMARK SMILES IDX 51 24 34 25 50 26 35 27 38 28 49 29 65 30 36 31 37 32 48 34
REMARK SMILES IDX 66 35 39 36 26 37 27 38 32 39 28 40 29 41 31 42 33 43 30 44
REMARK SMILES IDX 52 45 53 46 58 47 54 48 55 49 57 50 59 51 56 52 40 53 41 54
REMARK SMILES IDX 46 55 42 56 43 57 45 58 47 59 44 60 5 61 6 62 7 63 8 64 9 65
REMARK SMILES IDX 10 66 15 67 11 68 13 69 16 70 12 71 14 72
REMARK H PARENT 64 22 38 33
REMARK Flexibility Score: inf
ROOT
ATOM      1  C   UNL A   1      33.637  34.300  28.237  1.00  0.00     0.275 C 
ENDROOT
BRANCH   1   2
ATOM      2  O   UNL A   1      34.618  33.365  27.758  1.00  0.00    -0.458 OA
BRANCH   2   3
ATOM      3  C   UNL A   1      34.583  32.012  27.801  1.00  0.00     0.338 C 
ATOM      4  O   UNL A   1      33.511  31.436  27.626  1.00  0.00    -0.246 OA
BRANCH   3   5
ATOM      5  C   UNL A   1      35.745  31.187  28.264  1.00  0.00     0.060 A 
ATOM      6  C   UNL A   1      35.744  29.811  28.514  1.00  0.00     0.016 A 
ATOM      7  C   UNL A   1      36.957  31.880  28.437  1.00  0.00     0.016 A 
ATOM      8  C   UNL A   1      36.922  29.125  28.824  1.00  0.00     0.010 A 
ATOM      9  C   UNL A   1      38.140  31.203  28.747  1.00  0.00     0.010 A 
ATOM     10  C   UNL A   1      38.126  29.817  28.937  1.00  0.00    -0.014 A 
BRANCH  10  11
ATOM     11  C   UNL A   1      39.305  29.142  29.513  1.00  0.00     0.031 A 
ATOM     12  C   UNL A   1      39.786  29.652  30.836  1.00  0.00     0.074 A 
ATOM     13  C   UNL A   1      39.914  28.114  28.896  1.00  0.00     0.049 A 
ATOM     14  N   UNL A   1      40.841  29.316  31.526  1.00  0.00    -0.248 NA
ATOM     15  C   UNL A   1      38.965  30.708  31.455  1.00  0.00     0.031 C 
ATOM     16  C   UNL A   1      39.494  27.510  27.633  1.00  0.00     0.029 A 
ATOM     17  N   UNL A   1      41.028  27.400  29.253  1.00  0.00    -0.354 N 
ATOM     18  C   UNL A   1      40.824  30.141  32.642  1.00  0.00     0.074 A 
ATOM     19  C   UNL A   1      39.688  31.023  32.513  1.00  0.00     0.031 C 
ATOM     20  C   UNL A   1      40.350  26.524  27.311  1.00  0.00     0.029 A 
ATOM     21  C   UNL A   1      41.393  26.448  28.332  1.00  0.00     0.049 A 
ATOM     22  H   UNL A   1      41.522  27.555  30.091  1.00  0.00     0.167 HD
ATOM     23  C   UNL A   1      41.675  30.153  33.692  1.00  0.00     0.037 A 
ATOM     24  C   UNL A   1      42.461  25.626  28.316  1.00  0.00     0.037 A 
ATOM     25  C   UNL A   1      42.799  29.269  33.801  1.00  0.00     0.049 A 
ATOM     26  C   UNL A   1      43.432  25.684  29.469  1.00  0.00     0.074 A 
ATOM     27  C   UNL A   1      43.739  29.186  34.808  1.00  0.00     0.029 A 
ATOM     28  N   UNL A   1      43.134  28.316  32.848  1.00  0.00    -0.354 N 
ATOM     29  N   UNL A   1      43.403  26.455  30.532  1.00  0.00    -0.248 NA
ATOM     30  C   UNL A   1      44.576  24.764  29.428  1.00  0.00     0.031 C 
ATOM     31  C   UNL A   1      44.673  28.211  34.441  1.00  0.00     0.029 A 
ATOM     32  C   UNL A   1      44.279  27.648  33.235  1.00  0.00     0.049 A 
ATOM     33  H   UNL A   1      42.630  28.141  32.020  1.00  0.00     0.167 HD
ATOM     34  C   UNL A   1      44.500  26.089  31.302  1.00  0.00     0.074 A 
ATOM     35  C   UNL A   1      45.178  25.030  30.582  1.00  0.00     0.031 C 
ATOM     36  C   UNL A   1      44.908  26.578  32.500  1.00  0.00     0.037 A 
BRANCH  23  37
ATOM     37  C   UNL A   1      41.425  31.196  34.741  1.00  0.00     0.057 A 
ATOM     38  C   UNL A   1      40.479  31.014  35.760  1.00  0.00     0.134 A 
ATOM     39  C   UNL A   1      42.064  32.438  34.666  1.00  0.00     0.134 A 
ATOM     40  F   UNL A   1      39.806  29.856  35.866  1.00  0.00    -0.206 F 
ATOM     41  C   UNL A   1      40.132  32.051  36.626  1.00  0.00     0.040 A 
ATOM     42  C   UNL A   1      41.751  33.471  35.550  1.00  0.00     0.040 A 
ATOM     43  F   UNL A   1      42.977  32.680  33.714  1.00  0.00    -0.206 F 
ATOM     44  C   UNL A   1      40.769  33.286  36.521  1.00  0.00     0.006 A 
ENDBRANCH  23  37
BRANCH  24  45
ATOM     45  C   UNL A   1      42.668  24.690  27.180  1.00  0.00     0.057 A 
ATOM     46  C   UNL A   1      42.071  23.423  27.160  1.00  0.00     0.134 A 
ATOM     47  C   UNL A   1      43.463  25.040  26.080  1.00  0.00     0.134 A 
ATOM     48  F   UNL A   1      41.312  23.019  28.188  1.00  0.00    -0.206 F 
ATOM     49  C   UNL A   1      42.264  22.537  26.095  1.00  0.00     0.040 A 
ATOM     50  C   UNL A   1      43.647  24.173  25.001  1.00  0.00     0.040 A 
ATOM     51  F   UNL A   1      44.060  26.239  26.032  1.00  0.00    -0.206 F 
ATOM     52  C   UNL A   1      43.049  22.914  25.009  1.00  0.00     0.006 A 
ENDBRANCH  24  45
BRANCH  36  53
ATOM     53  C   UNL A   1      46.107  25.945  33.142  1.00  0.00     0.057 A 
ATOM     54  C   UNL A   1      45.997  24.818  33.965  1.00  0.00     0.134 A 
ATOM     55  C   UNL A   1      47.394  26.397  32.822  1.00  0.00     0.134 A 
ATOM     56  F   UNL A   1      44.792  24.344  34.314  1.00  0.00    -0.206 F 
ATOM     57  C   UNL A   1      47.130  24.160  34.446  1.00  0.00     0.040 A 
ATOM     58  C   UNL A   1      48.532  25.732  33.275  1.00  0.00     0.040 A 
ATOM     59  F   UNL A   1      47.562  27.465  32.028  1.00  0.00    -0.206 F 
ATOM     60  C   UNL A   1      48.401  24.608  34.087  1.00  0.00     0.006 A 
ENDBRANCH  36  53
ENDBRANCH  10  11
ENDBRANCH   3   5
ENDBRANCH   2   3
ENDBRANCH   1   2
BRANCH   1  61
ATOM     61  C   UNL A   1      33.740  34.579  29.741  1.00  0.00     0.274 C 
BRANCH  61  62
ATOM     62  O   UNL A   1      35.017  34.224  30.303  1.00  0.00    -0.462 OA
BRANCH  62  63
ATOM     63  C   UNL A   1      34.983  33.291  31.299  1.00  0.00     0.309 C 
ATOM     64  O   UNL A   1      34.028  32.576  31.553  1.00  0.00    -0.252 OA
BRANCH  63  65
ATOM     65  C   UNL A   1      36.329  33.198  31.999  1.00  0.00     0.110 C 
ATOM     66  C   UNL A   1      36.266  32.246  33.219  1.00  0.00     0.020 C 
ATOM     67  C   UNL A   1      36.828  34.504  32.632  1.00  0.00     0.070 C 
ATOM     68  C   UNL A   1      36.655  33.138  34.405  1.00  0.00    -0.002 C 
ATOM     69  C   UNL A   1      35.719  35.055  33.503  1.00  0.00     0.137 C 
ATOM     70  C   UNL A   1      37.742  34.002  33.757  1.00  0.00     0.016 C 
ATOM     71  C   UNL A   1      35.528  34.146  34.698  1.00  0.00     0.079 C 
ATOM     72  O   UNL A   1      35.098  36.078  33.273  1.00  0.00    -0.299 OA
ENDBRANCH  63  65
ENDBRANCH  62  63
ENDBRANCH  61  62
ENDBRANCH   1  61
TORSDOF 11
ENDMDL
MODEL 2
REMARK VINA RESULT:     -10.1      1.721      2.370
REMARK SMILES O=C(OCCOC(=O)[C@@H]1C[C@@H]2CC(=O)[C@H]1C2)c1ccc(-c2c3nc(c(-c4c(F)cccc4F)c4ccc([nH]4)c(-c4c(F)cccc4F)c4nc(c(-c5c(F)cccc5F)c5ccc2[nH]5)C=C4)C=C3)cc1
REMARK SMILES IDX 4 1 3 2 2 3 1 4 17 5 18 6 70 7 19 8 69 9 20 10 21 11 22 12
REMARK SMILES IDX 63 13 23 14 68 15 62 16 64 17 24 18 67 19 61 20 60 21 25 23
REMARK SMILES IDX 51 24 34 25 50 26 35 27 38 28 49 29 65 30 36 31 37 32 48 34
REMARK SMILES IDX 66 35 39 36 26 37 27 38 32 39 28 40 29 41 31 42 33 43 30 44
REMARK SMILES IDX 52 45 53 46 58 47 54 48 55 49 57 50 59 51 56 52 40 53 41 54
REMARK SMILES IDX 46 55 42 56 43 57 45 58 47 59 44 60 5 61 6 62 7 63 8 64 9 65
REMARK SMILES IDX 10 66 15 67 11 68 13 69 16 70 12 71 14 72
REMARK H PARENT 64 22 38 33
REMARK Flexibility Score: inf
ROOT
ATOM      1  C   UNL A   1      33.657  36.702  28.471  1.00  0.00     0.275 C 
ENDROOT
BRANCH   1   2
ATOM      2  O   UNL A   1      34.438  35.628  27.922  1.00  0.00    -0.458 OA
BRANCH   2   3
ATOM      3  C   UNL A   1      34.211  34.296  28.000  1.00  0.00     0.338 C 
ATOM      4  O   UNL A   1      33.078  33.869  27.788  1.00  0.00    -0.246 OA
BRANCH   3   5
ATOM      5  C   UNL A   1      35.223  33.333  28.542  1.00  0.00     0.060 A 
ATOM      6  C   UNL A   1      35.004  31.993  28.877  1.00  0.00     0.016 A 
ATOM      7  C   UNL A   1      36.526  33.839  28.701  1.00  0.00     0.016 A 
ATOM      8  C   UNL A   1      36.055  31.155  29.259  1.00  0.00     0.010 A 
ATOM      9  C   UNL A   1      37.585  33.009  29.082  1.00  0.00     0.010 A 
ATOM     10  C   UNL A   1      37.351  31.657  29.358  1.00  0.00    -0.014 A 
BRANCH  10  11
ATOM     11  C   UNL A   1      38.402  30.847  30.003  1.00  0.00     0.031 A 
ATOM     12  C   UNL A   1      38.629  31.089  31.463  1.00  0.00     0.074 A 
ATOM     13  C   UNL A   1      39.114  29.928  29.327  1.00  0.00     0.049 A 
ATOM     14  N   UNL A   1      39.537  30.596  32.259  1.00  0.00    -0.248 NA
ATOM     15  C   UNL A   1      37.708  32.042  32.108  1.00  0.00     0.031 C 
ATOM     16  C   UNL A   1      38.935  29.580  27.919  1.00  0.00     0.029 A 
ATOM     17  N   UNL A   1      40.141  29.122  29.742  1.00  0.00    -0.354 N 
ATOM     18  C   UNL A   1      39.314  31.203  33.487  1.00  0.00     0.074 A 
ATOM     19  C   UNL A   1      38.222  32.133  33.319  1.00  0.00     0.031 C 
ATOM     20  C   UNL A   1      39.835  28.640  27.581  1.00  0.00     0.029 A 
ATOM     21  C   UNL A   1      40.671  28.342  28.742  1.00  0.00     0.049 A 
ATOM     22  H   UNL A   1      40.471  29.103  30.670  1.00  0.00     0.167 HD
ATOM     23  C   UNL A   1      39.955  30.992  34.658  1.00  0.00     0.037 A 
ATOM     24  C   UNL A   1      41.722  27.499  28.769  1.00  0.00     0.037 A 
ATOM     25  C   UNL A   1      41.038  30.064  34.804  1.00  0.00     0.049 A 
ATOM     26  C   UNL A   1      42.462  27.311  30.070  1.00  0.00     0.074 A 
ATOM     27  C   UNL A   1      41.774  29.765  35.932  1.00  0.00     0.029 A 
ATOM     28  N   UNL A   1      41.543  29.290  33.768  1.00  0.00    -0.354 N 
ATOM     29  N   UNL A   1      42.236  27.875  31.235  1.00  0.00    -0.248 NA
ATOM     30  C   UNL A   1      43.593  26.373  30.068  1.00  0.00     0.031 C 
ATOM     31  C   UNL A   1      42.759  28.841  35.567  1.00  0.00     0.029 A 
ATOM     32  C   UNL A   1      42.596  28.521  34.226  1.00  0.00     0.049 A 
ATOM     33  H   UNL A   1      41.201  29.287  32.844  1.00  0.00     0.167 HD
ATOM     34  C   UNL A   1      43.170  27.335  32.110  1.00  0.00     0.074 A 
ATOM     35  C   UNL A   1      43.970  26.402  31.341  1.00  0.00     0.031 C 
ATOM     36  C   UNL A   1      43.350  27.583  33.432  1.00  0.00     0.037 A 
BRANCH  23  37
ATOM     37  C   UNL A   1      39.515  31.834  35.819  1.00  0.00     0.057 A 
ATOM     38  C   UNL A   1      38.427  31.475  36.629  1.00  0.00     0.134 A 
ATOM     39  C   UNL A   1      40.122  33.071  36.064  1.00  0.00     0.134 A 
ATOM     40  F   UNL A   1      37.779  30.317  36.424  1.00  0.00    -0.206 F 
ATOM     41  C   UNL A   1      37.920  32.343  37.596  1.00  0.00     0.040 A 
ATOM     42  C   UNL A   1      39.646  33.932  37.053  1.00  0.00     0.040 A 
ATOM     43  F   UNL A   1      41.165  33.477  35.325  1.00  0.00    -0.206 F 
ATOM     44  C   UNL A   1      38.531  33.578  37.809  1.00  0.00     0.006 A 
ENDBRANCH  23  37
BRANCH  24  45
ATOM     45  C   UNL A   1      42.136  26.779  27.536  1.00  0.00     0.057 A 
ATOM     46  C   UNL A   1      41.684  25.483  27.261  1.00  0.00     0.134 A 
ATOM     47  C   UNL A   1      42.988  27.373  26.594  1.00  0.00     0.134 A 
ATOM     48  F   UNL A   1      40.881  24.851  28.128  1.00  0.00    -0.206 F 
ATOM     49  C   UNL A   1      42.072  24.799  26.104  1.00  0.00     0.040 A 
ATOM     50  C   UNL A   1      43.365  26.710  25.424  1.00  0.00     0.040 A 
ATOM     51  F   UNL A   1      43.452  28.615  26.792  1.00  0.00    -0.206 F 
ATOM     52  C   UNL A   1      42.910  25.416  25.179  1.00  0.00     0.006 A 
ENDBRANCH  24  45
BRANCH  36  53
ATOM     53  C   UNL A   1      44.407  26.800  34.153  1.00  0.00     0.057 A 
ATOM     54  C   UNL A   1      44.129  25.577  34.773  1.00  0.00     0.134 A 
ATOM     55  C   UNL A   1      45.743  27.222  34.107  1.00  0.00     0.134 A 
ATOM     56  F   UNL A   1      42.870  25.126  34.856  1.00  0.00    -0.206 F 
ATOM     57  C   UNL A   1      45.148  24.797  35.322  1.00  0.00     0.040 A 
ATOM     58  C   UNL A   1      46.771  26.438  34.629  1.00  0.00     0.040 A 
ATOM     59  F   UNL A   1      46.071  28.379  33.515  1.00  0.00    -0.206 F 
ATOM     60  C   UNL A   1      46.474  25.220  35.236  1.00  0.00     0.006 A 
ENDBRANCH  36  53
ENDBRANCH  10  11
ENDBRANCH   3   5
ENDBRANCH   2   3
ENDBRANCH   1   2
BRANCH   1  61
ATOM     61  C   UNL A   1      32.927  36.327  29.767  1.00  0.00     0.274 C 
BRANCH  61  62
ATOM     62  O   UNL A   1      33.243  37.192  30.874  1.00  0.00    -0.462 OA
BRANCH  62  63
ATOM     63  C   UNL A   1      33.451  36.566  32.069  1.00  0.00     0.309 C 
ATOM     64  O   UNL A   1      33.547  37.133  33.145  1.00  0.00    -0.252 OA
BRANCH  63  65
ATOM     65  C   UNL A   1      33.462  35.057  31.895  1.00  0.00     0.110 C 
ATOM     66  C   UNL A   1      32.877  34.342  33.138  1.00  0.00     0.020 C 
ATOM     67  C   UNL A   1      34.854  34.421  31.779  1.00  0.00     0.070 C 
ATOM     68  C   UNL A   1      34.026  33.451  33.626  1.00  0.00    -0.002 C 
ATOM     69  C   UNL A   1      35.689  34.911  32.943  1.00  0.00     0.137 C 
ATOM     70  C   UNL A   1      34.612  32.994  32.286  1.00  0.00     0.016 C 
ATOM     71  C   UNL A   1      35.148  34.319  34.227  1.00  0.00     0.079 C 
ATOM     72  O   UNL A   1      36.652  35.652  32.844  1.00  0.00    -0.299 OA
ENDBRANCH  63  65
ENDBRANCH  62  63
ENDBRANCH  61  62
ENDBRANCH   1  61
TORSDOF 11
ENDMDL
MODEL 3
REMARK VINA RESULT:      -9.9      2.497      4.772
REMARK SMILES O=C(OCCOC(=O)[C@@H]1C[C@@H]2CC(=O)[C@H]1C2)c1ccc(-c2c3nc(c(-c4c(F)cccc4F)c4ccc([nH]4)c(-c4c(F)cccc4F)c4nc(c(-c5c(F)cccc5F)c5ccc2[nH]5)C=C4)C=C3)cc1
REMARK SMILES IDX 4 1 3 2 2 3 1 4 17 5 18 6 70 7 19 8 69 9 20 10 21 11 22 12
REMARK SMILES IDX 63 13 23 14 68 15 62 16 64 17 24 18 67 19 61 20 60 21 25 23
REMARK SMILES IDX 51 24 34 25 50 26 35 27 38 28 49 29 65 30 36 31 37 32 48 34
REMARK SMILES IDX 66 35 39 36 26 37 27 38 32 39 28 40 29 41 31 42 33 43 30 44
REMARK SMILES IDX 52 45 53 46 58 47 54 48 55 49 57 50 59 51 56 52 40 53 41 54
REMARK SMILES IDX 46 55 42 56 43 57 45 58 47 59 44 60 5 61 6 62 7 63 8 64 9 65
REMARK SMILES IDX 10 66 15 67 11 68 13 69 16 70 12 71 14 72
REMARK H PARENT 64 22 38 33
REMARK Flexibility Score: inf
ROOT
ATOM      1  C   UNL A   1      32.192  33.411  26.775  1.00  0.00     0.275 C 
ENDROOT
BRANCH   1   2
ATOM      2  O   UNL A   1      32.358  34.169  27.986  1.00  0.00    -0.458 OA
BRANCH   2   3
ATOM      3  C   UNL A   1      33.507  34.597  28.560  1.00  0.00     0.338 C 
ATOM      4  O   UNL A   1      33.782  35.795  28.525  1.00  0.00    -0.246 OA
BRANCH   3   5
ATOM      5  C   UNL A   1      34.566  33.656  29.050  1.00  0.00     0.060 A 
ATOM      6  C   UNL A   1      34.370  32.358  29.532  1.00  0.00     0.016 A 
ATOM      7  C   UNL A   1      35.887  34.137  28.989  1.00  0.00     0.016 A 
ATOM      8  C   UNL A   1      35.448  31.527  29.848  1.00  0.00     0.010 A 
ATOM      9  C   UNL A   1      36.972  33.313  29.303  1.00  0.00     0.010 A 
ATOM     10  C   UNL A   1      36.754  31.998  29.729  1.00  0.00    -0.014 A 
BRANCH  10  11
ATOM     11  C   UNL A   1      37.867  31.218  30.303  1.00  0.00     0.031 A 
ATOM     12  C   UNL A   1      38.165  31.446  31.753  1.00  0.00     0.074 A 
ATOM     13  C   UNL A   1      38.574  30.337  29.573  1.00  0.00     0.049 A 
ATOM     14  N   UNL A   1      39.133  30.975  32.489  1.00  0.00    -0.248 NA
ATOM     15  C   UNL A   1      37.247  32.355  32.462  1.00  0.00     0.031 C 
ATOM     16  C   UNL A   1      38.331  30.003  28.171  1.00  0.00     0.029 A 
ATOM     17  N   UNL A   1      39.651  29.563  29.918  1.00  0.00    -0.354 N 
ATOM     18  C   UNL A   1      38.956  31.555  33.738  1.00  0.00     0.074 A 
ATOM     19  C   UNL A   1      37.824  32.446  33.646  1.00  0.00     0.031 C 
ATOM     20  C   UNL A   1      39.245  29.102  27.769  1.00  0.00     0.029 A 
ATOM     21  C   UNL A   1      40.153  28.818  28.878  1.00  0.00     0.049 A 
ATOM     22  H   UNL A   1      40.032  29.542  30.826  1.00  0.00     0.167 HD
ATOM     23  C   UNL A   1      39.667  31.350  34.868  1.00  0.00     0.037 A 
ATOM     24  C   UNL A   1      41.234  28.015  28.833  1.00  0.00     0.037 A 
ATOM     25  C   UNL A   1      40.789  30.461  34.939  1.00  0.00     0.049 A 
ATOM     26  C   UNL A   1      42.050  27.835  30.089  1.00  0.00     0.074 A 
ATOM     27  C   UNL A   1      41.597  30.172  36.020  1.00  0.00     0.029 A 
ATOM     28  N   UNL A   1      41.265  29.721  33.864  1.00  0.00    -0.354 N 
ATOM     29  N   UNL A   1      41.869  28.371  31.273  1.00  0.00    -0.248 NA
ATOM     30  C   UNL A   1      43.213  26.939  30.009  1.00  0.00     0.031 C 
ATOM     31  C   UNL A   1      42.593  29.291  35.587  1.00  0.00     0.029 A 
ATOM     32  C   UNL A   1      42.368  28.986  34.252  1.00  0.00     0.049 A 
ATOM     33  H   UNL A   1      40.873  29.720  32.960  1.00  0.00     0.167 HD
ATOM     34  C   UNL A   1      42.869  27.854  32.087  1.00  0.00     0.074 A 
ATOM     35  C   UNL A   1      43.658  26.963  31.260  1.00  0.00     0.031 C 
ATOM     36  C   UNL A   1      43.111  28.088  33.401  1.00  0.00     0.037 A 
BRANCH  23  37
ATOM     37  C   UNL A   1      39.262  32.157  36.066  1.00  0.00     0.057 A 
ATOM     38  C   UNL A   1      38.281  31.713  36.966  1.00  0.00     0.134 A 
ATOM     39  C   UNL A   1      39.782  33.441  36.261  1.00  0.00     0.134 A 
ATOM     40  F   UNL A   1      37.717  30.504  36.815  1.00  0.00    -0.206 F 
ATOM     41  C   UNL A   1      37.791  32.540  37.976  1.00  0.00     0.040 A 
ATOM     42  C   UNL A   1      39.325  34.264  37.290  1.00  0.00     0.040 A 
ATOM     43  F   UNL A   1      40.720  33.929  35.435  1.00  0.00    -0.206 F 
ATOM     44  C   UNL A   1      38.313  33.821  38.139  1.00  0.00     0.006 A 
ENDBRANCH  23  37
BRANCH  24  45
ATOM     45  C   UNL A   1      41.605  27.329  27.567  1.00  0.00     0.057 A 
ATOM     46  C   UNL A   1      41.190  26.020  27.297  1.00  0.00     0.134 A 
ATOM     47  C   UNL A   1      42.379  27.970  26.589  1.00  0.00     0.134 A 
ATOM     48  F   UNL A   1      40.462  25.344  28.197  1.00  0.00    -0.206 F 
ATOM     49  C   UNL A   1      41.538  25.369  26.109  1.00  0.00     0.040 A 
ATOM     50  C   UNL A   1      42.715  27.339  25.389  1.00  0.00     0.040 A 
ATOM     51  F   UNL A   1      42.805  29.226  26.781  1.00  0.00    -0.206 F 
ATOM     52  C   UNL A   1      42.298  26.032  25.149  1.00  0.00     0.006 A 
ENDBRANCH  24  45
BRANCH  36  53
ATOM     53  C   UNL A   1      44.234  27.335  34.050  1.00  0.00     0.057 A 
ATOM     54  C   UNL A   1      45.515  27.883  34.182  1.00  0.00     0.134 A 
ATOM     55  C   UNL A   1      43.986  26.099  34.664  1.00  0.00     0.134 A 
ATOM     56  F   UNL A   1      45.815  29.057  33.609  1.00  0.00    -0.206 F 
ATOM     57  C   UNL A   1      46.511  27.227  34.906  1.00  0.00     0.040 A 
ATOM     58  C   UNL A   1      44.966  25.449  35.412  1.00  0.00     0.040 A 
ATOM     59  F   UNL A   1      42.774  25.530  34.582  1.00  0.00    -0.206 F 
ATOM     60  C   UNL A   1      46.232  26.015  35.537  1.00  0.00     0.006 A 
ENDBRANCH  36  53
ENDBRANCH  10  11
ENDBRANCH   3   5
ENDBRANCH   2   3
ENDBRANCH   1   2
BRANCH   1  61
ATOM     61  C   UNL A   1      31.458  32.080  26.983  1.00  0.00     0.274 C 
BRANCH  61  62
ATOM     62  O   UNL A   1      32.293  30.926  26.771  1.00  0.00    -0.462 OA
BRANCH  62  63
ATOM     63  C   UNL A   1      31.953  30.140  25.708  1.00  0.00     0.309 C 
ATOM     64  O   UNL A   1      30.985  30.321  24.988  1.00  0.00    -0.252 OA
BRANCH  63  65
ATOM     65  C   UNL A   1      32.991  29.052  25.486  1.00  0.00     0.110 C 
ATOM     66  C   UNL A   1      32.587  28.117  24.320  1.00  0.00     0.020 C 
ATOM     67  C   UNL A   1      33.164  28.066  26.649  1.00  0.00     0.070 C 
ATOM     68  C   UNL A   1      32.499  26.731  24.971  1.00  0.00    -0.002 C 
ATOM     69  C   UNL A   1      31.794  27.541  27.023  1.00  0.00     0.137 C 
ATOM     70  C   UNL A   1      33.681  26.806  25.943  1.00  0.00     0.016 C 
ATOM     71  C   UNL A   1      31.275  26.663  25.904  1.00  0.00     0.079 C 
ATOM     72  O   UNL A   1      31.220  27.781  28.071  1.00  0.00    -0.299 OA
ENDBRANCH  63  65
ENDBRANCH  62  63
ENDBRANCH  61  62
ENDBRANCH   1  61
TORSDOF 11
ENDMDL
