MODEL 1
REMARK VINA RESULT:     -11.2      0.000      0.000
REMARK SMILES CC(=O)c1nnn(-c2ccc(C(=O)OCCOC(=O)c3ccc(-c4c5nc(c(-c6c(F)cccc6F)c6ccc([nH]6)c(-c6c(F)cccc6F)c6nc(c(-c7c(F)cccc7F)c7ccc4[nH]7)C=C6)C=C5)cc3)cc2)c1C
REMARK SMILES IDX 15 1 14 2 12 3 13 4 11 5 8 6 9 7 75 8 10 9 74 10 7 11 4 12
REMARK SMILES IDX 5 13 76 14 6 15 77 16 2 17 1 18 3 19 16 20 17 21 18 22 19 23
REMARK SMILES IDX 20 24 21 25 73 26 22 27 72 28 23 29 24 30 25 31 66 32 26 33
REMARK SMILES IDX 71 34 65 35 67 36 27 37 70 38 64 39 63 40 28 42 54 43 37 44
REMARK SMILES IDX 53 45 38 46 41 47 52 48 68 49 39 50 40 51 51 53 69 54 42 55
REMARK SMILES IDX 29 56 30 57 35 58 31 59 32 60 34 61 36 62 33 63 55 64 56 65
REMARK SMILES IDX 61 66 57 67 58 68 60 69 62 70 59 71 43 72 44 73 49 74 45 75
REMARK SMILES IDX 46 76 48 77 50 78 47 79
REMARK H PARENT 67 41 41 52
REMARK Flexibility Score: inf
ROOT
ATOM      1  C   UNL A   1      33.269  34.802  28.472  1.00  0.00     0.275 C 
ENDROOT
BRANCH   1   2
ATOM      2  O   UNL A   1      33.481  33.389  28.637  1.00  0.00    -0.458 OA
BRANCH   2   3
ATOM      3  C   UNL A   1      34.475  32.829  27.898  1.00  0.00     0.338 C 
ATOM      4  O   UNL A   1      35.551  33.343  27.625  1.00  0.00    -0.246 OA
BRANCH   3   5
ATOM      5  C   UNL A   1      34.123  31.434  27.529  1.00  0.00     0.060 A 
ATOM      6  C   UNL A   1      33.574  28.897  26.542  1.00  0.00     0.067 A 
ATOM      7  C   UNL A   1      34.860  29.173  27.008  1.00  0.00     0.029 A 
ATOM      8  C   UNL A   1      32.534  29.817  26.714  1.00  0.00     0.029 A 
ATOM      9  C   UNL A   1      35.138  30.460  27.480  1.00  0.00     0.018 A 
ATOM     10  C   UNL A   1      32.807  31.084  27.214  1.00  0.00     0.018 A 
BRANCH   6  11
ATOM     11  N   UNL A   1      33.354  27.763  25.734  1.00  0.00    -0.217 N 
ATOM     12  C   UNL A   1      33.116  26.394  24.055  1.00  0.00     0.151 A 
ATOM     13  N   UNL A   1      33.076  25.680  25.226  1.00  0.00    -0.126 NA
ATOM     14  C   UNL A   1      33.335  27.730  24.346  1.00  0.00     0.073 A 
ATOM     15  N   UNL A   1      33.335  26.510  26.229  1.00  0.00    -0.061 NA
ATOM     16  C   UNL A   1      33.619  28.906  23.485  1.00  0.00     0.069 C 
BRANCH  12  17
ATOM     17  C   UNL A   1      33.021  25.752  22.754  1.00  0.00     0.181 C 
ATOM     18  C   UNL A   1      31.741  25.022  22.426  1.00  0.00     0.095 C 
ATOM     19  O   UNL A   1      33.934  25.817  21.931  1.00  0.00    -0.293 OA
ENDBRANCH  12  17
ENDBRANCH   6  11
ENDBRANCH   3   5
ENDBRANCH   2   3
ENDBRANCH   1   2
BRANCH   1  20
ATOM     20  C   UNL A   1      33.167  35.504  29.821  1.00  0.00     0.275 C 
BRANCH  20  21
ATOM     21  O   UNL A   1      33.185  34.542  30.872  1.00  0.00    -0.458 OA
BRANCH  21  22
ATOM     22  C   UNL A   1      33.227  35.056  32.121  1.00  0.00     0.338 C 
ATOM     23  O   UNL A   1      32.575  35.990  32.558  1.00  0.00    -0.246 OA
BRANCH  22  24
ATOM     24  C   UNL A   1      34.314  34.419  32.870  1.00  0.00     0.060 A 
ATOM     25  C   UNL A   1      35.364  35.254  33.270  1.00  0.00     0.016 A 
ATOM     26  C   UNL A   1      34.449  33.029  32.784  1.00  0.00     0.016 A 
ATOM     27  C   UNL A   1      36.633  34.727  33.295  1.00  0.00     0.010 A 
ATOM     28  C   UNL A   1      35.715  32.511  32.784  1.00  0.00     0.010 A 
ATOM     29  C   UNL A   1      36.787  33.393  32.922  1.00  0.00    -0.014 A 
BRANCH  29  30
ATOM     30  C   UNL A   1      38.110  32.922  32.580  1.00  0.00     0.031 A 
ATOM     31  C   UNL A   1      39.063  32.924  33.709  1.00  0.00     0.074 A 
ATOM     32  C   UNL A   1      38.318  32.357  31.375  1.00  0.00     0.049 A 
ATOM     33  N   UNL A   1      40.206  33.518  33.800  1.00  0.00    -0.248 NA
ATOM     34  C   UNL A   1      38.613  32.283  34.957  1.00  0.00     0.031 C 
ATOM     35  C   UNL A   1      37.324  32.046  30.337  1.00  0.00     0.029 A 
ATOM     36  N   UNL A   1      39.452  31.803  30.877  1.00  0.00    -0.354 N 
ATOM     37  C   UNL A   1      40.705  33.159  35.049  1.00  0.00     0.074 A 
ATOM     38  C   UNL A   1      39.616  32.572  35.783  1.00  0.00     0.031 C 
ATOM     39  C   UNL A   1      37.851  31.156  29.467  1.00  0.00     0.029 A 
ATOM     40  C   UNL A   1      39.241  30.930  29.820  1.00  0.00     0.049 A 
ATOM     41  H   UNL A   1      40.347  32.002  31.236  1.00  0.00     0.167 HD
ATOM     42  C   UNL A   1      42.039  33.116  35.302  1.00  0.00     0.037 A 
ATOM     43  C   UNL A   1      40.129  30.008  29.376  1.00  0.00     0.037 A 
ATOM     44  C   UNL A   1      42.791  33.888  34.351  1.00  0.00     0.049 A 
ATOM     45  C   UNL A   1      41.463  30.381  29.919  1.00  0.00     0.074 A 
ATOM     46  C   UNL A   1      42.813  35.221  33.989  1.00  0.00     0.029 A 
ATOM     47  N   UNL A   1      43.440  33.217  33.345  1.00  0.00    -0.354 N 
ATOM     48  N   UNL A   1      42.121  31.450  29.562  1.00  0.00    -0.248 NA
ATOM     49  C   UNL A   1      41.848  29.816  31.205  1.00  0.00     0.031 C 
ATOM     50  C   UNL A   1      43.039  35.218  32.581  1.00  0.00     0.029 A 
ATOM     51  C   UNL A   1      43.177  33.890  32.178  1.00  0.00     0.049 A 
ATOM     52  H   UNL A   1      43.990  32.406  33.442  1.00  0.00     0.167 HD
ATOM     53  C   UNL A   1      42.710  31.920  30.730  1.00  0.00     0.074 A 
ATOM     54  C   UNL A   1      42.567  30.831  31.693  1.00  0.00     0.031 C 
ATOM     55  C   UNL A   1      42.996  33.244  30.898  1.00  0.00     0.037 A 
BRANCH  42  56
ATOM     56  C   UNL A   1      42.666  32.075  36.187  1.00  0.00     0.057 A 
ATOM     57  C   UNL A   1      43.510  32.478  37.233  1.00  0.00     0.134 A 
ATOM     58  C   UNL A   1      42.693  30.697  35.885  1.00  0.00     0.134 A 
ATOM     59  F   UNL A   1      43.593  33.768  37.591  1.00  0.00    -0.206 F 
ATOM     60  C   UNL A   1      44.357  31.580  37.894  1.00  0.00     0.040 A 
ATOM     61  C   UNL A   1      43.489  29.783  36.578  1.00  0.00     0.040 A 
ATOM     62  F   UNL A   1      42.033  30.174  34.843  1.00  0.00    -0.206 F 
ATOM     63  C   UNL A   1      44.349  30.229  37.567  1.00  0.00     0.006 A 
ENDBRANCH  42  56
BRANCH  43  64
ATOM     64  C   UNL A   1      39.820  28.654  28.859  1.00  0.00     0.057 A 
ATOM     65  C   UNL A   1      40.193  28.264  27.567  1.00  0.00     0.134 A 
ATOM     66  C   UNL A   1      39.360  27.626  29.704  1.00  0.00     0.134 A 
ATOM     67  F   UNL A   1      40.691  29.161  26.705  1.00  0.00    -0.206 F 
ATOM     68  C   UNL A   1      40.115  26.930  27.141  1.00  0.00     0.040 A 
ATOM     69  C   UNL A   1      39.268  26.294  29.289  1.00  0.00     0.040 A 
ATOM     70  F   UNL A   1      39.064  27.863  30.990  1.00  0.00    -0.206 F 
ATOM     71  C   UNL A   1      39.656  25.940  28.005  1.00  0.00     0.006 A 
ENDBRANCH  43  64
BRANCH  55  72
ATOM     72  C   UNL A   1      42.839  34.149  29.709  1.00  0.00     0.057 A 
ATOM     73  C   UNL A   1      41.647  34.826  29.408  1.00  0.00     0.134 A 
ATOM     74  C   UNL A   1      43.963  34.484  28.949  1.00  0.00     0.134 A 
ATOM     75  F   UNL A   1      40.549  34.650  30.152  1.00  0.00    -0.206 F 
ATOM     76  C   UNL A   1      41.565  35.761  28.373  1.00  0.00     0.040 A 
ATOM     77  C   UNL A   1      43.905  35.442  27.932  1.00  0.00     0.040 A 
ATOM     78  F   UNL A   1      45.153  33.927  29.221  1.00  0.00    -0.206 F 
ATOM     79  C   UNL A   1      42.701  36.078  27.635  1.00  0.00     0.006 A 
ENDBRANCH  55  72
ENDBRANCH  29  30
ENDBRANCH  22  24
ENDBRANCH  21  22
ENDBRANCH  20  21
ENDBRANCH   1  20
TORSDOF 13
ENDMDL
MODEL 2
REMARK VINA RESULT:     -11.1      5.982     10.955
REMARK SMILES CC(=O)c1nnn(-c2ccc(C(=O)OCCOC(=O)c3ccc(-c4c5nc(c(-c6c(F)cccc6F)c6ccc([nH]6)c(-c6c(F)cccc6F)c6nc(c(-c7c(F)cccc7F)c7ccc4[nH]7)C=C6)C=C5)cc3)cc2)c1C
REMARK SMILES IDX 15 1 14 2 12 3 13 4 11 5 8 6 9 7 75 8 10 9 74 10 7 11 4 12
REMARK SMILES IDX 5 13 76 14 6 15 77 16 2 17 1 18 3 19 16 20 17 21 18 22 19 23
REMARK SMILES IDX 20 24 21 25 73 26 22 27 72 28 23 29 24 30 25 31 66 32 26 33
REMARK SMILES IDX 71 34 65 35 67 36 27 37 70 38 64 39 63 40 28 42 54 43 37 44
REMARK SMILES IDX 53 45 38 46 41 47 52 48 68 49 39 50 40 51 51 53 69 54 42 55
REMARK SMILES IDX 29 56 30 57 35 58 31 59 32 60 34 61 36 62 33 63 55 64 56 65
REMARK SMILES IDX 61 66 57 67 58 68 60 69 62 70 59 71 43 72 44 73 49 74 45 75
REMARK SMILES IDX 46 76 48 77 50 78 47 79
REMARK H PARENT 67 41 41 52
REMARK Flexibility Score: inf
ROOT
ATOM      1  C   UNL A   1      42.640  18.523  26.195  1.00  0.00     0.275 C 
ENDROOT
BRANCH   1   2
ATOM      2  O   UNL A   1      41.652  19.408  25.637  1.00  0.00    -0.458 OA
BRANCH   2   3
ATOM      3  C   UNL A   1      41.218  20.419  26.433  1.00  0.00     0.338 C 
ATOM      4  O   UNL A   1      41.876  21.007  27.282  1.00  0.00    -0.246 OA
BRANCH   3   5
ATOM      5  C   UNL A   1      39.830  20.803  26.073  1.00  0.00     0.060 A 
ATOM      6  C   UNL A   1      37.345  21.570  25.097  1.00  0.00     0.067 A 
ATOM      7  C   UNL A   1      37.738  20.238  24.962  1.00  0.00     0.029 A 
ATOM      8  C   UNL A   1      38.105  22.472  25.849  1.00  0.00     0.029 A 
ATOM      9  C   UNL A   1      39.001  19.863  25.432  1.00  0.00     0.018 A 
ATOM     10  C   UNL A   1      39.345  22.086  26.343  1.00  0.00     0.018 A 
BRANCH   6  11
ATOM     11  N   UNL A   1      36.271  22.061  24.327  1.00  0.00    -0.217 N 
ATOM     12  C   UNL A   1      34.294  22.584  23.571  1.00  0.00     0.151 A 
ATOM     13  N   UNL A   1      35.248  23.177  22.783  1.00  0.00    -0.126 NA
ATOM     14  C   UNL A   1      34.919  21.893  24.595  1.00  0.00     0.073 A 
ATOM     15  N   UNL A   1      36.438  22.942  23.322  1.00  0.00    -0.061 NA
ATOM     16  C   UNL A   1      34.393  21.211  25.806  1.00  0.00     0.069 C 
BRANCH  12  17
ATOM     17  C   UNL A   1      32.872  22.776  23.341  1.00  0.00     0.181 C 
ATOM     18  C   UNL A   1      32.219  21.943  22.264  1.00  0.00     0.095 C 
ATOM     19  O   UNL A   1      32.209  23.567  24.010  1.00  0.00    -0.293 OA
ENDBRANCH  12  17
ENDBRANCH   6  11
ENDBRANCH   3   5
ENDBRANCH   2   3
ENDBRANCH   1   2
BRANCH   1  20
ATOM     20  C   UNL A   1      43.898  18.490  25.334  1.00  0.00     0.275 C 
BRANCH  20  21
ATOM     21  O   UNL A   1      44.509  19.777  25.318  1.00  0.00    -0.458 OA
BRANCH  21  22
ATOM     22  C   UNL A   1      44.605  20.352  24.099  1.00  0.00     0.338 C 
ATOM     23  O   UNL A   1      44.520  19.801  23.014  1.00  0.00    -0.246 OA
BRANCH  22  24
ATOM     24  C   UNL A   1      44.993  21.756  24.256  1.00  0.00     0.060 A 
ATOM     25  C   UNL A   1      46.151  22.000  25.005  1.00  0.00     0.016 A 
ATOM     26  C   UNL A   1      44.024  22.739  24.028  1.00  0.00     0.016 A 
ATOM     27  C   UNL A   1      46.191  23.137  25.776  1.00  0.00     0.010 A 
ATOM     28  C   UNL A   1      44.053  23.858  24.815  1.00  0.00     0.010 A 
ATOM     29  C   UNL A   1      45.077  23.973  25.756  1.00  0.00    -0.014 A 
BRANCH  29  30
ATOM     30  C   UNL A   1      44.931  24.951  26.810  1.00  0.00     0.031 A 
ATOM     31  C   UNL A   1      46.069  25.885  26.930  1.00  0.00     0.074 A 
ATOM     32  C   UNL A   1      43.748  25.066  27.444  1.00  0.00     0.049 A 
ATOM     33  N   UNL A   1      46.817  26.119  27.956  1.00  0.00    -0.248 NA
ATOM     34  C   UNL A   1      46.515  26.549  25.692  1.00  0.00     0.031 C 
ATOM     35  C   UNL A   1      42.488  24.371  27.142  1.00  0.00     0.029 A 
ATOM     36  N   UNL A   1      43.380  25.944  28.410  1.00  0.00    -0.354 N 
ATOM     37  C   UNL A   1      47.705  27.108  27.542  1.00  0.00     0.074 A 
ATOM     38  C   UNL A   1      47.603  27.190  26.110  1.00  0.00     0.031 C 
ATOM     39  C   UNL A   1      41.464  25.027  27.734  1.00  0.00     0.029 A 
ATOM     40  C   UNL A   1      42.009  26.104  28.540  1.00  0.00     0.049 A 
ATOM     41  H   UNL A   1      44.030  26.427  28.970  1.00  0.00     0.167 HD
ATOM     42  C   UNL A   1      48.263  27.982  28.420  1.00  0.00     0.037 A 
ATOM     43  C   UNL A   1      41.395  27.138  29.167  1.00  0.00     0.037 A 
ATOM     44  C   UNL A   1      48.208  27.495  29.771  1.00  0.00     0.049 A 
ATOM     45  C   UNL A   1      42.415  27.803  30.022  1.00  0.00     0.074 A 
ATOM     46  C   UNL A   1      48.711  26.385  30.421  1.00  0.00     0.029 A 
ATOM     47  N   UNL A   1      47.243  28.009  30.603  1.00  0.00    -0.354 N 
ATOM     48  N   UNL A   1      42.956  27.251  31.073  1.00  0.00    -0.248 NA
ATOM     49  C   UNL A   1      43.178  28.895  29.433  1.00  0.00     0.031 C 
ATOM     50  C   UNL A   1      47.706  26.019  31.363  1.00  0.00     0.029 A 
ATOM     51  C   UNL A   1      46.670  26.947  31.256  1.00  0.00     0.049 A 
ATOM     52  H   UNL A   1      47.008  28.958  30.709  1.00  0.00     0.167 HD
ATOM     53  C   UNL A   1      44.289  27.644  31.044  1.00  0.00     0.074 A 
ATOM     54  C   UNL A   1      44.348  28.715  30.052  1.00  0.00     0.031 C 
ATOM     55  C   UNL A   1      45.269  26.876  31.604  1.00  0.00     0.037 A 
BRANCH  42  56
ATOM     56  C   UNL A   1      48.515  29.425  28.081  1.00  0.00     0.057 A 
ATOM     57  C   UNL A   1      49.788  29.973  28.305  1.00  0.00     0.134 A 
ATOM     58  C   UNL A   1      47.495  30.360  27.806  1.00  0.00     0.134 A 
ATOM     59  F   UNL A   1      50.831  29.185  28.606  1.00  0.00    -0.206 F 
ATOM     60  C   UNL A   1      50.014  31.354  28.305  1.00  0.00     0.040 A 
ATOM     61  C   UNL A   1      47.723  31.736  27.744  1.00  0.00     0.040 A 
ATOM     62  F   UNL A   1      46.209  30.007  27.682  1.00  0.00    -0.206 F 
ATOM     63  C   UNL A   1      48.981  32.240  28.025  1.00  0.00     0.006 A 
ENDBRANCH  42  56
BRANCH  43  64
ATOM     64  C   UNL A   1      40.127  27.791  28.769  1.00  0.00     0.057 A 
ATOM     65  C   UNL A   1      39.029  27.844  29.637  1.00  0.00     0.134 A 
ATOM     66  C   UNL A   1      40.037  28.593  27.614  1.00  0.00     0.134 A 
ATOM     67  F   UNL A   1      39.042  27.156  30.788  1.00  0.00    -0.206 F 
ATOM     68  C   UNL A   1      37.910  28.646  29.374  1.00  0.00     0.040 A 
ATOM     69  C   UNL A   1      38.923  29.389  27.334  1.00  0.00     0.040 A 
ATOM     70  F   UNL A   1      41.064  28.696  26.759  1.00  0.00    -0.206 F 
ATOM     71  C   UNL A   1      37.857  29.426  28.222  1.00  0.00     0.006 A 
ENDBRANCH  43  64
BRANCH  55  72
ATOM     72  C   UNL A   1      44.843  25.693  32.427  1.00  0.00     0.057 A 
ATOM     73  C   UNL A   1      44.475  25.786  33.778  1.00  0.00     0.134 A 
ATOM     74  C   UNL A   1      44.630  24.463  31.799  1.00  0.00     0.134 A 
ATOM     75  F   UNL A   1      44.541  26.951  34.431  1.00  0.00    -0.206 F 
ATOM     76  C   UNL A   1      43.958  24.696  34.483  1.00  0.00     0.040 A 
ATOM     77  C   UNL A   1      44.083  23.373  32.482  1.00  0.00     0.040 A 
ATOM     78  F   UNL A   1      44.896  24.317  30.491  1.00  0.00    -0.206 F 
ATOM     79  C   UNL A   1      43.753  23.484  33.831  1.00  0.00     0.006 A 
ENDBRANCH  55  72
ENDBRANCH  29  30
ENDBRANCH  22  24
ENDBRANCH  21  22
ENDBRANCH  20  21
ENDBRANCH   1  20
TORSDOF 13
ENDMDL
MODEL 3
REMARK VINA RESULT:     -10.9      5.247      9.554
REMARK SMILES CC(=O)c1nnn(-c2ccc(C(=O)OCCOC(=O)c3ccc(-c4c5nc(c(-c6c(F)cccc6F)c6ccc([nH]6)c(-c6c(F)cccc6F)c6nc(c(-c7c(F)cccc7F)c7ccc4[nH]7)C=C6)C=C5)cc3)cc2)c1C
REMARK SMILES IDX 15 1 14 2 12 3 13 4 11 5 8 6 9 7 75 8 10 9 74 10 7 11 4 12
REMARK SMILES IDX 5 13 76 14 6 15 77 16 2 17 1 18 3 19 16 20 17 21 18 22 19 23
REMARK SMILES IDX 20 24 21 25 73 26 22 27 72 28 23 29 24 30 25 31 66 32 26 33
REMARK SMILES IDX 71 34 65 35 67 36 27 37 70 38 64 39 63 40 28 42 54 43 37 44
REMARK SMILES IDX 53 45 38 46 41 47 52 48 68 49 39 50 40 51 51 53 69 54 42 55
REMARK SMILES IDX 29 56 30 57 35 58 31 59 32 60 34 61 36 62 33 63 55 64 56 65
REMARK SMILES IDX 61 66 57 67 58 68 60 69 62 70 59 71 43 72 44 73 49 74 45 75
REMARK SMILES IDX 46 76 48 77 50 78 47 79
REMARK H PARENT 67 41 41 52
REMARK Flexibility Score: inf
ROOT
ATOM      1  C   UNL A   1      36.379  21.874  25.469  1.00  0.00     0.275 C 
ENDROOT
BRANCH   1   2
ATOM      2  O   UNL A   1      35.341  21.995  24.480  1.00  0.00    -0.458 OA
BRANCH   2   3
ATOM      3  C   UNL A   1      35.512  22.949  23.528  1.00  0.00     0.338 C 
ATOM      4  O   UNL A   1      36.412  22.993  22.700  1.00  0.00    -0.246 OA
BRANCH   3   5
ATOM      5  C   UNL A   1      34.384  23.914  23.552  1.00  0.00     0.060 A 
ATOM      6  C   UNL A   1      32.433  25.882  23.368  1.00  0.00     0.067 A 
ATOM      7  C   UNL A   1      32.388  24.805  22.480  1.00  0.00     0.029 A 
ATOM      8  C   UNL A   1      33.338  25.897  24.434  1.00  0.00     0.029 A 
ATOM      9  C   UNL A   1      33.387  23.831  22.561  1.00  0.00     0.018 A 
ATOM     10  C   UNL A   1      34.310  24.909  24.530  1.00  0.00     0.018 A 
BRANCH   6  11
ATOM     11  N   UNL A   1      31.687  27.045  23.090  1.00  0.00    -0.217 N 
ATOM     12  C   UNL A   1      30.114  28.547  22.943  1.00  0.00     0.151 A 
ATOM     13  N   UNL A   1      31.288  29.079  22.474  1.00  0.00    -0.126 NA
ATOM     14  C   UNL A   1      30.346  27.255  23.384  1.00  0.00     0.073 A 
ATOM     15  N   UNL A   1      32.256  28.193  22.675  1.00  0.00    -0.061 NA
ATOM     16  C   UNL A   1      29.496  26.283  24.118  1.00  0.00     0.069 C 
BRANCH  12  17
ATOM     17  C   UNL A   1      28.886  29.321  23.008  1.00  0.00     0.181 C 
ATOM     18  C   UNL A   1      28.987  30.758  23.460  1.00  0.00     0.095 C 
ATOM     19  O   UNL A   1      27.799  28.842  22.685  1.00  0.00    -0.293 OA
ENDBRANCH  12  17
ENDBRANCH   6  11
ENDBRANCH   3   5
ENDBRANCH   2   3
ENDBRANCH   1   2
BRANCH   1  20
ATOM     20  C   UNL A   1      37.455  20.893  25.020  1.00  0.00     0.275 C 
BRANCH  20  21
ATOM     21  O   UNL A   1      38.731  21.326  25.483  1.00  0.00    -0.458 OA
BRANCH  21  22
ATOM     22  C   UNL A   1      39.638  20.342  25.673  1.00  0.00     0.338 C 
ATOM     23  O   UNL A   1      39.492  19.151  25.453  1.00  0.00    -0.246 OA
BRANCH  22  24
ATOM     24  C   UNL A   1      40.815  20.894  26.350  1.00  0.00     0.060 A 
ATOM     25  C   UNL A   1      40.804  20.847  27.749  1.00  0.00     0.016 A 
ATOM     26  C   UNL A   1      41.643  21.764  25.633  1.00  0.00     0.016 A 
ATOM     27  C   UNL A   1      41.400  21.880  28.433  1.00  0.00     0.010 A 
ATOM     28  C   UNL A   1      42.213  22.806  26.313  1.00  0.00     0.010 A 
ATOM     29  C   UNL A   1      41.979  22.903  27.685  1.00  0.00    -0.014 A 
BRANCH  29  30
ATOM     30  C   UNL A   1      42.273  24.156  28.342  1.00  0.00     0.031 A 
ATOM     31  C   UNL A   1      41.245  25.198  28.146  1.00  0.00     0.074 A 
ATOM     32  C   UNL A   1      43.307  24.221  29.204  1.00  0.00     0.049 A 
ATOM     33  N   UNL A   1      41.380  26.384  27.654  1.00  0.00    -0.248 NA
ATOM     34  C   UNL A   1      39.849  24.811  28.416  1.00  0.00     0.031 C 
ATOM     35  C   UNL A   1      44.166  23.124  29.671  1.00  0.00     0.029 A 
ATOM     36  N   UNL A   1      43.719  25.267  29.963  1.00  0.00    -0.354 N 
ATOM     37  C   UNL A   1      40.115  26.959  27.736  1.00  0.00     0.074 A 
ATOM     38  C   UNL A   1      39.189  25.897  28.023  1.00  0.00     0.031 C 
ATOM     39  C   UNL A   1      44.814  23.512  30.793  1.00  0.00     0.029 A 
ATOM     40  C   UNL A   1      44.505  24.906  31.048  1.00  0.00     0.049 A 
ATOM     41  H   UNL A   1      43.480  26.201  29.763  1.00  0.00     0.167 HD
ATOM     42  C   UNL A   1      39.945  28.303  27.834  1.00  0.00     0.037 A 
ATOM     43  C   UNL A   1      44.757  25.686  32.127  1.00  0.00     0.037 A 
ATOM     44  C   UNL A   1      41.106  29.026  27.392  1.00  0.00     0.049 A 
ATOM     45  C   UNL A   1      44.412  27.084  31.753  1.00  0.00     0.074 A 
ATOM     46  C   UNL A   1      41.795  29.111  26.198  1.00  0.00     0.029 A 
ATOM     47  N   UNL A   1      41.949  29.539  28.347  1.00  0.00    -0.354 N 
ATOM     48  N   UNL A   1      45.069  27.784  30.868  1.00  0.00    -0.248 NA
ATOM     49  C   UNL A   1      43.052  27.535  32.014  1.00  0.00     0.031 C 
ATOM     50  C   UNL A   1      43.168  29.217  26.569  1.00  0.00     0.029 A 
ATOM     51  C   UNL A   1      43.228  29.227  27.963  1.00  0.00     0.049 A 
ATOM     52  H   UNL A   1      41.685  30.035  29.154  1.00  0.00     0.167 HD
ATOM     53  C   UNL A   1      44.098  28.501  30.179  1.00  0.00     0.074 A 
ATOM     54  C   UNL A   1      42.884  28.363  30.979  1.00  0.00     0.031 C 
ATOM     55  C   UNL A   1      44.289  28.894  28.886  1.00  0.00     0.037 A 
BRANCH  42  56
ATOM     56  C   UNL A   1      38.867  28.927  28.676  1.00  0.00     0.057 A 
ATOM     57  C   UNL A   1      38.789  28.611  30.041  1.00  0.00     0.134 A 
ATOM     58  C   UNL A   1      37.745  29.602  28.148  1.00  0.00     0.134 A 
ATOM     59  F   UNL A   1      39.781  27.943  30.648  1.00  0.00    -0.206 F 
ATOM     60  C   UNL A   1      37.656  28.902  30.809  1.00  0.00     0.040 A 
ATOM     61  C   UNL A   1      36.636  29.950  28.919  1.00  0.00     0.040 A 
ATOM     62  F   UNL A   1      37.617  29.871  26.842  1.00  0.00    -0.206 F 
ATOM     63  C   UNL A   1      36.575  29.572  30.249  1.00  0.00     0.006 A 
ENDBRANCH  42  56
BRANCH  43  64
ATOM     64  C   UNL A   1      44.893  25.240  33.533  1.00  0.00     0.057 A 
ATOM     65  C   UNL A   1      45.798  25.852  34.409  1.00  0.00     0.134 A 
ATOM     66  C   UNL A   1      43.968  24.356  34.122  1.00  0.00     0.134 A 
ATOM     67  F   UNL A   1      46.684  26.748  33.951  1.00  0.00    -0.206 F 
ATOM     68  C   UNL A   1      45.784  25.602  35.789  1.00  0.00     0.040 A 
ATOM     69  C   UNL A   1      43.949  24.090  35.495  1.00  0.00     0.040 A 
ATOM     70  F   UNL A   1      42.995  23.784  33.399  1.00  0.00    -0.206 F 
ATOM     71  C   UNL A   1      44.854  24.723  36.336  1.00  0.00     0.006 A 
ENDBRANCH  43  64
BRANCH  55  72
ATOM     72  C   UNL A   1      45.657  28.701  28.293  1.00  0.00     0.057 A 
ATOM     73  C   UNL A   1      46.052  27.528  27.632  1.00  0.00     0.134 A 
ATOM     74  C   UNL A   1      46.536  29.786  28.231  1.00  0.00     0.134 A 
ATOM     75  F   UNL A   1      45.229  26.477  27.545  1.00  0.00    -0.206 F 
ATOM     76  C   UNL A   1      47.281  27.424  26.976  1.00  0.00     0.040 A 
ATOM     77  C   UNL A   1      47.755  29.707  27.551  1.00  0.00     0.040 A 
ATOM     78  F   UNL A   1      46.197  30.962  28.783  1.00  0.00    -0.206 F 
ATOM     79  C   UNL A   1      48.135  28.521  26.928  1.00  0.00     0.006 A 
ENDBRANCH  55  72
ENDBRANCH  29  30
ENDBRANCH  22  24
ENDBRANCH  21  22
ENDBRANCH  20  21
ENDBRANCH   1  20
TORSDOF 13
ENDMDL
