MODEL 1
REMARK VINA RESULT:     -10.0      0.000      0.000
REMARK SMILES O=C(OCCOC(=O)c1cc(F)cc(-c2cccc(F)c2F)c1)c1ccc(-c2c3nc(c(-c4c(F)cccc4F)c4ccc([nH]4)c(-c4c(F)cccc4F)c4nc(c(-c5c(F)cccc5F)c5ccc2[nH]5)C=C4)C=C3)cc1
REMARK SMILES IDX 4 1 3 2 2 3 1 4 24 5 25 6 77 7 26 8 76 9 27 10 28 11 29 12
REMARK SMILES IDX 70 13 30 14 75 15 69 16 71 17 31 18 74 19 68 20 67 21 32 23
REMARK SMILES IDX 58 24 41 25 57 26 42 27 45 28 56 29 72 30 43 31 44 32 55 34
REMARK SMILES IDX 73 35 46 36 33 37 34 38 39 39 35 40 36 41 38 42 40 43 37 44
REMARK SMILES IDX 59 45 60 46 65 47 61 48 62 49 64 50 66 51 63 52 47 53 48 54
REMARK SMILES IDX 53 55 49 56 50 57 52 58 54 59 51 60 5 61 6 62 7 63 8 64 9 65
REMARK SMILES IDX 10 66 23 67 11 68 14 69 12 70 13 71 15 72 16 73 21 74 17 75
REMARK SMILES IDX 19 76 22 77 18 78 20 79
REMARK H PARENT 71 22 45 33
REMARK Flexibility Score: inf
ROOT
ATOM      1  C   UNL A   1      32.950  35.883  31.373  1.00  0.00     0.275 C 
ENDROOT
BRANCH   1   2
ATOM      2  O   UNL A   1      32.473  35.206  30.201  1.00  0.00    -0.458 OA
BRANCH   2   3
ATOM      3  C   UNL A   1      33.157  34.528  29.254  1.00  0.00     0.338 C 
ATOM      4  O   UNL A   1      32.657  34.413  28.135  1.00  0.00    -0.246 OA
BRANCH   3   5
ATOM      5  C   UNL A   1      34.432  33.784  29.513  1.00  0.00     0.060 A 
ATOM      6  C   UNL A   1      34.577  32.558  30.162  1.00  0.00     0.016 A 
ATOM      7  C   UNL A   1      35.599  34.407  29.040  1.00  0.00     0.016 A 
ATOM      8  C   UNL A   1      35.828  31.939  30.270  1.00  0.00     0.010 A 
ATOM      9  C   UNL A   1      36.848  33.786  29.117  1.00  0.00     0.010 A 
ATOM     10  C   UNL A   1      36.969  32.545  29.744  1.00  0.00    -0.014 A 
BRANCH  10  11
ATOM     11  C   UNL A   1      38.304  31.958  29.989  1.00  0.00     0.031 A 
ATOM     12  C   UNL A   1      39.296  32.752  30.782  1.00  0.00     0.074 A 
ATOM     13  C   UNL A   1      38.610  30.726  29.541  1.00  0.00     0.049 A 
ATOM     14  N   UNL A   1      40.514  32.438  31.130  1.00  0.00    -0.248 NA
ATOM     15  C   UNL A   1      38.851  34.071  31.266  1.00  0.00     0.031 C 
ATOM     16  C   UNL A   1      37.698  29.843  28.822  1.00  0.00     0.029 A 
ATOM     17  N   UNL A   1      39.777  30.009  29.610  1.00  0.00    -0.354 N 
ATOM     18  C   UNL A   1      40.960  33.493  31.911  1.00  0.00     0.074 A 
ATOM     19  C   UNL A   1      39.924  34.500  31.911  1.00  0.00     0.031 C 
ATOM     20  C   UNL A   1      38.352  28.728  28.459  1.00  0.00     0.029 A 
ATOM     21  C   UNL A   1      39.727  28.812  28.935  1.00  0.00     0.049 A 
ATOM     22  H   UNL A   1      40.574  30.321  30.097  1.00  0.00     0.167 HD
ATOM     23  C   UNL A   1      42.113  33.589  32.609  1.00  0.00     0.037 A 
ATOM     24  C   UNL A   1      40.687  27.891  28.723  1.00  0.00     0.037 A 
ATOM     25  C   UNL A   1      43.139  32.586  32.592  1.00  0.00     0.049 A 
ATOM     26  C   UNL A   1      42.022  28.086  29.386  1.00  0.00     0.074 A 
ATOM     27  C   UNL A   1      44.347  32.578  33.260  1.00  0.00     0.029 A 
ATOM     28  N   UNL A   1      43.076  31.412  31.853  1.00  0.00    -0.354 N 
ATOM     29  N   UNL A   1      42.416  29.068  30.160  1.00  0.00    -0.248 NA
ATOM     30  C   UNL A   1      43.029  27.037  29.183  1.00  0.00     0.031 C 
ATOM     31  C   UNL A   1      45.038  31.421  32.889  1.00  0.00     0.029 A 
ATOM     32  C   UNL A   1      44.238  30.683  32.029  1.00  0.00     0.049 A 
ATOM     33  H   UNL A   1      42.316  31.140  31.288  1.00  0.00     0.167 HD
ATOM     34  C   UNL A   1      43.696  28.735  30.578  1.00  0.00     0.074 A 
ATOM     35  C   UNL A   1      44.016  27.462  29.961  1.00  0.00     0.031 C 
ATOM     36  C   UNL A   1      44.524  29.412  31.412  1.00  0.00     0.037 A 
BRANCH  23  37
ATOM     37  C   UNL A   1      42.300  34.814  33.450  1.00  0.00     0.057 A 
ATOM     38  C   UNL A   1      42.945  35.946  32.940  1.00  0.00     0.134 A 
ATOM     39  C   UNL A   1      41.843  34.870  34.774  1.00  0.00     0.134 A 
ATOM     40  F   UNL A   1      43.401  35.960  31.678  1.00  0.00    -0.206 F 
ATOM     41  C   UNL A   1      43.130  37.090  33.718  1.00  0.00     0.040 A 
ATOM     42  C   UNL A   1      42.002  36.016  35.554  1.00  0.00     0.040 A 
ATOM     43  F   UNL A   1      41.195  33.826  35.315  1.00  0.00    -0.206 F 
ATOM     44  C   UNL A   1      42.654  37.128  35.027  1.00  0.00     0.006 A 
ENDBRANCH  23  37
BRANCH  24  45
ATOM     45  C   UNL A   1      40.404  26.702  27.879  1.00  0.00     0.057 A 
ATOM     46  C   UNL A   1      39.616  25.647  28.355  1.00  0.00     0.134 A 
ATOM     47  C   UNL A   1      40.927  26.581  26.587  1.00  0.00     0.134 A 
ATOM     48  F   UNL A   1      39.083  25.701  29.585  1.00  0.00    -0.206 F 
ATOM     49  C   UNL A   1      39.365  24.511  27.581  1.00  0.00     0.040 A 
ATOM     50  C   UNL A   1      40.668  25.461  25.794  1.00  0.00     0.040 A 
ATOM     51  F   UNL A   1      41.678  27.563  26.068  1.00  0.00    -0.206 F 
ATOM     52  C   UNL A   1      39.889  24.418  26.294  1.00  0.00     0.006 A 
ENDBRANCH  24  45
BRANCH  36  53
ATOM     53  C   UNL A   1      45.842  28.781  31.740  1.00  0.00     0.057 A 
ATOM     54  C   UNL A   1      46.963  29.026  30.936  1.00  0.00     0.134 A 
ATOM     55  C   UNL A   1      45.977  27.858  32.782  1.00  0.00     0.134 A 
ATOM     56  F   UNL A   1      46.892  29.893  29.914  1.00  0.00    -0.206 F 
ATOM     57  C   UNL A   1      48.166  28.355  31.143  1.00  0.00     0.040 A 
ATOM     58  C   UNL A   1      47.185  27.200  33.016  1.00  0.00     0.040 A 
ATOM     59  F   UNL A   1      44.942  27.590  33.592  1.00  0.00    -0.206 F 
ATOM     60  C   UNL A   1      48.280  27.439  32.186  1.00  0.00     0.006 A 
ENDBRANCH  36  53
ENDBRANCH  10  11
ENDBRANCH   3   5
ENDBRANCH   2   3
ENDBRANCH   1   2
BRANCH   1  61
ATOM     61  C   UNL A   1      32.896  35.057  32.662  1.00  0.00     0.275 C 
BRANCH  61  62
ATOM     62  O   UNL A   1      34.022  34.183  32.849  1.00  0.00    -0.458 OA
BRANCH  62  63
ATOM     63  C   UNL A   1      35.197  34.803  33.132  1.00  0.00     0.338 C 
ATOM     64  O   UNL A   1      35.515  35.941  32.831  1.00  0.00    -0.246 OA
BRANCH  63  65
ATOM     65  C   UNL A   1      36.036  33.920  33.968  1.00  0.00     0.063 A 
ATOM     66  C   UNL A   1      36.268  34.226  35.307  1.00  0.00     0.055 A 
ATOM     67  C   UNL A   1      36.577  32.752  33.400  1.00  0.00     0.024 A 
ATOM     68  C   UNL A   1      37.055  33.367  36.060  1.00  0.00     0.124 A 
ATOM     69  C   UNL A   1      37.405  31.900  34.156  1.00  0.00    -0.012 A 
ATOM     70  F   UNL A   1      37.258  33.636  37.356  1.00  0.00    -0.207 F 
ATOM     71  C   UNL A   1      37.639  32.235  35.499  1.00  0.00     0.048 A 
BRANCH  69  72
ATOM     72  C   UNL A   1      37.993  30.678  33.584  1.00  0.00     0.021 A 
ATOM     73  C   UNL A   1      37.209  29.718  32.921  1.00  0.00     0.012 A 
ATOM     74  C   UNL A   1      39.373  30.444  33.653  1.00  0.00     0.166 A 
ATOM     75  C   UNL A   1      37.776  28.572  32.350  1.00  0.00     0.004 A 
ATOM     76  C   UNL A   1      39.938  29.302  33.089  1.00  0.00     0.159 A 
ATOM     77  F   UNL A   1      40.172  31.330  34.268  1.00  0.00    -0.203 F 
ATOM     78  C   UNL A   1      39.148  28.364  32.436  1.00  0.00     0.042 A 
ATOM     79  F   UNL A   1      41.260  29.101  33.166  1.00  0.00    -0.204 F 
ENDBRANCH  69  72
ENDBRANCH  63  65
ENDBRANCH  62  63
ENDBRANCH  61  62
ENDBRANCH   1  61
TORSDOF 12
ENDMDL
MODEL 2
REMARK VINA RESULT:      -9.8      4.913     10.462
REMARK SMILES O=C(OCCOC(=O)c1cc(F)cc(-c2cccc(F)c2F)c1)c1ccc(-c2c3nc(c(-c4c(F)cccc4F)c4ccc([nH]4)c(-c4c(F)cccc4F)c4nc(c(-c5c(F)cccc5F)c5ccc2[nH]5)C=C4)C=C3)cc1
REMARK SMILES IDX 4 1 3 2 2 3 1 4 24 5 25 6 77 7 26 8 76 9 27 10 28 11 29 12
REMARK SMILES IDX 70 13 30 14 75 15 69 16 71 17 31 18 74 19 68 20 67 21 32 23
REMARK SMILES IDX 58 24 41 25 57 26 42 27 45 28 56 29 72 30 43 31 44 32 55 34
REMARK SMILES IDX 73 35 46 36 33 37 34 38 39 39 35 40 36 41 38 42 40 43 37 44
REMARK SMILES IDX 59 45 60 46 65 47 61 48 62 49 64 50 66 51 63 52 47 53 48 54
REMARK SMILES IDX 53 55 49 56 50 57 52 58 54 59 51 60 5 61 6 62 7 63 8 64 9 65
REMARK SMILES IDX 10 66 23 67 11 68 14 69 12 70 13 71 15 72 16 73 21 74 17 75
REMARK SMILES IDX 19 76 22 77 18 78 20 79
REMARK H PARENT 71 22 45 33
REMARK Flexibility Score: inf
ROOT
ATOM      1  C   UNL A   1      43.778  21.551  25.636  1.00  0.00     0.275 C 
ENDROOT
BRANCH   1   2
ATOM      2  O   UNL A   1      43.380  22.821  25.099  1.00  0.00    -0.458 OA
BRANCH   2   3
ATOM      3  C   UNL A   1      43.931  24.043  25.267  1.00  0.00     0.338 C 
ATOM      4  O   UNL A   1      44.940  24.328  24.622  1.00  0.00    -0.246 OA
BRANCH   3   5
ATOM      5  C   UNL A   1      43.473  25.033  26.294  1.00  0.00     0.060 A 
ATOM      6  C   UNL A   1      43.845  26.374  26.400  1.00  0.00     0.016 A 
ATOM      7  C   UNL A   1      42.566  24.537  27.246  1.00  0.00     0.016 A 
ATOM      8  C   UNL A   1      43.279  27.208  27.371  1.00  0.00     0.010 A 
ATOM      9  C   UNL A   1      41.974  25.367  28.201  1.00  0.00     0.010 A 
ATOM     10  C   UNL A   1      42.337  26.713  28.272  1.00  0.00    -0.014 A 
BRANCH  10  11
ATOM     11  C   UNL A   1      41.853  27.560  29.385  1.00  0.00     0.031 A 
ATOM     12  C   UNL A   1      42.540  27.452  30.712  1.00  0.00     0.074 A 
ATOM     13  C   UNL A   1      40.845  28.431  29.201  1.00  0.00     0.049 A 
ATOM     14  N   UNL A   1      42.300  28.100  31.819  1.00  0.00    -0.248 NA
ATOM     15  C   UNL A   1      43.663  26.502  30.799  1.00  0.00     0.031 C 
ATOM     16  C   UNL A   1      40.155  28.665  27.936  1.00  0.00     0.029 A 
ATOM     17  N   UNL A   1      40.212  29.271  30.081  1.00  0.00    -0.354 N 
ATOM     18  C   UNL A   1      43.268  27.672  32.715  1.00  0.00     0.074 A 
ATOM     19  C   UNL A   1      44.041  26.644  32.059  1.00  0.00     0.031 C 
ATOM     20  C   UNL A   1      39.154  29.539  28.130  1.00  0.00     0.029 A 
ATOM     21  C   UNL A   1      39.142  29.939  29.531  1.00  0.00     0.049 A 
ATOM     22  H   UNL A   1      40.495  29.386  31.017  1.00  0.00     0.167 HD
ATOM     23  C   UNL A   1      43.520  28.137  33.959  1.00  0.00     0.037 A 
ATOM     24  C   UNL A   1      38.253  30.775  30.099  1.00  0.00     0.037 A 
ATOM     25  C   UNL A   1      42.736  29.153  34.603  1.00  0.00     0.049 A 
ATOM     26  C   UNL A   1      38.459  31.169  31.535  1.00  0.00     0.074 A 
ATOM     27  C   UNL A   1      42.901  29.700  35.860  1.00  0.00     0.029 A 
ATOM     28  N   UNL A   1      41.628  29.766  34.034  1.00  0.00    -0.354 N 
ATOM     29  N   UNL A   1      39.406  30.792  32.360  1.00  0.00    -0.248 NA
ATOM     30  C   UNL A   1      37.506  32.127  32.110  1.00  0.00     0.031 C 
ATOM     31  C   UNL A   1      41.863  30.611  36.073  1.00  0.00     0.029 A 
ATOM     32  C   UNL A   1      41.082  30.669  34.928  1.00  0.00     0.049 A 
ATOM     33  H   UNL A   1      41.283  29.585  33.130  1.00  0.00     0.167 HD
ATOM     34  C   UNL A   1      39.196  31.501  33.533  1.00  0.00     0.074 A 
ATOM     35  C   UNL A   1      38.023  32.324  33.315  1.00  0.00     0.031 C 
ATOM     36  C   UNL A   1      39.919  31.486  34.679  1.00  0.00     0.037 A 
BRANCH  23  37
ATOM     37  C   UNL A   1      44.696  27.552  34.679  1.00  0.00     0.057 A 
ATOM     38  C   UNL A   1      45.966  28.128  34.569  1.00  0.00     0.134 A 
ATOM     39  C   UNL A   1      44.568  26.410  35.482  1.00  0.00     0.134 A 
ATOM     40  F   UNL A   1      46.155  29.225  33.821  1.00  0.00    -0.206 F 
ATOM     41  C   UNL A   1      47.069  27.586  35.231  1.00  0.00     0.040 A 
ATOM     42  C   UNL A   1      45.659  25.873  36.167  1.00  0.00     0.040 A 
ATOM     43  F   UNL A   1      43.372  25.825  35.648  1.00  0.00    -0.206 F 
ATOM     44  C   UNL A   1      46.916  26.459  36.036  1.00  0.00     0.006 A 
ENDBRANCH  23  37
BRANCH  24  45
ATOM     45  C   UNL A   1      37.121  31.312  29.301  1.00  0.00     0.057 A 
ATOM     46  C   UNL A   1      35.982  30.537  29.046  1.00  0.00     0.134 A 
ATOM     47  C   UNL A   1      37.155  32.601  28.758  1.00  0.00     0.134 A 
ATOM     48  F   UNL A   1      35.886  29.293  29.538  1.00  0.00    -0.206 F 
ATOM     49  C   UNL A   1      34.923  31.021  28.274  1.00  0.00     0.040 A 
ATOM     50  C   UNL A   1      36.095  33.106  28.001  1.00  0.00     0.040 A 
ATOM     51  F   UNL A   1      38.211  33.398  28.978  1.00  0.00    -0.206 F 
ATOM     52  C   UNL A   1      34.977  32.311  27.752  1.00  0.00     0.006 A 
ENDBRANCH  24  45
BRANCH  36  53
ATOM     53  C   UNL A   1      39.493  32.409  35.779  1.00  0.00     0.057 A 
ATOM     54  C   UNL A   1      38.489  32.022  36.678  1.00  0.00     0.134 A 
ATOM     55  C   UNL A   1      39.997  33.709  35.886  1.00  0.00     0.134 A 
ATOM     56  F   UNL A   1      37.959  30.790  36.618  1.00  0.00    -0.206 F 
ATOM     57  C   UNL A   1      37.985  32.906  37.628  1.00  0.00     0.040 A 
ATOM     58  C   UNL A   1      39.519  34.594  36.852  1.00  0.00     0.040 A 
ATOM     59  F   UNL A   1      40.966  34.133  35.061  1.00  0.00    -0.206 F 
ATOM     60  C   UNL A   1      38.500  34.197  37.718  1.00  0.00     0.006 A 
ENDBRANCH  36  53
ENDBRANCH  10  11
ENDBRANCH   3   5
ENDBRANCH   2   3
ENDBRANCH   1   2
BRANCH   1  61
ATOM     61  C   UNL A   1      42.624  20.593  25.948  1.00  0.00     0.275 C 
BRANCH  61  62
ATOM     62  O   UNL A   1      41.476  21.226  26.538  1.00  0.00    -0.458 OA
BRANCH  62  63
ATOM     63  C   UNL A   1      40.272  20.759  26.111  1.00  0.00     0.338 C 
ATOM     64  O   UNL A   1      39.993  19.605  25.834  1.00  0.00    -0.246 OA
BRANCH  63  65
ATOM     65  C   UNL A   1      39.283  21.855  26.121  1.00  0.00     0.063 A 
ATOM     66  C   UNL A   1      39.571  23.061  26.754  1.00  0.00     0.055 A 
ATOM     67  C   UNL A   1      38.055  21.674  25.459  1.00  0.00     0.024 A 
ATOM     68  C   UNL A   1      38.617  24.069  26.734  1.00  0.00     0.124 A 
ATOM     69  C   UNL A   1      37.074  22.684  25.470  1.00  0.00    -0.012 A 
ATOM     70  F   UNL A   1      38.897  25.243  27.315  1.00  0.00    -0.207 F 
ATOM     71  C   UNL A   1      37.378  23.886  26.128  1.00  0.00     0.048 A 
BRANCH  69  72
ATOM     72  C   UNL A   1      35.777  22.517  24.794  1.00  0.00     0.021 A 
ATOM     73  C   UNL A   1      35.497  23.136  23.563  1.00  0.00     0.012 A 
ATOM     74  C   UNL A   1      34.780  21.700  25.344  1.00  0.00     0.166 A 
ATOM     75  C   UNL A   1      34.273  22.949  22.907  1.00  0.00     0.004 A 
ATOM     76  C   UNL A   1      33.561  21.517  24.695  1.00  0.00     0.159 A 
ATOM     77  F   UNL A   1      34.995  21.078  26.514  1.00  0.00    -0.203 F 
ATOM     78  C   UNL A   1      33.301  22.136  23.478  1.00  0.00     0.042 A 
ATOM     79  F   UNL A   1      32.624  20.730  25.240  1.00  0.00    -0.204 F 
ENDBRANCH  69  72
ENDBRANCH  63  65
ENDBRANCH  62  63
ENDBRANCH  61  62
ENDBRANCH   1  61
TORSDOF 12
ENDMDL
MODEL 3
REMARK VINA RESULT:      -9.8      3.514      6.289
REMARK SMILES O=C(OCCOC(=O)c1cc(F)cc(-c2cccc(F)c2F)c1)c1ccc(-c2c3nc(c(-c4c(F)cccc4F)c4ccc([nH]4)c(-c4c(F)cccc4F)c4nc(c(-c5c(F)cccc5F)c5ccc2[nH]5)C=C4)C=C3)cc1
REMARK SMILES IDX 4 1 3 2 2 3 1 4 24 5 25 6 77 7 26 8 76 9 27 10 28 11 29 12
REMARK SMILES IDX 70 13 30 14 75 15 69 16 71 17 31 18 74 19 68 20 67 21 32 23
REMARK SMILES IDX 58 24 41 25 57 26 42 27 45 28 56 29 72 30 43 31 44 32 55 34
REMARK SMILES IDX 73 35 46 36 33 37 34 38 39 39 35 40 36 41 38 42 40 43 37 44
REMARK SMILES IDX 59 45 60 46 65 47 61 48 62 49 64 50 66 51 63 52 47 53 48 54
REMARK SMILES IDX 53 55 49 56 50 57 52 58 54 59 51 60 5 61 6 62 7 63 8 64 9 65
REMARK SMILES IDX 10 66 23 67 11 68 14 69 12 70 13 71 15 72 16 73 21 74 17 75
REMARK SMILES IDX 19 76 22 77 18 78 20 79
REMARK H PARENT 71 22 45 33
REMARK Flexibility Score: inf
ROOT
ATOM      1  C   UNL A   1      31.508  32.147  26.896  1.00  0.00     0.275 C 
ENDROOT
BRANCH   1   2
ATOM      2  O   UNL A   1      32.244  33.378  26.950  1.00  0.00    -0.458 OA
BRANCH   2   3
ATOM      3  C   UNL A   1      32.915  33.941  27.978  1.00  0.00     0.338 C 
ATOM      4  O   UNL A   1      32.528  35.027  28.410  1.00  0.00    -0.246 OA
BRANCH   3   5
ATOM      5  C   UNL A   1      34.190  33.394  28.545  1.00  0.00     0.060 A 
ATOM      6  C   UNL A   1      35.489  33.828  28.275  1.00  0.00     0.016 A 
ATOM      7  C   UNL A   1      34.040  32.328  29.448  1.00  0.00     0.016 A 
ATOM      8  C   UNL A   1      36.590  33.272  28.936  1.00  0.00     0.010 A 
ATOM      9  C   UNL A   1      35.129  31.786  30.134  1.00  0.00     0.010 A 
ATOM     10  C   UNL A   1      36.418  32.253  29.872  1.00  0.00    -0.014 A 
BRANCH  10  11
ATOM     11  C   UNL A   1      37.593  31.572  30.457  1.00  0.00     0.031 A 
ATOM     12  C   UNL A   1      38.022  31.955  31.841  1.00  0.00     0.074 A 
ATOM     13  C   UNL A   1      38.240  30.607  29.779  1.00  0.00     0.049 A 
ATOM     14  N   UNL A   1      39.008  31.486  32.557  1.00  0.00    -0.248 NA
ATOM     15  C   UNL A   1      37.222  32.990  32.518  1.00  0.00     0.031 C 
ATOM     16  C   UNL A   1      37.864  30.111  28.459  1.00  0.00     0.029 A 
ATOM     17  N   UNL A   1      39.360  29.881  30.097  1.00  0.00    -0.354 N 
ATOM     18  C   UNL A   1      38.916  32.133  33.780  1.00  0.00     0.074 A 
ATOM     19  C   UNL A   1      37.841  33.093  33.683  1.00  0.00     0.031 C 
ATOM     20  C   UNL A   1      38.769  29.207  28.049  1.00  0.00     0.029 A 
ATOM     21  C   UNL A   1      39.781  29.050  29.086  1.00  0.00     0.049 A 
ATOM     22  H   UNL A   1      39.817  29.948  30.966  1.00  0.00     0.167 HD
ATOM     23  C   UNL A   1      39.633  31.906  34.902  1.00  0.00     0.037 A 
ATOM     24  C   UNL A   1      40.866  28.255  29.007  1.00  0.00     0.037 A 
ATOM     25  C   UNL A   1      40.706  30.956  34.982  1.00  0.00     0.049 A 
ATOM     26  C   UNL A   1      41.746  28.127  30.219  1.00  0.00     0.074 A 
ATOM     27  C   UNL A   1      41.501  30.643  36.067  1.00  0.00     0.029 A 
ATOM     28  N   UNL A   1      41.139  30.172  33.922  1.00  0.00    -0.354 N 
ATOM     29  N   UNL A   1      41.621  28.710  31.387  1.00  0.00    -0.248 NA
ATOM     30  C   UNL A   1      42.888  27.209  30.123  1.00  0.00     0.031 C 
ATOM     31  C   UNL A   1      42.449  29.704  35.651  1.00  0.00     0.029 A 
ATOM     32  C   UNL A   1      42.211  29.393  34.320  1.00  0.00     0.049 A 
ATOM     33  H   UNL A   1      40.743  30.171  33.020  1.00  0.00     0.167 HD
ATOM     34  C   UNL A   1      42.636  28.195  32.181  1.00  0.00     0.074 A 
ATOM     35  C   UNL A   1      43.373  27.258  31.356  1.00  0.00     0.031 C 
ATOM     36  C   UNL A   1      42.919  28.459  33.480  1.00  0.00     0.037 A 
BRANCH  23  37
ATOM     37  C   UNL A   1      39.260  32.693  36.121  1.00  0.00     0.057 A 
ATOM     38  C   UNL A   1      38.336  32.193  37.045  1.00  0.00     0.134 A 
ATOM     39  C   UNL A   1      39.815  33.955  36.376  1.00  0.00     0.134 A 
ATOM     40  F   UNL A   1      37.773  30.989  36.864  1.00  0.00    -0.206 F 
ATOM     41  C   UNL A   1      37.977  32.922  38.181  1.00  0.00     0.040 A 
ATOM     42  C   UNL A   1      39.481  34.682  37.519  1.00  0.00     0.040 A 
ATOM     43  F   UNL A   1      40.725  34.480  35.540  1.00  0.00    -0.206 F 
ATOM     44  C   UNL A   1      38.554  34.167  38.422  1.00  0.00     0.006 A 
ENDBRANCH  23  37
BRANCH  24  45
ATOM     45  C   UNL A   1      41.150  27.505  27.757  1.00  0.00     0.057 A 
ATOM     46  C   UNL A   1      41.946  28.058  26.746  1.00  0.00     0.134 A 
ATOM     47  C   UNL A   1      40.621  26.230  27.533  1.00  0.00     0.134 A 
ATOM     48  F   UNL A   1      42.485  29.278  26.898  1.00  0.00    -0.206 F 
ATOM     49  C   UNL A   1      42.199  27.375  25.554  1.00  0.00     0.040 A 
ATOM     50  C   UNL A   1      40.882  25.526  26.354  1.00  0.00     0.040 A 
ATOM     51  F   UNL A   1      39.863  25.640  28.468  1.00  0.00    -0.206 F 
ATOM     52  C   UNL A   1      41.668  26.102  25.358  1.00  0.00     0.006 A 
ENDBRANCH  24  45
BRANCH  36  53
ATOM     53  C   UNL A   1      44.049  27.705  34.109  1.00  0.00     0.057 A 
ATOM     54  C   UNL A   1      45.354  28.213  34.057  1.00  0.00     0.134 A 
ATOM     55  C   UNL A   1      43.866  26.437  34.672  1.00  0.00     0.134 A 
ATOM     56  F   UNL A   1      45.595  29.419  33.519  1.00  0.00    -0.206 F 
ATOM     57  C   UNL A   1      46.441  27.475  34.520  1.00  0.00     0.040 A 
ATOM     58  C   UNL A   1      44.944  25.700  35.164  1.00  0.00     0.040 A 
ATOM     59  F   UNL A   1      42.639  25.903  34.760  1.00  0.00    -0.206 F 
ATOM     60  C   UNL A   1      46.237  26.214  35.077  1.00  0.00     0.006 A 
ENDBRANCH  36  53
ENDBRANCH  10  11
ENDBRANCH   3   5
ENDBRANCH   2   3
ENDBRANCH   1   2
BRANCH   1  61
ATOM     61  C   UNL A   1      32.299  30.945  26.370  1.00  0.00     0.275 C 
BRANCH  61  62
ATOM     62  O   UNL A   1      32.274  29.798  27.238  1.00  0.00    -0.458 OA
BRANCH  62  63
ATOM     63  C   UNL A   1      33.294  28.917  27.065  1.00  0.00     0.338 C 
ATOM     64  O   UNL A   1      34.471  29.099  27.329  1.00  0.00    -0.246 OA
BRANCH  63  65
ATOM     65  C   UNL A   1      32.760  27.627  26.586  1.00  0.00     0.063 A 
ATOM     66  C   UNL A   1      31.387  27.394  26.566  1.00  0.00     0.055 A 
ATOM     67  C   UNL A   1      33.655  26.643  26.126  1.00  0.00     0.024 A 
ATOM     68  C   UNL A   1      30.924  26.171  26.103  1.00  0.00     0.124 A 
ATOM     69  C   UNL A   1      33.186  25.390  25.689  1.00  0.00    -0.012 A 
ATOM     70  F   UNL A   1      29.604  25.951  26.051  1.00  0.00    -0.207 F 
ATOM     71  C   UNL A   1      31.800  25.170  25.693  1.00  0.00     0.048 A 
BRANCH  69  72
ATOM     72  C   UNL A   1      34.100  24.340  25.213  1.00  0.00     0.021 A 
ATOM     73  C   UNL A   1      34.568  24.309  23.887  1.00  0.00     0.012 A 
ATOM     74  C   UNL A   1      34.568  23.344  26.082  1.00  0.00     0.166 A 
ATOM     75  C   UNL A   1      35.464  23.327  23.446  1.00  0.00     0.004 A 
ATOM     76  C   UNL A   1      35.455  22.365  25.643  1.00  0.00     0.159 A 
ATOM     77  F   UNL A   1      34.160  23.329  27.361  1.00  0.00    -0.203 F 
ATOM     78  C   UNL A   1      35.908  22.349  24.330  1.00  0.00     0.042 A 
ATOM     79  F   UNL A   1      35.889  21.425  26.494  1.00  0.00    -0.204 F 
ENDBRANCH  69  72
ENDBRANCH  63  65
ENDBRANCH  62  63
ENDBRANCH  61  62
ENDBRANCH   1  61
TORSDOF 12
ENDMDL
