MODEL 1
REMARK VINA RESULT:     -12.6      0.000      0.000
REMARK SMILES Cc1nnc(SCC2=C(C(=O)OCCOC(=O)c3ccc(-c4c5nc(c(-c6c(F)cccc6F)c6ccc([nH]6)c(-c6c(F)cccc6F)c6nc(c(-c7c(F)cccc7F)c7ccc4[nH]7)C=C6)C=C5)cc3)N3C(=O)[C@H](NC(=O)c4ccc(F)cc4F)[C@H]3SC2)s1
REMARK SMILES IDX 13 1 12 2 10 3 11 4 9 5 8 6 89 7 72 8 88 9 73 10 87 11 74 12
REMARK SMILES IDX 75 13 7 14 6 15 5 16 1 17 2 18 3 19 90 20 4 21 76 22 77 23
REMARK SMILES IDX 78 25 79 26 80 27 85 28 81 29 84 30 86 31 82 32 83 33 14 34
REMARK SMILES IDX 15 35 16 36 17 37 18 38 19 39 71 40 20 41 70 42 21 43 22 44
REMARK SMILES IDX 23 45 64 46 24 47 69 48 63 49 65 50 25 51 68 52 62 53 61 54
REMARK SMILES IDX 26 56 52 57 35 58 51 59 36 60 39 61 50 62 66 63 37 64 38 65
REMARK SMILES IDX 49 67 67 68 40 69 27 70 28 71 33 72 29 73 30 74 32 75 34 76
REMARK SMILES IDX 31 77 53 78 54 79 59 80 55 81 56 82 58 83 60 84 57 85 41 86
REMARK SMILES IDX 42 87 47 88 43 89 44 90 46 91 48 92 45 93
REMARK H PARENT 76 24 65 55 39 66
REMARK Flexibility Score: inf
ROOT
ATOM      1  C   UNL A   1      33.591  29.498  26.518  1.00  0.00     0.275 C 
ENDROOT
BRANCH   1   2
ATOM      2  O   UNL A   1      33.319  28.215  27.124  1.00  0.00    -0.457 OA
BRANCH   2   3
ATOM      3  C   UNL A   1      32.236  27.573  26.626  1.00  0.00     0.355 C 
ATOM      4  O   UNL A   1      31.223  27.270  27.243  1.00  0.00    -0.244 OA
BRANCH   3   5
ATOM      5  C   UNL A   1      32.403  27.176  25.194  1.00  0.00     0.132 C 
ATOM      6  C   UNL A   1      33.260  26.219  24.758  1.00  0.00    -0.019 C 
ATOM      7  C   UNL A   1      33.333  25.768  23.296  1.00  0.00     0.106 C 
ATOM      8  N   UNL A   1      31.463  27.652  24.343  1.00  0.00    -0.289 N 
ATOM      9  S   UNL A   1      32.218  26.586  22.109  1.00  0.00    -0.129 SA
ATOM     10  C   UNL A   1      30.764  28.776  24.111  1.00  0.00     0.253 C 
ATOM     11  C   UNL A   1      30.888  26.841  23.310  1.00  0.00     0.181 C 
ATOM     12  O   UNL A   1      30.852  29.894  24.549  1.00  0.00    -0.272 OA
ATOM     13  C   UNL A   1      29.913  28.027  23.007  1.00  0.00     0.206 C 
BRANCH   6  14
ATOM     14  C   UNL A   1      34.280  25.527  25.645  1.00  0.00     0.111 C 
BRANCH  14  15
ATOM     15  S   UNL A   1      33.728  23.882  26.186  1.00  0.00    -0.089 SA
BRANCH  15  16
ATOM     16  C   UNL A   1      35.170  22.924  25.962  1.00  0.00     0.174 A 
ATOM     17  C   UNL A   1      38.805  21.747  25.638  1.00  0.00     0.081 C 
ATOM     18  C   UNL A   1      37.347  22.010  25.725  1.00  0.00     0.115 A 
ATOM     19  N   UNL A   1      36.407  21.097  25.599  1.00  0.00    -0.143 NA
ATOM     20  S   UNL A   1      36.748  23.590  26.040  1.00  0.00    -0.091 S 
ATOM     21  N   UNL A   1      35.142  21.630  25.742  1.00  0.00    -0.132 NA
ENDBRANCH  15  16
ENDBRANCH  14  15
ENDBRANCH   6  14
BRANCH  13  22
ATOM     22  N   UNL A   1      28.478  27.862  23.394  1.00  0.00    -0.338 N 
ATOM     23  C   UNL A   1      27.419  28.711  23.192  1.00  0.00     0.254 C 
ATOM     24  H   UNL A   1      28.262  27.023  23.862  1.00  0.00     0.164 HD
ATOM     25  O   UNL A   1      26.292  28.443  23.590  1.00  0.00    -0.269 OA
BRANCH  23  26
ATOM     26  C   UNL A   1      27.653  29.981  22.505  1.00  0.00     0.075 A 
ATOM     27  C   UNL A   1      27.858  29.996  21.124  1.00  0.00     0.020 A 
ATOM     28  C   UNL A   1      27.691  31.165  23.241  1.00  0.00     0.138 A 
ATOM     29  C   UNL A   1      28.039  31.222  20.481  1.00  0.00     0.040 A 
ATOM     30  C   UNL A   1      27.844  32.387  22.602  1.00  0.00     0.079 A 
ATOM     31  F   UNL A   1      27.522  31.149  24.571  1.00  0.00    -0.206 F 
ATOM     32  C   UNL A   1      28.011  32.403  21.223  1.00  0.00     0.126 A 
ATOM     33  F   UNL A   1      28.150  33.577  20.595  1.00  0.00    -0.207 F 
ENDBRANCH  23  26
ENDBRANCH  13  22
ENDBRANCH   3   5
ENDBRANCH   2   3
ENDBRANCH   1   2
BRANCH   1  34
ATOM     34  C   UNL A   1      33.599  30.618  27.553  1.00  0.00     0.275 C 
BRANCH  34  35
ATOM     35  O   UNL A   1      34.926  31.157  27.656  1.00  0.00    -0.458 OA
BRANCH  35  36
ATOM     36  C   UNL A   1      35.554  30.988  28.843  1.00  0.00     0.338 C 
ATOM     37  O   UNL A   1      35.226  31.464  29.916  1.00  0.00    -0.246 OA
BRANCH  36  38
ATOM     38  C   UNL A   1      36.733  30.108  28.670  1.00  0.00     0.060 A 
ATOM     39  C   UNL A   1      37.281  29.431  29.755  1.00  0.00     0.016 A 
ATOM     40  C   UNL A   1      37.392  30.070  27.440  1.00  0.00     0.016 A 
ATOM     41  C   UNL A   1      38.553  28.871  29.664  1.00  0.00     0.010 A 
ATOM     42  C   UNL A   1      38.617  29.399  27.323  1.00  0.00     0.010 A 
ATOM     43  C   UNL A   1      39.253  28.853  28.453  1.00  0.00    -0.014 A 
BRANCH  43  44
ATOM     44  C   UNL A   1      40.671  28.381  28.396  1.00  0.00     0.031 A 
ATOM     45  C   UNL A   1      41.796  29.319  28.769  1.00  0.00     0.074 A 
ATOM     46  C   UNL A   1      40.982  27.106  28.082  1.00  0.00     0.049 A 
ATOM     47  N   UNL A   1      43.082  29.202  28.547  1.00  0.00    -0.248 NA
ATOM     48  C   UNL A   1      41.425  30.563  29.465  1.00  0.00     0.031 C 
ATOM     49  C   UNL A   1      40.027  26.040  27.779  1.00  0.00     0.029 A 
ATOM     50  N   UNL A   1      42.205  26.481  27.995  1.00  0.00    -0.354 N 
ATOM     51  C   UNL A   1      43.653  30.395  28.976  1.00  0.00     0.074 A 
ATOM     52  C   UNL A   1      42.579  31.212  29.497  1.00  0.00     0.031 C 
ATOM     53  C   UNL A   1      40.686  24.883  27.629  1.00  0.00     0.029 A 
ATOM     54  C   UNL A   1      42.119  25.144  27.690  1.00  0.00     0.049 A 
ATOM     55  H   UNL A   1      43.059  26.948  28.137  1.00  0.00     0.167 HD
ATOM     56  C   UNL A   1      44.953  30.775  28.929  1.00  0.00     0.037 A 
ATOM     57  C   UNL A   1      43.078  24.236  27.431  1.00  0.00     0.037 A 
ATOM     58  C   UNL A   1      46.037  29.919  28.522  1.00  0.00     0.049 A 
ATOM     59  C   UNL A   1      44.513  24.669  27.393  1.00  0.00     0.074 A 
ATOM     60  C   UNL A   1      47.387  30.211  28.442  1.00  0.00     0.029 A 
ATOM     61  N   UNL A   1      45.895  28.586  28.168  1.00  0.00    -0.354 N 
ATOM     62  N   UNL A   1      45.028  25.848  27.648  1.00  0.00    -0.248 NA
ATOM     63  C   UNL A   1      45.498  23.658  26.985  1.00  0.00     0.031 C 
ATOM     64  C   UNL A   1      48.063  29.057  28.027  1.00  0.00     0.029 A 
ATOM     65  C   UNL A   1      47.134  28.041  27.876  1.00  0.00     0.049 A 
ATOM     66  H   UNL A   1      45.040  28.099  28.130  1.00  0.00     0.167 HD
ATOM     67  C   UNL A   1      46.391  25.724  27.417  1.00  0.00     0.074 A 
ATOM     68  C   UNL A   1      46.630  24.346  27.039  1.00  0.00     0.031 C 
ATOM     69  C   UNL A   1      47.354  26.672  27.492  1.00  0.00     0.037 A 
BRANCH  56  70
ATOM     70  C   UNL A   1      45.276  32.195  29.290  1.00  0.00     0.057 A 
ATOM     71  C   UNL A   1      45.694  32.571  30.571  1.00  0.00     0.134 A 
ATOM     72  C   UNL A   1      45.200  33.198  28.313  1.00  0.00     0.134 A 
ATOM     73  F   UNL A   1      45.774  31.662  31.554  1.00  0.00    -0.206 F 
ATOM     74  C   UNL A   1      46.009  33.898  30.873  1.00  0.00     0.040 A 
ATOM     75  C   UNL A   1      45.534  34.522  28.597  1.00  0.00     0.040 A 
ATOM     76  F   UNL A   1      44.813  32.904  27.062  1.00  0.00    -0.206 F 
ATOM     77  C   UNL A   1      45.937  34.876  29.883  1.00  0.00     0.006 A 
ENDBRANCH  56  70
BRANCH  57  78
ATOM     78  C   UNL A   1      42.702  22.835  27.113  1.00  0.00     0.057 A 
ATOM     79  C   UNL A   1      42.731  22.360  25.796  1.00  0.00     0.134 A 
ATOM     80  C   UNL A   1      42.311  21.937  28.114  1.00  0.00     0.134 A 
ATOM     81  F   UNL A   1      43.060  23.182  24.789  1.00  0.00    -0.206 F 
ATOM     82  C   UNL A   1      42.388  21.042  25.488  1.00  0.00     0.040 A 
ATOM     83  C   UNL A   1      41.992  20.610  27.824  1.00  0.00     0.040 A 
ATOM     84  F   UNL A   1      42.254  22.333  29.394  1.00  0.00    -0.206 F 
ATOM     85  C   UNL A   1      42.027  20.161  26.506  1.00  0.00     0.006 A 
ENDBRANCH  57  78
BRANCH  69  86
ATOM     86  C   UNL A   1      48.751  26.243  27.163  1.00  0.00     0.057 A 
ATOM     87  C   UNL A   1      49.587  25.671  28.130  1.00  0.00     0.134 A 
ATOM     88  C   UNL A   1      49.262  26.391  25.868  1.00  0.00     0.134 A 
ATOM     89  F   UNL A   1      49.158  25.517  29.393  1.00  0.00    -0.206 F 
ATOM     90  C   UNL A   1      50.891  25.282  27.827  1.00  0.00     0.040 A 
ATOM     91  C   UNL A   1      50.558  25.989  25.547  1.00  0.00     0.040 A 
ATOM     92  F   UNL A   1      48.508  26.927  24.896  1.00  0.00    -0.206 F 
ATOM     93  C   UNL A   1      51.379  25.438  26.529  1.00  0.00     0.006 A 
ENDBRANCH  69  86
ENDBRANCH  43  44
ENDBRANCH  36  38
ENDBRANCH  35  36
ENDBRANCH  34  35
ENDBRANCH   1  34
TORSDOF 16
ENDMDL
MODEL 2
REMARK VINA RESULT:     -12.0      3.270      6.911
REMARK SMILES Cc1nnc(SCC2=C(C(=O)OCCOC(=O)c3ccc(-c4c5nc(c(-c6c(F)cccc6F)c6ccc([nH]6)c(-c6c(F)cccc6F)c6nc(c(-c7c(F)cccc7F)c7ccc4[nH]7)C=C6)C=C5)cc3)N3C(=O)[C@H](NC(=O)c4ccc(F)cc4F)[C@H]3SC2)s1
REMARK SMILES IDX 13 1 12 2 10 3 11 4 9 5 8 6 89 7 72 8 88 9 73 10 87 11 74 12
REMARK SMILES IDX 75 13 7 14 6 15 5 16 1 17 2 18 3 19 90 20 4 21 76 22 77 23
REMARK SMILES IDX 78 25 79 26 80 27 85 28 81 29 84 30 86 31 82 32 83 33 14 34
REMARK SMILES IDX 15 35 16 36 17 37 18 38 19 39 71 40 20 41 70 42 21 43 22 44
REMARK SMILES IDX 23 45 64 46 24 47 69 48 63 49 65 50 25 51 68 52 62 53 61 54
REMARK SMILES IDX 26 56 52 57 35 58 51 59 36 60 39 61 50 62 66 63 37 64 38 65
REMARK SMILES IDX 49 67 67 68 40 69 27 70 28 71 33 72 29 73 30 74 32 75 34 76
REMARK SMILES IDX 31 77 53 78 54 79 59 80 55 81 56 82 58 83 60 84 57 85 41 86
REMARK SMILES IDX 42 87 47 88 43 89 44 90 46 91 48 92 45 93
REMARK H PARENT 76 24 65 55 39 66
REMARK Flexibility Score: inf
ROOT
ATOM      1  C   UNL A   1      35.758  21.451  25.259  1.00  0.00     0.275 C 
ENDROOT
BRANCH   1   2
ATOM      2  O   UNL A   1      34.809  21.037  26.266  1.00  0.00    -0.457 OA
BRANCH   2   3
ATOM      3  C   UNL A   1      33.841  21.945  26.536  1.00  0.00     0.355 C 
ATOM      4  O   UNL A   1      33.403  22.234  27.642  1.00  0.00    -0.244 OA
BRANCH   3   5
ATOM      5  C   UNL A   1      33.260  22.559  25.304  1.00  0.00     0.132 C 
ATOM      6  C   UNL A   1      32.445  21.911  24.433  1.00  0.00    -0.019 C 
ATOM      7  C   UNL A   1      31.788  22.601  23.234  1.00  0.00     0.106 C 
ATOM      8  N   UNL A   1      33.384  23.905  25.208  1.00  0.00    -0.289 N 
ATOM      9  S   UNL A   1      32.150  24.369  22.981  1.00  0.00    -0.129 SA
ATOM     10  C   UNL A   1      34.282  24.872  25.454  1.00  0.00     0.253 C 
ATOM     11  C   UNL A   1      32.313  24.738  24.746  1.00  0.00     0.181 C 
ATOM     12  O   UNL A   1      35.451  24.843  25.746  1.00  0.00    -0.272 OA
ATOM     13  C   UNL A   1      33.203  25.974  25.105  1.00  0.00     0.206 C 
BRANCH   6  14
ATOM     14  C   UNL A   1      32.136  20.427  24.507  1.00  0.00     0.111 C 
BRANCH  14  15
ATOM     15  S   UNL A   1      32.507  19.561  22.952  1.00  0.00    -0.089 SA
BRANCH  15  16
ATOM     16  C   UNL A   1      32.899  17.956  23.515  1.00  0.00     0.174 A 
ATOM     17  C   UNL A   1      33.200  14.743  25.585  1.00  0.00     0.081 C 
ATOM     18  C   UNL A   1      33.197  15.892  24.645  1.00  0.00     0.115 A 
ATOM     19  N   UNL A   1      33.771  15.898  23.461  1.00  0.00    -0.143 NA
ATOM     20  S   UNL A   1      32.385  17.355  25.036  1.00  0.00    -0.091 S 
ATOM     21  N   UNL A   1      33.592  17.098  22.803  1.00  0.00    -0.132 NA
ENDBRANCH  15  16
ENDBRANCH  14  15
ENDBRANCH   6  14
BRANCH  13  22
ATOM     22  N   UNL A   1      32.806  26.794  26.291  1.00  0.00    -0.338 N 
ATOM     23  C   UNL A   1      31.841  27.764  26.395  1.00  0.00     0.254 C 
ATOM     24  H   UNL A   1      33.311  26.612  27.116  1.00  0.00     0.164 HD
ATOM     25  O   UNL A   1      31.645  28.371  27.441  1.00  0.00    -0.269 OA
BRANCH  23  26
ATOM     26  C   UNL A   1      31.045  28.098  25.214  1.00  0.00     0.075 A 
ATOM     27  C   UNL A   1      30.141  27.166  24.700  1.00  0.00     0.020 A 
ATOM     28  C   UNL A   1      31.213  29.338  24.598  1.00  0.00     0.138 A 
ATOM     29  C   UNL A   1      29.360  27.519  23.597  1.00  0.00     0.040 A 
ATOM     30  C   UNL A   1      30.421  29.701  23.519  1.00  0.00     0.079 A 
ATOM     31  F   UNL A   1      32.101  30.223  25.074  1.00  0.00    -0.206 F 
ATOM     32  C   UNL A   1      29.495  28.787  23.032  1.00  0.00     0.126 A 
ATOM     33  F   UNL A   1      28.719  29.130  21.997  1.00  0.00    -0.207 F 
ENDBRANCH  23  26
ENDBRANCH  13  22
ENDBRANCH   3   5
ENDBRANCH   2   3
ENDBRANCH   1   2
BRANCH   1  34
ATOM     34  C   UNL A   1      36.859  20.413  25.065  1.00  0.00     0.275 C 
BRANCH  34  35
ATOM     35  O   UNL A   1      38.116  21.085  24.883  1.00  0.00    -0.458 OA
BRANCH  35  36
ATOM     36  C   UNL A   1      39.086  20.802  25.782  1.00  0.00     0.338 C 
ATOM     37  O   UNL A   1      39.575  19.707  26.006  1.00  0.00    -0.246 OA
BRANCH  36  38
ATOM     38  C   UNL A   1      39.504  22.038  26.482  1.00  0.00     0.060 A 
ATOM     39  C   UNL A   1      38.941  23.268  26.154  1.00  0.00     0.016 A 
ATOM     40  C   UNL A   1      40.574  21.996  27.378  1.00  0.00     0.016 A 
ATOM     41  C   UNL A   1      39.545  24.451  26.572  1.00  0.00     0.010 A 
ATOM     42  C   UNL A   1      41.102  23.188  27.894  1.00  0.00     0.010 A 
ATOM     43  C   UNL A   1      40.644  24.437  27.439  1.00  0.00    -0.014 A 
BRANCH  43  44
ATOM     44  C   UNL A   1      41.373  25.701  27.767  1.00  0.00     0.031 A 
ATOM     45  C   UNL A   1      40.728  26.737  28.658  1.00  0.00     0.074 A 
ATOM     46  C   UNL A   1      42.635  25.922  27.343  1.00  0.00     0.049 A 
ATOM     47  N   UNL A   1      41.065  27.987  28.857  1.00  0.00    -0.248 NA
ATOM     48  C   UNL A   1      39.533  26.318  29.411  1.00  0.00     0.031 C 
ATOM     49  C   UNL A   1      43.447  24.999  26.550  1.00  0.00     0.029 A 
ATOM     50  N   UNL A   1      43.471  26.995  27.551  1.00  0.00    -0.354 N 
ATOM     51  C   UNL A   1      40.070  28.528  29.664  1.00  0.00     0.074 A 
ATOM     52  C   UNL A   1      39.130  27.464  29.943  1.00  0.00     0.031 C 
ATOM     53  C   UNL A   1      44.683  25.501  26.414  1.00  0.00     0.029 A 
ATOM     54  C   UNL A   1      44.717  26.839  26.992  1.00  0.00     0.049 A 
ATOM     55  H   UNL A   1      43.202  27.798  28.052  1.00  0.00     0.167 HD
ATOM     56  C   UNL A   1      39.949  29.797  30.121  1.00  0.00     0.037 A 
ATOM     57  C   UNL A   1      45.756  27.690  26.902  1.00  0.00     0.037 A 
ATOM     58  C   UNL A   1      40.943  30.824  29.943  1.00  0.00     0.049 A 
ATOM     59  C   UNL A   1      45.610  29.088  27.421  1.00  0.00     0.074 A 
ATOM     60  C   UNL A   1      40.913  32.141  30.370  1.00  0.00     0.029 A 
ATOM     61  N   UNL A   1      42.167  30.634  29.322  1.00  0.00    -0.354 N 
ATOM     62  N   UNL A   1      44.596  29.637  28.046  1.00  0.00    -0.248 NA
ATOM     63  C   UNL A   1      46.735  30.002  27.182  1.00  0.00     0.031 C 
ATOM     64  C   UNL A   1      42.115  32.752  29.995  1.00  0.00     0.029 A 
ATOM     65  C   UNL A   1      42.903  31.806  29.360  1.00  0.00     0.049 A 
ATOM     66  H   UNL A   1      42.469  29.790  28.914  1.00  0.00     0.167 HD
ATOM     67  C   UNL A   1      44.954  30.961  28.260  1.00  0.00     0.074 A 
ATOM     68  C   UNL A   1      46.294  31.124  27.733  1.00  0.00     0.031 C 
ATOM     69  C   UNL A   1      44.230  31.956  28.824  1.00  0.00     0.037 A 
BRANCH  56  70
ATOM     70  C   UNL A   1      38.676  30.165  30.824  1.00  0.00     0.057 A 
ATOM     71  C   UNL A   1      38.523  30.057  32.211  1.00  0.00     0.134 A 
ATOM     72  C   UNL A   1      37.594  30.674  30.091  1.00  0.00     0.134 A 
ATOM     73  F   UNL A   1      39.515  29.565  32.968  1.00  0.00    -0.206 F 
ATOM     74  C   UNL A   1      37.333  30.427  32.842  1.00  0.00     0.040 A 
ATOM     75  C   UNL A   1      36.410  31.068  30.714  1.00  0.00     0.040 A 
ATOM     76  F   UNL A   1      37.678  30.810  28.759  1.00  0.00    -0.206 F 
ATOM     77  C   UNL A   1      36.276  30.941  32.094  1.00  0.00     0.006 A 
ENDBRANCH  56  70
BRANCH  57  78
ATOM     78  C   UNL A   1      47.005  27.261  26.223  1.00  0.00     0.057 A 
ATOM     79  C   UNL A   1      48.053  26.674  26.941  1.00  0.00     0.134 A 
ATOM     80  C   UNL A   1      47.179  27.422  24.842  1.00  0.00     0.134 A 
ATOM     81  F   UNL A   1      47.962  26.528  28.271  1.00  0.00    -0.206 F 
ATOM     82  C   UNL A   1      49.228  26.260  26.311  1.00  0.00     0.040 A 
ATOM     83  C   UNL A   1      48.336  26.988  24.195  1.00  0.00     0.040 A 
ATOM     84  F   UNL A   1      46.215  27.985  24.100  1.00  0.00    -0.206 F 
ATOM     85  C   UNL A   1      49.366  26.407  24.931  1.00  0.00     0.006 A 
ENDBRANCH  57  78
BRANCH  69  86
ATOM     86  C   UNL A   1      44.879  33.303  28.901  1.00  0.00     0.057 A 
ATOM     87  C   UNL A   1      45.689  33.663  29.986  1.00  0.00     0.134 A 
ATOM     88  C   UNL A   1      44.704  34.245  27.881  1.00  0.00     0.134 A 
ATOM     89  F   UNL A   1      45.882  32.808  31.002  1.00  0.00    -0.206 F 
ATOM     90  C   UNL A   1      46.285  34.922  30.064  1.00  0.00     0.040 A 
ATOM     91  C   UNL A   1      45.309  35.501  27.938  1.00  0.00     0.040 A 
ATOM     92  F   UNL A   1      43.944  33.959  26.813  1.00  0.00    -0.206 F 
ATOM     93  C   UNL A   1      46.098  35.844  29.034  1.00  0.00     0.006 A 
ENDBRANCH  69  86
ENDBRANCH  43  44
ENDBRANCH  36  38
ENDBRANCH  35  36
ENDBRANCH  34  35
ENDBRANCH   1  34
TORSDOF 16
ENDMDL
MODEL 3
REMARK VINA RESULT:     -11.9      3.335      6.725
REMARK SMILES Cc1nnc(SCC2=C(C(=O)OCCOC(=O)c3ccc(-c4c5nc(c(-c6c(F)cccc6F)c6ccc([nH]6)c(-c6c(F)cccc6F)c6nc(c(-c7c(F)cccc7F)c7ccc4[nH]7)C=C6)C=C5)cc3)N3C(=O)[C@H](NC(=O)c4ccc(F)cc4F)[C@H]3SC2)s1
REMARK SMILES IDX 13 1 12 2 10 3 11 4 9 5 8 6 89 7 72 8 88 9 73 10 87 11 74 12
REMARK SMILES IDX 75 13 7 14 6 15 5 16 1 17 2 18 3 19 90 20 4 21 76 22 77 23
REMARK SMILES IDX 78 25 79 26 80 27 85 28 81 29 84 30 86 31 82 32 83 33 14 34
REMARK SMILES IDX 15 35 16 36 17 37 18 38 19 39 71 40 20 41 70 42 21 43 22 44
REMARK SMILES IDX 23 45 64 46 24 47 69 48 63 49 65 50 25 51 68 52 62 53 61 54
REMARK SMILES IDX 26 56 52 57 35 58 51 59 36 60 39 61 50 62 66 63 37 64 38 65
REMARK SMILES IDX 49 67 67 68 40 69 27 70 28 71 33 72 29 73 30 74 32 75 34 76
REMARK SMILES IDX 31 77 53 78 54 79 59 80 55 81 56 82 58 83 60 84 57 85 41 86
REMARK SMILES IDX 42 87 47 88 43 89 44 90 46 91 48 92 45 93
REMARK H PARENT 76 24 65 55 39 66
REMARK Flexibility Score: inf
ROOT
ATOM      1  C   UNL A   1      36.637  22.703  23.496  1.00  0.00     0.275 C 
ENDROOT
BRANCH   1   2
ATOM      2  O   UNL A   1      35.491  23.423  24.003  1.00  0.00    -0.457 OA
BRANCH   2   3
ATOM      3  C   UNL A   1      34.334  23.178  23.343  1.00  0.00     0.355 C 
ATOM      4  O   UNL A   1      34.199  23.060  22.132  1.00  0.00    -0.244 OA
BRANCH   3   5
ATOM      5  C   UNL A   1      33.147  23.128  24.250  1.00  0.00     0.132 C 
ATOM      6  C   UNL A   1      32.755  22.028  24.942  1.00  0.00    -0.019 C 
ATOM      7  C   UNL A   1      31.593  22.040  25.939  1.00  0.00     0.106 C 
ATOM      8  N   UNL A   1      32.595  24.326  24.557  1.00  0.00    -0.289 N 
ATOM      9  S   UNL A   1      30.704  23.614  26.172  1.00  0.00    -0.129 SA
ATOM     10  C   UNL A   1      32.292  25.496  23.971  1.00  0.00     0.253 C 
ATOM     11  C   UNL A   1      32.161  24.648  25.885  1.00  0.00     0.181 C 
ATOM     12  O   UNL A   1      32.288  25.853  22.820  1.00  0.00    -0.272 OA
ATOM     13  C   UNL A   1      31.877  26.099  25.373  1.00  0.00     0.206 C 
BRANCH   6  14
ATOM     14  C   UNL A   1      33.377  20.653  24.770  1.00  0.00     0.111 C 
BRANCH  14  15
ATOM     15  S   UNL A   1      32.735  19.778  23.312  1.00  0.00    -0.089 SA
BRANCH  15  16
ATOM     16  C   UNL A   1      32.988  18.108  23.751  1.00  0.00     0.174 A 
ATOM     17  C   UNL A   1      33.058  14.747  25.594  1.00  0.00     0.081 C 
ATOM     18  C   UNL A   1      33.129  15.952  24.731  1.00  0.00     0.115 A 
ATOM     19  N   UNL A   1      33.647  15.984  23.522  1.00  0.00    -0.143 NA
ATOM     20  S   UNL A   1      32.484  17.457  25.255  1.00  0.00    -0.091 S 
ATOM     21  N   UNL A   1      33.561  17.238  22.952  1.00  0.00    -0.132 NA
ENDBRANCH  15  16
ENDBRANCH  14  15
ENDBRANCH   6  14
BRANCH  13  22
ATOM     22  N   UNL A   1      32.793  27.189  25.830  1.00  0.00    -0.338 N 
ATOM     23  C   UNL A   1      32.899  28.482  25.383  1.00  0.00     0.254 C 
ATOM     24  H   UNL A   1      33.409  26.943  26.557  1.00  0.00     0.164 HD
ATOM     25  O   UNL A   1      33.723  29.260  25.848  1.00  0.00    -0.269 OA
BRANCH  23  26
ATOM     26  C   UNL A   1      32.021  28.931  24.303  1.00  0.00     0.075 A 
ATOM     27  C   UNL A   1      30.704  29.300  24.588  1.00  0.00     0.020 A 
ATOM     28  C   UNL A   1      32.500  28.964  22.994  1.00  0.00     0.138 A 
ATOM     29  C   UNL A   1      29.894  29.765  23.550  1.00  0.00     0.040 A 
ATOM     30  C   UNL A   1      31.706  29.450  21.966  1.00  0.00     0.079 A 
ATOM     31  F   UNL A   1      33.755  28.582  22.716  1.00  0.00    -0.206 F 
ATOM     32  C   UNL A   1      30.408  29.853  22.256  1.00  0.00     0.126 A 
ATOM     33  F   UNL A   1      29.636  30.331  21.273  1.00  0.00    -0.207 F 
ENDBRANCH  23  26
ENDBRANCH  13  22
ENDBRANCH   3   5
ENDBRANCH   2   3
ENDBRANCH   1   2
BRANCH   1  34
ATOM     34  C   UNL A   1      36.918  21.447  24.315  1.00  0.00     0.275 C 
BRANCH  34  35
ATOM     35  O   UNL A   1      37.341  21.828  25.634  1.00  0.00    -0.458 OA
BRANCH  35  36
ATOM     36  C   UNL A   1      38.639  21.598  25.940  1.00  0.00     0.338 C 
ATOM     37  O   UNL A   1      39.276  20.586  25.701  1.00  0.00    -0.246 OA
BRANCH  36  38
ATOM     38  C   UNL A   1      39.215  22.781  26.620  1.00  0.00     0.060 A 
ATOM     39  C   UNL A   1      38.706  24.055  26.388  1.00  0.00     0.016 A 
ATOM     40  C   UNL A   1      40.372  22.639  27.390  1.00  0.00     0.016 A 
ATOM     41  C   UNL A   1      39.433  25.182  26.766  1.00  0.00     0.010 A 
ATOM     42  C   UNL A   1      41.034  23.776  27.873  1.00  0.00     0.010 A 
ATOM     43  C   UNL A   1      40.617  25.067  27.504  1.00  0.00    -0.014 A 
BRANCH  43  44
ATOM     44  C   UNL A   1      41.463  26.268  27.781  1.00  0.00     0.031 A 
ATOM     45  C   UNL A   1      40.956  27.355  28.699  1.00  0.00     0.074 A 
ATOM     46  C   UNL A   1      42.712  26.386  27.283  1.00  0.00     0.049 A 
ATOM     47  N   UNL A   1      41.404  28.575  28.870  1.00  0.00    -0.248 NA
ATOM     48  C   UNL A   1      39.777  27.037  29.523  1.00  0.00     0.031 C 
ATOM     49  C   UNL A   1      43.400  25.399  26.450  1.00  0.00     0.029 A 
ATOM     50  N   UNL A   1      43.642  27.389  27.434  1.00  0.00    -0.354 N 
ATOM     51  C   UNL A   1      40.505  29.196  29.729  1.00  0.00     0.074 A 
ATOM     52  C   UNL A   1      39.500  28.213  30.069  1.00  0.00     0.031 C 
ATOM     53  C   UNL A   1      44.662  25.799  26.240  1.00  0.00     0.029 A 
ATOM     54  C   UNL A   1      44.837  27.131  26.806  1.00  0.00     0.049 A 
ATOM     55  H   UNL A   1      43.468  28.212  27.944  1.00  0.00     0.167 HD
ATOM     56  C   UNL A   1      40.513  30.473  30.183  1.00  0.00     0.037 A 
ATOM     57  C   UNL A   1      45.934  27.895  26.649  1.00  0.00     0.037 A 
ATOM     58  C   UNL A   1      41.574  31.415  29.941  1.00  0.00     0.049 A 
ATOM     59  C   UNL A   1      45.932  29.302  27.166  1.00  0.00     0.074 A 
ATOM     60  C   UNL A   1      41.675  32.731  30.359  1.00  0.00     0.029 A 
ATOM     61  N   UNL A   1      42.741  31.126  29.251  1.00  0.00    -0.354 N 
ATOM     62  N   UNL A   1      45.003  29.932  27.844  1.00  0.00    -0.248 NA
ATOM     63  C   UNL A   1      47.111  30.121  26.856  1.00  0.00     0.031 C 
ATOM     64  C   UNL A   1      42.898  33.242  29.911  1.00  0.00     0.029 A 
ATOM     65  C   UNL A   1      43.570  32.235  29.238  1.00  0.00     0.049 A 
ATOM     66  H   UNL A   1      42.949  30.259  28.832  1.00  0.00     0.167 HD
ATOM     67  C   UNL A   1      45.479  31.223  28.028  1.00  0.00     0.074 A 
ATOM     68  C   UNL A   1      46.795  31.277  27.424  1.00  0.00     0.031 C 
ATOM     69  C   UNL A   1      44.871  32.275  28.626  1.00  0.00     0.037 A 
BRANCH  56  70
ATOM     70  C   UNL A   1      39.316  30.944  30.956  1.00  0.00     0.057 A 
ATOM     71  C   UNL A   1      38.197  31.515  30.340  1.00  0.00     0.134 A 
ATOM     72  C   UNL A   1      39.277  30.782  32.348  1.00  0.00     0.134 A 
ATOM     73  F   UNL A   1      38.178  31.710  29.013  1.00  0.00    -0.206 F 
ATOM     74  C   UNL A   1      37.088  31.924  31.083  1.00  0.00     0.040 A 
ATOM     75  C   UNL A   1      38.165  31.166  33.098  1.00  0.00     0.040 A 
ATOM     76  F   UNL A   1      40.314  30.234  33.001  1.00  0.00    -0.206 F 
ATOM     77  C   UNL A   1      37.067  31.743  32.465  1.00  0.00     0.006 A 
ENDBRANCH  56  70
BRANCH  57  78
ATOM     78  C   UNL A   1      47.103  27.365  25.903  1.00  0.00     0.057 A 
ATOM     79  C   UNL A   1      47.211  27.529  24.517  1.00  0.00     0.134 A 
ATOM     80  C   UNL A   1      48.141  26.687  26.555  1.00  0.00     0.134 A 
ATOM     81  F   UNL A   1      46.230  28.135  23.831  1.00  0.00    -0.206 F 
ATOM     82  C   UNL A   1      48.310  27.042  23.807  1.00  0.00     0.040 A 
ATOM     83  C   UNL A   1      49.259  26.219  25.863  1.00  0.00     0.040 A 
ATOM     84  F   UNL A   1      48.093  26.490  27.880  1.00  0.00    -0.206 F 
ATOM     85  C   UNL A   1      49.343  26.394  24.483  1.00  0.00     0.006 A 
ENDBRANCH  57  78
BRANCH  69  86
ATOM     86  C   UNL A   1      45.630  33.566  28.656  1.00  0.00     0.057 A 
ATOM     87  C   UNL A   1      45.470  34.530  27.654  1.00  0.00     0.134 A 
ATOM     88  C   UNL A   1      46.518  33.853  29.699  1.00  0.00     0.134 A 
ATOM     89  F   UNL A   1      44.644  34.305  26.620  1.00  0.00    -0.206 F 
ATOM     90  C   UNL A   1      46.185  35.728  27.675  1.00  0.00     0.040 A 
ATOM     91  C   UNL A   1      47.225  35.055  29.742  1.00  0.00     0.040 A 
ATOM     92  F   UNL A   1      46.711  32.971  30.692  1.00  0.00    -0.206 F 
ATOM     93  C   UNL A   1      47.064  35.994  28.725  1.00  0.00     0.006 A 
ENDBRANCH  69  86
ENDBRANCH  43  44
ENDBRANCH  36  38
ENDBRANCH  35  36
ENDBRANCH  34  35
ENDBRANCH   1  34
TORSDOF 16
ENDMDL
