MODEL 1
REMARK VINA RESULT:     -12.9      0.000      0.000
REMARK SMILES Cc1nc(-c2ccccc2)sc1C(=O)N[C@@H](CC1=c2ccccc2=NC1)C(=O)OCCOC(=O)c1ccc(-c2c3nc(c(-c4c(F)cccc4F)c4ccc([nH]4)c(-c4c(F)cccc4F)c4nc(c(-c5c(F)cccc5F)c5ccc2[nH]5)C=C4)C=C3)cc1
REMARK SMILES IDX 30 1 29 2 27 3 28 4 16 5 15 6 13 7 14 8 12 10 1 11 2 12 3 13
REMARK SMILES IDX 4 14 11 15 5 16 6 17 10 18 7 19 9 20 8 21 17 22 18 23 19 24
REMARK SMILES IDX 26 25 20 26 24 27 25 28 21 29 23 30 22 31 31 32 32 33 33 34
REMARK SMILES IDX 34 35 35 36 36 37 88 38 37 39 87 40 38 41 39 42 40 43 81 44
REMARK SMILES IDX 41 45 86 46 80 47 82 48 42 49 85 50 79 51 78 52 43 54 69 55
REMARK SMILES IDX 52 56 68 57 53 58 56 59 67 60 83 61 54 62 55 63 66 65 84 66
REMARK SMILES IDX 57 67 44 68 45 69 50 70 46 71 47 72 49 73 51 74 48 75 70 76
REMARK SMILES IDX 71 77 76 78 72 79 73 80 75 81 77 82 74 83 58 84 59 85 64 86
REMARK SMILES IDX 60 87 61 88 63 89 65 90 62 91
REMARK H PARENT 15 9 82 53 56 64
REMARK Flexibility Score: inf
ROOT
ATOM      1  C   UNL A   1      35.660  20.106  24.963  1.00  0.00     0.274 C 
ENDROOT
BRANCH   1   2
ATOM      2  O   UNL A   1      35.352  21.513  24.995  1.00  0.00    -0.461 OA
BRANCH   2   3
ATOM      3  C   UNL A   1      34.652  21.940  26.078  1.00  0.00     0.329 C 
ATOM      4  O   UNL A   1      34.794  21.522  27.222  1.00  0.00    -0.250 OA
BRANCH   3   5
ATOM      5  C   UNL A   1      33.589  22.990  25.727  1.00  0.00     0.196 C 
BRANCH   5   6
ATOM      6  N   UNL A   1      32.386  22.987  26.548  1.00  0.00    -0.338 N 
ATOM      7  C   UNL A   1      31.185  23.647  26.468  1.00  0.00     0.264 C 
ATOM      8  O   UNL A   1      30.497  23.539  27.491  1.00  0.00    -0.268 OA
ATOM      9  H   UNL A   1      32.447  22.382  27.322  1.00  0.00     0.164 HD
BRANCH   7  10
ATOM     10  C   UNL A   1      30.710  24.367  25.288  1.00  0.00     0.115 A 
ATOM     11  C   UNL A   1      31.031  23.043  23.031  1.00  0.00     0.068 C 
ATOM     12  C   UNL A   1      30.592  24.151  23.916  1.00  0.00     0.062 A 
ATOM     13  N   UNL A   1      29.987  25.180  23.210  1.00  0.00    -0.241 NA
ATOM     14  C   UNL A   1      29.793  26.233  23.963  1.00  0.00     0.124 A 
ATOM     15  S   UNL A   1      30.174  26.009  25.606  1.00  0.00    -0.108 S 
BRANCH  14  16
ATOM     16  C   UNL A   1      29.259  27.493  23.454  1.00  0.00     0.010 A 
ATOM     17  C   UNL A   1      27.883  27.736  23.547  1.00  0.00     0.011 A 
ATOM     18  C   UNL A   1      30.067  28.415  22.775  1.00  0.00     0.011 A 
ATOM     19  C   UNL A   1      27.325  28.892  23.002  1.00  0.00     0.001 A 
ATOM     20  C   UNL A   1      29.503  29.563  22.209  1.00  0.00     0.001 A 
ATOM     21  C   UNL A   1      28.134  29.803  22.329  1.00  0.00     0.000 A 
ENDBRANCH  14  16
ENDBRANCH   7  10
ENDBRANCH   5   6
BRANCH   5  22
ATOM     22  C   UNL A   1      34.238  24.391  25.720  1.00  0.00     0.070 C 
BRANCH  22  23
ATOM     23  C   UNL A   1      34.030  25.158  24.451  1.00  0.00    -0.037 C 
ATOM     24  C   UNL A   1      33.779  26.456  24.306  1.00  0.00     0.001 A 
ATOM     25  C   UNL A   1      34.106  24.481  23.115  1.00  0.00     0.174 C 
ATOM     26  C   UNL A   1      33.588  27.560  25.191  1.00  0.00     0.010 A 
ATOM     27  C   UNL A   1      33.803  26.628  22.845  1.00  0.00     0.065 A 
ATOM     28  N   UNL A   1      33.974  25.567  22.116  1.00  0.00    -0.280 NA
ATOM     29  C   UNL A   1      33.472  28.791  24.668  1.00  0.00     0.001 A 
ATOM     30  C   UNL A   1      33.669  28.013  22.347  1.00  0.00     0.028 A 
ATOM     31  C   UNL A   1      33.528  29.013  23.233  1.00  0.00     0.002 A 
ENDBRANCH  22  23
ENDBRANCH   5  22
ENDBRANCH   3   5
ENDBRANCH   2   3
ENDBRANCH   1   2
BRANCH   1  32
ATOM     32  C   UNL A   1      37.173  19.887  24.928  1.00  0.00     0.275 C 
BRANCH  32  33
ATOM     33  O   UNL A   1      37.878  21.076  25.336  1.00  0.00    -0.458 OA
BRANCH  33  34
ATOM     34  C   UNL A   1      39.066  20.842  25.938  1.00  0.00     0.338 C 
ATOM     35  O   UNL A   1      39.692  19.792  25.972  1.00  0.00    -0.246 OA
BRANCH  34  36
ATOM     36  C   UNL A   1      39.595  22.086  26.507  1.00  0.00     0.060 A 
ATOM     37  C   UNL A   1      39.020  23.289  26.107  1.00  0.00     0.016 A 
ATOM     38  C   UNL A   1      40.742  22.079  27.297  1.00  0.00     0.016 A 
ATOM     39  C   UNL A   1      39.617  24.498  26.450  1.00  0.00     0.010 A 
ATOM     40  C   UNL A   1      41.317  23.297  27.683  1.00  0.00     0.010 A 
ATOM     41  C   UNL A   1      40.775  24.518  27.239  1.00  0.00    -0.014 A 
BRANCH  41  42
ATOM     42  C   UNL A   1      41.449  25.812  27.525  1.00  0.00     0.031 A 
ATOM     43  C   UNL A   1      40.756  26.858  28.357  1.00  0.00     0.074 A 
ATOM     44  C   UNL A   1      42.719  26.023  27.126  1.00  0.00     0.049 A 
ATOM     45  N   UNL A   1      41.144  28.075  28.646  1.00  0.00    -0.248 NA
ATOM     46  C   UNL A   1      39.470  26.478  28.962  1.00  0.00     0.031 C 
ATOM     47  C   UNL A   1      43.543  25.066  26.386  1.00  0.00     0.029 A 
ATOM     48  N   UNL A   1      43.546  27.104  27.306  1.00  0.00    -0.354 N 
ATOM     49  C   UNL A   1      40.147  28.608  29.455  1.00  0.00     0.074 A 
ATOM     50  C   UNL A   1      39.122  27.593  29.585  1.00  0.00     0.031 C 
ATOM     51  C   UNL A   1      44.766  25.589  26.205  1.00  0.00     0.029 A 
ATOM     52  C   UNL A   1      44.791  26.944  26.749  1.00  0.00     0.049 A 
ATOM     53  H   UNL A   1      43.272  27.918  27.790  1.00  0.00     0.167 HD
ATOM     54  C   UNL A   1      40.101  29.819  30.059  1.00  0.00     0.037 A 
ATOM     55  C   UNL A   1      45.826  27.800  26.651  1.00  0.00     0.037 A 
ATOM     56  C   UNL A   1      41.139  30.813  29.982  1.00  0.00     0.049 A 
ATOM     57  C   UNL A   1      45.695  29.187  27.212  1.00  0.00     0.074 A 
ATOM     58  C   UNL A   1      41.175  32.068  30.567  1.00  0.00     0.029 A 
ATOM     59  N   UNL A   1      42.330  30.659  29.292  1.00  0.00    -0.354 N 
ATOM     60  N   UNL A   1      44.709  29.709  27.901  1.00  0.00    -0.248 NA
ATOM     61  C   UNL A   1      46.808  30.112  26.957  1.00  0.00     0.031 C 
ATOM     62  C   UNL A   1      42.380  32.682  30.211  1.00  0.00     0.029 A 
ATOM     63  C   UNL A   1      43.106  31.798  29.429  1.00  0.00     0.049 A 
ATOM     64  H   UNL A   1      42.586  29.858  28.780  1.00  0.00     0.167 HD
ATOM     65  C   UNL A   1      45.087  31.018  28.167  1.00  0.00     0.074 A 
ATOM     66  C   UNL A   1      46.398  31.206  27.583  1.00  0.00     0.031 C 
ATOM     67  C   UNL A   1      44.403  31.979  28.834  1.00  0.00     0.037 A 
BRANCH  54  68
ATOM     68  C   UNL A   1      38.878  30.141  30.860  1.00  0.00     0.057 A 
ATOM     69  C   UNL A   1      37.773  30.784  30.290  1.00  0.00     0.134 A 
ATOM     70  C   UNL A   1      38.789  29.767  32.207  1.00  0.00     0.134 A 
ATOM     71  F   UNL A   1      37.799  31.174  29.009  1.00  0.00    -0.206 F 
ATOM     72  C   UNL A   1      36.626  31.059  31.037  1.00  0.00     0.040 A 
ATOM     73  C   UNL A   1      37.641  30.020  32.959  1.00  0.00     0.040 A 
ATOM     74  F   UNL A   1      39.812  29.141  32.808  1.00  0.00    -0.206 F 
ATOM     75  C   UNL A   1      36.556  30.671  32.375  1.00  0.00     0.006 A 
ENDBRANCH  54  68
BRANCH  55  76
ATOM     76  C   UNL A   1      47.062  27.390  25.939  1.00  0.00     0.057 A 
ATOM     77  C   UNL A   1      47.203  27.578  24.560  1.00  0.00     0.134 A 
ATOM     78  C   UNL A   1      48.125  26.784  26.621  1.00  0.00     0.134 A 
ATOM     79  F   UNL A   1      46.207  28.123  23.847  1.00  0.00    -0.206 F 
ATOM     80  C   UNL A   1      48.356  27.175  23.883  1.00  0.00     0.040 A 
ATOM     81  C   UNL A   1      49.293  26.400  25.963  1.00  0.00     0.040 A 
ATOM     82  F   UNL A   1      48.047  26.570  27.943  1.00  0.00    -0.206 F 
ATOM     83  C   UNL A   1      49.408  26.590  24.588  1.00  0.00     0.006 A 
ENDBRANCH  55  76
BRANCH  67  84
ATOM     84  C   UNL A   1      45.067  33.316  28.973  1.00  0.00     0.057 A 
ATOM     85  C   UNL A   1      44.823  34.351  28.063  1.00  0.00     0.134 A 
ATOM     86  C   UNL A   1      45.936  33.579  30.039  1.00  0.00     0.134 A 
ATOM     87  F   UNL A   1      44.013  34.156  27.012  1.00  0.00    -0.206 F 
ATOM     88  C   UNL A   1      45.436  35.598  28.198  1.00  0.00     0.040 A 
ATOM     89  C   UNL A   1      46.540  34.827  30.195  1.00  0.00     0.040 A 
ATOM     90  F   UNL A   1      46.206  32.629  30.947  1.00  0.00    -0.206 F 
ATOM     91  C   UNL A   1      46.293  35.840  29.270  1.00  0.00     0.006 A 
ENDBRANCH  67  84
ENDBRANCH  41  42
ENDBRANCH  34  36
ENDBRANCH  33  34
ENDBRANCH  32  33
ENDBRANCH   1  32
TORSDOF 16
ENDMDL
MODEL 2
REMARK VINA RESULT:     -12.8      1.154      1.848
REMARK SMILES Cc1nc(-c2ccccc2)sc1C(=O)N[C@@H](CC1=c2ccccc2=NC1)C(=O)OCCOC(=O)c1ccc(-c2c3nc(c(-c4c(F)cccc4F)c4ccc([nH]4)c(-c4c(F)cccc4F)c4nc(c(-c5c(F)cccc5F)c5ccc2[nH]5)C=C4)C=C3)cc1
REMARK SMILES IDX 30 1 29 2 27 3 28 4 16 5 15 6 13 7 14 8 12 10 1 11 2 12 3 13
REMARK SMILES IDX 4 14 11 15 5 16 6 17 10 18 7 19 9 20 8 21 17 22 18 23 19 24
REMARK SMILES IDX 26 25 20 26 24 27 25 28 21 29 23 30 22 31 31 32 32 33 33 34
REMARK SMILES IDX 34 35 35 36 36 37 88 38 37 39 87 40 38 41 39 42 40 43 81 44
REMARK SMILES IDX 41 45 86 46 80 47 82 48 42 49 85 50 79 51 78 52 43 54 69 55
REMARK SMILES IDX 52 56 68 57 53 58 56 59 67 60 83 61 54 62 55 63 66 65 84 66
REMARK SMILES IDX 57 67 44 68 45 69 50 70 46 71 47 72 49 73 51 74 48 75 70 76
REMARK SMILES IDX 71 77 76 78 72 79 73 80 75 81 77 82 74 83 58 84 59 85 64 86
REMARK SMILES IDX 60 87 61 88 63 89 65 90 62 91
REMARK H PARENT 15 9 82 53 56 64
REMARK Flexibility Score: inf
ROOT
ATOM      1  C   UNL A   1      35.239  21.230  24.852  1.00  0.00     0.274 C 
ENDROOT
BRANCH   1   2
ATOM      2  O   UNL A   1      35.482  22.647  24.945  1.00  0.00    -0.461 OA
BRANCH   2   3
ATOM      3  C   UNL A   1      35.218  23.368  23.824  1.00  0.00     0.329 C 
ATOM      4  O   UNL A   1      35.872  23.327  22.787  1.00  0.00    -0.250 OA
BRANCH   3   5
ATOM      5  C   UNL A   1      34.022  24.315  23.988  1.00  0.00     0.196 C 
BRANCH   5   6
ATOM      6  N   UNL A   1      32.713  23.684  24.095  1.00  0.00    -0.338 N 
ATOM      7  C   UNL A   1      31.429  24.136  23.921  1.00  0.00     0.264 C 
ATOM      8  O   UNL A   1      30.570  23.342  24.324  1.00  0.00    -0.268 OA
ATOM      9  H   UNL A   1      32.760  22.733  24.344  1.00  0.00     0.164 HD
BRANCH   7  10
ATOM     10  C   UNL A   1      31.073  25.398  23.275  1.00  0.00     0.115 A 
ATOM     11  C   UNL A   1      32.402  25.866  21.046  1.00  0.00     0.068 C 
ATOM     12  C   UNL A   1      31.403  26.103  22.117  1.00  0.00     0.062 A 
ATOM     13  N   UNL A   1      30.701  27.284  21.931  1.00  0.00    -0.241 NA
ATOM     14  C   UNL A   1      29.976  27.586  22.979  1.00  0.00     0.124 A 
ATOM     15  S   UNL A   1      29.960  26.397  24.195  1.00  0.00    -0.108 S 
BRANCH  14  16
ATOM     16  C   UNL A   1      29.211  28.825  23.091  1.00  0.00     0.010 A 
ATOM     17  C   UNL A   1      29.864  29.994  23.499  1.00  0.00     0.011 A 
ATOM     18  C   UNL A   1      27.822  28.851  22.909  1.00  0.00     0.011 A 
ATOM     19  C   UNL A   1      29.152  31.177  23.694  1.00  0.00     0.001 A 
ATOM     20  C   UNL A   1      27.105  30.033  23.126  1.00  0.00     0.001 A 
ATOM     21  C   UNL A   1      27.773  31.195  23.511  1.00  0.00     0.000 A 
ENDBRANCH  14  16
ENDBRANCH   7  10
ENDBRANCH   5   6
BRANCH   5  22
ATOM     22  C   UNL A   1      34.273  25.252  25.189  1.00  0.00     0.070 C 
BRANCH  22  23
ATOM     23  C   UNL A   1      33.799  26.657  24.981  1.00  0.00    -0.037 C 
ATOM     24  C   UNL A   1      33.037  27.395  25.784  1.00  0.00     0.001 A 
ATOM     25  C   UNL A   1      34.182  27.431  23.755  1.00  0.00     0.174 C 
ATOM     26  C   UNL A   1      32.384  27.191  27.036  1.00  0.00     0.010 A 
ATOM     27  C   UNL A   1      33.025  28.701  25.105  1.00  0.00     0.065 A 
ATOM     28  N   UNL A   1      33.639  28.794  23.965  1.00  0.00    -0.280 NA
ATOM     29  C   UNL A   1      31.782  28.236  27.626  1.00  0.00     0.001 A 
ATOM     30  C   UNL A   1      32.343  29.802  25.817  1.00  0.00     0.028 A 
ATOM     31  C   UNL A   1      31.778  29.553  27.011  1.00  0.00     0.002 A 
ENDBRANCH  22  23
ENDBRANCH   5  22
ENDBRANCH   3   5
ENDBRANCH   2   3
ENDBRANCH   1   2
BRANCH   1  32
ATOM     32  C   UNL A   1      36.545  20.450  25.003  1.00  0.00     0.275 C 
BRANCH  32  33
ATOM     33  O   UNL A   1      37.685  21.328  24.930  1.00  0.00    -0.458 OA
BRANCH  33  34
ATOM     34  C   UNL A   1      38.705  20.988  25.750  1.00  0.00     0.338 C 
ATOM     35  O   UNL A   1      39.166  19.873  25.945  1.00  0.00    -0.246 OA
BRANCH  34  36
ATOM     36  C   UNL A   1      39.291  22.192  26.349  1.00  0.00     0.060 A 
ATOM     37  C   UNL A   1      38.707  23.422  26.058  1.00  0.00     0.016 A 
ATOM     38  C   UNL A   1      40.490  22.127  27.054  1.00  0.00     0.016 A 
ATOM     39  C   UNL A   1      39.344  24.603  26.426  1.00  0.00     0.010 A 
ATOM     40  C   UNL A   1      41.108  23.316  27.466  1.00  0.00     0.010 A 
ATOM     41  C   UNL A   1      40.555  24.565  27.131  1.00  0.00    -0.014 A 
BRANCH  41  42
ATOM     42  C   UNL A   1      41.267  25.833  27.441  1.00  0.00     0.031 A 
ATOM     43  C   UNL A   1      40.591  26.898  28.264  1.00  0.00     0.074 A 
ATOM     44  C   UNL A   1      42.552  26.002  27.074  1.00  0.00     0.049 A 
ATOM     45  N   UNL A   1      41.014  28.099  28.570  1.00  0.00    -0.248 NA
ATOM     46  C   UNL A   1      39.278  26.559  28.836  1.00  0.00     0.031 C 
ATOM     47  C   UNL A   1      43.360  25.022  26.347  1.00  0.00     0.029 A 
ATOM     48  N   UNL A   1      43.411  27.054  27.280  1.00  0.00    -0.354 N 
ATOM     49  C   UNL A   1      40.016  28.662  29.358  1.00  0.00     0.074 A 
ATOM     50  C   UNL A   1      38.954  27.683  29.458  1.00  0.00     0.031 C 
ATOM     51  C   UNL A   1      44.604  25.503  26.198  1.00  0.00     0.029 A 
ATOM     52  C   UNL A   1      44.663  26.853  26.751  1.00  0.00     0.049 A 
ATOM     53  H   UNL A   1      43.155  27.873  27.762  1.00  0.00     0.167 HD
ATOM     54  C   UNL A   1      39.998  29.870  29.970  1.00  0.00     0.037 A 
ATOM     55  C   UNL A   1      45.729  27.674  26.683  1.00  0.00     0.037 A 
ATOM     56  C   UNL A   1      41.072  30.828  29.923  1.00  0.00     0.049 A 
ATOM     57  C   UNL A   1      45.632  29.061  27.250  1.00  0.00     0.074 A 
ATOM     58  C   UNL A   1      41.137  32.077  30.517  1.00  0.00     0.029 A 
ATOM     59  N   UNL A   1      42.272  30.636  29.261  1.00  0.00    -0.354 N 
ATOM     60  N   UNL A   1      44.650  29.613  27.919  1.00  0.00    -0.248 NA
ATOM     61  C   UNL A   1      46.783  29.948  27.027  1.00  0.00     0.031 C 
ATOM     62  C   UNL A   1      42.371  32.652  30.193  1.00  0.00     0.029 A 
ATOM     63  C   UNL A   1      43.083  31.748  29.423  1.00  0.00     0.049 A 
ATOM     64  H   UNL A   1      42.513  29.831  28.749  1.00  0.00     0.167 HD
ATOM     65  C   UNL A   1      45.065  30.906  28.203  1.00  0.00     0.074 A 
ATOM     66  C   UNL A   1      46.396  31.052  27.650  1.00  0.00     0.031 C 
ATOM     67  C   UNL A   1      44.400  31.887  28.860  1.00  0.00     0.037 A 
BRANCH  54  68
ATOM     68  C   UNL A   1      38.768  30.230  30.744  1.00  0.00     0.057 A 
ATOM     69  C   UNL A   1      37.698  30.912  30.152  1.00  0.00     0.134 A 
ATOM     70  C   UNL A   1      38.636  29.854  32.086  1.00  0.00     0.134 A 
ATOM     71  F   UNL A   1      37.767  31.306  28.873  1.00  0.00    -0.206 F 
ATOM     72  C   UNL A   1      36.544  31.222  30.873  1.00  0.00     0.040 A 
ATOM     73  C   UNL A   1      37.480  30.142  32.813  1.00  0.00     0.040 A 
ATOM     74  F   UNL A   1      39.623  29.192  32.708  1.00  0.00    -0.206 F 
ATOM     75  C   UNL A   1      36.432  30.832  32.207  1.00  0.00     0.006 A 
ENDBRANCH  54  68
BRANCH  55  76
ATOM     76  C   UNL A   1      46.966  27.225  25.997  1.00  0.00     0.057 A 
ATOM     77  C   UNL A   1      47.126  27.372  24.615  1.00  0.00     0.134 A 
ATOM     78  C   UNL A   1      48.012  26.622  26.709  1.00  0.00     0.134 A 
ATOM     79  F   UNL A   1      46.147  27.912  23.876  1.00  0.00    -0.206 F 
ATOM     80  C   UNL A   1      48.281  26.932  23.964  1.00  0.00     0.040 A 
ATOM     81  C   UNL A   1      49.181  26.202  26.075  1.00  0.00     0.040 A 
ATOM     82  F   UNL A   1      47.915  26.447  28.035  1.00  0.00    -0.206 F 
ATOM     83  C   UNL A   1      49.315  26.351  24.697  1.00  0.00     0.006 A 
ENDBRANCH  55  76
BRANCH  67  84
ATOM     84  C   UNL A   1      45.106  33.199  29.023  1.00  0.00     0.057 A 
ATOM     85  C   UNL A   1      45.944  33.447  30.116  1.00  0.00     0.134 A 
ATOM     86  C   UNL A   1      44.968  34.213  28.066  1.00  0.00     0.134 A 
ATOM     87  F   UNL A   1      46.104  32.522  31.074  1.00  0.00    -0.206 F 
ATOM     88  C   UNL A   1      46.608  34.667  30.263  1.00  0.00     0.040 A 
ATOM     89  C   UNL A   1      45.641  35.429  28.192  1.00  0.00     0.040 A 
ATOM     90  F   UNL A   1      44.183  34.034  26.993  1.00  0.00    -0.206 F 
ATOM     91  C   UNL A   1      46.461  35.659  29.296  1.00  0.00     0.006 A 
ENDBRANCH  67  84
ENDBRANCH  41  42
ENDBRANCH  34  36
ENDBRANCH  33  34
ENDBRANCH  32  33
ENDBRANCH   1  32
TORSDOF 16
ENDMDL
MODEL 3
REMARK VINA RESULT:     -12.6      0.457      5.908
REMARK SMILES Cc1nc(-c2ccccc2)sc1C(=O)N[C@@H](CC1=c2ccccc2=NC1)C(=O)OCCOC(=O)c1ccc(-c2c3nc(c(-c4c(F)cccc4F)c4ccc([nH]4)c(-c4c(F)cccc4F)c4nc(c(-c5c(F)cccc5F)c5ccc2[nH]5)C=C4)C=C3)cc1
REMARK SMILES IDX 30 1 29 2 27 3 28 4 16 5 15 6 13 7 14 8 12 10 1 11 2 12 3 13
REMARK SMILES IDX 4 14 11 15 5 16 6 17 10 18 7 19 9 20 8 21 17 22 18 23 19 24
REMARK SMILES IDX 26 25 20 26 24 27 25 28 21 29 23 30 22 31 31 32 32 33 33 34
REMARK SMILES IDX 34 35 35 36 36 37 88 38 37 39 87 40 38 41 39 42 40 43 81 44
REMARK SMILES IDX 41 45 86 46 80 47 82 48 42 49 85 50 79 51 78 52 43 54 69 55
REMARK SMILES IDX 52 56 68 57 53 58 56 59 67 60 83 61 54 62 55 63 66 65 84 66
REMARK SMILES IDX 57 67 44 68 45 69 50 70 46 71 47 72 49 73 51 74 48 75 70 76
REMARK SMILES IDX 71 77 76 78 72 79 73 80 75 81 77 82 74 83 58 84 59 85 64 86
REMARK SMILES IDX 60 87 61 88 63 89 65 90 62 91
REMARK H PARENT 15 9 82 53 56 64
REMARK Flexibility Score: inf
ROOT
ATOM      1  C   UNL A   1      35.854  20.264  24.992  1.00  0.00     0.274 C 
ENDROOT
BRANCH   1   2
ATOM      2  O   UNL A   1      35.610  21.679  25.099  1.00  0.00    -0.461 OA
BRANCH   2   3
ATOM      3  C   UNL A   1      34.869  22.074  26.168  1.00  0.00     0.329 C 
ATOM      4  O   UNL A   1      35.039  21.697  27.323  1.00  0.00    -0.250 OA
BRANCH   3   5
ATOM      5  C   UNL A   1      33.725  23.021  25.786  1.00  0.00     0.196 C 
BRANCH   5   6
ATOM      6  N   UNL A   1      32.511  22.919  26.586  1.00  0.00    -0.338 N 
ATOM      7  C   UNL A   1      31.275  23.511  26.509  1.00  0.00     0.264 C 
ATOM      8  O   UNL A   1      30.580  23.328  27.517  1.00  0.00    -0.268 OA
ATOM      9  H   UNL A   1      32.597  22.294  27.342  1.00  0.00     0.164 HD
BRANCH   7  10
ATOM     10  C   UNL A   1      30.775  24.241  25.346  1.00  0.00     0.115 A 
ATOM     11  C   UNL A   1      31.102  22.961  23.064  1.00  0.00     0.068 C 
ATOM     12  C   UNL A   1      30.649  24.045  23.971  1.00  0.00     0.062 A 
ATOM     13  N   UNL A   1      30.018  25.074  23.288  1.00  0.00    -0.241 NA
ATOM     14  C   UNL A   1      29.810  26.111  24.061  1.00  0.00     0.124 A 
ATOM     15  S   UNL A   1      30.211  25.866  25.696  1.00  0.00    -0.108 S 
BRANCH  14  16
ATOM     16  C   UNL A   1      29.247  27.368  23.577  1.00  0.00     0.010 A 
ATOM     17  C   UNL A   1      27.862  27.565  23.647  1.00  0.00     0.011 A 
ATOM     18  C   UNL A   1      30.039  28.336  22.946  1.00  0.00     0.011 A 
ATOM     19  C   UNL A   1      27.279  28.718  23.124  1.00  0.00     0.001 A 
ATOM     20  C   UNL A   1      29.451  29.482  22.402  1.00  0.00     0.001 A 
ATOM     21  C   UNL A   1      28.073  29.675  22.498  1.00  0.00     0.000 A 
ENDBRANCH  14  16
ENDBRANCH   7  10
ENDBRANCH   5   6
BRANCH   5  22
ATOM     22  C   UNL A   1      34.246  24.474  25.772  1.00  0.00     0.070 C 
BRANCH  22  23
ATOM     23  C   UNL A   1      34.042  25.187  24.472  1.00  0.00    -0.037 C 
ATOM     24  C   UNL A   1      33.755  26.471  24.275  1.00  0.00     0.001 A 
ATOM     25  C   UNL A   1      34.168  24.466  23.163  1.00  0.00     0.174 C 
ATOM     26  C   UNL A   1      33.511  27.599  25.114  1.00  0.00     0.010 A 
ATOM     27  C   UNL A   1      33.805  26.591  22.808  1.00  0.00     0.065 A 
ATOM     28  N   UNL A   1      34.024  25.511  22.123  1.00  0.00    -0.280 NA
ATOM     29  C   UNL A   1      33.369  28.807  24.545  1.00  0.00     0.001 A 
ATOM     30  C   UNL A   1      33.639  27.952  22.258  1.00  0.00     0.028 A 
ATOM     31  C   UNL A   1      33.448  28.978  23.103  1.00  0.00     0.002 A 
ENDBRANCH  22  23
ENDBRANCH   5  22
ENDBRANCH   3   5
ENDBRANCH   2   3
ENDBRANCH   1   2
BRANCH   1  32
ATOM     32  C   UNL A   1      37.355  19.974  25.018  1.00  0.00     0.275 C 
BRANCH  32  33
ATOM     33  O   UNL A   1      38.109  21.166  25.312  1.00  0.00    -0.458 OA
BRANCH  33  34
ATOM     34  C   UNL A   1      39.236  20.953  26.026  1.00  0.00     0.338 C 
ATOM     35  O   UNL A   1      39.870  19.913  26.128  1.00  0.00    -0.246 OA
BRANCH  34  36
ATOM     36  C   UNL A   1      39.692  22.208  26.633  1.00  0.00     0.060 A 
ATOM     37  C   UNL A   1      39.159  23.402  26.154  1.00  0.00     0.016 A 
ATOM     38  C   UNL A   1      40.744  22.219  27.547  1.00  0.00     0.016 A 
ATOM     39  C   UNL A   1      39.708  24.619  26.544  1.00  0.00     0.010 A 
ATOM     40  C   UNL A   1      41.266  23.447  27.977  1.00  0.00     0.010 A 
ATOM     41  C   UNL A   1      40.771  24.657  27.458  1.00  0.00    -0.014 A 
BRANCH  41  42
ATOM     42  C   UNL A   1      41.402  25.959  27.799  1.00  0.00     0.031 A 
ATOM     43  C   UNL A   1      42.803  26.265  27.337  1.00  0.00     0.074 A 
ATOM     44  C   UNL A   1      40.697  26.913  28.437  1.00  0.00     0.049 A 
ATOM     45  N   UNL A   1      43.552  27.306  27.601  1.00  0.00    -0.248 NA
ATOM     46  C   UNL A   1      43.435  25.281  26.444  1.00  0.00     0.031 C 
ATOM     47  C   UNL A   1      39.304  26.790  28.868  1.00  0.00     0.029 A 
ATOM     48  N   UNL A   1      41.051  28.186  28.815  1.00  0.00    -0.354 N 
ATOM     49  C   UNL A   1      44.745  27.098  26.918  1.00  0.00     0.074 A 
ATOM     50  C   UNL A   1      44.631  25.816  26.253  1.00  0.00     0.031 C 
ATOM     51  C   UNL A   1      38.912  27.948  29.421  1.00  0.00     0.029 A 
ATOM     52  C   UNL A   1      40.043  28.870  29.451  1.00  0.00     0.049 A 
ATOM     53  H   UNL A   1      41.941  28.571  28.646  1.00  0.00     0.167 HD
ATOM     54  C   UNL A   1      45.823  27.911  26.826  1.00  0.00     0.037 A 
ATOM     55  C   UNL A   1      40.037  30.087  30.028  1.00  0.00     0.037 A 
ATOM     56  C   UNL A   1      45.924  29.210  27.437  1.00  0.00     0.049 A 
ATOM     57  C   UNL A   1      41.293  30.911  30.030  1.00  0.00     0.074 A 
ATOM     58  C   UNL A   1      46.983  30.102  27.393  1.00  0.00     0.029 A 
ATOM     59  N   UNL A   1      44.927  29.809  28.188  1.00  0.00    -0.354 N 
ATOM     60  N   UNL A   1      42.444  30.664  29.453  1.00  0.00    -0.248 NA
ATOM     61  C   UNL A   1      41.257  32.170  30.789  1.00  0.00     0.031 C 
ATOM     62  C   UNL A   1      46.632  31.234  28.138  1.00  0.00     0.029 A 
ATOM     63  C   UNL A   1      45.346  31.056  28.620  1.00  0.00     0.049 A 
ATOM     64  H   UNL A   1      44.051  29.407  28.386  1.00  0.00     0.167 HD
ATOM     65  C   UNL A   1      43.264  31.738  29.772  1.00  0.00     0.074 A 
ATOM     66  C   UNL A   1      42.476  32.646  30.577  1.00  0.00     0.031 C 
ATOM     67  C   UNL A   1      44.559  31.947  29.430  1.00  0.00     0.037 A 
BRANCH  54  68
ATOM     68  C   UNL A   1      46.993  27.414  26.033  1.00  0.00     0.057 A 
ATOM     69  C   UNL A   1      48.061  26.743  26.639  1.00  0.00     0.134 A 
ATOM     70  C   UNL A   1      47.030  27.573  24.643  1.00  0.00     0.134 A 
ATOM     71  F   UNL A   1      48.088  26.565  27.967  1.00  0.00    -0.206 F 
ATOM     72  C   UNL A   1      49.136  26.261  25.891  1.00  0.00     0.040 A 
ATOM     73  C   UNL A   1      48.090  27.079  23.881  1.00  0.00     0.040 A 
ATOM     74  F   UNL A   1      46.032  28.201  24.003  1.00  0.00    -0.206 F 
ATOM     75  C   UNL A   1      49.149  26.424  24.506  1.00  0.00     0.006 A 
ENDBRANCH  54  68
BRANCH  55  76
ATOM     76  C   UNL A   1      38.813  30.579  30.708  1.00  0.00     0.057 A 
ATOM     77  C   UNL A   1      37.867  31.354  30.029  1.00  0.00     0.134 A 
ATOM     78  C   UNL A   1      38.570  30.299  32.058  1.00  0.00     0.134 A 
ATOM     79  F   UNL A   1      38.059  31.682  28.743  1.00  0.00    -0.206 F 
ATOM     80  C   UNL A   1      36.723  31.835  30.670  1.00  0.00     0.040 A 
ATOM     81  C   UNL A   1      37.421  30.752  32.705  1.00  0.00     0.040 A 
ATOM     82  F   UNL A   1      39.444  29.567  32.766  1.00  0.00    -0.206 F 
ATOM     83  C   UNL A   1      36.496  31.528  32.011  1.00  0.00     0.006 A 
ENDBRANCH  55  76
BRANCH  67  84
ATOM     84  C   UNL A   1      45.197  33.213  29.919  1.00  0.00     0.057 A 
ATOM     85  C   UNL A   1      45.030  34.425  29.240  1.00  0.00     0.134 A 
ATOM     86  C   UNL A   1      45.962  33.224  31.092  1.00  0.00     0.134 A 
ATOM     87  F   UNL A   1      44.323  34.475  28.101  1.00  0.00    -0.206 F 
ATOM     88  C   UNL A   1      45.618  35.604  29.701  1.00  0.00     0.040 A 
ATOM     89  C   UNL A   1      46.538  34.400  31.574  1.00  0.00     0.040 A 
ATOM     90  F   UNL A   1      46.153  32.095  31.791  1.00  0.00    -0.206 F 
ATOM     91  C   UNL A   1      46.370  35.594  30.874  1.00  0.00     0.006 A 
ENDBRANCH  67  84
ENDBRANCH  41  42
ENDBRANCH  34  36
ENDBRANCH  33  34
ENDBRANCH  32  33
ENDBRANCH   1  32
TORSDOF 16
ENDMDL
