MODEL 1
REMARK VINA RESULT:     -11.2      0.000      0.000
REMARK SMILES CCN(C(=O)c1ccc(C)cc1F)[C@@H]1COC[C@@H]1C(=O)OCCOC(=O)c1ccc(-c2c3nc(c(-c4c(F)cccc4F)c4ccc([nH]4)c(-c4c(F)cccc4F)c4nc(c(-c5c(F)cccc5F)c5ccc2[nH]5)C=C4)C=C3)cc1
REMARK SMILES IDX 22 1 21 2 19 3 20 4 18 5 14 6 15 7 16 8 17 9 3 10 2 11 1 12
REMARK SMILES IDX 4 13 5 14 6 15 7 16 12 17 8 18 11 19 13 20 9 21 10 22 23 23
REMARK SMILES IDX 24 24 25 25 26 26 27 27 28 28 80 29 29 30 79 31 30 32 31 33
REMARK SMILES IDX 32 34 73 35 33 36 78 37 72 38 74 39 34 40 77 41 71 42 70 43
REMARK SMILES IDX 35 45 61 46 44 47 60 48 45 49 48 50 59 51 75 52 46 53 47 54
REMARK SMILES IDX 58 56 76 57 49 58 36 59 37 60 42 61 38 62 39 63 41 64 43 65
REMARK SMILES IDX 40 66 62 67 63 68 68 69 64 70 65 71 67 72 69 73 66 74 50 75
REMARK SMILES IDX 51 76 56 77 52 78 53 79 55 80 57 81 54 82
REMARK H PARENT 74 44 48 55
REMARK Flexibility Score: inf
ROOT
ATOM      1  C   UNL A   1      31.673  28.213  26.523  1.00  0.00     0.274 C 
ENDROOT
BRANCH   1   2
ATOM      2  O   UNL A   1      31.761  27.075  25.645  1.00  0.00    -0.462 OA
BRANCH   2   3
ATOM      3  C   UNL A   1      30.665  26.293  25.541  1.00  0.00     0.313 C 
ATOM      4  O   UNL A   1      30.095  25.813  26.517  1.00  0.00    -0.252 OA
BRANCH   3   5
ATOM      5  C   UNL A   1      30.307  25.928  24.108  1.00  0.00     0.150 C 
ATOM      6  C   UNL A   1      30.934  26.600  22.880  1.00  0.00     0.127 C 
ATOM      7  C   UNL A   1      30.185  27.930  22.815  1.00  0.00     0.186 C 
ATOM      8  O   UNL A   1      28.887  27.708  23.381  1.00  0.00    -0.378 OA
ATOM      9  C   UNL A   1      28.851  26.358  23.883  1.00  0.00     0.177 C 
BRANCH   6  10
ATOM     10  N   UNL A   1      32.376  26.729  22.614  1.00  0.00    -0.333 N 
BRANCH  10  11
ATOM     11  C   UNL A   1      32.819  28.067  22.169  1.00  0.00     0.117 C 
ATOM     12  C   UNL A   1      34.027  28.577  22.951  1.00  0.00     0.027 C 
ENDBRANCH  10  11
BRANCH  10  13
ATOM     13  C   UNL A   1      33.109  25.623  22.165  1.00  0.00     0.257 C 
ATOM     14  O   UNL A   1      33.275  25.448  20.959  1.00  0.00    -0.269 OA
BRANCH  13  15
ATOM     15  C   UNL A   1      33.700  24.672  23.171  1.00  0.00     0.075 A 
ATOM     16  C   UNL A   1      34.396  25.086  24.318  1.00  0.00     0.017 A 
ATOM     17  C   UNL A   1      33.547  23.297  22.975  1.00  0.00     0.136 A 
ATOM     18  C   UNL A   1      35.067  24.161  25.132  1.00  0.00     0.004 A 
ATOM     19  C   UNL A   1      34.181  22.367  23.806  1.00  0.00     0.043 A 
ATOM     20  F   UNL A   1      32.778  22.807  21.992  1.00  0.00    -0.206 F 
ATOM     21  C   UNL A   1      35.000  22.795  24.854  1.00  0.00    -0.048 A 
ATOM     22  C   UNL A   1      35.750  21.795  25.683  1.00  0.00     0.044 C 
ENDBRANCH  13  15
ENDBRANCH  10  13
ENDBRANCH   6  10
ENDBRANCH   3   5
ENDBRANCH   2   3
ENDBRANCH   1   2
BRANCH   1  23
ATOM     23  C   UNL A   1      31.755  29.505  25.722  1.00  0.00     0.275 C 
BRANCH  23  24
ATOM     24  O   UNL A   1      33.060  30.084  25.885  1.00  0.00    -0.458 OA
BRANCH  24  25
ATOM     25  C   UNL A   1      33.142  31.078  26.792  1.00  0.00     0.338 C 
ATOM     26  O   UNL A   1      32.376  32.018  26.961  1.00  0.00    -0.246 OA
BRANCH  25  27
ATOM     27  C   UNL A   1      34.325  30.870  27.630  1.00  0.00     0.060 A 
ATOM     28  C   UNL A   1      35.128  31.959  27.961  1.00  0.00     0.016 A 
ATOM     29  C   UNL A   1      34.704  29.575  27.979  1.00  0.00     0.016 A 
ATOM     30  C   UNL A   1      36.355  31.754  28.580  1.00  0.00     0.010 A 
ATOM     31  C   UNL A   1      35.891  29.381  28.684  1.00  0.00     0.010 A 
ATOM     32  C   UNL A   1      36.737  30.467  28.975  1.00  0.00    -0.014 A 
BRANCH  32  33
ATOM     33  C   UNL A   1      38.008  30.253  29.708  1.00  0.00     0.031 A 
ATOM     34  C   UNL A   1      39.104  29.427  29.100  1.00  0.00     0.074 A 
ATOM     35  C   UNL A   1      38.158  30.778  30.939  1.00  0.00     0.049 A 
ATOM     36  N   UNL A   1      40.184  28.946  29.660  1.00  0.00    -0.248 NA
ATOM     37  C   UNL A   1      38.959  29.078  27.677  1.00  0.00     0.031 C 
ATOM     38  C   UNL A   1      37.178  31.625  31.624  1.00  0.00     0.029 A 
ATOM     39  N   UNL A   1      39.187  30.665  31.839  1.00  0.00    -0.354 N 
ATOM     40  C   UNL A   1      40.818  28.195  28.679  1.00  0.00     0.074 A 
ATOM     41  C   UNL A   1      40.008  28.290  27.484  1.00  0.00     0.031 C 
ATOM     42  C   UNL A   1      37.657  31.966  32.829  1.00  0.00     0.029 A 
ATOM     43  C   UNL A   1      38.938  31.299  33.032  1.00  0.00     0.049 A 
ATOM     44  H   UNL A   1      40.021  30.179  31.648  1.00  0.00     0.167 HD
ATOM     45  C   UNL A   1      41.967  27.485  28.779  1.00  0.00     0.037 A 
ATOM     46  C   UNL A   1      39.636  31.303  34.181  1.00  0.00     0.037 A 
ATOM     47  C   UNL A   1      42.789  27.439  29.960  1.00  0.00     0.049 A 
ATOM     48  C   UNL A   1      40.905  30.510  34.264  1.00  0.00     0.074 A 
ATOM     49  C   UNL A   1      43.983  26.768  30.155  1.00  0.00     0.029 A 
ATOM     50  N   UNL A   1      42.506  28.105  31.143  1.00  0.00    -0.354 N 
ATOM     51  N   UNL A   1      41.472  29.765  33.346  1.00  0.00    -0.248 NA
ATOM     52  C   UNL A   1      41.622  30.540  35.545  1.00  0.00     0.031 C 
ATOM     53  C   UNL A   1      44.409  27.007  31.467  1.00  0.00     0.029 A 
ATOM     54  C   UNL A   1      43.498  27.853  32.077  1.00  0.00     0.049 A 
ATOM     55  H   UNL A   1      41.716  28.673  31.298  1.00  0.00     0.167 HD
ATOM     56  C   UNL A   1      42.613  29.241  33.935  1.00  0.00     0.074 A 
ATOM     57  C   UNL A   1      42.670  29.771  35.283  1.00  0.00     0.031 C 
ATOM     58  C   UNL A   1      43.529  28.391  33.412  1.00  0.00     0.037 A 
BRANCH  45  59
ATOM     59  C   UNL A   1      42.389  26.671  27.592  1.00  0.00     0.057 A 
ATOM     60  C   UNL A   1      42.005  25.335  27.430  1.00  0.00     0.134 A 
ATOM     61  C   UNL A   1      43.152  27.254  26.572  1.00  0.00     0.134 A 
ATOM     62  F   UNL A   1      41.286  24.713  28.378  1.00  0.00    -0.206 F 
ATOM     63  C   UNL A   1      42.373  24.603  26.299  1.00  0.00     0.040 A 
ATOM     64  C   UNL A   1      43.510  26.539  25.428  1.00  0.00     0.040 A 
ATOM     65  F   UNL A   1      43.551  28.531  26.665  1.00  0.00    -0.206 F 
ATOM     66  C   UNL A   1      43.122  25.207  25.291  1.00  0.00     0.006 A 
ENDBRANCH  45  59
BRANCH  46  67
ATOM     67  C   UNL A   1      39.115  32.048  35.353  1.00  0.00     0.057 A 
ATOM     68  C   UNL A   1      39.388  33.408  35.527  1.00  0.00     0.134 A 
ATOM     69  C   UNL A   1      38.311  31.422  36.314  1.00  0.00     0.134 A 
ATOM     70  F   UNL A   1      40.171  34.056  34.651  1.00  0.00    -0.206 F 
ATOM     71  C   UNL A   1      38.884  34.120  36.615  1.00  0.00     0.040 A 
ATOM     72  C   UNL A   1      37.778  32.127  37.394  1.00  0.00     0.040 A 
ATOM     73  F   UNL A   1      38.009  30.120  36.201  1.00  0.00    -0.206 F 
ATOM     74  C   UNL A   1      38.068  33.481  37.548  1.00  0.00     0.006 A 
ENDBRANCH  46  67
BRANCH  58  75
ATOM     75  C   UNL A   1      44.670  28.001  34.299  1.00  0.00     0.057 A 
ATOM     76  C   UNL A   1      44.613  26.859  35.106  1.00  0.00     0.134 A 
ATOM     77  C   UNL A   1      45.842  28.766  34.332  1.00  0.00     0.134 A 
ATOM     78  F   UNL A   1      43.509  26.095  35.128  1.00  0.00    -0.206 F 
ATOM     79  C   UNL A   1      45.678  26.501  35.933  1.00  0.00     0.040 A 
ATOM     80  C   UNL A   1      46.920  28.408  35.141  1.00  0.00     0.040 A 
ATOM     81  F   UNL A   1      45.957  29.869  33.577  1.00  0.00    -0.206 F 
ATOM     82  C   UNL A   1      46.837  27.274  35.948  1.00  0.00     0.006 A 
ENDBRANCH  58  75
ENDBRANCH  32  33
ENDBRANCH  25  27
ENDBRANCH  24  25
ENDBRANCH  23  24
ENDBRANCH   1  23
TORSDOF 15
ENDMDL
MODEL 2
REMARK VINA RESULT:     -11.0      5.647      9.574
REMARK SMILES CCN(C(=O)c1ccc(C)cc1F)[C@@H]1COC[C@@H]1C(=O)OCCOC(=O)c1ccc(-c2c3nc(c(-c4c(F)cccc4F)c4ccc([nH]4)c(-c4c(F)cccc4F)c4nc(c(-c5c(F)cccc5F)c5ccc2[nH]5)C=C4)C=C3)cc1
REMARK SMILES IDX 22 1 21 2 19 3 20 4 18 5 14 6 15 7 16 8 17 9 3 10 2 11 1 12
REMARK SMILES IDX 4 13 5 14 6 15 7 16 12 17 8 18 11 19 13 20 9 21 10 22 23 23
REMARK SMILES IDX 24 24 25 25 26 26 27 27 28 28 80 29 29 30 79 31 30 32 31 33
REMARK SMILES IDX 32 34 73 35 33 36 78 37 72 38 74 39 34 40 77 41 71 42 70 43
REMARK SMILES IDX 35 45 61 46 44 47 60 48 45 49 48 50 59 51 75 52 46 53 47 54
REMARK SMILES IDX 58 56 76 57 49 58 36 59 37 60 42 61 38 62 39 63 41 64 43 65
REMARK SMILES IDX 40 66 62 67 63 68 68 69 64 70 65 71 67 72 69 73 66 74 50 75
REMARK SMILES IDX 51 76 56 77 52 78 53 79 55 80 57 81 54 82
REMARK H PARENT 74 44 48 55
REMARK Flexibility Score: inf
ROOT
ATOM      1  C   UNL A   1      41.854  19.540  26.334  1.00  0.00     0.274 C 
ENDROOT
BRANCH   1   2
ATOM      2  O   UNL A   1      42.758  20.155  25.395  1.00  0.00    -0.462 OA
BRANCH   2   3
ATOM      3  C   UNL A   1      43.841  19.438  25.026  1.00  0.00     0.313 C 
ATOM      4  O   UNL A   1      43.779  18.492  24.247  1.00  0.00    -0.252 OA
BRANCH   3   5
ATOM      5  C   UNL A   1      45.106  19.805  25.788  1.00  0.00     0.150 C 
ATOM      6  C   UNL A   1      45.887  21.105  25.560  1.00  0.00     0.127 C 
ATOM      7  C   UNL A   1      46.652  20.808  24.272  1.00  0.00     0.186 C 
ATOM      8  O   UNL A   1      46.874  19.393  24.234  1.00  0.00    -0.378 OA
ATOM      9  C   UNL A   1      46.194  18.810  25.362  1.00  0.00     0.177 C 
BRANCH   6  10
ATOM     10  N   UNL A   1      45.323  22.464  25.604  1.00  0.00    -0.333 N 
BRANCH  10  11
ATOM     11  C   UNL A   1      44.497  22.843  24.438  1.00  0.00     0.117 C 
ATOM     12  C   UNL A   1      43.226  23.590  24.836  1.00  0.00     0.027 C 
ENDBRANCH  10  11
BRANCH  10  13
ATOM     13  C   UNL A   1      46.009  23.488  26.269  1.00  0.00     0.257 C 
ATOM     14  O   UNL A   1      46.947  24.058  25.714  1.00  0.00    -0.269 OA
BRANCH  13  15
ATOM     15  C   UNL A   1      45.574  23.888  27.654  1.00  0.00     0.075 A 
ATOM     16  C   UNL A   1      44.349  23.508  28.225  1.00  0.00     0.017 A 
ATOM     17  C   UNL A   1      46.430  24.672  28.433  1.00  0.00     0.136 A 
ATOM     18  C   UNL A   1      43.923  24.045  29.449  1.00  0.00     0.004 A 
ATOM     19  C   UNL A   1      46.027  25.177  29.674  1.00  0.00     0.043 A 
ATOM     20  F   UNL A   1      47.676  24.962  28.035  1.00  0.00    -0.206 F 
ATOM     21  C   UNL A   1      44.744  24.920  30.163  1.00  0.00    -0.048 A 
ATOM     22  C   UNL A   1      44.287  25.542  31.448  1.00  0.00     0.044 C 
ENDBRANCH  13  15
ENDBRANCH  10  13
ENDBRANCH   6  10
ENDBRANCH   3   5
ENDBRANCH   2   3
ENDBRANCH   1   2
BRANCH   1  23
ATOM     23  C   UNL A   1      40.493  20.220  26.278  1.00  0.00     0.275 C 
BRANCH  23  24
ATOM     24  O   UNL A   1      40.661  21.635  26.459  1.00  0.00    -0.458 OA
BRANCH  24  25
ATOM     25  C   UNL A   1      39.525  22.361  26.424  1.00  0.00     0.338 C 
ATOM     26  O   UNL A   1      38.399  21.995  26.111  1.00  0.00    -0.246 OA
BRANCH  25  27
ATOM     27  C   UNL A   1      39.811  23.728  26.862  1.00  0.00     0.060 A 
ATOM     28  C   UNL A   1      39.857  24.753  25.920  1.00  0.00     0.016 A 
ATOM     29  C   UNL A   1      40.160  23.968  28.190  1.00  0.00     0.016 A 
ATOM     30  C   UNL A   1      40.323  26.011  26.283  1.00  0.00     0.010 A 
ATOM     31  C   UNL A   1      40.537  25.255  28.573  1.00  0.00     0.010 A 
ATOM     32  C   UNL A   1      40.640  26.284  27.618  1.00  0.00    -0.014 A 
BRANCH  32  33
ATOM     33  C   UNL A   1      41.060  27.647  28.026  1.00  0.00     0.031 A 
ATOM     34  C   UNL A   1      42.511  28.031  28.004  1.00  0.00     0.074 A 
ATOM     35  C   UNL A   1      40.132  28.526  28.449  1.00  0.00     0.049 A 
ATOM     36  N   UNL A   1      43.095  29.080  28.522  1.00  0.00    -0.248 NA
ATOM     37  C   UNL A   1      43.431  27.104  27.325  1.00  0.00     0.031 C 
ATOM     38  C   UNL A   1      38.688  28.281  28.486  1.00  0.00     0.029 A 
ATOM     39  N   UNL A   1      40.266  29.799  28.941  1.00  0.00    -0.354 N 
ATOM     40  C   UNL A   1      44.453  28.915  28.282  1.00  0.00     0.074 A 
ATOM     41  C   UNL A   1      44.607  27.669  27.562  1.00  0.00     0.031 C 
ATOM     42  C   UNL A   1      38.069  29.372  28.961  1.00  0.00     0.029 A 
ATOM     43  C   UNL A   1      39.075  30.358  29.335  1.00  0.00     0.049 A 
ATOM     44  H   UNL A   1      41.131  30.266  29.005  1.00  0.00     0.167 HD
ATOM     45  C   UNL A   1      45.473  29.730  28.642  1.00  0.00     0.037 A 
ATOM     46  C   UNL A   1      38.822  31.514  29.975  1.00  0.00     0.037 A 
ATOM     47  C   UNL A   1      45.301  30.991  29.315  1.00  0.00     0.049 A 
ATOM     48  C   UNL A   1      39.970  32.398  30.360  1.00  0.00     0.074 A 
ATOM     49  C   UNL A   1      46.268  31.902  29.702  1.00  0.00     0.029 A 
ATOM     50  N   UNL A   1      44.076  31.525  29.686  1.00  0.00    -0.354 N 
ATOM     51  N   UNL A   1      41.253  32.211  30.170  1.00  0.00    -0.248 NA
ATOM     52  C   UNL A   1      39.637  33.643  31.065  1.00  0.00     0.031 C 
ATOM     53  C   UNL A   1      45.630  32.975  30.334  1.00  0.00     0.029 A 
ATOM     54  C   UNL A   1      44.264  32.749  30.308  1.00  0.00     0.049 A 
ATOM     55  H   UNL A   1      43.203  31.098  29.531  1.00  0.00     0.167 HD
ATOM     56  C   UNL A   1      41.883  33.314  30.727  1.00  0.00     0.074 A 
ATOM     57  C   UNL A   1      40.838  34.177  31.243  1.00  0.00     0.031 C 
ATOM     58  C   UNL A   1      43.207  33.587  30.814  1.00  0.00     0.037 A 
BRANCH  45  59
ATOM     59  C   UNL A   1      46.870  29.270  28.349  1.00  0.00     0.057 A 
ATOM     60  C   UNL A   1      47.603  28.490  29.251  1.00  0.00     0.134 A 
ATOM     61  C   UNL A   1      47.469  29.573  27.119  1.00  0.00     0.134 A 
ATOM     62  F   UNL A   1      47.093  28.178  30.452  1.00  0.00    -0.206 F 
ATOM     63  C   UNL A   1      48.889  28.037  28.945  1.00  0.00     0.040 A 
ATOM     64  C   UNL A   1      48.745  29.109  26.794  1.00  0.00     0.040 A 
ATOM     65  F   UNL A   1      46.819  30.314  26.209  1.00  0.00    -0.206 F 
ATOM     66  C   UNL A   1      49.460  28.341  27.711  1.00  0.00     0.006 A 
ENDBRANCH  45  59
BRANCH  46  67
ATOM     67  C   UNL A   1      37.425  31.867  30.326  1.00  0.00     0.057 A 
ATOM     68  C   UNL A   1      36.869  31.488  31.551  1.00  0.00     0.134 A 
ATOM     69  C   UNL A   1      36.623  32.615  29.455  1.00  0.00     0.134 A 
ATOM     70  F   UNL A   1      37.581  30.752  32.417  1.00  0.00    -0.206 F 
ATOM     71  C   UNL A   1      35.563  31.835  31.898  1.00  0.00     0.040 A 
ATOM     72  C   UNL A   1      35.323  32.991  29.798  1.00  0.00     0.040 A 
ATOM     73  F   UNL A   1      37.101  33.013  28.266  1.00  0.00    -0.206 F 
ATOM     74  C   UNL A   1      34.789  32.597  31.023  1.00  0.00     0.006 A 
ENDBRANCH  46  67
BRANCH  58  75
ATOM     75  C   UNL A   1      43.588  34.874  31.475  1.00  0.00     0.057 A 
ATOM     76  C   UNL A   1      43.737  36.057  30.742  1.00  0.00     0.134 A 
ATOM     77  C   UNL A   1      43.792  34.934  32.858  1.00  0.00     0.134 A 
ATOM     78  F   UNL A   1      43.570  36.058  29.410  1.00  0.00    -0.206 F 
ATOM     79  C   UNL A   1      44.094  37.255  31.361  1.00  0.00     0.040 A 
ATOM     80  C   UNL A   1      44.131  36.129  33.491  1.00  0.00     0.040 A 
ATOM     81  F   UNL A   1      43.659  33.834  33.615  1.00  0.00    -0.206 F 
ATOM     82  C   UNL A   1      44.288  37.294  32.741  1.00  0.00     0.006 A 
ENDBRANCH  58  75
ENDBRANCH  32  33
ENDBRANCH  25  27
ENDBRANCH  24  25
ENDBRANCH  23  24
ENDBRANCH   1  23
TORSDOF 15
ENDMDL
MODEL 3
REMARK VINA RESULT:     -11.0      1.291      2.556
REMARK SMILES CCN(C(=O)c1ccc(C)cc1F)[C@@H]1COC[C@@H]1C(=O)OCCOC(=O)c1ccc(-c2c3nc(c(-c4c(F)cccc4F)c4ccc([nH]4)c(-c4c(F)cccc4F)c4nc(c(-c5c(F)cccc5F)c5ccc2[nH]5)C=C4)C=C3)cc1
REMARK SMILES IDX 22 1 21 2 19 3 20 4 18 5 14 6 15 7 16 8 17 9 3 10 2 11 1 12
REMARK SMILES IDX 4 13 5 14 6 15 7 16 12 17 8 18 11 19 13 20 9 21 10 22 23 23
REMARK SMILES IDX 24 24 25 25 26 26 27 27 28 28 80 29 29 30 79 31 30 32 31 33
REMARK SMILES IDX 32 34 73 35 33 36 78 37 72 38 74 39 34 40 77 41 71 42 70 43
REMARK SMILES IDX 35 45 61 46 44 47 60 48 45 49 48 50 59 51 75 52 46 53 47 54
REMARK SMILES IDX 58 56 76 57 49 58 36 59 37 60 42 61 38 62 39 63 41 64 43 65
REMARK SMILES IDX 40 66 62 67 63 68 68 69 64 70 65 71 67 72 69 73 66 74 50 75
REMARK SMILES IDX 51 76 56 77 52 78 53 79 55 80 57 81 54 82
REMARK H PARENT 74 44 48 55
REMARK Flexibility Score: inf
ROOT
ATOM      1  C   UNL A   1      31.647  28.863  23.962  1.00  0.00     0.274 C 
ENDROOT
BRANCH   1   2
ATOM      2  O   UNL A   1      31.541  27.524  24.482  1.00  0.00    -0.462 OA
BRANCH   2   3
ATOM      3  C   UNL A   1      32.521  26.656  24.149  1.00  0.00     0.313 C 
ATOM      4  O   UNL A   1      32.728  26.298  22.993  1.00  0.00    -0.252 OA
BRANCH   3   5
ATOM      5  C   UNL A   1      33.228  26.041  25.348  1.00  0.00     0.150 C 
ATOM      6  C   UNL A   1      33.252  24.536  25.638  1.00  0.00     0.127 C 
ATOM      7  C   UNL A   1      31.864  24.291  26.227  1.00  0.00     0.186 C 
ATOM      8  O   UNL A   1      31.460  25.508  26.866  1.00  0.00    -0.378 OA
ATOM      9  C   UNL A   1      32.470  26.501  26.601  1.00  0.00     0.177 C 
BRANCH   6  10
ATOM     10  N   UNL A   1      33.680  23.487  24.697  1.00  0.00    -0.333 N 
BRANCH  10  11
ATOM     11  C   UNL A   1      33.121  22.143  24.954  1.00  0.00     0.117 C 
ATOM     12  C   UNL A   1      32.430  21.549  23.729  1.00  0.00     0.027 C 
ENDBRANCH  10  11
BRANCH  10  13
ATOM     13  C   UNL A   1      34.941  23.558  24.092  1.00  0.00     0.257 C 
ATOM     14  O   UNL A   1      35.041  23.943  22.929  1.00  0.00    -0.269 OA
BRANCH  13  15
ATOM     15  C   UNL A   1      36.162  23.176  24.886  1.00  0.00     0.075 A 
ATOM     16  C   UNL A   1      36.889  24.081  25.677  1.00  0.00     0.017 A 
ATOM     17  C   UNL A   1      36.603  21.851  24.856  1.00  0.00     0.136 A 
ATOM     18  C   UNL A   1      38.111  23.712  26.261  1.00  0.00     0.004 A 
ATOM     19  C   UNL A   1      37.800  21.467  25.471  1.00  0.00     0.043 A 
ATOM     20  F   UNL A   1      35.895  20.887  24.251  1.00  0.00    -0.206 F 
ATOM     21  C   UNL A   1      38.597  22.410  26.124  1.00  0.00    -0.048 A 
ATOM     22  C   UNL A   1      39.922  22.010  26.699  1.00  0.00     0.044 C 
ENDBRANCH  13  15
ENDBRANCH  10  13
ENDBRANCH   6  10
ENDBRANCH   3   5
ENDBRANCH   2   3
ENDBRANCH   1   2
BRANCH   1  23
ATOM     23  C   UNL A   1      31.502  29.878  25.087  1.00  0.00     0.275 C 
BRANCH  23  24
ATOM     24  O   UNL A   1      32.731  29.946  25.829  1.00  0.00    -0.458 OA
BRANCH  24  25
ATOM     25  C   UNL A   1      32.814  30.957  26.717  1.00  0.00     0.338 C 
ATOM     26  O   UNL A   1      32.044  31.895  26.876  1.00  0.00    -0.246 OA
BRANCH  25  27
ATOM     27  C   UNL A   1      34.007  30.773  27.547  1.00  0.00     0.060 A 
ATOM     28  C   UNL A   1      34.716  31.890  27.982  1.00  0.00     0.016 A 
ATOM     29  C   UNL A   1      34.490  29.488  27.785  1.00  0.00     0.016 A 
ATOM     30  C   UNL A   1      35.954  31.733  28.594  1.00  0.00     0.010 A 
ATOM     31  C   UNL A   1      35.686  29.329  28.484  1.00  0.00     0.010 A 
ATOM     32  C   UNL A   1      36.438  30.451  28.878  1.00  0.00    -0.014 A 
BRANCH  32  33
ATOM     33  C   UNL A   1      37.720  30.277  29.605  1.00  0.00     0.031 A 
ATOM     34  C   UNL A   1      38.836  29.482  28.992  1.00  0.00     0.074 A 
ATOM     35  C   UNL A   1      37.861  30.809  30.833  1.00  0.00     0.049 A 
ATOM     36  N   UNL A   1      39.933  29.036  29.547  1.00  0.00    -0.248 NA
ATOM     37  C   UNL A   1      38.693  29.125  27.571  1.00  0.00     0.031 C 
ATOM     38  C   UNL A   1      36.860  31.629  31.522  1.00  0.00     0.029 A 
ATOM     39  N   UNL A   1      38.898  30.731  31.728  1.00  0.00    -0.354 N 
ATOM     40  C   UNL A   1      40.584  28.302  28.565  1.00  0.00     0.074 A 
ATOM     41  C   UNL A   1      39.765  28.369  27.374  1.00  0.00     0.031 C 
ATOM     42  C   UNL A   1      37.336  31.988  32.723  1.00  0.00     0.029 A 
ATOM     43  C   UNL A   1      38.637  31.360  32.920  1.00  0.00     0.049 A 
ATOM     44  H   UNL A   1      39.746  30.269  31.533  1.00  0.00     0.167 HD
ATOM     45  C   UNL A   1      41.754  27.627  28.659  1.00  0.00     0.037 A 
ATOM     46  C   UNL A   1      39.342  31.388  34.065  1.00  0.00     0.037 A 
ATOM     47  C   UNL A   1      42.584  27.608  29.836  1.00  0.00     0.049 A 
ATOM     48  C   UNL A   1      40.635  30.633  34.143  1.00  0.00     0.074 A 
ATOM     49  C   UNL A   1      43.799  26.975  30.026  1.00  0.00     0.029 A 
ATOM     50  N   UNL A   1      42.288  28.269  31.019  1.00  0.00    -0.354 N 
ATOM     51  N   UNL A   1      41.218  29.904  33.223  1.00  0.00    -0.248 NA
ATOM     52  C   UNL A   1      41.357  30.689  35.419  1.00  0.00     0.031 C 
ATOM     53  C   UNL A   1      44.225  27.229  31.334  1.00  0.00     0.029 A 
ATOM     54  C   UNL A   1      43.292  28.049  31.947  1.00  0.00     0.049 A 
ATOM     55  H   UNL A   1      41.483  28.813  31.176  1.00  0.00     0.167 HD
ATOM     56  C   UNL A   1      42.378  29.416  33.806  1.00  0.00     0.074 A 
ATOM     57  C   UNL A   1      42.427  29.951  35.153  1.00  0.00     0.031 C 
ATOM     58  C   UNL A   1      43.316  28.592  33.281  1.00  0.00     0.037 A 
BRANCH  45  59
ATOM     59  C   UNL A   1      42.193  26.822  27.472  1.00  0.00     0.057 A 
ATOM     60  C   UNL A   1      41.737  25.519  27.244  1.00  0.00     0.134 A 
ATOM     61  C   UNL A   1      43.050  27.384  26.517  1.00  0.00     0.134 A 
ATOM     62  F   UNL A   1      40.926  24.917  28.129  1.00  0.00    -0.206 F 
ATOM     63  C   UNL A   1      42.125  24.798  26.113  1.00  0.00     0.040 A 
ATOM     64  C   UNL A   1      43.429  26.681  25.372  1.00  0.00     0.040 A 
ATOM     65  F   UNL A   1      43.522  28.630  26.674  1.00  0.00    -0.206 F 
ATOM     66  C   UNL A   1      42.968  25.382  25.169  1.00  0.00     0.006 A 
ENDBRANCH  45  59
BRANCH  46  67
ATOM     67  C   UNL A   1      38.806  32.120  35.239  1.00  0.00     0.057 A 
ATOM     68  C   UNL A   1      38.153  31.447  36.276  1.00  0.00     0.134 A 
ATOM     69  C   UNL A   1      38.956  33.507  35.361  1.00  0.00     0.134 A 
ATOM     70  F   UNL A   1      37.959  30.122  36.204  1.00  0.00    -0.206 F 
ATOM     71  C   UNL A   1      37.665  32.126  37.393  1.00  0.00     0.040 A 
ATOM     72  C   UNL A   1      38.496  34.197  36.484  1.00  0.00     0.040 A 
ATOM     73  F   UNL A   1      39.577  34.209  34.401  1.00  0.00    -0.206 F 
ATOM     74  C   UNL A   1      37.844  33.505  37.503  1.00  0.00     0.006 A 
ENDBRANCH  46  67
BRANCH  58  75
ATOM     75  C   UNL A   1      44.473  28.239  34.162  1.00  0.00     0.057 A 
ATOM     76  C   UNL A   1      45.623  29.036  34.213  1.00  0.00     0.134 A 
ATOM     77  C   UNL A   1      44.429  27.103  34.978  1.00  0.00     0.134 A 
ATOM     78  F   UNL A   1      45.729  30.129  33.441  1.00  0.00    -0.206 F 
ATOM     79  C   UNL A   1      46.701  28.702  35.034  1.00  0.00     0.040 A 
ATOM     80  C   UNL A   1      45.493  26.770  35.816  1.00  0.00     0.040 A 
ATOM     81  F   UNL A   1      43.352  26.304  34.976  1.00  0.00    -0.206 F 
ATOM     82  C   UNL A   1      46.636  27.569  35.841  1.00  0.00     0.006 A 
ENDBRANCH  58  75
ENDBRANCH  32  33
ENDBRANCH  25  27
ENDBRANCH  24  25
ENDBRANCH  23  24
ENDBRANCH   1  23
TORSDOF 15
ENDMDL
