MODEL 1
REMARK VINA RESULT:     -11.5      0.000      0.000
REMARK SMILES Nc1oc2ccc(F)cc2c(=O)c1[C@@H]1[NH2+][C@H](C(=O)OCCOC(=O)c2ccc(-c3c4nc(c(-c5c(F)cccc5F)c5ccc([nH]5)c(-c5c(F)cccc5F)c5nc(c(-c6c(F)cccc6F)c6ccc3[nH]6)C=C5)C=C4)cc2)CS1
REMARK SMILES IDX 20 1 19 2 17 3 18 4 16 5 14 6 15 7 80 8 79 11 13 12 2 13
REMARK SMILES IDX 3 14 4 15 11 16 5 17 10 18 12 19 6 20 9 21 7 22 8 23 1 24
REMARK SMILES IDX 21 27 22 28 23 29 24 30 25 31 26 32 78 33 27 34 77 35 28 36
REMARK SMILES IDX 29 37 30 38 71 39 31 40 76 41 70 42 72 43 32 44 75 45 69 46
REMARK SMILES IDX 68 47 33 49 59 50 42 51 58 52 43 53 46 54 57 55 73 56 44 57
REMARK SMILES IDX 45 58 56 60 74 61 47 62 34 63 35 64 40 65 36 66 37 67 39 68
REMARK SMILES IDX 41 69 38 70 60 71 61 72 66 73 62 74 63 75 65 76 67 77 64 78
REMARK SMILES IDX 48 79 49 80 54 81 50 82 51 83 53 84 55 85 52 86
REMARK H PARENT 15 9 15 10 1 25 1 26 72 48 46 59
REMARK Flexibility Score: inf
ROOT
ATOM      1  C   UNL A   1      33.391  28.809  26.398  1.00  0.00     0.274 C 
ENDROOT
BRANCH   1   2
ATOM      2  O   UNL A   1      32.812  29.380  25.210  1.00  0.00    -0.458 OA
BRANCH   2   3
ATOM      3  C   UNL A   1      33.262  28.936  24.006  1.00  0.00     0.365 C 
ATOM      4  O   UNL A   1      34.424  28.609  23.778  1.00  0.00    -0.245 OA
BRANCH   3   5
ATOM      5  C   UNL A   1      32.141  28.758  22.965  1.00  0.00     0.304 C 
ATOM      6  C   UNL A   1      31.411  26.472  22.914  1.00  0.00     0.283 C 
ATOM      7  N   UNL A   1      32.186  27.491  22.203  1.00  0.00    -0.319 N 
ATOM      8  S   UNL A   1      29.997  27.321  23.667  1.00  0.00    -0.087 SA
ATOM      9  H   UNL A   1      31.788  27.637  21.276  1.00  0.00     0.348 HD
ATOM     10  H   UNL A   1      33.154  27.182  22.111  1.00  0.00     0.348 HD
ATOM     11  C   UNL A   1      30.757  28.962  23.574  1.00  0.00     0.153 C 
BRANCH   6  12
ATOM     12  C   UNL A   1      32.270  25.653  23.846  1.00  0.00     0.128 A 
ATOM     13  C   UNL A   1      32.178  25.486  25.186  1.00  0.00     0.205 A 
ATOM     14  O   UNL A   1      33.101  24.783  25.941  1.00  0.00    -0.440 OA
ATOM     15  C   UNL A   1      34.123  24.127  25.321  1.00  0.00     0.140 A 
ATOM     16  C   UNL A   1      33.377  24.945  23.137  1.00  0.00     0.205 A 
ATOM     17  C   UNL A   1      34.986  23.388  26.130  1.00  0.00     0.051 A 
ATOM     18  C   UNL A   1      34.303  24.152  23.947  1.00  0.00     0.068 A 
ATOM     19  O   UNL A   1      33.511  24.973  21.918  1.00  0.00    -0.288 OA
ATOM     20  C   UNL A   1      36.015  22.648  25.547  1.00  0.00     0.043 A 
ATOM     21  C   UNL A   1      35.332  23.415  23.353  1.00  0.00     0.055 A 
ATOM     22  C   UNL A   1      36.173  22.663  24.163  1.00  0.00     0.124 A 
ATOM     23  F   UNL A   1      37.147  21.933  23.606  1.00  0.00    -0.207 F 
BRANCH  13  24
ATOM     24  N   UNL A   1      31.195  26.009  25.975  1.00  0.00    -0.369 N 
ATOM     25  H   UNL A   1      31.277  26.929  26.316  1.00  0.00     0.159 HD
ATOM     26  H   UNL A   1      30.406  25.468  26.203  1.00  0.00     0.159 HD
ENDBRANCH  13  24
ENDBRANCH   6  12
ENDBRANCH   3   5
ENDBRANCH   2   3
ENDBRANCH   1   2
BRANCH   1  27
ATOM     27  C   UNL A   1      34.090  29.895  27.217  1.00  0.00     0.275 C 
BRANCH  27  28
ATOM     28  O   UNL A   1      35.125  29.323  28.036  1.00  0.00    -0.458 OA
BRANCH  28  29
ATOM     29  C   UNL A   1      35.831  30.211  28.772  1.00  0.00     0.338 C 
ATOM     30  O   UNL A   1      35.408  31.102  29.485  1.00  0.00    -0.246 OA
BRANCH  29  31
ATOM     31  C   UNL A   1      37.246  29.825  28.732  1.00  0.00     0.060 A 
ATOM     32  C   UNL A   1      37.935  29.467  29.888  1.00  0.00     0.016 A 
ATOM     33  C   UNL A   1      37.874  29.790  27.485  1.00  0.00     0.016 A 
ATOM     34  C   UNL A   1      39.272  29.080  29.784  1.00  0.00     0.010 A 
ATOM     35  C   UNL A   1      39.198  29.393  27.378  1.00  0.00     0.010 A 
ATOM     36  C   UNL A   1      39.907  29.043  28.530  1.00  0.00    -0.014 A 
BRANCH  36  37
ATOM     37  C   UNL A   1      41.304  28.580  28.406  1.00  0.00     0.031 A 
ATOM     38  C   UNL A   1      41.610  27.144  28.105  1.00  0.00     0.074 A 
ATOM     39  C   UNL A   1      42.291  29.467  28.617  1.00  0.00     0.049 A 
ATOM     40  N   UNL A   1      42.766  26.586  27.858  1.00  0.00    -0.248 NA
ATOM     41  C   UNL A   1      40.475  26.209  28.103  1.00  0.00     0.031 C 
ATOM     42  C   UNL A   1      42.098  30.864  29.017  1.00  0.00     0.029 A 
ATOM     43  N   UNL A   1      43.650  29.331  28.519  1.00  0.00    -0.354 N 
ATOM     44  C   UNL A   1      42.497  25.238  27.655  1.00  0.00     0.074 A 
ATOM     45  C   UNL A   1      41.079  25.052  27.872  1.00  0.00     0.031 C 
ATOM     46  C   UNL A   1      43.295  31.468  29.086  1.00  0.00     0.029 A 
ATOM     47  C   UNL A   1      44.332  30.500  28.743  1.00  0.00     0.049 A 
ATOM     48  H   UNL A   1      44.093  28.478  28.308  1.00  0.00     0.167 HD
ATOM     49  C   UNL A   1      43.357  24.256  27.294  1.00  0.00     0.037 A 
ATOM     50  C   UNL A   1      45.647  30.763  28.649  1.00  0.00     0.037 A 
ATOM     51  C   UNL A   1      44.767  24.460  27.087  1.00  0.00     0.049 A 
ATOM     52  C   UNL A   1      46.573  29.666  28.214  1.00  0.00     0.074 A 
ATOM     53  C   UNL A   1      45.721  23.554  26.660  1.00  0.00     0.029 A 
ATOM     54  N   UNL A   1      45.426  25.662  27.306  1.00  0.00    -0.354 N 
ATOM     55  N   UNL A   1      46.296  28.421  27.908  1.00  0.00    -0.248 NA
ATOM     56  C   UNL A   1      47.994  30.015  28.091  1.00  0.00     0.031 C 
ATOM     57  C   UNL A   1      46.964  24.201  26.651  1.00  0.00     0.029 A 
ATOM     58  C   UNL A   1      46.777  25.518  27.039  1.00  0.00     0.049 A 
ATOM     59  H   UNL A   1      44.996  26.495  27.608  1.00  0.00     0.167 HD
ATOM     60  C   UNL A   1      47.501  27.843  27.539  1.00  0.00     0.074 A 
ATOM     61  C   UNL A   1      48.509  28.881  27.639  1.00  0.00     0.031 C 
ATOM     62  C   UNL A   1      47.757  26.568  27.155  1.00  0.00     0.037 A 
BRANCH  49  63
ATOM     63  C   UNL A   1      42.784  22.885  27.082  1.00  0.00     0.057 A 
ATOM     64  C   UNL A   1      42.521  22.403  25.794  1.00  0.00     0.134 A 
ATOM     65  C   UNL A   1      42.476  22.045  28.161  1.00  0.00     0.134 A 
ATOM     66  F   UNL A   1      42.788  23.156  24.716  1.00  0.00    -0.206 F 
ATOM     67  C   UNL A   1      41.977  21.134  25.588  1.00  0.00     0.040 A 
ATOM     68  C   UNL A   1      41.955  20.765  27.966  1.00  0.00     0.040 A 
ATOM     69  F   UNL A   1      42.715  22.442  29.420  1.00  0.00    -0.206 F 
ATOM     70  C   UNL A   1      41.699  20.308  26.675  1.00  0.00     0.006 A 
ENDBRANCH  49  63
BRANCH  50  71
ATOM     71  C   UNL A   1      46.146  32.136  28.899  1.00  0.00     0.057 A 
ATOM     72  C   UNL A   1      46.559  32.544  30.172  1.00  0.00     0.134 A 
ATOM     73  C   UNL A   1      46.210  33.076  27.865  1.00  0.00     0.134 A 
ATOM     74  F   UNL A   1      46.510  31.692  31.206  1.00  0.00    -0.206 F 
ATOM     75  C   UNL A   1      47.020  33.841  30.408  1.00  0.00     0.040 A 
ATOM     76  C   UNL A   1      46.686  34.369  28.081  1.00  0.00     0.040 A 
ATOM     77  F   UNL A   1      45.835  32.738  26.622  1.00  0.00    -0.206 F 
ATOM     78  C   UNL A   1      47.089  34.756  29.358  1.00  0.00     0.006 A 
ENDBRANCH  50  71
BRANCH  62  79
ATOM     79  C   UNL A   1      49.178  26.245  26.809  1.00  0.00     0.057 A 
ATOM     80  C   UNL A   1      50.049  25.724  27.774  1.00  0.00     0.134 A 
ATOM     81  C   UNL A   1      49.684  26.452  25.519  1.00  0.00     0.134 A 
ATOM     82  F   UNL A   1      49.625  25.507  29.028  1.00  0.00    -0.206 F 
ATOM     83  C   UNL A   1      51.374  25.417  27.466  1.00  0.00     0.040 A 
ATOM     84  C   UNL A   1      51.001  26.127  25.195  1.00  0.00     0.040 A 
ATOM     85  F   UNL A   1      48.893  26.933  24.549  1.00  0.00    -0.206 F 
ATOM     86  C   UNL A   1      51.851  25.610  26.172  1.00  0.00     0.006 A 
ENDBRANCH  62  79
ENDBRANCH  36  37
ENDBRANCH  29  31
ENDBRANCH  28  29
ENDBRANCH  27  28
ENDBRANCH   1  27
TORSDOF 13
ENDMDL
MODEL 2
REMARK VINA RESULT:     -11.5      3.077      6.973
REMARK SMILES Nc1oc2ccc(F)cc2c(=O)c1[C@@H]1[NH2+][C@H](C(=O)OCCOC(=O)c2ccc(-c3c4nc(c(-c5c(F)cccc5F)c5ccc([nH]5)c(-c5c(F)cccc5F)c5nc(c(-c6c(F)cccc6F)c6ccc3[nH]6)C=C5)C=C4)cc2)CS1
REMARK SMILES IDX 20 1 19 2 17 3 18 4 16 5 14 6 15 7 80 8 79 11 13 12 2 13
REMARK SMILES IDX 3 14 4 15 11 16 5 17 10 18 12 19 6 20 9 21 7 22 8 23 1 24
REMARK SMILES IDX 21 27 22 28 23 29 24 30 25 31 26 32 78 33 27 34 77 35 28 36
REMARK SMILES IDX 29 37 30 38 71 39 31 40 76 41 70 42 72 43 32 44 75 45 69 46
REMARK SMILES IDX 68 47 33 49 59 50 42 51 58 52 43 53 46 54 57 55 73 56 44 57
REMARK SMILES IDX 45 58 56 60 74 61 47 62 34 63 35 64 40 65 36 66 37 67 39 68
REMARK SMILES IDX 41 69 38 70 60 71 61 72 66 73 62 74 63 75 65 76 67 77 64 78
REMARK SMILES IDX 48 79 49 80 54 81 50 82 51 83 53 84 55 85 52 86
REMARK H PARENT 15 9 15 10 1 25 1 26 72 48 46 59
REMARK Flexibility Score: inf
ROOT
ATOM      1  C   UNL A   1      36.663  22.765  23.511  1.00  0.00     0.274 C 
ENDROOT
BRANCH   1   2
ATOM      2  O   UNL A   1      35.322  23.061  23.080  1.00  0.00    -0.458 OA
BRANCH   2   3
ATOM      3  C   UNL A   1      34.687  24.117  23.654  1.00  0.00     0.365 C 
ATOM      4  O   UNL A   1      35.020  24.630  24.719  1.00  0.00    -0.245 OA
BRANCH   3   5
ATOM      5  C   UNL A   1      33.567  24.704  22.776  1.00  0.00     0.304 C 
ATOM      6  C   UNL A   1      31.590  23.351  22.937  1.00  0.00     0.283 C 
ATOM      7  N   UNL A   1      32.724  23.706  22.080  1.00  0.00    -0.319 N 
ATOM      8  S   UNL A   1      31.109  24.861  23.819  1.00  0.00    -0.087 SA
ATOM      9  H   UNL A   1      32.380  24.100  21.206  1.00  0.00     0.348 HD
ATOM     10  H   UNL A   1      33.276  22.871  21.882  1.00  0.00     0.348 HD
ATOM     11  C   UNL A   1      32.694  25.691  23.544  1.00  0.00     0.153 C 
BRANCH   6  12
ATOM     12  C   UNL A   1      31.881  22.143  23.793  1.00  0.00     0.128 A 
ATOM     13  C   UNL A   1      31.908  22.023  25.141  1.00  0.00     0.205 A 
ATOM     14  O   UNL A   1      32.294  20.871  25.805  1.00  0.00    -0.440 OA
ATOM     15  C   UNL A   1      32.577  19.743  25.095  1.00  0.00     0.140 A 
ATOM     16  C   UNL A   1      32.185  20.924  22.985  1.00  0.00     0.205 A 
ATOM     17  C   UNL A   1      32.903  18.599  25.823  1.00  0.00     0.051 A 
ATOM     18  C   UNL A   1      32.524  19.698  23.710  1.00  0.00     0.068 A 
ATOM     19  O   UNL A   1      32.122  20.905  21.761  1.00  0.00    -0.288 OA
ATOM     20  C   UNL A   1      33.145  17.400  25.153  1.00  0.00     0.043 A 
ATOM     21  C   UNL A   1      32.768  18.502  23.030  1.00  0.00     0.055 A 
ATOM     22  C   UNL A   1      33.067  17.361  23.763  1.00  0.00     0.124 A 
ATOM     23  F   UNL A   1      33.278  16.203  23.126  1.00  0.00    -0.207 F 
BRANCH  13  24
ATOM     24  N   UNL A   1      31.597  23.018  26.023  1.00  0.00    -0.369 N 
ATOM     25  H   UNL A   1      31.481  23.940  25.701  1.00  0.00     0.159 HD
ATOM     26  H   UNL A   1      31.491  22.812  26.979  1.00  0.00     0.159 HD
ENDBRANCH  13  24
ENDBRANCH   6  12
ENDBRANCH   3   5
ENDBRANCH   2   3
ENDBRANCH   1   2
BRANCH   1  27
ATOM     27  C   UNL A   1      36.659  21.560  24.454  1.00  0.00     0.275 C 
BRANCH  27  28
ATOM     28  O   UNL A   1      37.158  21.931  25.751  1.00  0.00    -0.458 OA
BRANCH  28  29
ATOM     29  C   UNL A   1      38.437  21.567  25.999  1.00  0.00     0.338 C 
ATOM     30  O   UNL A   1      38.985  20.514  25.732  1.00  0.00    -0.246 OA
BRANCH  29  31
ATOM     31  C   UNL A   1      39.163  22.740  26.501  1.00  0.00     0.060 A 
ATOM     32  C   UNL A   1      40.299  22.606  27.295  1.00  0.00     0.016 A 
ATOM     33  C   UNL A   1      38.699  24.001  26.122  1.00  0.00     0.016 A 
ATOM     34  C   UNL A   1      40.965  23.758  27.719  1.00  0.00     0.010 A 
ATOM     35  C   UNL A   1      39.366  25.146  26.531  1.00  0.00     0.010 A 
ATOM     36  C   UNL A   1      40.501  25.030  27.338  1.00  0.00    -0.014 A 
BRANCH  36  37
ATOM     37  C   UNL A   1      41.233  26.249  27.735  1.00  0.00     0.031 A 
ATOM     38  C   UNL A   1      42.648  26.470  27.293  1.00  0.00     0.074 A 
ATOM     39  C   UNL A   1      40.617  27.130  28.542  1.00  0.00     0.049 A 
ATOM     40  N   UNL A   1      43.404  27.523  27.457  1.00  0.00    -0.248 NA
ATOM     41  C   UNL A   1      43.307  25.355  26.594  1.00  0.00     0.031 C 
ATOM     42  C   UNL A   1      39.278  26.956  29.112  1.00  0.00     0.029 A 
ATOM     43  N   UNL A   1      41.028  28.346  29.016  1.00  0.00    -0.354 N 
ATOM     44  C   UNL A   1      44.622  27.207  26.869  1.00  0.00     0.074 A 
ATOM     45  C   UNL A   1      44.525  25.842  26.402  1.00  0.00     0.031 C 
ATOM     46  C   UNL A   1      38.961  28.049  29.824  1.00  0.00     0.029 A 
ATOM     47  C   UNL A   1      40.075  28.990  29.763  1.00  0.00     0.049 A 
ATOM     48  H   UNL A   1      41.921  28.721  28.839  1.00  0.00     0.167 HD
ATOM     49  C   UNL A   1      45.709  28.000  26.712  1.00  0.00     0.037 A 
ATOM     50  C   UNL A   1      40.092  30.219  30.309  1.00  0.00     0.037 A 
ATOM     51  C   UNL A   1      45.788  29.356  27.188  1.00  0.00     0.049 A 
ATOM     52  C   UNL A   1      41.295  31.089  30.092  1.00  0.00     0.074 A 
ATOM     53  C   UNL A   1      46.813  30.272  27.031  1.00  0.00     0.029 A 
ATOM     54  N   UNL A   1      44.798  29.987  27.928  1.00  0.00    -0.354 N 
ATOM     55  N   UNL A   1      42.398  30.826  29.433  1.00  0.00    -0.248 NA
ATOM     56  C   UNL A   1      41.247  32.434  30.678  1.00  0.00     0.031 C 
ATOM     57  C   UNL A   1      46.455  31.447  27.703  1.00  0.00     0.029 A 
ATOM     58  C   UNL A   1      45.192  31.275  28.249  1.00  0.00     0.049 A 
ATOM     59  H   UNL A   1      43.940  29.579  28.186  1.00  0.00     0.167 HD
ATOM     60  C   UNL A   1      43.168  31.978  29.508  1.00  0.00     0.074 A 
ATOM     61  C   UNL A   1      42.395  32.947  30.259  1.00  0.00     0.031 C 
ATOM     62  C   UNL A   1      44.405  32.214  29.005  1.00  0.00     0.037 A 
BRANCH  49  63
ATOM     63  C   UNL A   1      46.883  27.419  25.979  1.00  0.00     0.057 A 
ATOM     64  C   UNL A   1      47.895  26.734  26.663  1.00  0.00     0.134 A 
ATOM     65  C   UNL A   1      47.019  27.552  24.591  1.00  0.00     0.134 A 
ATOM     66  F   UNL A   1      47.831  26.573  27.993  1.00  0.00    -0.206 F 
ATOM     67  C   UNL A   1      48.997  26.201  25.991  1.00  0.00     0.040 A 
ATOM     68  C   UNL A   1      48.103  27.003  23.905  1.00  0.00     0.040 A 
ATOM     69  F   UNL A   1      46.078  28.187  23.874  1.00  0.00    -0.206 F 
ATOM     70  C   UNL A   1      49.100  26.328  24.607  1.00  0.00     0.006 A 
ENDBRANCH  49  63
BRANCH  50  71
ATOM     71  C   UNL A   1      38.905  30.718  31.044  1.00  0.00     0.057 A 
ATOM     72  C   UNL A   1      37.900  31.448  30.402  1.00  0.00     0.134 A 
ATOM     73  C   UNL A   1      38.759  30.482  32.416  1.00  0.00     0.134 A 
ATOM     74  F   UNL A   1      37.990  31.717  29.091  1.00  0.00    -0.206 F 
ATOM     75  C   UNL A   1      36.788  31.926  31.097  1.00  0.00     0.040 A 
ATOM     76  C   UNL A   1      37.644  30.936  33.120  1.00  0.00     0.040 A 
ATOM     77  F   UNL A   1      39.688  29.780  33.083  1.00  0.00    -0.206 F 
ATOM     78  C   UNL A   1      36.656  31.665  32.460  1.00  0.00     0.006 A 
ENDBRANCH  50  71
BRANCH  62  79
ATOM     79  C   UNL A   1      44.977  33.577  29.249  1.00  0.00     0.057 A 
ATOM     80  C   UNL A   1      45.772  33.827  30.374  1.00  0.00     0.134 A 
ATOM     81  C   UNL A   1      44.738  34.641  28.370  1.00  0.00     0.134 A 
ATOM     82  F   UNL A   1      46.033  32.851  31.255  1.00  0.00    -0.206 F 
ATOM     83  C   UNL A   1      46.314  35.090  30.613  1.00  0.00     0.040 A 
ATOM     84  C   UNL A   1      45.294  35.902  28.587  1.00  0.00     0.040 A 
ATOM     85  F   UNL A   1      43.998  34.457  27.266  1.00  0.00    -0.206 F 
ATOM     86  C   UNL A   1      46.083  36.130  29.714  1.00  0.00     0.006 A 
ENDBRANCH  62  79
ENDBRANCH  36  37
ENDBRANCH  29  31
ENDBRANCH  28  29
ENDBRANCH  27  28
ENDBRANCH   1  27
TORSDOF 13
ENDMDL
MODEL 3
REMARK VINA RESULT:     -11.4      4.409      8.114
REMARK SMILES Nc1oc2ccc(F)cc2c(=O)c1[C@@H]1[NH2+][C@H](C(=O)OCCOC(=O)c2ccc(-c3c4nc(c(-c5c(F)cccc5F)c5ccc([nH]5)c(-c5c(F)cccc5F)c5nc(c(-c6c(F)cccc6F)c6ccc3[nH]6)C=C5)C=C4)cc2)CS1
REMARK SMILES IDX 20 1 19 2 17 3 18 4 16 5 14 6 15 7 80 8 79 11 13 12 2 13
REMARK SMILES IDX 3 14 4 15 11 16 5 17 10 18 12 19 6 20 9 21 7 22 8 23 1 24
REMARK SMILES IDX 21 27 22 28 23 29 24 30 25 31 26 32 78 33 27 34 77 35 28 36
REMARK SMILES IDX 29 37 30 38 71 39 31 40 76 41 70 42 72 43 32 44 75 45 69 46
REMARK SMILES IDX 68 47 33 49 59 50 42 51 58 52 43 53 46 54 57 55 73 56 44 57
REMARK SMILES IDX 45 58 56 60 74 61 47 62 34 63 35 64 40 65 36 66 37 67 39 68
REMARK SMILES IDX 41 69 38 70 60 71 61 72 66 73 62 74 63 75 65 76 67 77 64 78
REMARK SMILES IDX 48 79 49 80 54 81 50 82 51 83 53 84 55 85 52 86
REMARK H PARENT 15 9 15 10 1 25 1 26 72 48 46 59
REMARK Flexibility Score: inf
ROOT
ATOM      1  C   UNL A   1      31.725  28.319  27.378  1.00  0.00     0.274 C 
ENDROOT
BRANCH   1   2
ATOM      2  O   UNL A   1      31.169  27.092  26.870  1.00  0.00    -0.458 OA
BRANCH   2   3
ATOM      3  C   UNL A   1      32.031  26.115  26.481  1.00  0.00     0.365 C 
ATOM      4  O   UNL A   1      33.247  26.264  26.379  1.00  0.00    -0.245 OA
BRANCH   3   5
ATOM      5  C   UNL A   1      31.354  24.745  26.295  1.00  0.00     0.304 C 
ATOM      6  C   UNL A   1      30.262  24.641  24.159  1.00  0.00     0.283 C 
ATOM      7  N   UNL A   1      30.048  24.778  25.602  1.00  0.00    -0.319 N 
ATOM      8  S   UNL A   1      31.659  23.505  23.944  1.00  0.00    -0.087 SA
ATOM      9  H   UNL A   1      29.466  24.009  25.934  1.00  0.00     0.348 HD
ATOM     10  H   UNL A   1      29.580  25.664  25.796  1.00  0.00     0.348 HD
ATOM     11  C   UNL A   1      32.282  23.734  25.629  1.00  0.00     0.153 C 
BRANCH   6  12
ATOM     12  C   UNL A   1      30.380  25.980  23.474  1.00  0.00     0.128 A 
ATOM     13  C   UNL A   1      31.416  26.511  22.783  1.00  0.00     0.205 A 
ATOM     14  O   UNL A   1      31.431  27.804  22.287  1.00  0.00    -0.440 OA
ATOM     15  C   UNL A   1      30.318  28.584  22.399  1.00  0.00     0.140 A 
ATOM     16  C   UNL A   1      29.146  26.809  23.612  1.00  0.00     0.205 A 
ATOM     17  C   UNL A   1      30.375  29.856  21.828  1.00  0.00     0.051 A 
ATOM     18  C   UNL A   1      29.159  28.148  23.021  1.00  0.00     0.068 A 
ATOM     19  O   UNL A   1      28.127  26.399  24.159  1.00  0.00    -0.288 OA
ATOM     20  C   UNL A   1      29.248  30.677  21.860  1.00  0.00     0.043 A 
ATOM     21  C   UNL A   1      28.025  28.965  23.060  1.00  0.00     0.055 A 
ATOM     22  C   UNL A   1      28.081  30.220  22.469  1.00  0.00     0.124 A 
ATOM     23  F   UNL A   1      26.996  31.003  22.476  1.00  0.00    -0.207 F 
BRANCH  13  24
ATOM     24  N   UNL A   1      32.589  25.868  22.512  1.00  0.00    -0.369 N 
ATOM     25  H   UNL A   1      32.877  25.114  23.074  1.00  0.00     0.159 HD
ATOM     26  H   UNL A   1      33.146  26.159  21.754  1.00  0.00     0.159 HD
ENDBRANCH  13  24
ENDBRANCH   6  12
ENDBRANCH   3   5
ENDBRANCH   2   3
ENDBRANCH   1   2
BRANCH   1  27
ATOM     27  C   UNL A   1      31.789  29.367  26.266  1.00  0.00     0.275 C 
BRANCH  27  28
ATOM     28  O   UNL A   1      33.111  29.927  26.175  1.00  0.00    -0.458 OA
BRANCH  28  29
ATOM     29  C   UNL A   1      33.326  31.018  26.946  1.00  0.00     0.338 C 
ATOM     30  O   UNL A   1      32.548  31.913  27.219  1.00  0.00    -0.246 OA
BRANCH  29  31
ATOM     31  C   UNL A   1      34.640  30.879  27.587  1.00  0.00     0.060 A 
ATOM     32  C   UNL A   1      35.453  31.985  27.823  1.00  0.00     0.016 A 
ATOM     33  C   UNL A   1      35.033  29.602  27.991  1.00  0.00     0.016 A 
ATOM     34  C   UNL A   1      36.679  31.795  28.463  1.00  0.00     0.010 A 
ATOM     35  C   UNL A   1      36.244  29.413  28.639  1.00  0.00     0.010 A 
ATOM     36  C   UNL A   1      37.078  30.510  28.873  1.00  0.00    -0.014 A 
BRANCH  36  37
ATOM     37  C   UNL A   1      38.346  30.310  29.601  1.00  0.00     0.031 A 
ATOM     38  C   UNL A   1      38.522  30.843  30.991  1.00  0.00     0.074 A 
ATOM     39  C   UNL A   1      39.354  29.684  28.969  1.00  0.00     0.049 A 
ATOM     40  N   UNL A   1      39.522  30.671  31.815  1.00  0.00    -0.248 NA
ATOM     41  C   UNL A   1      37.446  31.697  31.516  1.00  0.00     0.031 C 
ATOM     42  C   UNL A   1      39.318  29.221  27.579  1.00  0.00     0.029 A 
ATOM     43  N   UNL A   1      40.598  29.324  29.411  1.00  0.00    -0.354 N 
ATOM     44  C   UNL A   1      39.191  31.380  32.962  1.00  0.00     0.074 A 
ATOM     45  C   UNL A   1      37.928  32.037  32.703  1.00  0.00     0.031 C 
ATOM     46  C   UNL A   1      40.473  28.597  27.297  1.00  0.00     0.029 A 
ATOM     47  C   UNL A   1      41.325  28.624  28.481  1.00  0.00     0.049 A 
ATOM     48  H   UNL A   1      40.938  29.545  30.308  1.00  0.00     0.167 HD
ATOM     49  C   UNL A   1      39.870  31.450  34.132  1.00  0.00     0.037 A 
ATOM     50  C   UNL A   1      42.533  28.043  28.589  1.00  0.00     0.037 A 
ATOM     51  C   UNL A   1      41.128  30.792  34.369  1.00  0.00     0.049 A 
ATOM     52  C   UNL A   1      43.249  28.106  29.906  1.00  0.00     0.074 A 
ATOM     53  C   UNL A   1      41.875  30.741  35.533  1.00  0.00     0.029 A 
ATOM     54  N   UNL A   1      41.832  30.076  33.411  1.00  0.00    -0.354 N 
ATOM     55  N   UNL A   1      42.875  28.680  31.025  1.00  0.00    -0.248 NA
ATOM     56  C   UNL A   1      44.547  27.425  29.982  1.00  0.00     0.031 C 
ATOM     57  C   UNL A   1      43.046  30.020  35.269  1.00  0.00     0.029 A 
ATOM     58  C   UNL A   1      43.011  29.592  33.951  1.00  0.00     0.049 A 
ATOM     59  H   UNL A   1      41.535  29.932  32.483  1.00  0.00     0.167 HD
ATOM     60  C   UNL A   1      43.880  28.413  31.943  1.00  0.00     0.074 A 
ATOM     61  C   UNL A   1      44.870  27.608  31.254  1.00  0.00     0.031 C 
ATOM     62  C   UNL A   1      43.981  28.800  33.238  1.00  0.00     0.037 A 
BRANCH  49  63
ATOM     63  C   UNL A   1      39.249  32.248  35.241  1.00  0.00     0.057 A 
ATOM     64  C   UNL A   1      38.396  31.647  36.174  1.00  0.00     0.134 A 
ATOM     65  C   UNL A   1      39.484  33.623  35.374  1.00  0.00     0.134 A 
ATOM     66  F   UNL A   1      38.124  30.335  36.104  1.00  0.00    -0.206 F 
ATOM     67  C   UNL A   1      37.804  32.384  37.202  1.00  0.00     0.040 A 
ATOM     68  C   UNL A   1      38.917  34.366  36.411  1.00  0.00     0.040 A 
ATOM     69  F   UNL A   1      40.300  34.259  34.519  1.00  0.00    -0.206 F 
ATOM     70  C   UNL A   1      38.070  33.746  37.327  1.00  0.00     0.006 A 
ENDBRANCH  49  63
BRANCH  50  71
ATOM     71  C   UNL A   1      43.098  27.293  27.443  1.00  0.00     0.057 A 
ATOM     72  C   UNL A   1      43.888  27.921  26.474  1.00  0.00     0.134 A 
ATOM     73  C   UNL A   1      42.846  25.925  27.286  1.00  0.00     0.134 A 
ATOM     74  F   UNL A   1      44.154  29.232  26.563  1.00  0.00    -0.206 F 
ATOM     75  C   UNL A   1      44.411  27.215  25.389  1.00  0.00     0.040 A 
ATOM     76  C   UNL A   1      43.378  25.202  26.219  1.00  0.00     0.040 A 
ATOM     77  F   UNL A   1      42.102  25.268  28.189  1.00  0.00    -0.206 F 
ATOM     78  C   UNL A   1      44.160  25.849  25.263  1.00  0.00     0.006 A 
ENDBRANCH  50  71
BRANCH  62  79
ATOM     79  C   UNL A   1      45.199  28.343  33.981  1.00  0.00     0.057 A 
ATOM     80  C   UNL A   1      45.200  27.123  34.668  1.00  0.00     0.134 A 
ATOM     81  C   UNL A   1      46.369  29.112  34.017  1.00  0.00     0.134 A 
ATOM     82  F   UNL A   1      44.109  26.343  34.675  1.00  0.00    -0.206 F 
ATOM     83  C   UNL A   1      46.327  26.681  35.362  1.00  0.00     0.040 A 
ATOM     84  C   UNL A   1      47.509  28.669  34.688  1.00  0.00     0.040 A 
ATOM     85  F   UNL A   1      46.433  30.281  33.363  1.00  0.00    -0.206 F 
ATOM     86  C   UNL A   1      47.488  27.451  35.366  1.00  0.00     0.006 A 
ENDBRANCH  62  79
ENDBRANCH  36  37
ENDBRANCH  29  31
ENDBRANCH  28  29
ENDBRANCH  27  28
ENDBRANCH   1  27
TORSDOF 13
ENDMDL
