MODEL 1
REMARK VINA RESULT:     -11.0      0.000      0.000
REMARK SMILES O=C(OCCOC(=O)[C@H]1CCC[N@@H+]1Cc1ccccc1[N+](=O)[O-])c1ccc(-c2c3nc(c(-c4c(F)cccc4F)c4ccc([nH]4)c(-c4c(F)cccc4F)c4nc(c(-c5c(F)cccc5F)c5ccc2[nH]5)C=C4)C=C3)cc1
REMARK SMILES IDX 5 1 4 2 3 3 2 4 1 5 24 6 25 7 77 8 26 9 76 10 27 11 28 12
REMARK SMILES IDX 29 13 70 14 30 15 75 16 69 17 71 18 31 19 74 20 68 21 67 22
REMARK SMILES IDX 32 24 58 25 41 26 57 27 42 28 45 29 56 30 72 31 43 32 44 33
REMARK SMILES IDX 55 35 73 36 46 37 33 38 34 39 39 40 35 41 36 42 38 43 40 44
REMARK SMILES IDX 37 45 59 46 60 47 65 48 61 49 62 50 64 51 66 52 63 53 47 54
REMARK SMILES IDX 48 55 53 56 49 57 50 58 52 59 54 60 51 61 6 62 7 63 8 64
REMARK SMILES IDX 9 65 10 66 13 67 11 68 12 69 14 71 15 72 16 73 20 74 17 75
REMARK SMILES IDX 19 76 18 77 21 78 22 79 23 80
REMARK H PARENT 71 23 45 34 13 70
REMARK Flexibility Score: inf
ROOT
ATOM      1  C   UNL A   1      32.498  31.020  26.706  1.00  0.00     0.274 C 
ENDROOT
BRANCH   1   2
ATOM      2  C   UNL A   1      31.556  32.197  26.994  1.00  0.00     0.275 C 
BRANCH   2   3
ATOM      3  O   UNL A   1      32.210  33.474  27.112  1.00  0.00    -0.458 OA
BRANCH   3   4
ATOM      4  C   UNL A   1      32.933  33.971  28.144  1.00  0.00     0.338 C 
ATOM      5  O   UNL A   1      32.600  35.040  28.651  1.00  0.00    -0.246 OA
BRANCH   4   6
ATOM      6  C   UNL A   1      34.228  33.366  28.594  1.00  0.00     0.060 A 
ATOM      7  C   UNL A   1      35.505  33.771  28.200  1.00  0.00     0.016 A 
ATOM      8  C   UNL A   1      34.137  32.314  29.521  1.00  0.00     0.016 A 
ATOM      9  C   UNL A   1      36.648  33.255  28.812  1.00  0.00     0.010 A 
ATOM     10  C   UNL A   1      35.281  31.771  30.119  1.00  0.00     0.010 A 
ATOM     11  C   UNL A   1      36.546  32.269  29.791  1.00  0.00    -0.014 A 
BRANCH  11  12
ATOM     12  C   UNL A   1      37.793  31.684  30.323  1.00  0.00     0.031 A 
ATOM     13  C   UNL A   1      38.196  32.054  31.717  1.00  0.00     0.074 A 
ATOM     14  C   UNL A   1      38.469  30.749  29.626  1.00  0.00     0.049 A 
ATOM     15  N   UNL A   1      39.142  31.550  32.463  1.00  0.00    -0.248 NA
ATOM     16  C   UNL A   1      37.412  33.117  32.367  1.00  0.00     0.031 C 
ATOM     17  C   UNL A   1      38.136  30.290  28.276  1.00  0.00     0.029 A 
ATOM     18  N   UNL A   1      39.568  29.999  29.962  1.00  0.00    -0.354 N 
ATOM     19  C   UNL A   1      39.033  32.201  33.683  1.00  0.00     0.074 A 
ATOM     20  C   UNL A   1      37.989  33.191  33.554  1.00  0.00     0.031 C 
ATOM     21  C   UNL A   1      39.013  29.345  27.897  1.00  0.00     0.029 A 
ATOM     22  C   UNL A   1      39.962  29.119  28.981  1.00  0.00     0.049 A 
ATOM     23  H   UNL A   1      40.031  30.084  30.826  1.00  0.00     0.167 HD
ATOM     24  C   UNL A   1      39.715  31.965  34.825  1.00  0.00     0.037 A 
ATOM     25  C   UNL A   1      40.969  28.223  28.973  1.00  0.00     0.037 A 
ATOM     26  C   UNL A   1      40.774  31.002  34.934  1.00  0.00     0.049 A 
ATOM     27  C   UNL A   1      41.785  28.055  30.229  1.00  0.00     0.074 A 
ATOM     28  C   UNL A   1      41.576  30.718  36.022  1.00  0.00     0.029 A 
ATOM     29  N   UNL A   1      41.185  30.171  33.901  1.00  0.00    -0.354 N 
ATOM     30  N   UNL A   1      41.647  28.654  31.389  1.00  0.00    -0.248 NA
ATOM     31  C   UNL A   1      42.877  27.075  30.187  1.00  0.00     0.031 C 
ATOM     32  C   UNL A   1      42.502  29.744  35.633  1.00  0.00     0.029 A 
ATOM     33  C   UNL A   1      42.242  29.385  34.320  1.00  0.00     0.049 A 
ATOM     34  H   UNL A   1      40.782  30.145  33.002  1.00  0.00     0.167 HD
ATOM     35  C   UNL A   1      42.614  28.103  32.221  1.00  0.00     0.074 A 
ATOM     36  C   UNL A   1      43.311  27.103  31.438  1.00  0.00     0.031 C 
ATOM     37  C   UNL A   1      42.909  28.396  33.512  1.00  0.00     0.037 A 
BRANCH  24  38
ATOM     38  C   UNL A   1      39.328  32.781  36.020  1.00  0.00     0.057 A 
ATOM     39  C   UNL A   1      38.364  32.333  36.933  1.00  0.00     0.134 A 
ATOM     40  C   UNL A   1      39.892  34.042  36.239  1.00  0.00     0.134 A 
ATOM     41  F   UNL A   1      37.763  31.146  36.759  1.00  0.00    -0.206 F 
ATOM     42  C   UNL A   1      37.955  33.122  38.008  1.00  0.00     0.040 A 
ATOM     43  C   UNL A   1      39.509  34.831  37.325  1.00  0.00     0.040 A 
ATOM     44  F   UNL A   1      40.812  34.534  35.395  1.00  0.00    -0.206 F 
ATOM     45  C   UNL A   1      38.531  34.374  38.208  1.00  0.00     0.006 A 
ENDBRANCH  24  38
BRANCH  25  46
ATOM     46  C   UNL A   1      41.271  27.416  27.759  1.00  0.00     0.057 A 
ATOM     47  C   UNL A   1      42.077  27.909  26.725  1.00  0.00     0.134 A 
ATOM     48  C   UNL A   1      40.694  26.153  27.570  1.00  0.00     0.134 A 
ATOM     49  F   UNL A   1      42.648  29.118  26.833  1.00  0.00    -0.206 F 
ATOM     50  C   UNL A   1      42.263  27.200  25.534  1.00  0.00     0.040 A 
ATOM     51  C   UNL A   1      40.895  25.420  26.398  1.00  0.00     0.040 A 
ATOM     52  F   UNL A   1      39.915  25.614  28.520  1.00  0.00    -0.206 F 
ATOM     53  C   UNL A   1      41.669  25.951  25.369  1.00  0.00     0.006 A 
ENDBRANCH  25  46
BRANCH  37  54
ATOM     54  C   UNL A   1      44.013  27.608  34.153  1.00  0.00     0.057 A 
ATOM     55  C   UNL A   1      43.776  26.375  34.775  1.00  0.00     0.134 A 
ATOM     56  C   UNL A   1      45.334  28.072  34.115  1.00  0.00     0.134 A 
ATOM     57  F   UNL A   1      42.531  25.882  34.854  1.00  0.00    -0.206 F 
ATOM     58  C   UNL A   1      44.810  25.645  35.361  1.00  0.00     0.040 A 
ATOM     59  C   UNL A   1      46.381  27.336  34.668  1.00  0.00     0.040 A 
ATOM     60  F   UNL A   1      45.629  29.240  33.524  1.00  0.00    -0.206 F 
ATOM     61  C   UNL A   1      46.118  26.123  35.302  1.00  0.00     0.006 A 
ENDBRANCH  37  54
ENDBRANCH  11  12
ENDBRANCH   4   6
ENDBRANCH   3   4
ENDBRANCH   2   3
ENDBRANCH   1   2
BRANCH   1  62
ATOM     62  O   UNL A   1      31.880  29.733  26.882  1.00  0.00    -0.458 OA
BRANCH  62  63
ATOM     63  C   UNL A   1      32.762  28.698  27.044  1.00  0.00     0.365 C 
ATOM     64  O   UNL A   1      33.837  28.822  27.612  1.00  0.00    -0.245 OA
BRANCH  63  65
ATOM     65  C   UNL A   1      32.248  27.403  26.348  1.00  0.00     0.295 C 
ATOM     66  C   UNL A   1      31.355  27.817  25.191  1.00  0.00     0.083 C 
ATOM     67  N   UNL A   1      33.366  26.680  25.699  1.00  0.00    -0.319 N 
ATOM     68  C   UNL A   1      32.332  28.054  24.042  1.00  0.00     0.068 C 
ATOM     69  C   UNL A   1      33.655  27.424  24.475  1.00  0.00     0.263 C 
ATOM     70  H   UNL A   1      34.156  26.673  26.345  1.00  0.00     0.349 HD
BRANCH  67  71
ATOM     71  C   UNL A   1      33.264  25.221  25.534  1.00  0.00     0.307 C 
BRANCH  71  72
ATOM     72  C   UNL A   1      34.413  24.448  24.913  1.00  0.00     0.084 A 
ATOM     73  C   UNL A   1      35.585  24.244  25.666  1.00  0.00     0.017 A 
ATOM     74  C   UNL A   1      34.415  23.919  23.609  1.00  0.00     0.278 A 
ATOM     75  C   UNL A   1      36.655  23.482  25.181  1.00  0.00     0.001 A 
ATOM     76  C   UNL A   1      35.462  23.112  23.130  1.00  0.00     0.086 A 
ATOM     77  C   UNL A   1      36.579  22.887  23.927  1.00  0.00     0.007 A 
BRANCH  74  78
ATOM     78  N   UNL A   1      33.377  24.254  22.648  1.00  0.00     0.063 N 
ATOM     79  O   UNL A   1      33.637  25.136  21.818  1.00  0.00    -0.258 OA
ATOM     80  O   UNL A   1      32.294  23.664  22.752  1.00  0.00    -0.258 OA
ENDBRANCH  74  78
ENDBRANCH  71  72
ENDBRANCH  67  71
ENDBRANCH  63  65
ENDBRANCH  62  63
ENDBRANCH   1  62
TORSDOF 14
ENDMDL
MODEL 2
REMARK VINA RESULT:     -10.9      4.533      9.389
REMARK SMILES O=C(OCCOC(=O)[C@H]1CCC[N@@H+]1Cc1ccccc1[N+](=O)[O-])c1ccc(-c2c3nc(c(-c4c(F)cccc4F)c4ccc([nH]4)c(-c4c(F)cccc4F)c4nc(c(-c5c(F)cccc5F)c5ccc2[nH]5)C=C4)C=C3)cc1
REMARK SMILES IDX 5 1 4 2 3 3 2 4 1 5 24 6 25 7 77 8 26 9 76 10 27 11 28 12
REMARK SMILES IDX 29 13 70 14 30 15 75 16 69 17 71 18 31 19 74 20 68 21 67 22
REMARK SMILES IDX 32 24 58 25 41 26 57 27 42 28 45 29 56 30 72 31 43 32 44 33
REMARK SMILES IDX 55 35 73 36 46 37 33 38 34 39 39 40 35 41 36 42 38 43 40 44
REMARK SMILES IDX 37 45 59 46 60 47 65 48 61 49 62 50 64 51 66 52 63 53 47 54
REMARK SMILES IDX 48 55 53 56 49 57 50 58 52 59 54 60 51 61 6 62 7 63 8 64
REMARK SMILES IDX 9 65 10 66 13 67 11 68 12 69 14 71 15 72 16 73 20 74 17 75
REMARK SMILES IDX 19 76 18 77 21 78 22 79 23 80
REMARK H PARENT 71 23 45 34 13 70
REMARK Flexibility Score: inf
ROOT
ATOM      1  C   UNL A   1      38.366  21.242  25.576  1.00  0.00     0.274 C 
ENDROOT
BRANCH   1   2
ATOM      2  C   UNL A   1      38.768  19.886  24.979  1.00  0.00     0.275 C 
BRANCH   2   3
ATOM      3  O   UNL A   1      39.777  19.178  25.723  1.00  0.00    -0.458 OA
BRANCH   3   4
ATOM      4  C   UNL A   1      41.084  19.487  25.898  1.00  0.00     0.338 C 
ATOM      5  O   UNL A   1      41.932  18.607  25.764  1.00  0.00    -0.246 OA
BRANCH   4   6
ATOM      6  C   UNL A   1      41.541  20.817  26.416  1.00  0.00     0.060 A 
ATOM      7  C   UNL A   1      42.045  21.869  25.649  1.00  0.00     0.016 A 
ATOM      8  C   UNL A   1      41.421  21.022  27.802  1.00  0.00     0.016 A 
ATOM      9  C   UNL A   1      42.279  23.125  26.209  1.00  0.00     0.010 A 
ATOM     10  C   UNL A   1      41.681  22.272  28.376  1.00  0.00     0.010 A 
ATOM     11  C   UNL A   1      42.078  23.344  27.570  1.00  0.00    -0.014 A 
BRANCH  11  12
ATOM     12  C   UNL A   1      42.446  24.662  28.126  1.00  0.00     0.031 A 
ATOM     13  C   UNL A   1      43.904  24.984  28.248  1.00  0.00     0.074 A 
ATOM     14  C   UNL A   1      41.502  25.589  28.386  1.00  0.00     0.049 A 
ATOM     15  N   UNL A   1      44.476  26.121  28.541  1.00  0.00    -0.248 NA
ATOM     16  C   UNL A   1      44.844  23.882  27.979  1.00  0.00     0.031 C 
ATOM     17  C   UNL A   1      40.058  25.388  28.262  1.00  0.00     0.029 A 
ATOM     18  N   UNL A   1      41.616  26.895  28.792  1.00  0.00    -0.354 N 
ATOM     19  C   UNL A   1      45.838  25.881  28.443  1.00  0.00     0.074 A 
ATOM     20  C   UNL A   1      46.012  24.478  28.148  1.00  0.00     0.031 C 
ATOM     21  C   UNL A   1      39.420  26.524  28.590  1.00  0.00     0.029 A 
ATOM     22  C   UNL A   1      40.408  27.540  28.933  1.00  0.00     0.049 A 
ATOM     23  H   UNL A   1      42.481  27.330  28.965  1.00  0.00     0.167 HD
ATOM     24  C   UNL A   1      46.856  26.764  28.550  1.00  0.00     0.037 A 
ATOM     25  C   UNL A   1      40.142  28.813  29.287  1.00  0.00     0.037 A 
ATOM     26  C   UNL A   1      46.675  28.150  28.877  1.00  0.00     0.049 A 
ATOM     27  C   UNL A   1      41.301  29.751  29.503  1.00  0.00     0.074 A 
ATOM     28  C   UNL A   1      47.634  29.124  29.070  1.00  0.00     0.029 A 
ATOM     29  N   UNL A   1      45.440  28.752  29.072  1.00  0.00    -0.354 N 
ATOM     30  N   UNL A   1      42.587  29.519  29.373  1.00  0.00    -0.248 NA
ATOM     31  C   UNL A   1      40.977  31.130  29.892  1.00  0.00     0.031 C 
ATOM     32  C   UNL A   1      46.980  30.309  29.425  1.00  0.00     0.029 A 
ATOM     33  C   UNL A   1      45.612  30.084  29.402  1.00  0.00     0.049 A 
ATOM     34  H   UNL A   1      44.570  28.298  28.987  1.00  0.00     0.167 HD
ATOM     35  C   UNL A   1      43.221  30.727  29.635  1.00  0.00     0.074 A 
ATOM     36  C   UNL A   1      42.175  31.694  29.903  1.00  0.00     0.031 C 
ATOM     37  C   UNL A   1      44.546  31.018  29.659  1.00  0.00     0.037 A 
BRANCH  24  38
ATOM     38  C   UNL A   1      48.236  26.229  28.321  1.00  0.00     0.057 A 
ATOM     39  C   UNL A   1      48.983  25.660  29.361  1.00  0.00     0.134 A 
ATOM     40  C   UNL A   1      48.839  26.317  27.062  1.00  0.00     0.134 A 
ATOM     41  F   UNL A   1      48.472  25.576  30.599  1.00  0.00    -0.206 F 
ATOM     42  C   UNL A   1      50.293  25.222  29.164  1.00  0.00     0.040 A 
ATOM     43  C   UNL A   1      50.140  25.861  26.846  1.00  0.00     0.040 A 
ATOM     44  F   UNL A   1      48.182  26.862  26.028  1.00  0.00    -0.206 F 
ATOM     45  C   UNL A   1      50.874  25.319  27.901  1.00  0.00     0.006 A 
ENDBRANCH  24  38
BRANCH  25  46
ATOM     46  C   UNL A   1      38.740  29.286  29.457  1.00  0.00     0.057 A 
ATOM     47  C   UNL A   1      38.087  29.231  30.695  1.00  0.00     0.134 A 
ATOM     48  C   UNL A   1      37.992  29.737  28.361  1.00  0.00     0.134 A 
ATOM     49  F   UNL A   1      38.739  28.793  31.783  1.00  0.00    -0.206 F 
ATOM     50  C   UNL A   1      36.736  29.563  30.830  1.00  0.00     0.040 A 
ATOM     51  C   UNL A   1      36.649  30.101  28.486  1.00  0.00     0.040 A 
ATOM     52  F   UNL A   1      38.554  29.822  27.145  1.00  0.00    -0.206 F 
ATOM     53  C   UNL A   1      36.013  29.999  29.721  1.00  0.00     0.006 A 
ENDBRANCH  25  46
BRANCH  37  54
ATOM     54  C   UNL A   1      44.926  32.436  29.962  1.00  0.00     0.057 A 
ATOM     55  C   UNL A   1      45.236  32.857  31.263  1.00  0.00     0.134 A 
ATOM     56  C   UNL A   1      45.019  33.384  28.935  1.00  0.00     0.134 A 
ATOM     57  F   UNL A   1      45.154  31.999  32.291  1.00  0.00    -0.206 F 
ATOM     58  C   UNL A   1      45.596  34.177  31.534  1.00  0.00     0.040 A 
ATOM     59  C   UNL A   1      45.410  34.698  29.189  1.00  0.00     0.040 A 
ATOM     60  F   UNL A   1      44.747  33.043  27.666  1.00  0.00    -0.206 F 
ATOM     61  C   UNL A   1      45.691  35.100  30.494  1.00  0.00     0.006 A 
ENDBRANCH  37  54
ENDBRANCH  11  12
ENDBRANCH   4   6
ENDBRANCH   3   4
ENDBRANCH   2   3
ENDBRANCH   1   2
BRANCH   1  62
ATOM     62  O   UNL A   1      37.548  22.036  24.698  1.00  0.00    -0.458 OA
BRANCH  62  63
ATOM     63  C   UNL A   1      36.962  23.121  25.296  1.00  0.00     0.365 C 
ATOM     64  O   UNL A   1      37.555  23.851  26.078  1.00  0.00    -0.245 OA
BRANCH  63  65
ATOM     65  C   UNL A   1      35.457  23.234  24.911  1.00  0.00     0.295 C 
ATOM     66  C   UNL A   1      34.905  21.826  24.764  1.00  0.00     0.083 C 
ATOM     67  N   UNL A   1      34.675  23.812  26.029  1.00  0.00    -0.319 N 
ATOM     68  C   UNL A   1      34.518  21.435  26.189  1.00  0.00     0.068 C 
ATOM     69  C   UNL A   1      34.518  22.730  26.998  1.00  0.00     0.263 C 
ATOM     70  H   UNL A   1      35.200  24.600  26.408  1.00  0.00     0.349 HD
BRANCH  67  71
ATOM     71  C   UNL A   1      33.444  24.556  25.719  1.00  0.00     0.307 C 
BRANCH  71  72
ATOM     72  C   UNL A   1      33.531  25.965  25.162  1.00  0.00     0.084 A 
ATOM     73  C   UNL A   1      33.732  27.039  26.050  1.00  0.00     0.017 A 
ATOM     74  C   UNL A   1      33.409  26.301  23.802  1.00  0.00     0.278 A 
ATOM     75  C   UNL A   1      33.892  28.355  25.598  1.00  0.00     0.001 A 
ATOM     76  C   UNL A   1      33.616  27.610  23.332  1.00  0.00     0.086 A 
ATOM     77  C   UNL A   1      33.868  28.635  24.237  1.00  0.00     0.007 A 
BRANCH  74  78
ATOM     78  N   UNL A   1      32.970  25.330  22.812  1.00  0.00     0.063 N 
ATOM     79  O   UNL A   1      31.749  25.163  22.687  1.00  0.00    -0.258 OA
ATOM     80  O   UNL A   1      33.845  24.711  22.194  1.00  0.00    -0.258 OA
ENDBRANCH  74  78
ENDBRANCH  71  72
ENDBRANCH  67  71
ENDBRANCH  63  65
ENDBRANCH  62  63
ENDBRANCH   1  62
TORSDOF 14
ENDMDL
MODEL 3
REMARK VINA RESULT:     -10.9      0.357      1.378
REMARK SMILES O=C(OCCOC(=O)[C@H]1CCC[N@@H+]1Cc1ccccc1[N+](=O)[O-])c1ccc(-c2c3nc(c(-c4c(F)cccc4F)c4ccc([nH]4)c(-c4c(F)cccc4F)c4nc(c(-c5c(F)cccc5F)c5ccc2[nH]5)C=C4)C=C3)cc1
REMARK SMILES IDX 5 1 4 2 3 3 2 4 1 5 24 6 25 7 77 8 26 9 76 10 27 11 28 12
REMARK SMILES IDX 29 13 70 14 30 15 75 16 69 17 71 18 31 19 74 20 68 21 67 22
REMARK SMILES IDX 32 24 58 25 41 26 57 27 42 28 45 29 56 30 72 31 43 32 44 33
REMARK SMILES IDX 55 35 73 36 46 37 33 38 34 39 39 40 35 41 36 42 38 43 40 44
REMARK SMILES IDX 37 45 59 46 60 47 65 48 61 49 62 50 64 51 66 52 63 53 47 54
REMARK SMILES IDX 48 55 53 56 49 57 50 58 52 59 54 60 51 61 6 62 7 63 8 64
REMARK SMILES IDX 9 65 10 66 13 67 11 68 12 69 14 71 15 72 16 73 20 74 17 75
REMARK SMILES IDX 19 76 18 77 21 78 22 79 23 80
REMARK H PARENT 71 23 45 34 13 70
REMARK Flexibility Score: inf
ROOT
ATOM      1  C   UNL A   1      32.288  30.834  26.361  1.00  0.00     0.274 C 
ENDROOT
BRANCH   1   2
ATOM      2  C   UNL A   1      31.453  32.009  26.886  1.00  0.00     0.275 C 
BRANCH   2   3
ATOM      3  O   UNL A   1      32.152  33.267  26.940  1.00  0.00    -0.458 OA
BRANCH   3   4
ATOM      4  C   UNL A   1      32.876  33.799  27.954  1.00  0.00     0.338 C 
ATOM      5  O   UNL A   1      32.524  34.869  28.445  1.00  0.00    -0.246 OA
BRANCH   4   6
ATOM      6  C   UNL A   1      34.190  33.232  28.399  1.00  0.00     0.060 A 
ATOM      7  C   UNL A   1      35.449  33.782  28.149  1.00  0.00     0.016 A 
ATOM      8  C   UNL A   1      34.135  32.054  29.163  1.00  0.00     0.016 A 
ATOM      9  C   UNL A   1      36.596  33.269  28.755  1.00  0.00     0.010 A 
ATOM     10  C   UNL A   1      35.286  31.517  29.753  1.00  0.00     0.010 A 
ATOM     11  C   UNL A   1      36.522  32.148  29.580  1.00  0.00    -0.014 A 
BRANCH  11  12
ATOM     12  C   UNL A   1      37.782  31.586  30.106  1.00  0.00     0.031 A 
ATOM     13  C   UNL A   1      38.180  31.954  31.502  1.00  0.00     0.074 A 
ATOM     14  C   UNL A   1      38.477  30.672  29.400  1.00  0.00     0.049 A 
ATOM     15  N   UNL A   1      39.137  31.464  32.243  1.00  0.00    -0.248 NA
ATOM     16  C   UNL A   1      37.373  32.995  32.162  1.00  0.00     0.031 C 
ATOM     17  C   UNL A   1      38.152  30.216  28.047  1.00  0.00     0.029 A 
ATOM     18  N   UNL A   1      39.593  29.943  29.730  1.00  0.00    -0.354 N 
ATOM     19  C   UNL A   1      39.015  32.103  33.468  1.00  0.00     0.074 A 
ATOM     20  C   UNL A   1      37.950  33.072  33.348  1.00  0.00     0.031 C 
ATOM     21  C   UNL A   1      39.049  29.294  27.660  1.00  0.00     0.029 A 
ATOM     22  C   UNL A   1      40.004  29.079  28.740  1.00  0.00     0.049 A 
ATOM     23  H   UNL A   1      40.055  30.031  30.594  1.00  0.00     0.167 HD
ATOM     24  C   UNL A   1      39.705  31.873  34.607  1.00  0.00     0.037 A 
ATOM     25  C   UNL A   1      41.030  28.206  28.725  1.00  0.00     0.037 A 
ATOM     26  C   UNL A   1      40.784  30.933  34.707  1.00  0.00     0.049 A 
ATOM     27  C   UNL A   1      41.851  28.046  29.978  1.00  0.00     0.074 A 
ATOM     28  C   UNL A   1      41.593  30.657  35.792  1.00  0.00     0.029 A 
ATOM     29  N   UNL A   1      41.211  30.119  33.667  1.00  0.00    -0.354 N 
ATOM     30  N   UNL A   1      41.702  28.632  31.143  1.00  0.00    -0.248 NA
ATOM     31  C   UNL A   1      42.965  27.089  29.927  1.00  0.00     0.031 C 
ATOM     32  C   UNL A   1      42.539  29.707  35.394  1.00  0.00     0.029 A 
ATOM     33  C   UNL A   1      42.286  29.353  34.078  1.00  0.00     0.049 A 
ATOM     34  H   UNL A   1      40.807  30.091  32.769  1.00  0.00     0.167 HD
ATOM     35  C   UNL A   1      42.682  28.096  31.969  1.00  0.00     0.074 A 
ATOM     36  C   UNL A   1      43.399  27.117  31.177  1.00  0.00     0.031 C 
ATOM     37  C   UNL A   1      42.973  28.384  33.262  1.00  0.00     0.037 A 
BRANCH  24  38
ATOM     38  C   UNL A   1      39.302  32.672  35.809  1.00  0.00     0.057 A 
ATOM     39  C   UNL A   1      39.880  33.918  36.088  1.00  0.00     0.134 A 
ATOM     40  C   UNL A   1      38.359  32.177  36.716  1.00  0.00     0.134 A 
ATOM     41  F   UNL A   1      40.814  34.432  35.273  1.00  0.00    -0.206 F 
ATOM     42  C   UNL A   1      39.554  34.631  37.242  1.00  0.00     0.040 A 
ATOM     43  C   UNL A   1      38.007  32.892  37.861  1.00  0.00     0.040 A 
ATOM     44  F   UNL A   1      37.778  30.985  36.512  1.00  0.00    -0.206 F 
ATOM     45  C   UNL A   1      38.611  34.119  38.131  1.00  0.00     0.006 A 
ENDBRANCH  24  38
BRANCH  25  46
ATOM     46  C   UNL A   1      41.348  27.414  27.503  1.00  0.00     0.057 A 
ATOM     47  C   UNL A   1      40.882  26.105  27.330  1.00  0.00     0.134 A 
ATOM     48  C   UNL A   1      42.192  27.927  26.510  1.00  0.00     0.134 A 
ATOM     49  F   UNL A   1      40.082  25.545  28.251  1.00  0.00    -0.206 F 
ATOM     50  C   UNL A   1      41.276  25.321  26.242  1.00  0.00     0.040 A 
ATOM     51  C   UNL A   1      42.571  27.166  25.401  1.00  0.00     0.040 A 
ATOM     52  F   UNL A   1      42.672  29.177  26.606  1.00  0.00    -0.206 F 
ATOM     53  C   UNL A   1      42.125  25.853  25.273  1.00  0.00     0.006 A 
ENDBRANCH  25  46
BRANCH  37  54
ATOM     54  C   UNL A   1      44.094  27.616  33.896  1.00  0.00     0.057 A 
ATOM     55  C   UNL A   1      43.871  26.417  34.586  1.00  0.00     0.134 A 
ATOM     56  C   UNL A   1      45.417  28.061  33.780  1.00  0.00     0.134 A 
ATOM     57  F   UNL A   1      42.625  25.944  34.740  1.00  0.00    -0.206 F 
ATOM     58  C   UNL A   1      44.921  25.704  35.165  1.00  0.00     0.040 A 
ATOM     59  C   UNL A   1      46.478  27.341  34.326  1.00  0.00     0.040 A 
ATOM     60  F   UNL A   1      45.699  29.196  33.122  1.00  0.00    -0.206 F 
ATOM     61  C   UNL A   1      46.231  26.163  35.029  1.00  0.00     0.006 A 
ENDBRANCH  37  54
ENDBRANCH  11  12
ENDBRANCH   4   6
ENDBRANCH   3   4
ENDBRANCH   2   3
ENDBRANCH   1   2
BRANCH   1  62
ATOM     62  O   UNL A   1      31.657  29.554  26.543  1.00  0.00    -0.458 OA
BRANCH  62  63
ATOM     63  C   UNL A   1      32.528  28.511  26.713  1.00  0.00     0.365 C 
ATOM     64  O   UNL A   1      33.587  28.618  27.316  1.00  0.00    -0.245 OA
BRANCH  63  65
ATOM     65  C   UNL A   1      32.029  27.232  25.978  1.00  0.00     0.295 C 
ATOM     66  C   UNL A   1      31.041  27.663  24.907  1.00  0.00     0.083 C 
ATOM     67  N   UNL A   1      33.132  26.603  25.216  1.00  0.00    -0.319 N 
ATOM     68  C   UNL A   1      31.926  28.012  23.713  1.00  0.00     0.068 C 
ATOM     69  C   UNL A   1      33.303  27.426  24.021  1.00  0.00     0.263 C 
ATOM     70  H   UNL A   1      33.964  26.600  25.808  1.00  0.00     0.349 HD
BRANCH  67  71
ATOM     71  C   UNL A   1      33.087  25.152  24.974  1.00  0.00     0.307 C 
BRANCH  71  72
ATOM     72  C   UNL A   1      34.362  24.402  24.634  1.00  0.00     0.084 A 
ATOM     73  C   UNL A   1      35.464  24.498  25.504  1.00  0.00     0.017 A 
ATOM     74  C   UNL A   1      34.549  23.612  23.485  1.00  0.00     0.278 A 
ATOM     75  C   UNL A   1      36.646  23.779  25.288  1.00  0.00     0.001 A 
ATOM     76  C   UNL A   1      35.711  22.847  23.282  1.00  0.00     0.086 A 
ATOM     77  C   UNL A   1      36.756  22.926  24.196  1.00  0.00     0.007 A 
BRANCH  74  78
ATOM     78  N   UNL A   1      33.587  23.613  22.394  1.00  0.00     0.063 N 
ATOM     79  O   UNL A   1      33.590  24.595  21.638  1.00  0.00    -0.258 OA
ATOM     80  O   UNL A   1      32.809  22.653  22.320  1.00  0.00    -0.258 OA
ENDBRANCH  74  78
ENDBRANCH  71  72
ENDBRANCH  67  71
ENDBRANCH  63  65
ENDBRANCH  62  63
ENDBRANCH   1  62
TORSDOF 14
ENDMDL
