MODEL 1
REMARK VINA RESULT:     -13.7      0.000      0.000
REMARK SMILES CS(=O)(=O)c1ccc(C2=NN(c3ccc(C(=O)OCCOC(=O)c4ccc(-c5c6nc(c(-c7c(F)cccc7F)c7ccc([nH]7)c(-c7c(F)cccc7F)c7nc(c(-c8c(F)cccc8F)c8ccc5[nH]8)C=C7)C=C6)cc4)cc3)[C@H](c3ccc(F)cc3)C2)cc1
REMARK SMILES IDX 19 1 18 2 16 3 17 4 15 5 12 6 13 7 79 8 14 9 78 10 11 11
REMARK SMILES IDX 9 12 10 13 88 14 80 15 8 16 5 17 6 18 90 19 7 20 89 21 2 22
REMARK SMILES IDX 1 23 3 24 4 25 81 26 82 27 87 28 83 29 86 30 84 31 85 32
REMARK SMILES IDX 20 33 21 34 22 35 23 36 24 37 25 38 77 39 26 40 76 41 27 42
REMARK SMILES IDX 28 43 29 44 70 45 30 46 75 47 69 48 71 49 31 50 74 51 68 52
REMARK SMILES IDX 67 53 32 55 58 56 41 57 57 58 42 59 45 60 56 61 72 62 43 63
REMARK SMILES IDX 44 64 55 66 73 67 46 68 33 69 34 70 39 71 35 72 36 73 38 74
REMARK SMILES IDX 40 75 37 76 59 77 60 78 65 79 61 80 62 81 64 82 66 83 63 84
REMARK SMILES IDX 47 85 48 86 53 87 49 88 50 89 52 90 54 91 51 92
REMARK H PARENT 71 54 45 65
REMARK Flexibility Score: inf
ROOT
ATOM      1  C   UNL A   1      40.505  22.452  26.940  1.00  0.00     0.275 C 
ENDROOT
BRANCH   1   2
ATOM      2  O   UNL A   1      39.277  22.928  26.356  1.00  0.00    -0.458 OA
BRANCH   2   3
ATOM      3  C   UNL A   1      38.566  22.012  25.657  1.00  0.00     0.338 C 
ATOM      4  O   UNL A   1      38.882  20.847  25.460  1.00  0.00    -0.246 OA
BRANCH   3   5
ATOM      5  C   UNL A   1      37.279  22.576  25.181  1.00  0.00     0.060 A 
ATOM      6  C   UNL A   1      34.738  23.519  24.440  1.00  0.00     0.060 A 
ATOM      7  C   UNL A   1      35.195  23.687  25.749  1.00  0.00     0.029 A 
ATOM      8  C   UNL A   1      35.593  22.943  23.491  1.00  0.00     0.029 A 
ATOM      9  C   UNL A   1      36.442  23.191  26.125  1.00  0.00     0.018 A 
ATOM     10  C   UNL A   1      36.861  22.474  23.853  1.00  0.00     0.018 A 
BRANCH   6  11
ATOM     11  N   UNL A   1      33.402  23.751  24.118  1.00  0.00    -0.257 N 
ATOM     12  C   UNL A   1      31.741  25.079  24.011  1.00  0.00     0.071 C 
ATOM     13  N   UNL A   1      33.001  24.982  23.716  1.00  0.00    -0.176 NA
ATOM     14  C   UNL A   1      31.161  23.924  24.783  1.00  0.00     0.091 C 
ATOM     15  C   UNL A   1      32.365  22.976  24.807  1.00  0.00     0.144 C 
BRANCH  12  16
ATOM     16  C   UNL A   1      30.919  26.239  23.614  1.00  0.00    -0.002 A 
ATOM     17  C   UNL A   1      29.292  28.406  22.948  1.00  0.00     0.067 A 
ATOM     18  C   UNL A   1      28.740  27.289  23.585  1.00  0.00     0.021 A 
ATOM     19  C   UNL A   1      30.653  28.442  22.633  1.00  0.00     0.021 A 
ATOM     20  C   UNL A   1      29.551  26.203  23.908  1.00  0.00     0.011 A 
ATOM     21  C   UNL A   1      31.470  27.355  22.976  1.00  0.00     0.011 A 
BRANCH  17  22
ATOM     22  S   UNL A   1      28.183  29.750  22.590  1.00  0.00     0.175 S 
ATOM     23  C   UNL A   1      28.845  31.210  23.335  1.00  0.00     0.163 C 
ATOM     24  O   UNL A   1      26.943  29.442  23.277  1.00  0.00    -0.224 OA
ATOM     25  O   UNL A   1      28.220  29.938  21.152  1.00  0.00    -0.224 OA
ENDBRANCH  17  22
ENDBRANCH  12  16
BRANCH  15  26
ATOM     26  C   UNL A   1      32.239  21.617  24.132  1.00  0.00    -0.023 A 
ATOM     27  C   UNL A   1      32.037  21.459  22.753  1.00  0.00     0.009 A 
ATOM     28  C   UNL A   1      32.480  20.462  24.909  1.00  0.00     0.009 A 
ATOM     29  C   UNL A   1      32.076  20.188  22.171  1.00  0.00     0.039 A 
ATOM     30  C   UNL A   1      32.546  19.198  24.323  1.00  0.00     0.039 A 
ATOM     31  C   UNL A   1      32.343  19.074  22.957  1.00  0.00     0.123 A 
ATOM     32  F   UNL A   1      32.424  17.866  22.385  1.00  0.00    -0.207 F 
ENDBRANCH  15  26
ENDBRANCH   6  11
ENDBRANCH   3   5
ENDBRANCH   2   3
ENDBRANCH   1   2
BRANCH   1  33
ATOM     33  C   UNL A   1      41.714  22.985  26.174  1.00  0.00     0.275 C 
BRANCH  33  34
ATOM     34  O   UNL A   1      42.210  24.184  26.799  1.00  0.00    -0.458 OA
BRANCH  34  35
ATOM     35  C   UNL A   1      41.842  25.345  26.211  1.00  0.00     0.338 C 
ATOM     36  O   UNL A   1      41.835  25.615  25.024  1.00  0.00    -0.246 OA
BRANCH  35  37
ATOM     37  C   UNL A   1      41.392  26.291  27.244  1.00  0.00     0.060 A 
ATOM     38  C   UNL A   1      42.046  27.513  27.363  1.00  0.00     0.016 A 
ATOM     39  C   UNL A   1      40.425  25.918  28.175  1.00  0.00     0.016 A 
ATOM     40  C   UNL A   1      41.786  28.348  28.446  1.00  0.00     0.010 A 
ATOM     41  C   UNL A   1      40.112  26.789  29.225  1.00  0.00     0.010 A 
ATOM     42  C   UNL A   1      40.812  28.000  29.390  1.00  0.00    -0.014 A 
BRANCH  42  43
ATOM     43  C   UNL A   1      40.569  28.870  30.574  1.00  0.00     0.031 A 
ATOM     44  C   UNL A   1      39.455  29.884  30.549  1.00  0.00     0.074 A 
ATOM     45  C   UNL A   1      41.327  28.749  31.681  1.00  0.00     0.049 A 
ATOM     46  N   UNL A   1      39.186  30.842  31.400  1.00  0.00    -0.248 NA
ATOM     47  C   UNL A   1      38.529  29.817  29.408  1.00  0.00     0.031 C 
ATOM     48  C   UNL A   1      42.409  27.782  31.866  1.00  0.00     0.029 A 
ATOM     49  N   UNL A   1      41.300  29.447  32.864  1.00  0.00    -0.354 N 
ATOM     50  C   UNL A   1      38.102  31.528  30.869  1.00  0.00     0.074 A 
ATOM     51  C   UNL A   1      37.760  30.876  29.621  1.00  0.00     0.031 C 
ATOM     52  C   UNL A   1      42.923  27.927  33.098  1.00  0.00     0.029 A 
ATOM     53  C   UNL A   1      42.263  29.048  33.760  1.00  0.00     0.049 A 
ATOM     54  H   UNL A   1      40.653  30.165  33.052  1.00  0.00     0.167 HD
ATOM     55  C   UNL A   1      37.451  32.604  31.372  1.00  0.00     0.037 A 
ATOM     56  C   UNL A   1      42.608  29.550  34.960  1.00  0.00     0.037 A 
ATOM     57  C   UNL A   1      37.750  33.214  32.642  1.00  0.00     0.049 A 
ATOM     58  C   UNL A   1      41.884  30.753  35.494  1.00  0.00     0.074 A 
ATOM     59  C   UNL A   1      37.127  34.290  33.251  1.00  0.00     0.029 A 
ATOM     60  N   UNL A   1      38.747  32.789  33.506  1.00  0.00    -0.354 N 
ATOM     61  N   UNL A   1      40.892  31.424  34.958  1.00  0.00    -0.248 NA
ATOM     62  C   UNL A   1      42.339  31.281  36.787  1.00  0.00     0.031 C 
ATOM     63  C   UNL A   1      37.769  34.536  34.470  1.00  0.00     0.029 A 
ATOM     64  C   UNL A   1      38.765  33.590  34.638  1.00  0.00     0.049 A 
ATOM     65  H   UNL A   1      39.353  32.030  33.342  1.00  0.00     0.167 HD
ATOM     66  C   UNL A   1      40.600  32.447  35.851  1.00  0.00     0.074 A 
ATOM     67  C   UNL A   1      41.505  32.296  36.972  1.00  0.00     0.031 C 
ATOM     68  C   UNL A   1      39.671  33.426  35.746  1.00  0.00     0.037 A 
BRANCH  55  69
ATOM     69  C   UNL A   1      36.371  33.218  30.529  1.00  0.00     0.057 A 
ATOM     70  C   UNL A   1      36.655  34.021  29.418  1.00  0.00     0.134 A 
ATOM     71  C   UNL A   1      35.023  32.979  30.825  1.00  0.00     0.134 A 
ATOM     72  F   UNL A   1      37.926  34.299  29.087  1.00  0.00    -0.206 F 
ATOM     73  C   UNL A   1      35.637  34.586  28.647  1.00  0.00     0.040 A 
ATOM     74  C   UNL A   1      33.997  33.516  30.047  1.00  0.00     0.040 A 
ATOM     75  F   UNL A   1      34.681  32.211  31.871  1.00  0.00    -0.206 F 
ATOM     76  C   UNL A   1      34.303  34.330  28.958  1.00  0.00     0.006 A 
ENDBRANCH  55  69
BRANCH  56  77
ATOM     77  C   UNL A   1      43.723  28.933  35.722  1.00  0.00     0.057 A 
ATOM     78  C   UNL A   1      43.496  27.873  36.607  1.00  0.00     0.134 A 
ATOM     79  C   UNL A   1      45.042  29.376  35.568  1.00  0.00     0.134 A 
ATOM     80  F   UNL A   1      42.251  27.421  36.814  1.00  0.00    -0.206 F 
ATOM     81  C   UNL A   1      44.542  27.277  37.312  1.00  0.00     0.040 A 
ATOM     82  C   UNL A   1      46.100  28.772  36.247  1.00  0.00     0.040 A 
ATOM     83  F   UNL A   1      45.323  30.389  34.734  1.00  0.00    -0.206 F 
ATOM     84  C   UNL A   1      45.850  27.720  37.126  1.00  0.00     0.006 A 
ENDBRANCH  56  77
BRANCH  68  85
ATOM     85  C   UNL A   1      39.569  34.396  36.886  1.00  0.00     0.057 A 
ATOM     86  C   UNL A   1      40.176  35.656  36.835  1.00  0.00     0.134 A 
ATOM     87  C   UNL A   1      38.832  34.074  38.032  1.00  0.00     0.134 A 
ATOM     88  F   UNL A   1      40.908  36.017  35.771  1.00  0.00    -0.206 F 
ATOM     89  C   UNL A   1      40.068  36.558  37.895  1.00  0.00     0.040 A 
ATOM     90  C   UNL A   1      38.698  34.976  39.088  1.00  0.00     0.040 A 
ATOM     91  F   UNL A   1      38.222  32.884  38.139  1.00  0.00    -0.206 F 
ATOM     92  C   UNL A   1      39.322  36.221  39.023  1.00  0.00     0.006 A 
ENDBRANCH  68  85
ENDBRANCH  42  43
ENDBRANCH  35  37
ENDBRANCH  34  35
ENDBRANCH  33  34
ENDBRANCH   1  33
TORSDOF 15
ENDMDL
MODEL 2
REMARK VINA RESULT:     -13.6      1.677      6.263
REMARK SMILES CS(=O)(=O)c1ccc(C2=NN(c3ccc(C(=O)OCCOC(=O)c4ccc(-c5c6nc(c(-c7c(F)cccc7F)c7ccc([nH]7)c(-c7c(F)cccc7F)c7nc(c(-c8c(F)cccc8F)c8ccc5[nH]8)C=C7)C=C6)cc4)cc3)[C@H](c3ccc(F)cc3)C2)cc1
REMARK SMILES IDX 19 1 18 2 16 3 17 4 15 5 12 6 13 7 79 8 14 9 78 10 11 11
REMARK SMILES IDX 9 12 10 13 88 14 80 15 8 16 5 17 6 18 90 19 7 20 89 21 2 22
REMARK SMILES IDX 1 23 3 24 4 25 81 26 82 27 87 28 83 29 86 30 84 31 85 32
REMARK SMILES IDX 20 33 21 34 22 35 23 36 24 37 25 38 77 39 26 40 76 41 27 42
REMARK SMILES IDX 28 43 29 44 70 45 30 46 75 47 69 48 71 49 31 50 74 51 68 52
REMARK SMILES IDX 67 53 32 55 58 56 41 57 57 58 42 59 45 60 56 61 72 62 43 63
REMARK SMILES IDX 44 64 55 66 73 67 46 68 33 69 34 70 39 71 35 72 36 73 38 74
REMARK SMILES IDX 40 75 37 76 59 77 60 78 65 79 61 80 62 81 64 82 66 83 63 84
REMARK SMILES IDX 47 85 48 86 53 87 49 88 50 89 52 90 54 91 51 92
REMARK H PARENT 71 54 45 65
REMARK Flexibility Score: inf
ROOT
ATOM      1  C   UNL A   1      42.012  20.900  26.059  1.00  0.00     0.275 C 
ENDROOT
BRANCH   1   2
ATOM      2  O   UNL A   1      40.729  21.324  25.558  1.00  0.00    -0.458 OA
BRANCH   2   3
ATOM      3  C   UNL A   1      39.840  21.732  26.494  1.00  0.00     0.338 C 
ATOM      4  O   UNL A   1      40.038  21.805  27.698  1.00  0.00    -0.246 OA
BRANCH   3   5
ATOM      5  C   UNL A   1      38.560  22.156  25.874  1.00  0.00     0.060 A 
ATOM      6  C   UNL A   1      36.058  22.994  24.911  1.00  0.00     0.060 A 
ATOM      7  C   UNL A   1      36.814  23.838  25.726  1.00  0.00     0.029 A 
ATOM      8  C   UNL A   1      36.598  21.760  24.523  1.00  0.00     0.029 A 
ATOM      9  C   UNL A   1      38.041  23.411  26.230  1.00  0.00     0.018 A 
ATOM     10  C   UNL A   1      37.845  21.338  24.997  1.00  0.00     0.018 A 
BRANCH   6  11
ATOM     11  N   UNL A   1      34.723  23.284  24.631  1.00  0.00    -0.257 N 
ATOM     12  C   UNL A   1      33.117  24.681  24.584  1.00  0.00     0.071 C 
ATOM     13  N   UNL A   1      34.362  24.534  24.250  1.00  0.00    -0.176 NA
ATOM     14  C   UNL A   1      32.512  23.545  25.364  1.00  0.00     0.091 C 
ATOM     15  C   UNL A   1      33.675  22.547  25.345  1.00  0.00     0.144 C 
BRANCH  12  16
ATOM     16  C   UNL A   1      32.333  25.877  24.220  1.00  0.00    -0.002 A 
ATOM     17  C   UNL A   1      30.799  28.078  23.449  1.00  0.00     0.067 A 
ATOM     18  C   UNL A   1      31.101  27.078  22.518  1.00  0.00     0.021 A 
ATOM     19  C   UNL A   1      31.268  27.989  24.762  1.00  0.00     0.021 A 
ATOM     20  C   UNL A   1      31.876  25.985  22.901  1.00  0.00     0.011 A 
ATOM     21  C   UNL A   1      32.032  26.878  25.149  1.00  0.00     0.011 A 
BRANCH  17  22
ATOM     22  S   UNL A   1      29.792  29.426  22.873  1.00  0.00     0.175 S 
ATOM     23  C   UNL A   1      28.119  28.857  22.798  1.00  0.00     0.163 C 
ATOM     24  O   UNL A   1      30.215  29.692  21.511  1.00  0.00    -0.224 OA
ATOM     25  O   UNL A   1      29.858  30.452  23.896  1.00  0.00    -0.224 OA
ENDBRANCH  17  22
ENDBRANCH  12  16
BRANCH  15  26
ATOM     26  C   UNL A   1      33.472  21.200  24.665  1.00  0.00    -0.023 A 
ATOM     27  C   UNL A   1      33.972  19.995  25.181  1.00  0.00     0.009 A 
ATOM     28  C   UNL A   1      32.618  21.143  23.541  1.00  0.00     0.009 A 
ATOM     29  C   UNL A   1      33.629  18.775  24.591  1.00  0.00     0.039 A 
ATOM     30  C   UNL A   1      32.255  19.923  22.971  1.00  0.00     0.039 A 
ATOM     31  C   UNL A   1      32.765  18.749  23.502  1.00  0.00     0.123 A 
ATOM     32  F   UNL A   1      32.405  17.573  22.972  1.00  0.00    -0.207 F 
ENDBRANCH  15  26
ENDBRANCH   6  11
ENDBRANCH   3   5
ENDBRANCH   2   3
ENDBRANCH   1   2
BRANCH   1  33
ATOM     33  C   UNL A   1      43.143  21.668  25.378  1.00  0.00     0.275 C 
BRANCH  33  34
ATOM     34  O   UNL A   1      42.660  22.933  24.888  1.00  0.00    -0.458 OA
BRANCH  34  35
ATOM     35  C   UNL A   1      43.493  23.984  25.062  1.00  0.00     0.338 C 
ATOM     36  O   UNL A   1      44.568  24.185  24.527  1.00  0.00    -0.246 OA
BRANCH  35  37
ATOM     37  C   UNL A   1      42.889  24.930  26.013  1.00  0.00     0.060 A 
ATOM     38  C   UNL A   1      43.367  26.237  26.051  1.00  0.00     0.016 A 
ATOM     39  C   UNL A   1      41.958  24.495  26.953  1.00  0.00     0.016 A 
ATOM     40  C   UNL A   1      42.966  27.104  27.064  1.00  0.00     0.010 A 
ATOM     41  C   UNL A   1      41.500  25.388  27.929  1.00  0.00     0.010 A 
ATOM     42  C   UNL A   1      42.023  26.693  28.014  1.00  0.00    -0.014 A 
BRANCH  42  43
ATOM     43  C   UNL A   1      41.631  27.604  29.125  1.00  0.00     0.031 A 
ATOM     44  C   UNL A   1      42.414  27.605  30.411  1.00  0.00     0.074 A 
ATOM     45  C   UNL A   1      40.588  28.446  28.986  1.00  0.00     0.049 A 
ATOM     46  N   UNL A   1      42.141  28.193  31.549  1.00  0.00    -0.248 NA
ATOM     47  C   UNL A   1      43.665  26.832  30.422  1.00  0.00     0.031 C 
ATOM     48  C   UNL A   1      39.768  28.588  27.783  1.00  0.00     0.029 A 
ATOM     49  N   UNL A   1      40.041  29.345  29.869  1.00  0.00    -0.354 N 
ATOM     50  C   UNL A   1      43.149  27.812  32.425  1.00  0.00     0.074 A 
ATOM     51  C   UNL A   1      44.042  26.943  31.688  1.00  0.00     0.031 C 
ATOM     52  C   UNL A   1      38.841  29.537  27.992  1.00  0.00     0.029 A 
ATOM     53  C   UNL A   1      38.950  30.013  29.368  1.00  0.00     0.049 A 
ATOM     54  H   UNL A   1      40.395  29.495  30.775  1.00  0.00     0.167 HD
ATOM     55  C   UNL A   1      43.314  28.153  33.725  1.00  0.00     0.037 A 
ATOM     56  C   UNL A   1      38.105  30.880  29.956  1.00  0.00     0.037 A 
ATOM     57  C   UNL A   1      42.461  29.066  34.442  1.00  0.00     0.049 A 
ATOM     58  C   UNL A   1      38.297  31.234  31.403  1.00  0.00     0.074 A 
ATOM     59  C   UNL A   1      42.565  29.496  35.754  1.00  0.00     0.029 A 
ATOM     60  N   UNL A   1      41.356  29.704  33.899  1.00  0.00    -0.354 N 
ATOM     61  N   UNL A   1      39.225  30.828  32.235  1.00  0.00    -0.248 NA
ATOM     62  C   UNL A   1      37.313  32.148  31.998  1.00  0.00     0.031 C 
ATOM     63  C   UNL A   1      41.503  30.369  36.014  1.00  0.00     0.029 A 
ATOM     64  C   UNL A   1      40.762  30.514  34.854  1.00  0.00     0.049 A 
ATOM     65  H   UNL A   1      41.040  29.598  32.972  1.00  0.00     0.167 HD
ATOM     66  C   UNL A   1      38.943  31.441  33.448  1.00  0.00     0.074 A 
ATOM     67  C   UNL A   1      37.769  32.264  33.238  1.00  0.00     0.031 C 
ATOM     68  C   UNL A   1      39.594  31.328  34.630  1.00  0.00     0.037 A 
BRANCH  55  69
ATOM     69  C   UNL A   1      44.443  27.504  34.473  1.00  0.00     0.057 A 
ATOM     70  C   UNL A   1      45.692  28.117  34.622  1.00  0.00     0.134 A 
ATOM     71  C   UNL A   1      44.263  26.250  35.073  1.00  0.00     0.134 A 
ATOM     72  F   UNL A   1      45.935  29.312  34.061  1.00  0.00    -0.206 F 
ATOM     73  C   UNL A   1      46.732  27.495  35.319  1.00  0.00     0.040 A 
ATOM     74  C   UNL A   1      45.284  25.631  35.794  1.00  0.00     0.040 A 
ATOM     75  F   UNL A   1      43.087  25.612  34.976  1.00  0.00    -0.206 F 
ATOM     76  C   UNL A   1      46.527  26.251  35.911  1.00  0.00     0.006 A 
ENDBRANCH  55  69
BRANCH  56  77
ATOM     77  C   UNL A   1      36.973  31.445  29.178  1.00  0.00     0.057 A 
ATOM     78  C   UNL A   1      35.830  30.686  28.907  1.00  0.00     0.134 A 
ATOM     79  C   UNL A   1      37.002  32.764  28.706  1.00  0.00     0.134 A 
ATOM     80  F   UNL A   1      35.754  29.411  29.314  1.00  0.00    -0.206 F 
ATOM     81  C   UNL A   1      34.755  31.218  28.193  1.00  0.00     0.040 A 
ATOM     82  C   UNL A   1      35.924  33.315  28.013  1.00  0.00     0.040 A 
ATOM     83  F   UNL A   1      38.070  33.541  28.933  1.00  0.00    -0.206 F 
ATOM     84  C   UNL A   1      34.796  32.539  27.751  1.00  0.00     0.006 A 
ENDBRANCH  56  77
BRANCH  68  85
ATOM     85  C   UNL A   1      39.066  32.131  35.781  1.00  0.00     0.057 A 
ATOM     86  C   UNL A   1      38.200  31.575  36.730  1.00  0.00     0.134 A 
ATOM     87  C   UNL A   1      39.452  33.465  35.956  1.00  0.00     0.134 A 
ATOM     88  F   UNL A   1      37.781  30.306  36.608  1.00  0.00    -0.206 F 
ATOM     89  C   UNL A   1      37.721  32.325  37.805  1.00  0.00     0.040 A 
ATOM     90  C   UNL A   1      38.998  34.219  37.039  1.00  0.00     0.040 A 
ATOM     91  F   UNL A   1      40.284  34.054  35.085  1.00  0.00    -0.206 F 
ATOM     92  C   UNL A   1      38.125  33.649  37.965  1.00  0.00     0.006 A 
ENDBRANCH  68  85
ENDBRANCH  42  43
ENDBRANCH  35  37
ENDBRANCH  34  35
ENDBRANCH  33  34
ENDBRANCH   1  33
TORSDOF 15
ENDMDL
MODEL 3
REMARK VINA RESULT:     -13.6      5.166     10.146
REMARK SMILES CS(=O)(=O)c1ccc(C2=NN(c3ccc(C(=O)OCCOC(=O)c4ccc(-c5c6nc(c(-c7c(F)cccc7F)c7ccc([nH]7)c(-c7c(F)cccc7F)c7nc(c(-c8c(F)cccc8F)c8ccc5[nH]8)C=C7)C=C6)cc4)cc3)[C@H](c3ccc(F)cc3)C2)cc1
REMARK SMILES IDX 19 1 18 2 16 3 17 4 15 5 12 6 13 7 79 8 14 9 78 10 11 11
REMARK SMILES IDX 9 12 10 13 88 14 80 15 8 16 5 17 6 18 90 19 7 20 89 21 2 22
REMARK SMILES IDX 1 23 3 24 4 25 81 26 82 27 87 28 83 29 86 30 84 31 85 32
REMARK SMILES IDX 20 33 21 34 22 35 23 36 24 37 25 38 77 39 26 40 76 41 27 42
REMARK SMILES IDX 28 43 29 44 70 45 30 46 75 47 69 48 71 49 31 50 74 51 68 52
REMARK SMILES IDX 67 53 32 55 58 56 41 57 57 58 42 59 45 60 56 61 72 62 43 63
REMARK SMILES IDX 44 64 55 66 73 67 46 68 33 69 34 70 39 71 35 72 36 73 38 74
REMARK SMILES IDX 40 75 37 76 59 77 60 78 65 79 61 80 62 81 64 82 66 83 63 84
REMARK SMILES IDX 47 85 48 86 53 87 49 88 50 89 52 90 54 91 51 92
REMARK H PARENT 71 54 45 65
REMARK Flexibility Score: inf
ROOT
ATOM      1  C   UNL A   1      34.061  33.652  29.321  1.00  0.00     0.275 C 
ENDROOT
BRANCH   1   2
ATOM      2  O   UNL A   1      33.713  32.328  28.873  1.00  0.00    -0.458 OA
BRANCH   2   3
ATOM      3  C   UNL A   1      34.422  31.860  27.818  1.00  0.00     0.338 C 
ATOM      4  O   UNL A   1      35.437  32.357  27.351  1.00  0.00    -0.246 OA
BRANCH   3   5
ATOM      5  C   UNL A   1      33.848  30.594  27.300  1.00  0.00     0.060 A 
ATOM      6  C   UNL A   1      32.917  28.205  26.152  1.00  0.00     0.060 A 
ATOM      7  C   UNL A   1      34.250  28.318  26.553  1.00  0.00     0.029 A 
ATOM      8  C   UNL A   1      32.040  29.270  26.400  1.00  0.00     0.029 A 
ATOM      9  C   UNL A   1      34.720  29.514  27.093  1.00  0.00     0.018 A 
ATOM     10  C   UNL A   1      32.497  30.461  26.974  1.00  0.00     0.018 A 
BRANCH   6  11
ATOM     11  N   UNL A   1      32.500  27.134  25.363  1.00  0.00    -0.257 N 
ATOM     12  C   UNL A   1      32.742  25.118  24.725  1.00  0.00     0.071 C 
ATOM     13  N   UNL A   1      32.687  25.861  25.787  1.00  0.00    -0.176 NA
ATOM     14  C   UNL A   1      32.717  25.853  23.412  1.00  0.00     0.091 C 
ATOM     15  C   UNL A   1      32.503  27.289  23.904  1.00  0.00     0.144 C 
BRANCH  12  16
ATOM     16  C   UNL A   1      32.817  23.645  24.788  1.00  0.00    -0.002 A 
ATOM     17  C   UNL A   1      33.001  20.860  24.801  1.00  0.00     0.067 A 
ATOM     18  C   UNL A   1      32.841  21.543  23.590  1.00  0.00     0.021 A 
ATOM     19  C   UNL A   1      33.059  21.561  26.009  1.00  0.00     0.021 A 
ATOM     20  C   UNL A   1      32.739  22.932  23.586  1.00  0.00     0.011 A 
ATOM     21  C   UNL A   1      32.975  22.961  25.999  1.00  0.00     0.011 A 
BRANCH  17  22
ATOM     22  S   UNL A   1      33.137  19.089  24.707  1.00  0.00     0.175 S 
ATOM     23  C   UNL A   1      32.379  18.569  23.197  1.00  0.00     0.163 C 
ATOM     24  O   UNL A   1      32.331  18.565  25.794  1.00  0.00    -0.224 OA
ATOM     25  O   UNL A   1      34.553  18.792  24.610  1.00  0.00    -0.224 OA
ENDBRANCH  17  22
ENDBRANCH  12  16
BRANCH  15  26
ATOM     26  C   UNL A   1      31.237  28.024  23.486  1.00  0.00    -0.023 A 
ATOM     27  C   UNL A   1      31.248  29.193  22.711  1.00  0.00     0.009 A 
ATOM     28  C   UNL A   1      29.992  27.421  23.769  1.00  0.00     0.009 A 
ATOM     29  C   UNL A   1      30.052  29.740  22.235  1.00  0.00     0.039 A 
ATOM     30  C   UNL A   1      28.802  27.951  23.271  1.00  0.00     0.039 A 
ATOM     31  C   UNL A   1      28.844  29.108  22.508  1.00  0.00     0.123 A 
ATOM     32  F   UNL A   1      27.708  29.612  22.011  1.00  0.00    -0.207 F 
ENDBRANCH  15  26
ENDBRANCH   6  11
ENDBRANCH   3   5
ENDBRANCH   2   3
ENDBRANCH   1   2
BRANCH   1  33
ATOM     33  C   UNL A   1      34.385  33.652  30.814  1.00  0.00     0.275 C 
BRANCH  33  34
ATOM     34  O   UNL A   1      34.573  32.303  31.282  1.00  0.00    -0.458 OA
BRANCH  34  35
ATOM     35  C   UNL A   1      35.578  32.127  32.170  1.00  0.00     0.338 C 
ATOM     36  O   UNL A   1      35.609  32.456  33.342  1.00  0.00    -0.246 OA
BRANCH  35  37
ATOM     37  C   UNL A   1      36.687  31.416  31.515  1.00  0.00     0.060 A 
ATOM     38  C   UNL A   1      37.605  30.733  32.307  1.00  0.00     0.016 A 
ATOM     39  C   UNL A   1      36.896  31.538  30.143  1.00  0.00     0.016 A 
ATOM     40  C   UNL A   1      38.771  30.218  31.748  1.00  0.00     0.010 A 
ATOM     41  C   UNL A   1      38.033  30.958  29.569  1.00  0.00     0.010 A 
ATOM     42  C   UNL A   1      38.999  30.319  30.370  1.00  0.00    -0.014 A 
BRANCH  42  43
ATOM     43  C   UNL A   1      40.269  29.811  29.780  1.00  0.00     0.031 A 
ATOM     44  C   UNL A   1      41.457  30.727  29.645  1.00  0.00     0.074 A 
ATOM     45  C   UNL A   1      40.375  28.529  29.380  1.00  0.00     0.049 A 
ATOM     46  N   UNL A   1      42.588  30.532  29.014  1.00  0.00    -0.248 NA
ATOM     47  C   UNL A   1      41.354  32.041  30.298  1.00  0.00     0.031 C 
ATOM     48  C   UNL A   1      39.325  27.517  29.492  1.00  0.00     0.029 A 
ATOM     49  N   UNL A   1      41.422  27.857  28.797  1.00  0.00    -0.354 N 
ATOM     50  C   UNL A   1      43.302  31.716  29.140  1.00  0.00     0.074 A 
ATOM     51  C   UNL A   1      42.479  32.626  29.910  1.00  0.00     0.031 C 
ATOM     52  C   UNL A   1      39.789  26.348  29.022  1.00  0.00     0.029 A 
ATOM     53  C   UNL A   1      41.139  26.546  28.503  1.00  0.00     0.049 A 
ATOM     54  H   UNL A   1      42.293  28.276  28.609  1.00  0.00     0.167 HD
ATOM     55  C   UNL A   1      44.530  32.020  28.656  1.00  0.00     0.037 A 
ATOM     56  C   UNL A   1      41.861  25.616  27.852  1.00  0.00     0.037 A 
ATOM     57  C   UNL A   1      45.375  31.097  27.944  1.00  0.00     0.049 A 
ATOM     58  C   UNL A   1      43.215  25.977  27.310  1.00  0.00     0.074 A 
ATOM     59  C   UNL A   1      46.648  31.303  27.440  1.00  0.00     0.029 A 
ATOM     60  N   UNL A   1      45.038  29.784  27.650  1.00  0.00    -0.354 N 
ATOM     61  N   UNL A   1      43.859  27.116  27.393  1.00  0.00    -0.248 NA
ATOM     62  C   UNL A   1      43.933  24.932  26.569  1.00  0.00     0.031 C 
ATOM     63  C   UNL A   1      47.068  30.125  26.813  1.00  0.00     0.029 A 
ATOM     64  C   UNL A   1      46.073  29.173  26.961  1.00  0.00     0.049 A 
ATOM     65  H   UNL A   1      44.189  29.350  27.896  1.00  0.00     0.167 HD
ATOM     66  C   UNL A   1      45.059  26.924  26.721  1.00  0.00     0.074 A 
ATOM     67  C   UNL A   1      45.063  25.551  26.256  1.00  0.00     0.031 C 
ATOM     68  C   UNL A   1      46.063  27.806  26.505  1.00  0.00     0.037 A 
BRANCH  55  69
ATOM     69  C   UNL A   1      45.022  33.426  28.848  1.00  0.00     0.057 A 
ATOM     70  C   UNL A   1      45.811  33.800  29.942  1.00  0.00     0.134 A 
ATOM     71  C   UNL A   1      44.714  34.416  27.906  1.00  0.00     0.134 A 
ATOM     72  F   UNL A   1      46.132  32.903  30.888  1.00  0.00    -0.206 F 
ATOM     73  C   UNL A   1      46.257  35.113  30.105  1.00  0.00     0.040 A 
ATOM     74  C   UNL A   1      45.174  35.726  28.044  1.00  0.00     0.040 A 
ATOM     75  F   UNL A   1      43.968  34.123  26.830  1.00  0.00    -0.206 F 
ATOM     76  C   UNL A   1      45.942  36.079  29.151  1.00  0.00     0.006 A 
ENDBRANCH  55  69
BRANCH  56  77
ATOM     77  C   UNL A   1      41.296  24.258  27.644  1.00  0.00     0.057 A 
ATOM     78  C   UNL A   1      40.297  24.027  26.692  1.00  0.00     0.134 A 
ATOM     79  C   UNL A   1      41.757  23.158  28.378  1.00  0.00     0.134 A 
ATOM     80  F   UNL A   1      39.800  25.045  25.975  1.00  0.00    -0.206 F 
ATOM     81  C   UNL A   1      39.775  22.751  26.479  1.00  0.00     0.040 A 
ATOM     82  C   UNL A   1      41.262  21.873  28.157  1.00  0.00     0.040 A 
ATOM     83  F   UNL A   1      42.714  23.316  29.305  1.00  0.00    -0.206 F 
ATOM     84  C   UNL A   1      40.265  21.667  27.207  1.00  0.00     0.006 A 
ENDBRANCH  56  77
BRANCH  68  85
ATOM     85  C   UNL A   1      47.261  27.308  25.752  1.00  0.00     0.057 A 
ATOM     86  C   UNL A   1      47.382  27.476  24.368  1.00  0.00     0.134 A 
ATOM     87  C   UNL A   1      48.315  26.679  26.426  1.00  0.00     0.134 A 
ATOM     88  F   UNL A   1      46.399  28.057  23.664  1.00  0.00    -0.206 F 
ATOM     89  C   UNL A   1      48.505  27.020  23.675  1.00  0.00     0.040 A 
ATOM     90  C   UNL A   1      49.452  26.238  25.748  1.00  0.00     0.040 A 
ATOM     91  F   UNL A   1      48.261  26.493  27.753  1.00  0.00    -0.206 F 
ATOM     92  C   UNL A   1      49.547  26.404  24.367  1.00  0.00     0.006 A 
ENDBRANCH  68  85
ENDBRANCH  42  43
ENDBRANCH  35  37
ENDBRANCH  34  35
ENDBRANCH  33  34
ENDBRANCH   1  33
TORSDOF 15
ENDMDL
