MODEL 1
REMARK VINA RESULT:     -12.4      0.000      0.000
REMARK SMILES Cc1ccc2cc(C[N@H+]3CC[NH2+][C@H](C(=O)OCCOC(=O)c4ccc(-c5c6nc(c(-c7c(F)cccc7F)c7ccc([nH]7)c(-c7c(F)cccc7F)c7nc(c(-c8c(F)cccc8F)c8ccc5[nH]8)C=C7)C=C6)cc4)C3)c(N3CCOCC3)nc2c1
REMARK SMILES IDX 17 1 16 2 14 3 15 4 13 5 9 6 10 7 76 8 11 10 12 11 8 14 7 15
REMARK SMILES IDX 1 16 2 17 3 18 86 19 4 20 85 21 5 22 84 23 6 24 77 25 78 26
REMARK SMILES IDX 79 27 83 28 80 29 82 30 81 31 18 32 19 33 20 34 21 35 22 36
REMARK SMILES IDX 23 37 75 38 24 39 74 40 25 41 26 42 27 43 68 44 28 45 73 46
REMARK SMILES IDX 67 47 69 48 29 49 72 50 66 51 65 52 30 54 56 55 39 56 55 57
REMARK SMILES IDX 40 58 43 59 54 60 70 61 41 62 42 63 53 65 71 66 44 67 31 68
REMARK SMILES IDX 32 69 37 70 33 71 34 72 36 73 38 74 35 75 57 76 58 77 63 78
REMARK SMILES IDX 59 79 60 80 62 81 64 82 61 83 45 84 46 85 51 86 47 87 48 88
REMARK SMILES IDX 50 89 52 90 49 91
REMARK H PARENT 9 9 12 12 12 13 69 53 43 64
REMARK Flexibility Score: inf
ROOT
ATOM      1  C   UNL A   1      36.055  21.414  25.254  1.00  0.00     0.274 C 
ENDROOT
BRANCH   1   2
ATOM      2  O   UNL A   1      36.150  22.444  24.253  1.00  0.00    -0.457 OA
BRANCH   2   3
ATOM      3  C   UNL A   1      35.594  23.623  24.633  1.00  0.00     0.371 C 
ATOM      4  O   UNL A   1      35.990  24.300  25.580  1.00  0.00    -0.245 OA
BRANCH   3   5
ATOM      5  C   UNL A   1      34.390  24.031  23.809  1.00  0.00     0.348 C 
ATOM      6  N   UNL A   1      32.762  23.215  22.091  1.00  0.00    -0.321 N 
ATOM      7  C   UNL A   1      32.491  24.639  21.800  1.00  0.00     0.324 C 
ATOM      8  C   UNL A   1      34.084  23.016  22.703  1.00  0.00     0.341 C 
ATOM      9  H   UNL A   1      32.806  22.763  21.178  1.00  0.00     0.348 HD
ATOM     10  C   UNL A   1      33.041  25.696  22.799  1.00  0.00     0.323 C 
ATOM     11  N   UNL A   1      34.412  25.416  23.283  1.00  0.00    -0.325 N 
ATOM     12  H   UNL A   1      34.665  26.071  24.022  1.00  0.00     0.347 HD
ATOM     13  H   UNL A   1      35.097  25.520  22.535  1.00  0.00     0.347 HD
BRANCH   6  14
ATOM     14  C   UNL A   1      31.659  22.472  22.733  1.00  0.00     0.303 C 
BRANCH  14  15
ATOM     15  C   UNL A   1      31.988  21.196  23.484  1.00  0.00     0.049 A 
ATOM     16  C   UNL A   1      34.708  15.523  25.139  1.00  0.00     0.044 C 
ATOM     17  C   UNL A   1      34.026  16.714  24.533  1.00  0.00    -0.049 A 
ATOM     18  C   UNL A   1      33.768  16.710  23.166  1.00  0.00     0.004 A 
ATOM     19  C   UNL A   1      33.686  17.852  25.293  1.00  0.00     0.032 A 
ATOM     20  C   UNL A   1      33.118  17.791  22.585  1.00  0.00     0.010 A 
ATOM     21  C   UNL A   1      33.061  18.969  24.729  1.00  0.00     0.073 A 
ATOM     22  C   UNL A   1      32.760  18.904  23.359  1.00  0.00     0.001 A 
ATOM     23  N   UNL A   1      32.770  20.070  25.466  1.00  0.00    -0.230 NA
ATOM     24  C   UNL A   1      32.165  20.011  22.762  1.00  0.00     0.023 A 
ATOM     25  C   UNL A   1      32.223  21.160  24.865  1.00  0.00     0.138 A 
BRANCH  25  26
ATOM     26  N   UNL A   1      31.893  22.259  25.638  1.00  0.00    -0.352 N 
ATOM     27  C   UNL A   1      30.493  22.362  26.081  1.00  0.00     0.146 C 
ATOM     28  C   UNL A   1      32.839  22.765  26.635  1.00  0.00     0.146 C 
ATOM     29  C   UNL A   1      30.193  23.840  26.369  1.00  0.00     0.181 C 
ATOM     30  C   UNL A   1      32.459  24.229  26.946  1.00  0.00     0.181 C 
ATOM     31  O   UNL A   1      31.087  24.363  27.367  1.00  0.00    -0.378 OA
ENDBRANCH  25  26
ENDBRANCH  14  15
ENDBRANCH   6  14
ENDBRANCH   3   5
ENDBRANCH   2   3
ENDBRANCH   1   2
BRANCH   1  32
ATOM     32  C   UNL A   1      37.335  20.580  25.324  1.00  0.00     0.275 C 
BRANCH  32  33
ATOM     33  O   UNL A   1      38.518  21.389  25.166  1.00  0.00    -0.458 OA
BRANCH  33  34
ATOM     34  C   UNL A   1      39.495  21.144  26.074  1.00  0.00     0.338 C 
ATOM     35  O   UNL A   1      40.022  20.072  26.314  1.00  0.00    -0.246 OA
BRANCH  34  36
ATOM     36  C   UNL A   1      39.868  22.384  26.777  1.00  0.00     0.060 A 
ATOM     37  C   UNL A   1      40.879  22.361  27.734  1.00  0.00     0.016 A 
ATOM     38  C   UNL A   1      39.352  23.603  26.338  1.00  0.00     0.016 A 
ATOM     39  C   UNL A   1      41.376  23.572  28.232  1.00  0.00     0.010 A 
ATOM     40  C   UNL A   1      39.899  24.806  26.778  1.00  0.00     0.010 A 
ATOM     41  C   UNL A   1      40.914  24.809  27.736  1.00  0.00    -0.014 A 
BRANCH  41  42
ATOM     42  C   UNL A   1      41.581  26.067  28.160  1.00  0.00     0.031 A 
ATOM     43  C   UNL A   1      42.993  26.401  27.786  1.00  0.00     0.074 A 
ATOM     44  C   UNL A   1      40.915  26.940  28.938  1.00  0.00     0.049 A 
ATOM     45  N   UNL A   1      43.567  27.578  27.718  1.00  0.00    -0.248 NA
ATOM     46  C   UNL A   1      43.887  25.279  27.484  1.00  0.00     0.031 C 
ATOM     47  C   UNL A   1      39.611  26.704  29.553  1.00  0.00     0.029 A 
ATOM     48  N   UNL A   1      41.250  28.210  29.330  1.00  0.00    -0.354 N 
ATOM     49  C   UNL A   1      44.857  27.338  27.274  1.00  0.00     0.074 A 
ATOM     50  C   UNL A   1      45.025  25.908  27.227  1.00  0.00     0.031 C 
ATOM     51  C   UNL A   1      39.235  27.811  30.214  1.00  0.00     0.029 A 
ATOM     52  C   UNL A   1      40.263  28.837  30.044  1.00  0.00     0.049 A 
ATOM     53  H   UNL A   1      42.116  28.631  29.119  1.00  0.00     0.167 HD
ATOM     54  C   UNL A   1      45.809  28.222  26.895  1.00  0.00     0.037 A 
ATOM     55  C   UNL A   1      40.172  30.110  30.469  1.00  0.00     0.037 A 
ATOM     56  C   UNL A   1      45.701  29.640  27.086  1.00  0.00     0.049 A 
ATOM     57  C   UNL A   1      41.237  31.100  30.091  1.00  0.00     0.074 A 
ATOM     58  C   UNL A   1      46.567  30.646  26.696  1.00  0.00     0.029 A 
ATOM     59  N   UNL A   1      44.679  30.245  27.801  1.00  0.00    -0.354 N 
ATOM     60  N   UNL A   1      42.324  30.919  29.381  1.00  0.00    -0.248 NA
ATOM     61  C   UNL A   1      41.037  32.484  30.543  1.00  0.00     0.031 C 
ATOM     62  C   UNL A   1      46.102  31.853  27.239  1.00  0.00     0.029 A 
ATOM     63  C   UNL A   1      44.923  31.600  27.923  1.00  0.00     0.049 A 
ATOM     64  H   UNL A   1      43.894  29.777  28.167  1.00  0.00     0.167 HD
ATOM     65  C   UNL A   1      42.926  32.168  29.279  1.00  0.00     0.074 A 
ATOM     66  C   UNL A   1      42.074  33.099  29.989  1.00  0.00     0.031 C 
ATOM     67  C   UNL A   1      44.076  32.513  28.646  1.00  0.00     0.037 A 
BRANCH  54  68
ATOM     68  C   UNL A   1      47.022  27.658  26.216  1.00  0.00     0.057 A 
ATOM     69  C   UNL A   1      48.137  27.227  26.939  1.00  0.00     0.134 A 
ATOM     70  C   UNL A   1      47.069  27.535  24.818  1.00  0.00     0.134 A 
ATOM     71  F   UNL A   1      48.159  27.312  28.277  1.00  0.00    -0.206 F 
ATOM     72  C   UNL A   1      49.254  26.684  26.297  1.00  0.00     0.040 A 
ATOM     73  C   UNL A   1      48.171  26.979  24.167  1.00  0.00     0.040 A 
ATOM     74  F   UNL A   1      46.025  27.919  24.066  1.00  0.00    -0.206 F 
ATOM     75  C   UNL A   1      49.270  26.554  24.908  1.00  0.00     0.006 A 
ENDBRANCH  54  68
BRANCH  55  76
ATOM     76  C   UNL A   1      38.967  30.531  31.219  1.00  0.00     0.057 A 
ATOM     77  C   UNL A   1      38.894  30.401  32.610  1.00  0.00     0.134 A 
ATOM     78  C   UNL A   1      37.844  31.035  30.553  1.00  0.00     0.134 A 
ATOM     79  F   UNL A   1      39.935  29.913  33.299  1.00  0.00    -0.206 F 
ATOM     80  C   UNL A   1      37.742  30.749  33.314  1.00  0.00     0.040 A 
ATOM     81  C   UNL A   1      36.691  31.404  31.246  1.00  0.00     0.040 A 
ATOM     82  F   UNL A   1      37.861  31.189  29.221  1.00  0.00    -0.206 F 
ATOM     83  C   UNL A   1      36.636  31.255  32.632  1.00  0.00     0.006 A 
ENDBRANCH  55  76
BRANCH  67  84
ATOM     84  C   UNL A   1      44.479  33.956  28.696  1.00  0.00     0.057 A 
ATOM     85  C   UNL A   1      44.067  34.849  27.700  1.00  0.00     0.134 A 
ATOM     86  C   UNL A   1      45.298  34.456  29.716  1.00  0.00     0.134 A 
ATOM     87  F   UNL A   1      43.290  34.432  26.689  1.00  0.00    -0.206 F 
ATOM     88  C   UNL A   1      44.454  36.190  27.717  1.00  0.00     0.040 A 
ATOM     89  C   UNL A   1      45.672  35.800  29.757  1.00  0.00     0.040 A 
ATOM     90  F   UNL A   1      45.719  33.654  30.706  1.00  0.00    -0.206 F 
ATOM     91  C   UNL A   1      45.253  36.670  28.752  1.00  0.00     0.006 A 
ENDBRANCH  67  84
ENDBRANCH  41  42
ENDBRANCH  34  36
ENDBRANCH  33  34
ENDBRANCH  32  33
ENDBRANCH   1  32
TORSDOF 14
ENDMDL
MODEL 2
REMARK VINA RESULT:     -12.2      3.799      8.279
REMARK SMILES Cc1ccc2cc(C[N@H+]3CC[NH2+][C@H](C(=O)OCCOC(=O)c4ccc(-c5c6nc(c(-c7c(F)cccc7F)c7ccc([nH]7)c(-c7c(F)cccc7F)c7nc(c(-c8c(F)cccc8F)c8ccc5[nH]8)C=C7)C=C6)cc4)C3)c(N3CCOCC3)nc2c1
REMARK SMILES IDX 17 1 16 2 14 3 15 4 13 5 9 6 10 7 76 8 11 10 12 11 8 14 7 15
REMARK SMILES IDX 1 16 2 17 3 18 86 19 4 20 85 21 5 22 84 23 6 24 77 25 78 26
REMARK SMILES IDX 79 27 83 28 80 29 82 30 81 31 18 32 19 33 20 34 21 35 22 36
REMARK SMILES IDX 23 37 75 38 24 39 74 40 25 41 26 42 27 43 68 44 28 45 73 46
REMARK SMILES IDX 67 47 69 48 29 49 72 50 66 51 65 52 30 54 56 55 39 56 55 57
REMARK SMILES IDX 40 58 43 59 54 60 70 61 41 62 42 63 53 65 71 66 44 67 31 68
REMARK SMILES IDX 32 69 37 70 33 71 34 72 36 73 38 74 35 75 57 76 58 77 63 78
REMARK SMILES IDX 59 79 60 80 62 81 64 82 61 83 45 84 46 85 51 86 47 87 48 88
REMARK SMILES IDX 50 89 52 90 49 91
REMARK H PARENT 9 9 12 12 12 13 69 53 43 64
REMARK Flexibility Score: inf
ROOT
ATOM      1  C   UNL A   1      32.586  29.572  25.071  1.00  0.00     0.274 C 
ENDROOT
BRANCH   1   2
ATOM      2  O   UNL A   1      31.742  29.323  23.931  1.00  0.00    -0.457 OA
BRANCH   2   3
ATOM      3  C   UNL A   1      32.276  28.445  23.042  1.00  0.00     0.371 C 
ATOM      4  O   UNL A   1      33.119  28.744  22.199  1.00  0.00    -0.245 OA
BRANCH   3   5
ATOM      5  C   UNL A   1      31.707  27.045  23.140  1.00  0.00     0.348 C 
ATOM      6  N   UNL A   1      31.641  24.819  21.995  1.00  0.00    -0.321 N 
ATOM      7  C   UNL A   1      30.414  24.553  22.776  1.00  0.00     0.324 C 
ATOM      8  C   UNL A   1      31.898  26.258  21.838  1.00  0.00     0.341 C 
ATOM      9  H   UNL A   1      31.440  24.468  21.059  1.00  0.00     0.348 HD
ATOM     10  C   UNL A   1      30.079  25.524  23.943  1.00  0.00     0.323 C 
ATOM     11  N   UNL A   1      30.312  26.951  23.630  1.00  0.00    -0.325 N 
ATOM     12  H   UNL A   1      30.193  27.520  24.468  1.00  0.00     0.347 HD
ATOM     13  H   UNL A   1      29.649  27.292  22.934  1.00  0.00     0.347 HD
BRANCH   6  14
ATOM     14  C   UNL A   1      32.822  24.011  22.363  1.00  0.00     0.303 C 
BRANCH  14  15
ATOM     15  C   UNL A   1      32.626  22.824  23.286  1.00  0.00     0.049 A 
ATOM     16  C   UNL A   1      32.876  16.816  25.767  1.00  0.00     0.044 C 
ATOM     17  C   UNL A   1      32.718  18.086  24.987  1.00  0.00    -0.049 A 
ATOM     18  C   UNL A   1      32.454  18.002  23.622  1.00  0.00     0.004 A 
ATOM     19  C   UNL A   1      32.875  19.357  25.578  1.00  0.00     0.032 A 
ATOM     20  C   UNL A   1      32.281  19.163  22.881  1.00  0.00     0.010 A 
ATOM     21  C   UNL A   1      32.740  20.544  24.850  1.00  0.00     0.073 A 
ATOM     22  C   UNL A   1      32.413  20.420  23.490  1.00  0.00     0.001 A 
ATOM     23  N   UNL A   1      32.928  21.758  25.425  1.00  0.00    -0.230 NA
ATOM     24  C   UNL A   1      32.300  21.582  22.731  1.00  0.00     0.023 A 
ATOM     25  C   UNL A   1      32.852  22.883  24.667  1.00  0.00     0.138 A 
BRANCH  25  26
ATOM     26  N   UNL A   1      33.004  24.116  25.277  1.00  0.00    -0.352 N 
ATOM     27  C   UNL A   1      32.153  24.385  26.448  1.00  0.00     0.146 C 
ATOM     28  C   UNL A   1      34.334  24.716  25.396  1.00  0.00     0.146 C 
ATOM     29  C   UNL A   1      32.018  25.908  26.596  1.00  0.00     0.181 C 
ATOM     30  C   UNL A   1      34.150  26.234  25.612  1.00  0.00     0.181 C 
ATOM     31  O   UNL A   1      33.307  26.529  26.745  1.00  0.00    -0.378 OA
ENDBRANCH  25  26
ENDBRANCH  14  15
ENDBRANCH   6  14
ENDBRANCH   3   5
ENDBRANCH   2   3
ENDBRANCH   1   2
BRANCH   1  32
ATOM     32  C   UNL A   1      31.924  30.535  26.057  1.00  0.00     0.275 C 
BRANCH  32  33
ATOM     33  O   UNL A   1      32.604  30.563  27.327  1.00  0.00    -0.458 OA
BRANCH  33  34
ATOM     34  C   UNL A   1      33.364  31.666  27.538  1.00  0.00     0.338 C 
ATOM     35  O   UNL A   1      32.996  32.827  27.510  1.00  0.00    -0.246 OA
BRANCH  34  36
ATOM     36  C   UNL A   1      34.760  31.284  27.817  1.00  0.00     0.060 A 
ATOM     37  C   UNL A   1      35.718  32.271  28.033  1.00  0.00     0.016 A 
ATOM     38  C   UNL A   1      35.068  29.947  28.064  1.00  0.00     0.016 A 
ATOM     39  C   UNL A   1      36.982  31.903  28.513  1.00  0.00     0.010 A 
ATOM     40  C   UNL A   1      36.299  29.591  28.613  1.00  0.00     0.010 A 
ATOM     41  C   UNL A   1      37.276  30.562  28.839  1.00  0.00    -0.014 A 
BRANCH  41  42
ATOM     42  C   UNL A   1      38.561  30.233  29.506  1.00  0.00     0.031 A 
ATOM     43  C   UNL A   1      38.920  30.738  30.870  1.00  0.00     0.074 A 
ATOM     44  C   UNL A   1      39.466  29.474  28.861  1.00  0.00     0.049 A 
ATOM     45  N   UNL A   1      39.770  30.238  31.733  1.00  0.00    -0.248 NA
ATOM     46  C   UNL A   1      38.275  31.978  31.313  1.00  0.00     0.031 C 
ATOM     47  C   UNL A   1      39.377  29.049  27.465  1.00  0.00     0.029 A 
ATOM     48  N   UNL A   1      40.638  28.920  29.309  1.00  0.00    -0.354 N 
ATOM     49  C   UNL A   1      39.687  31.050  32.853  1.00  0.00     0.074 A 
ATOM     50  C   UNL A   1      38.818  32.148  32.510  1.00  0.00     0.031 C 
ATOM     51  C   UNL A   1      40.428  28.265  27.181  1.00  0.00     0.029 A 
ATOM     52  C   UNL A   1      41.247  28.115  28.382  1.00  0.00     0.049 A 
ATOM     53  H   UNL A   1      41.004  29.084  30.209  1.00  0.00     0.167 HD
ATOM     54  C   UNL A   1      40.244  30.881  34.074  1.00  0.00     0.037 A 
ATOM     55  C   UNL A   1      42.316  27.308  28.502  1.00  0.00     0.037 A 
ATOM     56  C   UNL A   1      41.227  29.879  34.371  1.00  0.00     0.049 A 
ATOM     57  C   UNL A   1      42.973  27.134  29.843  1.00  0.00     0.074 A 
ATOM     58  C   UNL A   1      41.826  29.569  35.579  1.00  0.00     0.029 A 
ATOM     59  N   UNL A   1      41.814  29.069  33.411  1.00  0.00    -0.354 N 
ATOM     60  N   UNL A   1      42.673  27.687  30.992  1.00  0.00    -0.248 NA
ATOM     61  C   UNL A   1      44.098  26.190  29.905  1.00  0.00     0.031 C 
ATOM     62  C   UNL A   1      42.827  28.617  35.333  1.00  0.00     0.029 A 
ATOM     63  C   UNL A   1      42.814  28.305  33.982  1.00  0.00     0.049 A 
ATOM     64  H   UNL A   1      41.555  29.042  32.461  1.00  0.00     0.167 HD
ATOM     65  C   UNL A   1      43.551  27.141  31.921  1.00  0.00     0.074 A 
ATOM     66  C   UNL A   1      44.387  26.204  31.200  1.00  0.00     0.031 C 
ATOM     67  C   UNL A   1      43.650  27.388  33.252  1.00  0.00     0.037 A 
BRANCH  54  68
ATOM     68  C   UNL A   1      39.766  31.794  35.165  1.00  0.00     0.057 A 
ATOM     69  C   UNL A   1      40.404  33.004  35.446  1.00  0.00     0.134 A 
ATOM     70  C   UNL A   1      38.643  31.459  35.939  1.00  0.00     0.134 A 
ATOM     71  F   UNL A   1      41.481  33.388  34.745  1.00  0.00    -0.206 F 
ATOM     72  C   UNL A   1      39.938  33.856  36.452  1.00  0.00     0.040 A 
ATOM     73  C   UNL A   1      38.158  32.308  36.934  1.00  0.00     0.040 A 
ATOM     74  F   UNL A   1      37.976  30.316  35.711  1.00  0.00    -0.206 F 
ATOM     75  C   UNL A   1      38.808  33.511  37.194  1.00  0.00     0.006 A 
ENDBRANCH  54  68
BRANCH  55  76
ATOM     76  C   UNL A   1      42.760  26.525  27.326  1.00  0.00     0.057 A 
ATOM     77  C   UNL A   1      42.256  25.245  27.072  1.00  0.00     0.134 A 
ATOM     78  C   UNL A   1      43.732  27.027  26.453  1.00  0.00     0.134 A 
ATOM     79  F   UNL A   1      41.332  24.710  27.883  1.00  0.00    -0.206 F 
ATOM     80  C   UNL A   1      42.709  24.485  25.994  1.00  0.00     0.040 A 
ATOM     81  C   UNL A   1      44.182  26.285  25.360  1.00  0.00     0.040 A 
ATOM     82  F   UNL A   1      44.244  28.251  26.644  1.00  0.00    -0.206 F 
ATOM     83  C   UNL A   1      43.673  25.006  25.133  1.00  0.00     0.006 A 
ENDBRANCH  55  76
BRANCH  67  84
ATOM     84  C   UNL A   1      44.700  26.635  34.012  1.00  0.00     0.057 A 
ATOM     85  C   UNL A   1      45.989  27.159  34.160  1.00  0.00     0.134 A 
ATOM     86  C   UNL A   1      44.443  25.379  34.574  1.00  0.00     0.134 A 
ATOM     87  F   UNL A   1      46.304  28.354  33.637  1.00  0.00    -0.206 F 
ATOM     88  C   UNL A   1      46.987  26.461  34.843  1.00  0.00     0.040 A 
ATOM     89  C   UNL A   1      45.425  24.681  35.279  1.00  0.00     0.040 A 
ATOM     90  F   UNL A   1      43.224  24.825  34.475  1.00  0.00    -0.206 F 
ATOM     91  C   UNL A   1      46.702  25.221  35.411  1.00  0.00     0.006 A 
ENDBRANCH  67  84
ENDBRANCH  41  42
ENDBRANCH  34  36
ENDBRANCH  33  34
ENDBRANCH  32  33
ENDBRANCH   1  32
TORSDOF 14
ENDMDL
MODEL 3
REMARK VINA RESULT:     -12.2      2.069      4.796
REMARK SMILES Cc1ccc2cc(C[N@H+]3CC[NH2+][C@H](C(=O)OCCOC(=O)c4ccc(-c5c6nc(c(-c7c(F)cccc7F)c7ccc([nH]7)c(-c7c(F)cccc7F)c7nc(c(-c8c(F)cccc8F)c8ccc5[nH]8)C=C7)C=C6)cc4)C3)c(N3CCOCC3)nc2c1
REMARK SMILES IDX 17 1 16 2 14 3 15 4 13 5 9 6 10 7 76 8 11 10 12 11 8 14 7 15
REMARK SMILES IDX 1 16 2 17 3 18 86 19 4 20 85 21 5 22 84 23 6 24 77 25 78 26
REMARK SMILES IDX 79 27 83 28 80 29 82 30 81 31 18 32 19 33 20 34 21 35 22 36
REMARK SMILES IDX 23 37 75 38 24 39 74 40 25 41 26 42 27 43 68 44 28 45 73 46
REMARK SMILES IDX 67 47 69 48 29 49 72 50 66 51 65 52 30 54 56 55 39 56 55 57
REMARK SMILES IDX 40 58 43 59 54 60 70 61 41 62 42 63 53 65 71 66 44 67 31 68
REMARK SMILES IDX 32 69 37 70 33 71 34 72 36 73 38 74 35 75 57 76 58 77 63 78
REMARK SMILES IDX 59 79 60 80 62 81 64 82 61 83 45 84 46 85 51 86 47 87 48 88
REMARK SMILES IDX 50 89 52 90 49 91
REMARK H PARENT 9 9 12 12 12 13 69 53 43 64
REMARK Flexibility Score: inf
ROOT
ATOM      1  C   UNL A   1      36.475  20.714  24.811  1.00  0.00     0.274 C 
ENDROOT
BRANCH   1   2
ATOM      2  O   UNL A   1      36.415  22.014  24.195  1.00  0.00    -0.457 OA
BRANCH   2   3
ATOM      3  C   UNL A   1      35.685  22.916  24.901  1.00  0.00     0.371 C 
ATOM      4  O   UNL A   1      35.849  23.152  26.097  1.00  0.00    -0.245 OA
BRANCH   3   5
ATOM      5  C   UNL A   1      34.594  23.592  24.097  1.00  0.00     0.348 C 
ATOM      6  N   UNL A   1      32.806  25.341  24.209  1.00  0.00    -0.321 N 
ATOM      7  C   UNL A   1      32.197  24.667  23.042  1.00  0.00     0.324 C 
ATOM      8  C   UNL A   1      33.672  24.438  24.981  1.00  0.00     0.341 C 
ATOM      9  H   UNL A   1      32.023  25.568  24.821  1.00  0.00     0.348 HD
ATOM     10  C   UNL A   1      33.051  23.602  22.299  1.00  0.00     0.323 C 
ATOM     11  N   UNL A   1      33.819  22.708  23.195  1.00  0.00    -0.325 N 
ATOM     12  H   UNL A   1      34.448  22.118  22.651  1.00  0.00     0.347 HD
ATOM     13  H   UNL A   1      33.201  22.090  23.721  1.00  0.00     0.347 HD
BRANCH   6  14
ATOM     14  C   UNL A   1      33.373  26.680  23.951  1.00  0.00     0.303 C 
BRANCH  14  15
ATOM     15  C   UNL A   1      33.235  27.743  25.024  1.00  0.00     0.049 A 
ATOM     16  C   UNL A   1      34.571  32.679  29.044  1.00  0.00     0.044 C 
ATOM     17  C   UNL A   1      34.473  31.430  28.220  1.00  0.00    -0.049 A 
ATOM     18  C   UNL A   1      35.565  30.568  28.182  1.00  0.00     0.004 A 
ATOM     19  C   UNL A   1      33.333  31.127  27.446  1.00  0.00     0.032 A 
ATOM     20  C   UNL A   1      35.491  29.395  27.444  1.00  0.00     0.010 A 
ATOM     21  C   UNL A   1      33.243  29.970  26.667  1.00  0.00     0.073 A 
ATOM     22  C   UNL A   1      34.340  29.094  26.703  1.00  0.00     0.001 A 
ATOM     23  N   UNL A   1      32.154  29.709  25.902  1.00  0.00    -0.230 NA
ATOM     24  C   UNL A   1      34.293  27.947  25.915  1.00  0.00     0.023 A 
ATOM     25  C   UNL A   1      32.134  28.605  25.109  1.00  0.00     0.138 A 
BRANCH  25  26
ATOM     26  N   UNL A   1      30.999  28.331  24.366  1.00  0.00    -0.352 N 
ATOM     27  C   UNL A   1      30.081  27.316  24.910  1.00  0.00     0.146 C 
ATOM     28  C   UNL A   1      30.297  29.413  23.673  1.00  0.00     0.146 C 
ATOM     29  C   UNL A   1      29.270  26.735  23.742  1.00  0.00     0.181 C 
ATOM     30  C   UNL A   1      29.441  28.779  22.554  1.00  0.00     0.181 C 
ATOM     31  O   UNL A   1      28.543  27.769  23.055  1.00  0.00    -0.378 OA
ENDBRANCH  25  26
ENDBRANCH  14  15
ENDBRANCH   6  14
ENDBRANCH   3   5
ENDBRANCH   2   3
ENDBRANCH   1   2
BRANCH   1  32
ATOM     32  C   UNL A   1      37.918  20.304  25.111  1.00  0.00     0.275 C 
BRANCH  32  33
ATOM     33  O   UNL A   1      38.764  21.442  25.364  1.00  0.00    -0.458 OA
BRANCH  33  34
ATOM     34  C   UNL A   1      39.750  21.224  26.270  1.00  0.00     0.338 C 
ATOM     35  O   UNL A   1      40.282  20.160  26.534  1.00  0.00    -0.246 OA
BRANCH  34  36
ATOM     36  C   UNL A   1      40.125  22.484  26.937  1.00  0.00     0.060 A 
ATOM     37  C   UNL A   1      41.142  22.488  27.888  1.00  0.00     0.016 A 
ATOM     38  C   UNL A   1      39.604  23.689  26.468  1.00  0.00     0.016 A 
ATOM     39  C   UNL A   1      41.640  23.713  28.350  1.00  0.00     0.010 A 
ATOM     40  C   UNL A   1      40.152  24.905  26.872  1.00  0.00     0.010 A 
ATOM     41  C   UNL A   1      41.173  24.935  27.824  1.00  0.00    -0.014 A 
BRANCH  41  42
ATOM     42  C   UNL A   1      41.840  26.205  28.209  1.00  0.00     0.031 A 
ATOM     43  C   UNL A   1      43.234  26.550  27.781  1.00  0.00     0.074 A 
ATOM     44  C   UNL A   1      41.192  27.080  28.999  1.00  0.00     0.049 A 
ATOM     45  N   UNL A   1      43.792  27.732  27.679  1.00  0.00    -0.248 NA
ATOM     46  C   UNL A   1      44.130  25.434  27.461  1.00  0.00     0.031 C 
ATOM     47  C   UNL A   1      39.913  26.838  29.663  1.00  0.00     0.029 A 
ATOM     48  N   UNL A   1      41.527  28.359  29.365  1.00  0.00    -0.354 N 
ATOM     49  C   UNL A   1      45.069  27.500  27.192  1.00  0.00     0.074 A 
ATOM     50  C   UNL A   1      45.251  26.072  27.156  1.00  0.00     0.031 C 
ATOM     51  C   UNL A   1      39.549  27.948  30.324  1.00  0.00     0.029 A 
ATOM     52  C   UNL A   1      40.558  28.983  30.106  1.00  0.00     0.049 A 
ATOM     53  H   UNL A   1      42.380  28.787  29.118  1.00  0.00     0.167 HD
ATOM     54  C   UNL A   1      45.997  28.391  26.770  1.00  0.00     0.037 A 
ATOM     55  C   UNL A   1      40.469  30.260  30.519  1.00  0.00     0.037 A 
ATOM     56  C   UNL A   1      45.880  29.810  26.948  1.00  0.00     0.049 A 
ATOM     57  C   UNL A   1      41.509  31.257  30.092  1.00  0.00     0.074 A 
ATOM     58  C   UNL A   1      46.721  30.820  26.516  1.00  0.00     0.029 A 
ATOM     59  N   UNL A   1      44.877  30.411  27.692  1.00  0.00    -0.354 N 
ATOM     60  N   UNL A   1      42.572  31.080  29.347  1.00  0.00    -0.248 NA
ATOM     61  C   UNL A   1      41.310  32.644  30.535  1.00  0.00     0.031 C 
ATOM     62  C   UNL A   1      46.261  32.028  27.061  1.00  0.00     0.029 A 
ATOM     63  C   UNL A   1      45.110  31.770  27.790  1.00  0.00     0.049 A 
ATOM     64  H   UNL A   1      44.111  29.939  28.091  1.00  0.00     0.167 HD
ATOM     65  C   UNL A   1      43.156  32.333  29.208  1.00  0.00     0.074 A 
ATOM     66  C   UNL A   1      42.319  33.264  29.938  1.00  0.00     0.031 C 
ATOM     67  C   UNL A   1      44.279  32.683  28.531  1.00  0.00     0.037 A 
BRANCH  54  68
ATOM     68  C   UNL A   1      47.191  27.831  26.055  1.00  0.00     0.057 A 
ATOM     69  C   UNL A   1      48.367  27.500  26.733  1.00  0.00     0.134 A 
ATOM     70  C   UNL A   1      47.159  27.611  24.669  1.00  0.00     0.134 A 
ATOM     71  F   UNL A   1      48.466  27.681  28.058  1.00  0.00    -0.206 F 
ATOM     72  C   UNL A   1      49.467  26.961  26.059  1.00  0.00     0.040 A 
ATOM     73  C   UNL A   1      48.244  27.058  23.988  1.00  0.00     0.040 A 
ATOM     74  F   UNL A   1      46.054  27.896  23.960  1.00  0.00    -0.206 F 
ATOM     75  C   UNL A   1      49.405  26.732  24.685  1.00  0.00     0.006 A 
ENDBRANCH  54  68
BRANCH  55  76
ATOM     76  C   UNL A   1      39.286  30.678  31.307  1.00  0.00     0.057 A 
ATOM     77  C   UNL A   1      38.212  31.344  30.706  1.00  0.00     0.134 A 
ATOM     78  C   UNL A   1      39.225  30.457  32.687  1.00  0.00     0.134 A 
ATOM     79  F   UNL A   1      38.222  31.593  29.389  1.00  0.00    -0.206 F 
ATOM     80  C   UNL A   1      37.120  31.784  31.453  1.00  0.00     0.040 A 
ATOM     81  C   UNL A   1      38.131  30.876  33.443  1.00  0.00     0.040 A 
ATOM     82  F   UNL A   1      40.223  29.817  33.313  1.00  0.00    -0.206 F 
ATOM     83  C   UNL A   1      37.076  31.548  32.826  1.00  0.00     0.006 A 
ENDBRANCH  55  76
BRANCH  67  84
ATOM     84  C   UNL A   1      44.668  34.131  28.551  1.00  0.00     0.057 A 
ATOM     85  C   UNL A   1      44.198  35.011  27.568  1.00  0.00     0.134 A 
ATOM     86  C   UNL A   1      45.529  34.648  29.526  1.00  0.00     0.134 A 
ATOM     87  F   UNL A   1      43.377  34.576  26.600  1.00  0.00    -0.206 F 
ATOM     88  C   UNL A   1      44.569  36.356  27.556  1.00  0.00     0.040 A 
ATOM     89  C   UNL A   1      45.889  35.997  29.538  1.00  0.00     0.040 A 
ATOM     90  F   UNL A   1      46.007  33.859  30.501  1.00  0.00    -0.206 F 
ATOM     91  C   UNL A   1      45.412  36.853  28.547  1.00  0.00     0.006 A 
ENDBRANCH  67  84
ENDBRANCH  41  42
ENDBRANCH  34  36
ENDBRANCH  33  34
ENDBRANCH  32  33
ENDBRANCH   1  32
TORSDOF 14
ENDMDL
