MODEL 1
REMARK VINA RESULT:     -12.3      0.000      0.000
REMARK SMILES COC(=O)c1ccc(C)c2c1[C@H]1C=CC[C@H]1[C@@H](c1ccc(C(=O)OCCOC(=O)c3ccc(-c4c5nc(c(-c6c(F)cccc6F)c6ccc([nH]6)c(-c6c(F)cccc6F)c6nc(c(-c7c(F)cccc7F)c7ccc4[nH]7)C=C6)C=C5)cc3)cc1)N2
REMARK SMILES IDX 25 1 24 2 22 3 23 4 21 5 18 6 19 7 85 8 20 9 84 10 17 11
REMARK SMILES IDX 5 12 6 13 11 14 7 15 10 16 12 17 8 18 86 19 13 20 16 21 9 22
REMARK SMILES IDX 14 24 15 25 3 26 4 27 2 28 1 29 26 30 27 31 28 32 29 33
REMARK SMILES IDX 30 34 31 35 83 36 32 37 82 38 33 39 34 40 35 41 76 42 36 43
REMARK SMILES IDX 81 44 75 45 77 46 37 47 80 48 74 49 73 50 38 52 64 53 47 54
REMARK SMILES IDX 63 55 48 56 51 57 62 58 78 59 49 60 50 61 61 63 79 64 52 65
REMARK SMILES IDX 39 66 40 67 45 68 41 69 42 70 44 71 46 72 43 73 65 74 66 75
REMARK SMILES IDX 71 76 67 77 68 78 70 79 72 80 69 81 53 82 54 83 59 84 55 85
REMARK SMILES IDX 56 86 58 87 60 88 57 89
REMARK H PARENT 86 23 77 51 51 62
REMARK Flexibility Score: inf
ROOT
ATOM      1  C   UNL A   1      31.635  31.578  26.803  1.00  0.00     0.275 C 
ENDROOT
BRANCH   1   2
ATOM      2  O   UNL A   1      32.668  30.578  26.881  1.00  0.00    -0.458 OA
BRANCH   2   3
ATOM      3  C   UNL A   1      32.238  29.304  27.044  1.00  0.00     0.338 C 
ATOM      4  O   UNL A   1      31.408  28.920  27.854  1.00  0.00    -0.246 OA
BRANCH   3   5
ATOM      5  C   UNL A   1      32.803  28.421  25.994  1.00  0.00     0.060 A 
ATOM      6  C   UNL A   1      33.650  26.494  24.090  1.00  0.00    -0.025 A 
ATOM      7  C   UNL A   1      33.663  26.224  25.468  1.00  0.00     0.007 A 
ATOM      8  C   UNL A   1      33.270  27.792  23.699  1.00  0.00     0.007 A 
ATOM      9  C   UNL A   1      33.282  27.179  26.407  1.00  0.00     0.016 A 
ATOM     10  C   UNL A   1      32.824  28.739  24.636  1.00  0.00     0.016 A 
BRANCH   6  11
ATOM     11  C   UNL A   1      34.047  25.447  23.038  1.00  0.00     0.114 C 
ATOM     12  C   UNL A   1      33.387  21.780  25.139  1.00  0.00     0.065 A 
ATOM     13  C   UNL A   1      34.326  21.342  26.069  1.00  0.00     0.016 A 
ATOM     14  C   UNL A   1      33.627  22.892  24.306  1.00  0.00    -0.003 A 
ATOM     15  C   UNL A   1      35.549  21.993  26.145  1.00  0.00     0.006 A 
ATOM     16  C   UNL A   1      34.895  23.512  24.341  1.00  0.00     0.042 A 
ATOM     17  C   UNL A   1      32.549  23.391  23.374  1.00  0.00     0.050 C 
ATOM     18  C   UNL A   1      35.855  23.062  25.279  1.00  0.00    -0.028 A 
ATOM     19  N   UNL A   1      35.144  24.614  23.529  1.00  0.00    -0.377 N 
ATOM     20  C   UNL A   1      31.340  24.022  24.023  1.00  0.00    -0.023 C 
ATOM     21  C   UNL A   1      32.974  24.517  22.415  1.00  0.00     0.031 C 
ATOM     22  C   UNL A   1      37.201  23.711  25.478  1.00  0.00     0.046 C 
ATOM     23  H   UNL A   1      36.071  24.836  23.281  1.00  0.00     0.161 HD
ATOM     24  C   UNL A   1      30.829  24.997  23.263  1.00  0.00    -0.030 C 
ATOM     25  C   UNL A   1      31.650  25.193  22.031  1.00  0.00     0.034 C 
BRANCH  12  26
ATOM     26  C   UNL A   1      32.152  20.999  24.996  1.00  0.00     0.338 C 
ATOM     27  O   UNL A   1      31.195  21.106  25.747  1.00  0.00    -0.246 OA
BRANCH  26  28
ATOM     28  O   UNL A   1      32.329  20.123  23.985  1.00  0.00    -0.465 OA
ATOM     29  C   UNL A   1      32.528  18.774  24.395  1.00  0.00     0.282 C 
ENDBRANCH  26  28
ENDBRANCH  12  26
ENDBRANCH   6  11
ENDBRANCH   3   5
ENDBRANCH   2   3
ENDBRANCH   1   2
BRANCH   1  30
ATOM     30  C   UNL A   1      32.238  32.985  26.787  1.00  0.00     0.275 C 
BRANCH  30  31
ATOM     31  O   UNL A   1      32.131  33.628  28.074  1.00  0.00    -0.458 OA
BRANCH  31  32
ATOM     32  C   UNL A   1      33.144  34.465  28.394  1.00  0.00     0.338 C 
ATOM     33  O   UNL A   1      33.113  35.683  28.450  1.00  0.00    -0.246 OA
BRANCH  32  34
ATOM     34  C   UNL A   1      34.335  33.681  28.770  1.00  0.00     0.060 A 
ATOM     35  C   UNL A   1      34.176  32.665  29.711  1.00  0.00     0.016 A 
ATOM     36  C   UNL A   1      35.606  33.996  28.286  1.00  0.00     0.016 A 
ATOM     37  C   UNL A   1      35.282  31.957  30.182  1.00  0.00     0.010 A 
ATOM     38  C   UNL A   1      36.718  33.283  28.756  1.00  0.00     0.010 A 
ATOM     39  C   UNL A   1      36.567  32.269  29.721  1.00  0.00    -0.014 A 
BRANCH  39  40
ATOM     40  C   UNL A   1      37.739  31.565  30.304  1.00  0.00     0.031 A 
ATOM     41  C   UNL A   1      38.230  31.921  31.681  1.00  0.00     0.074 A 
ATOM     42  C   UNL A   1      38.337  30.568  29.627  1.00  0.00     0.049 A 
ATOM     43  N   UNL A   1      39.137  31.321  32.414  1.00  0.00    -0.248 NA
ATOM     44  C   UNL A   1      37.615  33.090  32.329  1.00  0.00     0.031 C 
ATOM     45  C   UNL A   1      37.973  30.110  28.287  1.00  0.00     0.029 A 
ATOM     46  N   UNL A   1      39.398  29.768  29.977  1.00  0.00    -0.354 N 
ATOM     47  C   UNL A   1      39.123  31.974  33.640  1.00  0.00     0.074 A 
ATOM     48  C   UNL A   1      38.220  33.095  33.510  1.00  0.00     0.031 C 
ATOM     49  C   UNL A   1      38.820  29.136  27.912  1.00  0.00     0.029 A 
ATOM     50  C   UNL A   1      39.793  28.910  28.980  1.00  0.00     0.049 A 
ATOM     51  H   UNL A   1      39.834  29.807  30.859  1.00  0.00     0.167 HD
ATOM     52  C   UNL A   1      39.751  31.627  34.788  1.00  0.00     0.037 A 
ATOM     53  C   UNL A   1      40.837  28.062  28.926  1.00  0.00     0.037 A 
ATOM     54  C   UNL A   1      40.736  30.590  34.897  1.00  0.00     0.049 A 
ATOM     55  C   UNL A   1      41.734  27.912  30.128  1.00  0.00     0.074 A 
ATOM     56  C   UNL A   1      41.444  30.185  36.014  1.00  0.00     0.029 A 
ATOM     57  N   UNL A   1      41.192  29.834  33.832  1.00  0.00    -0.354 N 
ATOM     58  N   UNL A   1      41.607  28.426  31.327  1.00  0.00    -0.248 NA
ATOM     59  C   UNL A   1      42.921  27.060  29.966  1.00  0.00     0.031 C 
ATOM     60  C   UNL A   1      42.386  29.232  35.606  1.00  0.00     0.029 A 
ATOM     61  C   UNL A   1      42.228  29.016  34.247  1.00  0.00     0.049 A 
ATOM     62  H   UNL A   1      40.833  29.872  32.916  1.00  0.00     0.167 HD
ATOM     63  C   UNL A   1      42.671  27.928  32.070  1.00  0.00     0.074 A 
ATOM     64  C   UNL A   1      43.431  27.069  31.190  1.00  0.00     0.031 C 
ATOM     65  C   UNL A   1      42.982  28.158  33.370  1.00  0.00     0.037 A 
BRANCH  52  66
ATOM     66  C   UNL A   1      39.358  32.359  36.032  1.00  0.00     0.057 A 
ATOM     67  C   UNL A   1      39.974  33.553  36.414  1.00  0.00     0.134 A 
ATOM     68  C   UNL A   1      38.371  31.835  36.878  1.00  0.00     0.134 A 
ATOM     69  F   UNL A   1      40.945  34.088  35.660  1.00  0.00    -0.206 F 
ATOM     70  C   UNL A   1      39.599  34.218  37.583  1.00  0.00     0.040 A 
ATOM     71  C   UNL A   1      37.969  32.502  38.034  1.00  0.00     0.040 A 
ATOM     72  F   UNL A   1      37.778  30.669  36.585  1.00  0.00    -0.206 F 
ATOM     73  C   UNL A   1      38.585  33.699  38.390  1.00  0.00     0.006 A 
ENDBRANCH  52  66
BRANCH  53  74
ATOM     74  C   UNL A   1      41.138  27.318  27.677  1.00  0.00     0.057 A 
ATOM     75  C   UNL A   1      41.962  27.876  26.689  1.00  0.00     0.134 A 
ATOM     76  C   UNL A   1      40.682  26.013  27.472  1.00  0.00     0.134 A 
ATOM     77  F   UNL A   1      42.442  29.121  26.831  1.00  0.00    -0.206 F 
ATOM     78  C   UNL A   1      42.320  27.163  25.545  1.00  0.00     0.040 A 
ATOM     79  C   UNL A   1      41.052  25.277  26.344  1.00  0.00     0.040 A 
ATOM     80  F   UNL A   1      39.915  25.413  28.395  1.00  0.00    -0.206 F 
ATOM     81  C   UNL A   1      41.873  25.854  25.376  1.00  0.00     0.006 A 
ENDBRANCH  53  74
BRANCH  65  82
ATOM     82  C   UNL A   1      44.180  27.451  33.930  1.00  0.00     0.057 A 
ATOM     83  C   UNL A   1      44.047  26.209  34.565  1.00  0.00     0.134 A 
ATOM     84  C   UNL A   1      45.462  28.011  33.870  1.00  0.00     0.134 A 
ATOM     85  F   UNL A   1      42.846  25.621  34.666  1.00  0.00    -0.206 F 
ATOM     86  C   UNL A   1      45.144  25.554  35.125  1.00  0.00     0.040 A 
ATOM     87  C   UNL A   1      46.572  27.351  34.399  1.00  0.00     0.040 A 
ATOM     88  F   UNL A   1      45.661  29.190  33.262  1.00  0.00    -0.206 F 
ATOM     89  C   UNL A   1      46.412  26.122  35.036  1.00  0.00     0.006 A 
ENDBRANCH  65  82
ENDBRANCH  39  40
ENDBRANCH  32  34
ENDBRANCH  31  32
ENDBRANCH  30  31
ENDBRANCH   1  30
TORSDOF 14
ENDMDL
MODEL 2
REMARK VINA RESULT:     -12.2      4.475      9.698
REMARK SMILES COC(=O)c1ccc(C)c2c1[C@H]1C=CC[C@H]1[C@@H](c1ccc(C(=O)OCCOC(=O)c3ccc(-c4c5nc(c(-c6c(F)cccc6F)c6ccc([nH]6)c(-c6c(F)cccc6F)c6nc(c(-c7c(F)cccc7F)c7ccc4[nH]7)C=C6)C=C5)cc3)cc1)N2
REMARK SMILES IDX 25 1 24 2 22 3 23 4 21 5 18 6 19 7 85 8 20 9 84 10 17 11
REMARK SMILES IDX 5 12 6 13 11 14 7 15 10 16 12 17 8 18 86 19 13 20 16 21 9 22
REMARK SMILES IDX 14 24 15 25 3 26 4 27 2 28 1 29 26 30 27 31 28 32 29 33
REMARK SMILES IDX 30 34 31 35 83 36 32 37 82 38 33 39 34 40 35 41 76 42 36 43
REMARK SMILES IDX 81 44 75 45 77 46 37 47 80 48 74 49 73 50 38 52 64 53 47 54
REMARK SMILES IDX 63 55 48 56 51 57 62 58 78 59 49 60 50 61 61 63 79 64 52 65
REMARK SMILES IDX 39 66 40 67 45 68 41 69 42 70 44 71 46 72 43 73 65 74 66 75
REMARK SMILES IDX 71 76 67 77 68 78 70 79 72 80 69 81 53 82 54 83 59 84 55 85
REMARK SMILES IDX 56 86 58 87 60 88 57 89
REMARK H PARENT 86 23 77 51 51 62
REMARK Flexibility Score: inf
ROOT
ATOM      1  C   UNL A   1      38.452  21.176  25.458  1.00  0.00     0.275 C 
ENDROOT
BRANCH   1   2
ATOM      2  O   UNL A   1      37.102  21.111  24.961  1.00  0.00    -0.458 OA
BRANCH   2   3
ATOM      3  C   UNL A   1      36.665  22.214  24.307  1.00  0.00     0.338 C 
ATOM      4  O   UNL A   1      37.028  22.589  23.203  1.00  0.00    -0.246 OA
BRANCH   3   5
ATOM      5  C   UNL A   1      35.554  22.858  25.048  1.00  0.00     0.060 A 
ATOM      6  C   UNL A   1      33.294  24.172  26.153  1.00  0.00    -0.025 A 
ATOM      7  C   UNL A   1      34.185  24.835  25.295  1.00  0.00     0.007 A 
ATOM      8  C   UNL A   1      33.613  22.846  26.503  1.00  0.00     0.007 A 
ATOM      9  C   UNL A   1      35.314  24.204  24.779  1.00  0.00     0.016 A 
ATOM     10  C   UNL A   1      34.714  22.183  25.936  1.00  0.00     0.016 A 
BRANCH   6  11
ATOM     11  C   UNL A   1      32.031  24.845  26.715  1.00  0.00     0.114 C 
ATOM     12  C   UNL A   1      31.321  27.940  23.848  1.00  0.00     0.065 A 
ATOM     13  C   UNL A   1      32.079  29.106  23.894  1.00  0.00     0.016 A 
ATOM     14  C   UNL A   1      31.401  26.960  24.859  1.00  0.00    -0.003 A 
ATOM     15  C   UNL A   1      32.904  29.328  24.989  1.00  0.00     0.006 A 
ATOM     16  C   UNL A   1      32.192  27.216  26.000  1.00  0.00     0.042 A 
ATOM     17  C   UNL A   1      30.630  25.667  24.729  1.00  0.00     0.050 C 
ATOM     18  C   UNL A   1      32.956  28.407  26.054  1.00  0.00    -0.028 A 
ATOM     19  N   UNL A   1      32.285  26.256  27.003  1.00  0.00    -0.377 N 
ATOM     20  C   UNL A   1      31.088  24.720  23.645  1.00  0.00    -0.023 C 
ATOM     21  C   UNL A   1      30.684  24.740  25.956  1.00  0.00     0.031 C 
ATOM     22  C   UNL A   1      33.912  28.740  27.171  1.00  0.00     0.046 C 
ATOM     23  H   UNL A   1      32.525  26.530  27.918  1.00  0.00     0.161 HD
ATOM     24  C   UNL A   1      30.902  23.443  24.000  1.00  0.00    -0.030 C 
ATOM     25  C   UNL A   1      30.348  23.354  25.385  1.00  0.00     0.034 C 
BRANCH  12  26
ATOM     26  C   UNL A   1      30.368  27.787  22.742  1.00  0.00     0.338 C 
ATOM     27  O   UNL A   1      30.684  27.402  21.627  1.00  0.00    -0.246 OA
BRANCH  26  28
ATOM     28  O   UNL A   1      29.166  28.232  23.164  1.00  0.00    -0.465 OA
ATOM     29  C   UNL A   1      28.634  29.315  22.408  1.00  0.00     0.282 C 
ENDBRANCH  26  28
ENDBRANCH  12  26
ENDBRANCH   6  11
ENDBRANCH   3   5
ENDBRANCH   2   3
ENDBRANCH   1   2
BRANCH   1  30
ATOM     30  C   UNL A   1      39.139  19.812  25.351  1.00  0.00     0.275 C 
BRANCH  30  31
ATOM     31  O   UNL A   1      40.043  19.581  26.451  1.00  0.00    -0.458 OA
BRANCH  31  32
ATOM     32  C   UNL A   1      41.360  19.628  26.144  1.00  0.00     0.338 C 
ATOM     33  O   UNL A   1      42.041  18.743  25.652  1.00  0.00    -0.246 OA
BRANCH  32  34
ATOM     34  C   UNL A   1      41.884  20.979  26.413  1.00  0.00     0.060 A 
ATOM     35  C   UNL A   1      41.964  21.394  27.741  1.00  0.00     0.016 A 
ATOM     36  C   UNL A   1      42.198  21.865  25.381  1.00  0.00     0.016 A 
ATOM     37  C   UNL A   1      42.354  22.696  28.054  1.00  0.00     0.010 A 
ATOM     38  C   UNL A   1      42.594  23.174  25.694  1.00  0.00     0.010 A 
ATOM     39  C   UNL A   1      42.658  23.605  27.032  1.00  0.00    -0.014 A 
BRANCH  39  40
ATOM     40  C   UNL A   1      42.982  25.012  27.384  1.00  0.00     0.031 A 
ATOM     41  C   UNL A   1      44.382  25.535  27.209  1.00  0.00     0.074 A 
ATOM     42  C   UNL A   1      42.014  25.845  27.811  1.00  0.00     0.049 A 
ATOM     43  N   UNL A   1      44.823  26.765  27.320  1.00  0.00    -0.248 NA
ATOM     44  C   UNL A   1      45.420  24.558  26.850  1.00  0.00     0.031 C 
ATOM     45  C   UNL A   1      40.614  25.484  28.026  1.00  0.00     0.029 A 
ATOM     46  N   UNL A   1      42.074  27.174  28.157  1.00  0.00    -0.354 N 
ATOM     47  C   UNL A   1      46.158  26.722  26.941  1.00  0.00     0.074 A 
ATOM     48  C   UNL A   1      46.491  25.332  26.730  1.00  0.00     0.031 C 
ATOM     49  C   UNL A   1      39.955  26.554  28.504  1.00  0.00     0.029 A 
ATOM     50  C   UNL A   1      40.889  27.671  28.638  1.00  0.00     0.049 A 
ATOM     51  H   UNL A   1      42.891  27.717  28.068  1.00  0.00     0.167 HD
ATOM     52  C   UNL A   1      47.008  27.754  26.722  1.00  0.00     0.037 A 
ATOM     53  C   UNL A   1      40.600  28.880  29.156  1.00  0.00     0.037 A 
ATOM     54  C   UNL A   1      46.725  29.123  27.040  1.00  0.00     0.049 A 
ATOM     55  C   UNL A   1      41.665  29.945  29.194  1.00  0.00     0.074 A 
ATOM     56  C   UNL A   1      47.533  30.233  26.876  1.00  0.00     0.029 A 
ATOM     57  N   UNL A   1      45.557  29.559  27.642  1.00  0.00    -0.354 N 
ATOM     58  N   UNL A   1      42.874  29.927  28.687  1.00  0.00    -0.248 NA
ATOM     59  C   UNL A   1      41.321  31.202  29.874  1.00  0.00     0.031 C 
ATOM     60  C   UNL A   1      46.883  31.331  27.451  1.00  0.00     0.029 A 
ATOM     61  C   UNL A   1      45.653  30.909  27.929  1.00  0.00     0.049 A 
ATOM     62  H   UNL A   1      44.776  28.993  27.837  1.00  0.00     0.167 HD
ATOM     63  C   UNL A   1      43.418  31.178  28.953  1.00  0.00     0.074 A 
ATOM     64  C   UNL A   1      42.406  31.933  29.660  1.00  0.00     0.031 C 
ATOM     65  C   UNL A   1      44.643  31.659  28.630  1.00  0.00     0.037 A 
BRANCH  52  66
ATOM     66  C   UNL A   1      48.316  27.437  26.069  1.00  0.00     0.057 A 
ATOM     67  C   UNL A   1      48.453  27.373  24.681  1.00  0.00     0.134 A 
ATOM     68  C   UNL A   1      49.444  27.153  26.850  1.00  0.00     0.134 A 
ATOM     69  F   UNL A   1      47.401  27.607  23.883  1.00  0.00    -0.206 F 
ATOM     70  C   UNL A   1      49.680  27.068  24.089  1.00  0.00     0.040 A 
ATOM     71  C   UNL A   1      50.682  26.873  26.272  1.00  0.00     0.040 A 
ATOM     72  F   UNL A   1      49.360  27.154  28.188  1.00  0.00    -0.206 F 
ATOM     73  C   UNL A   1      50.802  26.829  24.885  1.00  0.00     0.006 A 
ENDBRANCH  52  66
BRANCH  53  74
ATOM     74  C   UNL A   1      39.259  29.149  29.735  1.00  0.00     0.057 A 
ATOM     75  C   UNL A   1      38.224  29.665  28.943  1.00  0.00     0.134 A 
ATOM     76  C   UNL A   1      38.955  28.828  31.061  1.00  0.00     0.134 A 
ATOM     77  F   UNL A   1      38.448  29.983  27.659  1.00  0.00    -0.206 F 
ATOM     78  C   UNL A   1      36.938  29.851  29.448  1.00  0.00     0.040 A 
ATOM     79  C   UNL A   1      37.665  28.985  31.574  1.00  0.00     0.040 A 
ATOM     80  F   UNL A   1      39.894  28.302  31.862  1.00  0.00    -0.206 F 
ATOM     81  C   UNL A   1      36.653  29.499  30.765  1.00  0.00     0.006 A 
ENDBRANCH  53  74
BRANCH  65  82
ATOM     82  C   UNL A   1      44.953  33.076  29.012  1.00  0.00     0.057 A 
ATOM     83  C   UNL A   1      44.617  34.138  28.162  1.00  0.00     0.134 A 
ATOM     84  C   UNL A   1      45.614  33.390  30.207  1.00  0.00     0.134 A 
ATOM     85  F   UNL A   1      43.991  33.907  26.998  1.00  0.00    -0.206 F 
ATOM     86  C   UNL A   1      44.930  35.459  28.484  1.00  0.00     0.040 A 
ATOM     87  C   UNL A   1      45.905  34.710  30.554  1.00  0.00     0.040 A 
ATOM     88  F   UNL A   1      45.951  32.422  31.072  1.00  0.00    -0.206 F 
ATOM     89  C   UNL A   1      45.570  35.748  29.686  1.00  0.00     0.006 A 
ENDBRANCH  65  82
ENDBRANCH  39  40
ENDBRANCH  32  34
ENDBRANCH  31  32
ENDBRANCH  30  31
ENDBRANCH   1  30
TORSDOF 14
ENDMDL
MODEL 3
REMARK VINA RESULT:     -12.0      2.949      7.961
REMARK SMILES COC(=O)c1ccc(C)c2c1[C@H]1C=CC[C@H]1[C@@H](c1ccc(C(=O)OCCOC(=O)c3ccc(-c4c5nc(c(-c6c(F)cccc6F)c6ccc([nH]6)c(-c6c(F)cccc6F)c6nc(c(-c7c(F)cccc7F)c7ccc4[nH]7)C=C6)C=C5)cc3)cc1)N2
REMARK SMILES IDX 25 1 24 2 22 3 23 4 21 5 18 6 19 7 85 8 20 9 84 10 17 11
REMARK SMILES IDX 5 12 6 13 11 14 7 15 10 16 12 17 8 18 86 19 13 20 16 21 9 22
REMARK SMILES IDX 14 24 15 25 3 26 4 27 2 28 1 29 26 30 27 31 28 32 29 33
REMARK SMILES IDX 30 34 31 35 83 36 32 37 82 38 33 39 34 40 35 41 76 42 36 43
REMARK SMILES IDX 81 44 75 45 77 46 37 47 80 48 74 49 73 50 38 52 64 53 47 54
REMARK SMILES IDX 63 55 48 56 51 57 62 58 78 59 49 60 50 61 61 63 79 64 52 65
REMARK SMILES IDX 39 66 40 67 45 68 41 69 42 70 44 71 46 72 43 73 65 74 66 75
REMARK SMILES IDX 71 76 67 77 68 78 70 79 72 80 69 81 53 82 54 83 59 84 55 85
REMARK SMILES IDX 56 86 58 87 60 88 57 89
REMARK H PARENT 86 23 77 51 51 62
REMARK Flexibility Score: inf
ROOT
ATOM      1  C   UNL A   1      40.057  21.441  26.423  1.00  0.00     0.275 C 
ENDROOT
BRANCH   1   2
ATOM      2  O   UNL A   1      38.884  22.248  26.209  1.00  0.00    -0.458 OA
BRANCH   2   3
ATOM      3  C   UNL A   1      37.876  21.647  25.532  1.00  0.00     0.338 C 
ATOM      4  O   UNL A   1      37.965  20.636  24.853  1.00  0.00    -0.246 OA
BRANCH   3   5
ATOM      5  C   UNL A   1      36.579  22.298  25.835  1.00  0.00     0.060 A 
ATOM      6  C   UNL A   1      34.068  23.600  26.072  1.00  0.00    -0.025 A 
ATOM      7  C   UNL A   1      35.177  24.238  25.494  1.00  0.00     0.007 A 
ATOM      8  C   UNL A   1      34.276  22.312  26.600  1.00  0.00     0.007 A 
ATOM      9  C   UNL A   1      36.420  23.615  25.408  1.00  0.00     0.016 A 
ATOM     10  C   UNL A   1      35.510  21.653  26.459  1.00  0.00     0.016 A 
BRANCH   6  11
ATOM     11  C   UNL A   1      32.684  24.263  26.156  1.00  0.00     0.114 C 
ATOM     12  C   UNL A   1      32.715  26.827  22.732  1.00  0.00     0.065 A 
ATOM     13  C   UNL A   1      33.403  28.037  22.785  1.00  0.00     0.016 A 
ATOM     14  C   UNL A   1      32.538  26.022  23.876  1.00  0.00    -0.003 A 
ATOM     15  C   UNL A   1      33.889  28.479  24.008  1.00  0.00     0.006 A 
ATOM     16  C   UNL A   1      32.977  26.503  25.128  1.00  0.00     0.042 A 
ATOM     17  C   UNL A   1      31.864  24.674  23.760  1.00  0.00     0.050 C 
ATOM     18  C   UNL A   1      33.669  27.737  25.185  1.00  0.00    -0.028 A 
ATOM     19  N   UNL A   1      32.814  25.716  26.264  1.00  0.00    -0.377 N 
ATOM     20  C   UNL A   1      32.624  23.606  23.011  1.00  0.00    -0.023 C 
ATOM     21  C   UNL A   1      31.600  23.951  25.093  1.00  0.00     0.031 C 
ATOM     22  C   UNL A   1      34.272  28.302  26.446  1.00  0.00     0.046 C 
ATOM     23  H   UNL A   1      32.787  26.142  27.150  1.00  0.00     0.161 HD
ATOM     24  C   UNL A   1      32.378  22.389  23.510  1.00  0.00    -0.030 C 
ATOM     25  C   UNL A   1      31.468  22.475  24.691  1.00  0.00     0.034 C 
BRANCH  12  26
ATOM     26  C   UNL A   1      32.107  26.443  21.453  1.00  0.00     0.338 C 
ATOM     27  O   UNL A   1      30.914  26.550  21.212  1.00  0.00    -0.246 OA
BRANCH  26  28
ATOM     28  O   UNL A   1      33.068  25.887  20.686  1.00  0.00    -0.465 OA
ATOM     29  C   UNL A   1      32.618  25.410  19.422  1.00  0.00     0.282 C 
ENDBRANCH  26  28
ENDBRANCH  12  26
ENDBRANCH   6  11
ENDBRANCH   3   5
ENDBRANCH   2   3
ENDBRANCH   1   2
BRANCH   1  30
ATOM     30  C   UNL A   1      41.330  22.247  26.153  1.00  0.00     0.275 C 
BRANCH  30  31
ATOM     31  O   UNL A   1      41.484  23.335  27.089  1.00  0.00    -0.458 OA
BRANCH  31  32
ATOM     32  C   UNL A   1      41.820  24.528  26.547  1.00  0.00     0.338 C 
ATOM     33  O   UNL A   1      42.252  24.740  25.426  1.00  0.00    -0.246 OA
BRANCH  32  34
ATOM     34  C   UNL A   1      41.505  25.610  27.497  1.00  0.00     0.060 A 
ATOM     35  C   UNL A   1      42.460  26.607  27.691  1.00  0.00     0.016 A 
ATOM     36  C   UNL A   1      40.338  25.599  28.263  1.00  0.00     0.016 A 
ATOM     37  C   UNL A   1      42.263  27.599  28.650  1.00  0.00     0.010 A 
ATOM     38  C   UNL A   1      40.137  26.598  29.227  1.00  0.00     0.010 A 
ATOM     39  C   UNL A   1      41.107  27.596  29.440  1.00  0.00    -0.014 A 
BRANCH  39  40
ATOM     40  C   UNL A   1      40.961  28.608  30.519  1.00  0.00     0.031 A 
ATOM     41  C   UNL A   1      40.006  29.759  30.355  1.00  0.00     0.074 A 
ATOM     42  C   UNL A   1      41.641  28.474  31.672  1.00  0.00     0.049 A 
ATOM     43  N   UNL A   1      39.632  30.654  31.238  1.00  0.00    -0.248 NA
ATOM     44  C   UNL A   1      39.374  29.922  29.036  1.00  0.00     0.031 C 
ATOM     45  C   UNL A   1      42.598  27.412  31.977  1.00  0.00     0.029 A 
ATOM     46  N   UNL A   1      41.638  29.257  32.802  1.00  0.00    -0.354 N 
ATOM     47  C   UNL A   1      38.650  31.412  30.614  1.00  0.00     0.074 A 
ATOM     48  C   UNL A   1      38.581  30.965  29.242  1.00  0.00     0.031 C 
ATOM     49  C   UNL A   1      43.119  27.630  33.197  1.00  0.00     0.029 A 
ATOM     50  C   UNL A   1      42.541  28.852  33.753  1.00  0.00     0.049 A 
ATOM     51  H   UNL A   1      41.045  30.034  32.917  1.00  0.00     0.167 HD
ATOM     52  C   UNL A   1      37.834  32.347  31.157  1.00  0.00     0.037 A 
ATOM     53  C   UNL A   1      42.882  29.421  34.925  1.00  0.00     0.037 A 
ATOM     54  C   UNL A   1      37.972  32.880  32.481  1.00  0.00     0.049 A 
ATOM     55  C   UNL A   1      42.167  30.666  35.382  1.00  0.00     0.074 A 
ATOM     56  C   UNL A   1      37.208  33.848  33.107  1.00  0.00     0.029 A 
ATOM     57  N   UNL A   1      38.980  32.528  33.362  1.00  0.00    -0.354 N 
ATOM     58  N   UNL A   1      41.136  31.273  34.846  1.00  0.00    -0.248 NA
ATOM     59  C   UNL A   1      42.663  31.302  36.611  1.00  0.00     0.031 C 
ATOM     60  C   UNL A   1      37.801  34.136  34.342  1.00  0.00     0.029 A 
ATOM     61  C   UNL A   1      38.906  33.314  34.498  1.00  0.00     0.049 A 
ATOM     62  H   UNL A   1      39.649  31.824  33.203  1.00  0.00     0.167 HD
ATOM     63  C   UNL A   1      40.838  32.336  35.692  1.00  0.00     0.074 A 
ATOM     64  C   UNL A   1      41.792  32.287  36.778  1.00  0.00     0.031 C 
ATOM     65  C   UNL A   1      39.854  33.262  35.580  1.00  0.00     0.037 A 
BRANCH  52  66
ATOM     66  C   UNL A   1      36.690  32.825  30.320  1.00  0.00     0.057 A 
ATOM     67  C   UNL A   1      36.829  33.868  29.402  1.00  0.00     0.134 A 
ATOM     68  C   UNL A   1      35.419  32.253  30.469  1.00  0.00     0.134 A 
ATOM     69  F   UNL A   1      38.014  34.473  29.237  1.00  0.00    -0.206 F 
ATOM     70  C   UNL A   1      35.748  34.306  28.636  1.00  0.00     0.040 A 
ATOM     71  C   UNL A   1      34.337  32.663  29.691  1.00  0.00     0.040 A 
ATOM     72  F   UNL A   1      35.216  31.280  31.368  1.00  0.00    -0.206 F 
ATOM     73  C   UNL A   1      34.500  33.695  28.770  1.00  0.00     0.006 A 
ENDBRANCH  52  66
BRANCH  53  74
ATOM     74  C   UNL A   1      43.991  28.860  35.739  1.00  0.00     0.057 A 
ATOM     75  C   UNL A   1      43.751  27.851  36.682  1.00  0.00     0.134 A 
ATOM     76  C   UNL A   1      45.318  29.256  35.544  1.00  0.00     0.134 A 
ATOM     77  F   UNL A   1      42.501  27.418  36.908  1.00  0.00    -0.206 F 
ATOM     78  C   UNL A   1      44.789  27.257  37.399  1.00  0.00     0.040 A 
ATOM     79  C   UNL A   1      46.370  28.653  36.237  1.00  0.00     0.040 A 
ATOM     80  F   UNL A   1      45.615  30.196  34.634  1.00  0.00    -0.206 F 
ATOM     81  C   UNL A   1      46.105  27.651  37.169  1.00  0.00     0.006 A 
ENDBRANCH  53  74
BRANCH  65  82
ATOM     82  C   UNL A   1      39.739  34.284  36.672  1.00  0.00     0.057 A 
ATOM     83  C   UNL A   1      39.025  34.003  37.844  1.00  0.00     0.134 A 
ATOM     84  C   UNL A   1      40.307  35.558  36.551  1.00  0.00     0.134 A 
ATOM     85  F   UNL A   1      38.447  32.805  38.019  1.00  0.00    -0.206 F 
ATOM     86  C   UNL A   1      38.875  34.954  38.853  1.00  0.00     0.040 A 
ATOM     87  C   UNL A   1      40.190  36.508  37.568  1.00  0.00     0.040 A 
ATOM     88  F   UNL A   1      41.016  35.887  35.461  1.00  0.00    -0.206 F 
ATOM     89  C   UNL A   1      39.465  36.208  38.720  1.00  0.00     0.006 A 
ENDBRANCH  65  82
ENDBRANCH  39  40
ENDBRANCH  32  34
ENDBRANCH  31  32
ENDBRANCH  30  31
ENDBRANCH   1  30
TORSDOF 14
ENDMDL
