MODEL 1
REMARK VINA RESULT:     -11.7      0.000      0.000
REMARK SMILES O=C(OCCOC(=O)c1cc(Br)ccc1OC(=O)c1ccc(F)cc1)c1ccc(-c2c3nc(c(-c4c(F)cccc4F)c4ccc([nH]4)c(-c4c(F)cccc4F)c4nc(c(-c5c(F)cccc5F)c5ccc2[nH]5)C=C4)C=C3)cc1
REMARK SMILES IDX 5 1 4 2 3 3 2 4 1 5 26 6 27 7 79 8 28 9 78 10 29 11 30 12
REMARK SMILES IDX 31 13 72 14 32 15 77 16 71 17 73 18 33 19 76 20 70 21 69 22
REMARK SMILES IDX 34 24 60 25 43 26 59 27 44 28 47 29 58 30 74 31 45 32 46 33
REMARK SMILES IDX 57 35 75 36 48 37 35 38 36 39 41 40 37 41 38 42 40 43 42 44
REMARK SMILES IDX 39 45 61 46 62 47 67 48 63 49 64 50 66 51 68 52 65 53 49 54
REMARK SMILES IDX 50 55 55 56 51 57 52 58 54 59 56 60 53 61 6 62 7 63 8 64
REMARK SMILES IDX 9 65 10 66 15 67 11 68 14 69 12 70 13 71 16 72 17 73 18 74
REMARK SMILES IDX 19 75 20 76 25 77 21 78 24 79 22 80 23 81
REMARK H PARENT 73 23 47 34
REMARK Flexibility Score: inf
ROOT
ATOM      1  C   UNL A   1      32.621  31.325  26.982  1.00  0.00     0.275 C 
ENDROOT
BRANCH   1   2
ATOM      2  C   UNL A   1      32.093  32.748  27.256  1.00  0.00     0.275 C 
BRANCH   2   3
ATOM      3  O   UNL A   1      33.017  33.835  27.417  1.00  0.00    -0.458 OA
BRANCH   3   4
ATOM      4  C   UNL A   1      33.212  34.311  28.657  1.00  0.00     0.338 C 
ATOM      5  O   UNL A   1      32.530  35.176  29.188  1.00  0.00    -0.246 OA
BRANCH   4   6
ATOM      6  C   UNL A   1      34.464  33.734  29.212  1.00  0.00     0.060 A 
ATOM      7  C   UNL A   1      34.402  32.623  30.065  1.00  0.00     0.016 A 
ATOM      8  C   UNL A   1      35.704  34.186  28.750  1.00  0.00     0.016 A 
ATOM      9  C   UNL A   1      35.556  31.946  30.420  1.00  0.00     0.010 A 
ATOM     10  C   UNL A   1      36.863  33.477  29.069  1.00  0.00     0.010 A 
ATOM     11  C   UNL A   1      36.790  32.360  29.914  1.00  0.00    -0.014 A 
BRANCH  11  12
ATOM     12  C   UNL A   1      38.001  31.703  30.436  1.00  0.00     0.031 A 
ATOM     13  C   UNL A   1      38.415  32.017  31.838  1.00  0.00     0.074 A 
ATOM     14  C   UNL A   1      38.621  30.744  29.724  1.00  0.00     0.049 A 
ATOM     15  N   UNL A   1      39.330  31.448  32.573  1.00  0.00    -0.248 NA
ATOM     16  C   UNL A   1      37.680  33.099  32.515  1.00  0.00     0.031 C 
ATOM     17  C   UNL A   1      38.249  30.319  28.375  1.00  0.00     0.029 A 
ATOM     18  N   UNL A   1      39.682  29.939  30.047  1.00  0.00    -0.354 N 
ATOM     19  C   UNL A   1      39.239  32.064  33.810  1.00  0.00     0.074 A 
ATOM     20  C   UNL A   1      38.259  33.118  33.702  1.00  0.00     0.031 C 
ATOM     21  C   UNL A   1      39.081  29.342  27.978  1.00  0.00     0.029 A 
ATOM     22  C   UNL A   1      40.044  29.078  29.041  1.00  0.00     0.049 A 
ATOM     23  H   UNL A   1      40.140  29.974  30.918  1.00  0.00     0.167 HD
ATOM     24  C   UNL A   1      39.875  31.736  34.956  1.00  0.00     0.037 A 
ATOM     25  C   UNL A   1      41.042  28.176  28.990  1.00  0.00     0.037 A 
ATOM     26  C   UNL A   1      40.853  30.694  35.049  1.00  0.00     0.049 A 
ATOM     27  C   UNL A   1      41.856  27.937  30.228  1.00  0.00     0.074 A 
ATOM     28  C   UNL A   1      41.569  30.279  36.154  1.00  0.00     0.029 A 
ATOM     29  N   UNL A   1      41.262  29.910  33.979  1.00  0.00    -0.354 N 
ATOM     30  N   UNL A   1      41.733  28.494  31.409  1.00  0.00    -0.248 NA
ATOM     31  C   UNL A   1      42.920  26.928  30.147  1.00  0.00     0.031 C 
ATOM     32  C   UNL A   1      42.444  29.270  35.742  1.00  0.00     0.029 A 
ATOM     33  C   UNL A   1      42.241  29.027  34.391  1.00  0.00     0.049 A 
ATOM     34  H   UNL A   1      40.906  29.973  33.063  1.00  0.00     0.167 HD
ATOM     35  C   UNL A   1      42.665  27.871  32.226  1.00  0.00     0.074 A 
ATOM     36  C   UNL A   1      43.364  26.908  31.398  1.00  0.00     0.031 C 
ATOM     37  C   UNL A   1      42.904  28.064  33.546  1.00  0.00     0.037 A 
BRANCH  24  38
ATOM     38  C   UNL A   1      39.505  32.525  36.173  1.00  0.00     0.057 A 
ATOM     39  C   UNL A   1      40.153  33.726  36.473  1.00  0.00     0.134 A 
ATOM     40  C   UNL A   1      38.460  32.119  37.016  1.00  0.00     0.134 A 
ATOM     41  F   UNL A   1      41.152  34.174  35.699  1.00  0.00    -0.206 F 
ATOM     42  C   UNL A   1      39.769  34.504  37.566  1.00  0.00     0.040 A 
ATOM     43  C   UNL A   1      38.051  32.900  38.097  1.00  0.00     0.040 A 
ATOM     44  F   UNL A   1      37.778  30.992  36.761  1.00  0.00    -0.206 F 
ATOM     45  C   UNL A   1      38.708  34.097  38.375  1.00  0.00     0.006 A 
ENDBRANCH  24  38
BRANCH  25  46
ATOM     46  C   UNL A   1      41.299  27.437  27.729  1.00  0.00     0.057 A 
ATOM     47  C   UNL A   1      40.757  26.161  27.526  1.00  0.00     0.134 A 
ATOM     48  C   UNL A   1      42.110  27.961  26.718  1.00  0.00     0.134 A 
ATOM     49  F   UNL A   1      39.970  25.605  28.459  1.00  0.00    -0.206 F 
ATOM     50  C   UNL A   1      41.023  25.427  26.369  1.00  0.00     0.040 A 
ATOM     51  C   UNL A   1      42.372  27.245  25.548  1.00  0.00     0.040 A 
ATOM     52  F   UNL A   1      42.647  29.183  26.849  1.00  0.00    -0.206 F 
ATOM     53  C   UNL A   1      41.832  25.971  25.373  1.00  0.00     0.006 A 
ENDBRANCH  25  46
BRANCH  37  54
ATOM     54  C   UNL A   1      43.927  27.192  34.204  1.00  0.00     0.057 A 
ATOM     55  C   UNL A   1      45.277  27.565  34.196  1.00  0.00     0.134 A 
ATOM     56  C   UNL A   1      43.599  25.932  34.714  1.00  0.00     0.134 A 
ATOM     57  F   UNL A   1      45.652  28.757  33.707  1.00  0.00    -0.206 F 
ATOM     58  C   UNL A   1      46.271  26.699  34.647  1.00  0.00     0.040 A 
ATOM     59  C   UNL A   1      44.583  25.066  35.188  1.00  0.00     0.040 A 
ATOM     60  F   UNL A   1      42.320  25.526  34.753  1.00  0.00    -0.206 F 
ATOM     61  C   UNL A   1      45.925  25.443  35.142  1.00  0.00     0.006 A 
ENDBRANCH  37  54
ENDBRANCH  11  12
ENDBRANCH   4   6
ENDBRANCH   3   4
ENDBRANCH   2   3
ENDBRANCH   1   2
BRANCH   1  62
ATOM     62  O   UNL A   1      31.654  30.413  26.427  1.00  0.00    -0.458 OA
BRANCH  62  63
ATOM     63  C   UNL A   1      32.112  29.767  25.317  1.00  0.00     0.342 C 
ATOM     64  O   UNL A   1      33.277  29.643  24.976  1.00  0.00    -0.246 OA
BRANCH  63  65
ATOM     65  C   UNL A   1      31.005  29.221  24.520  1.00  0.00     0.103 A 
ATOM     66  C   UNL A   1      30.130  30.106  23.881  1.00  0.00     0.035 A 
ATOM     67  C   UNL A   1      30.908  27.847  24.269  1.00  0.00     0.145 A 
ATOM     68  C   UNL A   1      29.146  29.600  23.028  1.00  0.00     0.019 A 
ATOM     69  C   UNL A   1      29.871  27.341  23.475  1.00  0.00     0.049 A 
ATOM     70  Br  UNL A   1      28.051  30.793  22.049  1.00  0.00    -0.051 Br
ATOM     71  C   UNL A   1      28.990  28.225  22.848  1.00  0.00     0.019 A 
BRANCH  67  72
ATOM     72  O   UNL A   1      31.801  26.950  24.872  1.00  0.00    -0.422 OA
BRANCH  72  73
ATOM     73  C   UNL A   1      31.241  26.200  25.892  1.00  0.00     0.343 C 
ATOM     74  O   UNL A   1      30.658  26.635  26.874  1.00  0.00    -0.246 OA
BRANCH  73  75
ATOM     75  C   UNL A   1      31.451  24.739  25.661  1.00  0.00     0.060 A 
ATOM     76  C   UNL A   1      31.842  23.953  26.756  1.00  0.00     0.019 A 
ATOM     77  C   UNL A   1      31.273  24.120  24.417  1.00  0.00     0.019 A 
ATOM     78  C   UNL A   1      32.008  22.573  26.614  1.00  0.00     0.040 A 
ATOM     79  C   UNL A   1      31.414  22.736  24.281  1.00  0.00     0.040 A 
ATOM     80  C   UNL A   1      31.776  21.973  25.382  1.00  0.00     0.123 A 
ATOM     81  F   UNL A   1      31.905  20.647  25.254  1.00  0.00    -0.207 F 
ENDBRANCH  73  75
ENDBRANCH  72  73
ENDBRANCH  67  72
ENDBRANCH  63  65
ENDBRANCH  62  63
ENDBRANCH   1  62
TORSDOF 14
ENDMDL
MODEL 2
REMARK VINA RESULT:     -11.6      2.193      3.593
REMARK SMILES O=C(OCCOC(=O)c1cc(Br)ccc1OC(=O)c1ccc(F)cc1)c1ccc(-c2c3nc(c(-c4c(F)cccc4F)c4ccc([nH]4)c(-c4c(F)cccc4F)c4nc(c(-c5c(F)cccc5F)c5ccc2[nH]5)C=C4)C=C3)cc1
REMARK SMILES IDX 5 1 4 2 3 3 2 4 1 5 26 6 27 7 79 8 28 9 78 10 29 11 30 12
REMARK SMILES IDX 31 13 72 14 32 15 77 16 71 17 73 18 33 19 76 20 70 21 69 22
REMARK SMILES IDX 34 24 60 25 43 26 59 27 44 28 47 29 58 30 74 31 45 32 46 33
REMARK SMILES IDX 57 35 75 36 48 37 35 38 36 39 41 40 37 41 38 42 40 43 42 44
REMARK SMILES IDX 39 45 61 46 62 47 67 48 63 49 64 50 66 51 68 52 65 53 49 54
REMARK SMILES IDX 50 55 55 56 51 57 52 58 54 59 56 60 53 61 6 62 7 63 8 64
REMARK SMILES IDX 9 65 10 66 15 67 11 68 14 69 12 70 13 71 16 72 17 73 18 74
REMARK SMILES IDX 19 75 20 76 25 77 21 78 24 79 22 80 23 81
REMARK H PARENT 73 23 47 34
REMARK Flexibility Score: inf
ROOT
ATOM      1  C   UNL A   1      32.771  31.106  27.247  1.00  0.00     0.275 C 
ENDROOT
BRANCH   1   2
ATOM      2  C   UNL A   1      32.141  32.514  27.253  1.00  0.00     0.275 C 
BRANCH   2   3
ATOM      3  O   UNL A   1      32.984  33.674  27.326  1.00  0.00    -0.458 OA
BRANCH   3   4
ATOM      4  C   UNL A   1      33.204  34.212  28.535  1.00  0.00     0.338 C 
ATOM      5  O   UNL A   1      32.538  35.110  29.031  1.00  0.00    -0.246 OA
BRANCH   4   6
ATOM      6  C   UNL A   1      34.461  33.653  29.099  1.00  0.00     0.060 A 
ATOM      7  C   UNL A   1      34.403  32.615  30.038  1.00  0.00     0.016 A 
ATOM      8  C   UNL A   1      35.695  34.041  28.568  1.00  0.00     0.016 A 
ATOM      9  C   UNL A   1      35.554  31.943  30.414  1.00  0.00     0.010 A 
ATOM     10  C   UNL A   1      36.849  33.335  28.910  1.00  0.00     0.010 A 
ATOM     11  C   UNL A   1      36.780  32.290  29.843  1.00  0.00    -0.014 A 
BRANCH  11  12
ATOM     12  C   UNL A   1      37.993  31.649  30.381  1.00  0.00     0.031 A 
ATOM     13  C   UNL A   1      38.384  31.972  31.787  1.00  0.00     0.074 A 
ATOM     14  C   UNL A   1      38.635  30.699  29.679  1.00  0.00     0.049 A 
ATOM     15  N   UNL A   1      39.298  31.416  32.535  1.00  0.00    -0.248 NA
ATOM     16  C   UNL A   1      37.627  33.045  32.454  1.00  0.00     0.031 C 
ATOM     17  C   UNL A   1      38.286  30.267  28.326  1.00  0.00     0.029 A 
ATOM     18  N   UNL A   1      39.703  29.909  30.016  1.00  0.00    -0.354 N 
ATOM     19  C   UNL A   1      39.183  32.032  33.770  1.00  0.00     0.074 A 
ATOM     20  C   UNL A   1      38.190  33.073  33.648  1.00  0.00     0.031 C 
ATOM     21  C   UNL A   1      39.136  29.300  27.940  1.00  0.00     0.029 A 
ATOM     22  C   UNL A   1      40.089  29.051  29.016  1.00  0.00     0.049 A 
ATOM     23  H   UNL A   1      40.149  29.951  30.892  1.00  0.00     0.167 HD
ATOM     24  C   UNL A   1      39.808  31.715  34.925  1.00  0.00     0.037 A 
ATOM     25  C   UNL A   1      41.100  28.163  28.979  1.00  0.00     0.037 A 
ATOM     26  C   UNL A   1      40.799  30.687  35.031  1.00  0.00     0.049 A 
ATOM     27  C   UNL A   1      41.901  27.937  30.228  1.00  0.00     0.074 A 
ATOM     28  C   UNL A   1      41.507  30.282  36.146  1.00  0.00     0.029 A 
ATOM     29  N   UNL A   1      41.232  29.906  33.968  1.00  0.00    -0.354 N 
ATOM     30  N   UNL A   1      41.755  28.493  31.407  1.00  0.00    -0.248 NA
ATOM     31  C   UNL A   1      42.980  26.942  30.162  1.00  0.00     0.031 C 
ATOM     32  C   UNL A   1      42.401  29.285  35.747  1.00  0.00     0.029 A 
ATOM     33  C   UNL A   1      42.218  29.037  34.393  1.00  0.00     0.049 A 
ATOM     34  H   UNL A   1      40.887  29.963  33.047  1.00  0.00     0.167 HD
ATOM     35  C   UNL A   1      42.686  27.884  32.236  1.00  0.00     0.074 A 
ATOM     36  C   UNL A   1      43.408  26.929  31.418  1.00  0.00     0.031 C 
ATOM     37  C   UNL A   1      42.905  28.083  33.559  1.00  0.00     0.037 A 
BRANCH  24  38
ATOM     38  C   UNL A   1      39.412  32.500  36.135  1.00  0.00     0.057 A 
ATOM     39  C   UNL A   1      38.424  32.031  37.004  1.00  0.00     0.134 A 
ATOM     40  C   UNL A   1      40.058  33.700  36.469  1.00  0.00     0.134 A 
ATOM     41  F   UNL A   1      37.778  30.884  36.745  1.00  0.00    -0.206 F 
ATOM     42  C   UNL A   1      38.096  32.721  38.171  1.00  0.00     0.040 A 
ATOM     43  C   UNL A   1      39.756  34.387  37.645  1.00  0.00     0.040 A 
ATOM     44  F   UNL A   1      41.038  34.185  35.692  1.00  0.00    -0.206 F 
ATOM     45  C   UNL A   1      38.770  33.897  38.499  1.00  0.00     0.006 A 
ENDBRANCH  24  38
BRANCH  25  46
ATOM     46  C   UNL A   1      41.383  27.426  27.723  1.00  0.00     0.057 A 
ATOM     47  C   UNL A   1      40.854  26.145  27.511  1.00  0.00     0.134 A 
ATOM     48  C   UNL A   1      42.206  27.956  26.725  1.00  0.00     0.134 A 
ATOM     49  F   UNL A   1      40.056  25.583  28.431  1.00  0.00    -0.206 F 
ATOM     50  C   UNL A   1      41.144  25.414  26.359  1.00  0.00     0.040 A 
ATOM     51  C   UNL A   1      42.492  27.241  25.559  1.00  0.00     0.040 A 
ATOM     52  F   UNL A   1      42.732  29.181  26.865  1.00  0.00    -0.206 F 
ATOM     53  C   UNL A   1      41.965  25.963  25.376  1.00  0.00     0.006 A 
ENDBRANCH  25  46
BRANCH  37  54
ATOM     54  C   UNL A   1      43.931  27.225  34.231  1.00  0.00     0.057 A 
ATOM     55  C   UNL A   1      45.275  27.620  34.245  1.00  0.00     0.134 A 
ATOM     56  C   UNL A   1      43.615  25.959  34.733  1.00  0.00     0.134 A 
ATOM     57  F   UNL A   1      45.639  28.818  33.765  1.00  0.00    -0.206 F 
ATOM     58  C   UNL A   1      46.276  26.769  34.710  1.00  0.00     0.040 A 
ATOM     59  C   UNL A   1      44.605  25.108  35.221  1.00  0.00     0.040 A 
ATOM     60  F   UNL A   1      42.343  25.533  34.752  1.00  0.00    -0.206 F 
ATOM     61  C   UNL A   1      45.942  25.506  35.197  1.00  0.00     0.006 A 
ENDBRANCH  37  54
ENDBRANCH  11  12
ENDBRANCH   4   6
ENDBRANCH   3   4
ENDBRANCH   2   3
ENDBRANCH   1   2
BRANCH   1  62
ATOM     62  O   UNL A   1      32.478  30.312  26.081  1.00  0.00    -0.458 OA
BRANCH  62  63
ATOM     63  C   UNL A   1      32.170  29.019  26.386  1.00  0.00     0.342 C 
ATOM     64  O   UNL A   1      31.566  28.627  27.370  1.00  0.00    -0.246 OA
BRANCH  63  65
ATOM     65  C   UNL A   1      32.679  28.093  25.364  1.00  0.00     0.103 A 
ATOM     66  C   UNL A   1      33.439  26.991  25.769  1.00  0.00     0.035 A 
ATOM     67  C   UNL A   1      32.288  28.213  24.025  1.00  0.00     0.145 A 
ATOM     68  C   UNL A   1      33.829  26.043  24.819  1.00  0.00     0.019 A 
ATOM     69  C   UNL A   1      32.747  27.301  23.067  1.00  0.00     0.049 A 
ATOM     70  Br  UNL A   1      34.733  24.476  25.376  1.00  0.00    -0.051 Br
ATOM     71  C   UNL A   1      33.517  26.208  23.469  1.00  0.00     0.019 A 
BRANCH  67  72
ATOM     72  O   UNL A   1      31.494  29.292  23.611  1.00  0.00    -0.422 OA
BRANCH  72  73
ATOM     73  C   UNL A   1      30.157  28.977  23.448  1.00  0.00     0.343 C 
ATOM     74  O   UNL A   1      29.617  27.928  23.766  1.00  0.00    -0.246 OA
BRANCH  73  75
ATOM     75  C   UNL A   1      29.416  30.099  22.797  1.00  0.00     0.060 A 
ATOM     76  C   UNL A   1      29.128  31.231  23.574  1.00  0.00     0.019 A 
ATOM     77  C   UNL A   1      29.005  30.078  21.458  1.00  0.00     0.019 A 
ATOM     78  C   UNL A   1      28.480  32.333  23.009  1.00  0.00     0.040 A 
ATOM     79  C   UNL A   1      28.380  31.190  20.886  1.00  0.00     0.040 A 
ATOM     80  C   UNL A   1      28.127  32.310  21.665  1.00  0.00     0.123 A 
ATOM     81  F   UNL A   1      27.534  33.377  21.116  1.00  0.00    -0.207 F 
ENDBRANCH  73  75
ENDBRANCH  72  73
ENDBRANCH  67  72
ENDBRANCH  63  65
ENDBRANCH  62  63
ENDBRANCH   1  62
TORSDOF 14
ENDMDL
MODEL 3
REMARK VINA RESULT:     -11.6      5.452      9.935
REMARK SMILES O=C(OCCOC(=O)c1cc(Br)ccc1OC(=O)c1ccc(F)cc1)c1ccc(-c2c3nc(c(-c4c(F)cccc4F)c4ccc([nH]4)c(-c4c(F)cccc4F)c4nc(c(-c5c(F)cccc5F)c5ccc2[nH]5)C=C4)C=C3)cc1
REMARK SMILES IDX 5 1 4 2 3 3 2 4 1 5 26 6 27 7 79 8 28 9 78 10 29 11 30 12
REMARK SMILES IDX 31 13 72 14 32 15 77 16 71 17 73 18 33 19 76 20 70 21 69 22
REMARK SMILES IDX 34 24 60 25 43 26 59 27 44 28 47 29 58 30 74 31 45 32 46 33
REMARK SMILES IDX 57 35 75 36 48 37 35 38 36 39 41 40 37 41 38 42 40 43 42 44
REMARK SMILES IDX 39 45 61 46 62 47 67 48 63 49 64 50 66 51 68 52 65 53 49 54
REMARK SMILES IDX 50 55 55 56 51 57 52 58 54 59 56 60 53 61 6 62 7 63 8 64
REMARK SMILES IDX 9 65 10 66 15 67 11 68 14 69 12 70 13 71 16 72 17 73 18 74
REMARK SMILES IDX 19 75 20 76 25 77 21 78 24 79 22 80 23 81
REMARK H PARENT 73 23 47 34
REMARK Flexibility Score: inf
ROOT
ATOM      1  C   UNL A   1      38.099  20.738  25.279  1.00  0.00     0.275 C 
ENDROOT
BRANCH   1   2
ATOM      2  C   UNL A   1      39.518  20.569  25.857  1.00  0.00     0.275 C 
BRANCH   2   3
ATOM      3  O   UNL A   1      40.194  19.308  25.737  1.00  0.00    -0.458 OA
BRANCH   3   4
ATOM      4  C   UNL A   1      41.525  19.293  25.912  1.00  0.00     0.338 C 
ATOM      5  O   UNL A   1      42.240  18.315  25.742  1.00  0.00    -0.246 OA
BRANCH   4   6
ATOM      6  C   UNL A   1      41.959  20.595  26.482  1.00  0.00     0.060 A 
ATOM      7  C   UNL A   1      42.312  21.648  25.627  1.00  0.00     0.016 A 
ATOM      8  C   UNL A   1      41.851  20.824  27.857  1.00  0.00     0.016 A 
ATOM      9  C   UNL A   1      42.514  22.922  26.128  1.00  0.00     0.010 A 
ATOM     10  C   UNL A   1      42.008  22.117  28.359  1.00  0.00     0.010 A 
ATOM     11  C   UNL A   1      42.350  23.167  27.494  1.00  0.00    -0.014 A 
BRANCH  11  12
ATOM     12  C   UNL A   1      42.719  24.500  28.001  1.00  0.00     0.031 A 
ATOM     13  C   UNL A   1      44.171  24.853  28.039  1.00  0.00     0.074 A 
ATOM     14  C   UNL A   1      41.772  25.414  28.278  1.00  0.00     0.049 A 
ATOM     15  N   UNL A   1      44.732  26.007  28.278  1.00  0.00    -0.248 NA
ATOM     16  C   UNL A   1      45.122  23.769  27.738  1.00  0.00     0.031 C 
ATOM     17  C   UNL A   1      40.329  25.184  28.205  1.00  0.00     0.029 A 
ATOM     18  N   UNL A   1      41.882  26.726  28.657  1.00  0.00    -0.354 N 
ATOM     19  C   UNL A   1      46.089  25.797  28.101  1.00  0.00     0.074 A 
ATOM     20  C   UNL A   1      46.283  24.390  27.838  1.00  0.00     0.031 C 
ATOM     21  C   UNL A   1      39.687  26.314  28.545  1.00  0.00     0.029 A 
ATOM     22  C   UNL A   1      40.672  27.341  28.864  1.00  0.00     0.049 A 
ATOM     23  H   UNL A   1      42.746  27.184  28.767  1.00  0.00     0.167 HD
ATOM     24  C   UNL A   1      47.083  26.712  28.094  1.00  0.00     0.037 A 
ATOM     25  C   UNL A   1      40.396  28.596  29.265  1.00  0.00     0.037 A 
ATOM     26  C   UNL A   1      46.880  28.103  28.366  1.00  0.00     0.049 A 
ATOM     27  C   UNL A   1      41.532  29.566  29.417  1.00  0.00     0.074 A 
ATOM     28  C   UNL A   1      47.812  29.121  28.397  1.00  0.00     0.029 A 
ATOM     29  N   UNL A   1      45.649  28.668  28.669  1.00  0.00    -0.354 N 
ATOM     30  N   UNL A   1      42.811  29.370  29.203  1.00  0.00    -0.248 NA
ATOM     31  C   UNL A   1      41.194  30.935  29.831  1.00  0.00     0.031 C 
ATOM     32  C   UNL A   1      47.150  30.297  28.762  1.00  0.00     0.029 A 
ATOM     33  C   UNL A   1      45.799  30.019  28.914  1.00  0.00     0.049 A 
ATOM     34  H   UNL A   1      44.795  28.178  28.703  1.00  0.00     0.167 HD
ATOM     35  C   UNL A   1      43.426  30.597  29.405  1.00  0.00     0.074 A 
ATOM     36  C   UNL A   1      42.381  31.528  29.781  1.00  0.00     0.031 C 
ATOM     37  C   UNL A   1      44.734  30.925  29.268  1.00  0.00     0.037 A 
BRANCH  24  38
ATOM     38  C   UNL A   1      48.455  26.203  27.778  1.00  0.00     0.057 A 
ATOM     39  C   UNL A   1      48.966  26.278  26.480  1.00  0.00     0.134 A 
ATOM     40  C   UNL A   1      49.292  25.693  28.781  1.00  0.00     0.134 A 
ATOM     41  F   UNL A   1      48.218  26.767  25.480  1.00  0.00    -0.206 F 
ATOM     42  C   UNL A   1      50.268  25.870  26.189  1.00  0.00     0.040 A 
ATOM     43  C   UNL A   1      50.604  25.305  28.507  1.00  0.00     0.040 A 
ATOM     44  F   UNL A   1      48.870  25.626  30.053  1.00  0.00    -0.206 F 
ATOM     45  C   UNL A   1      51.094  25.392  27.206  1.00  0.00     0.006 A 
ENDBRANCH  24  38
BRANCH  25  46
ATOM     46  C   UNL A   1      38.990  28.990  29.527  1.00  0.00     0.057 A 
ATOM     47  C   UNL A   1      38.206  29.559  28.514  1.00  0.00     0.134 A 
ATOM     48  C   UNL A   1      38.405  28.844  30.789  1.00  0.00     0.134 A 
ATOM     49  F   UNL A   1      38.711  29.724  27.282  1.00  0.00    -0.206 F 
ATOM     50  C   UNL A   1      36.897  29.980  28.749  1.00  0.00     0.040 A 
ATOM     51  C   UNL A   1      37.090  29.247  31.034  1.00  0.00     0.040 A 
ATOM     52  F   UNL A   1      39.101  28.296  31.795  1.00  0.00    -0.206 F 
ATOM     53  C   UNL A   1      36.334  29.822  30.013  1.00  0.00     0.006 A 
ENDBRANCH  25  46
BRANCH  37  54
ATOM     54  C   UNL A   1      45.118  32.357  29.474  1.00  0.00     0.057 A 
ATOM     55  C   UNL A   1      45.473  32.810  30.751  1.00  0.00     0.134 A 
ATOM     56  C   UNL A   1      45.001  33.304  28.452  1.00  0.00     0.134 A 
ATOM     57  F   UNL A   1      45.588  31.949  31.773  1.00  0.00    -0.206 F 
ATOM     58  C   UNL A   1      45.670  34.166  31.011  1.00  0.00     0.040 A 
ATOM     59  C   UNL A   1      45.217  34.659  28.695  1.00  0.00     0.040 A 
ATOM     60  F   UNL A   1      44.671  32.924  27.208  1.00  0.00    -0.206 F 
ATOM     61  C   UNL A   1      45.538  35.095  29.981  1.00  0.00     0.006 A 
ENDBRANCH  37  54
ENDBRANCH  11  12
ENDBRANCH   4   6
ENDBRANCH   3   4
ENDBRANCH   2   3
ENDBRANCH   1   2
BRANCH   1  62
ATOM     62  O   UNL A   1      37.442  21.973  25.625  1.00  0.00    -0.458 OA
BRANCH  62  63
ATOM     63  C   UNL A   1      36.553  22.383  24.676  1.00  0.00     0.342 C 
ATOM     64  O   UNL A   1      36.701  22.327  23.467  1.00  0.00    -0.246 OA
BRANCH  63  65
ATOM     65  C   UNL A   1      35.340  22.944  25.287  1.00  0.00     0.103 A 
ATOM     66  C   UNL A   1      35.172  24.333  25.307  1.00  0.00     0.035 A 
ATOM     67  C   UNL A   1      34.293  22.113  25.704  1.00  0.00     0.145 A 
ATOM     68  C   UNL A   1      33.973  24.871  25.779  1.00  0.00     0.019 A 
ATOM     69  C   UNL A   1      33.124  22.660  26.248  1.00  0.00     0.049 A 
ATOM     70  Br  UNL A   1      33.680  26.738  25.678  1.00  0.00    -0.051 Br
ATOM     71  C   UNL A   1      32.964  24.047  26.280  1.00  0.00     0.019 A 
BRANCH  67  72
ATOM     72  O   UNL A   1      34.431  20.718  25.655  1.00  0.00    -0.422 OA
BRANCH  72  73
ATOM     73  C   UNL A   1      33.687  20.115  24.656  1.00  0.00     0.343 C 
ATOM     74  O   UNL A   1      33.109  20.682  23.741  1.00  0.00    -0.246 OA
BRANCH  73  75
ATOM     75  C   UNL A   1      33.651  18.632  24.836  1.00  0.00     0.060 A 
ATOM     76  C   UNL A   1      32.622  18.093  25.623  1.00  0.00     0.019 A 
ATOM     77  C   UNL A   1      34.583  17.761  24.256  1.00  0.00     0.019 A 
ATOM     78  C   UNL A   1      32.507  16.710  25.789  1.00  0.00     0.040 A 
ATOM     79  C   UNL A   1      34.452  16.377  24.401  1.00  0.00     0.040 A 
ATOM     80  C   UNL A   1      33.413  15.863  25.163  1.00  0.00     0.123 A 
ATOM     81  F   UNL A   1      33.283  14.537  25.296  1.00  0.00    -0.207 F 
ENDBRANCH  73  75
ENDBRANCH  72  73
ENDBRANCH  67  72
ENDBRANCH  63  65
ENDBRANCH  62  63
ENDBRANCH   1  62
TORSDOF 14
ENDMDL
