MODEL 1
REMARK VINA RESULT:     -10.0      0.000      0.000
REMARK SMILES CCc1cccc2c3c([nH]c12)[C@](CC)(CC(=O)OCCOC(=O)c1ccc(-c2c4nc(c(-c5c(F)cccc5F)c5ccc([nH]5)c(-c5c(F)cccc5F)c5nc(c(-c6c(F)cccc6F)c6ccc2[nH]6)C=C5)C=C4)cc1)OCC3
REMARK SMILES IDX 19 1 18 2 16 3 17 4 15 5 12 6 3 7 4 8 11 9 5 10 7 11 10 12
REMARK SMILES IDX 6 13 8 14 9 15 80 17 79 18 78 19 2 20 1 21 13 22 14 23 20 24
REMARK SMILES IDX 21 25 22 26 23 27 24 28 25 29 77 30 26 31 76 32 27 33 28 34
REMARK SMILES IDX 29 35 70 36 30 37 75 38 69 39 71 40 31 41 74 42 68 43 67 44
REMARK SMILES IDX 32 46 58 47 41 48 57 49 42 50 45 51 56 52 72 53 43 54 44 55
REMARK SMILES IDX 55 57 73 58 46 59 33 60 34 61 39 62 35 63 36 64 38 65 40 66
REMARK SMILES IDX 37 67 59 68 60 69 65 70 61 71 62 72 64 73 66 74 63 75 47 76
REMARK SMILES IDX 48 77 53 78 49 79 50 80 52 81 54 82 51 83
REMARK H PARENT 10 16 71 45 45 56
REMARK Flexibility Score: inf
ROOT
ATOM      1  C   UNL A   1      34.420  35.009  30.618  1.00  0.00     0.274 C 
ENDROOT
BRANCH   1   2
ATOM      2  O   UNL A   1      34.429  34.380  31.927  1.00  0.00    -0.462 OA
BRANCH   2   3
ATOM      3  C   UNL A   1      34.888  35.143  32.938  1.00  0.00     0.309 C 
ATOM      4  O   UNL A   1      34.887  36.371  32.875  1.00  0.00    -0.252 OA
BRANCH   3   5
ATOM      5  C   UNL A   1      35.589  34.445  34.091  1.00  0.00     0.164 C 
BRANCH   5   6
ATOM      6  C   UNL A   1      36.690  33.364  34.038  1.00  0.00     0.118 C 
ATOM      7  C   UNL A   1      41.083  34.453  31.709  1.00  0.00    -0.024 A 
ATOM      8  C   UNL A   1      42.270  35.039  32.213  1.00  0.00     0.006 A 
ATOM      9  C   UNL A   1      40.055  34.247  32.663  1.00  0.00     0.049 A 
ATOM     10  C   UNL A   1      42.441  35.364  33.555  1.00  0.00     0.001 A 
ATOM     11  C   UNL A   1      40.214  34.549  34.024  1.00  0.00     0.003 A 
ATOM     12  N   UNL A   1      38.768  33.750  32.541  1.00  0.00    -0.356 N 
ATOM     13  C   UNL A   1      41.429  35.099  34.472  1.00  0.00     0.010 A 
ATOM     14  C   UNL A   1      39.019  34.162  34.692  1.00  0.00    -0.014 A 
ATOM     15  C   UNL A   1      38.093  33.813  33.740  1.00  0.00     0.052 A 
ATOM     16  H   UNL A   1      38.386  33.397  31.706  1.00  0.00     0.166 HD
ATOM     17  C   UNL A   1      38.721  34.038  36.140  1.00  0.00     0.066 C 
ATOM     18  C   UNL A   1      37.333  33.406  36.397  1.00  0.00     0.166 C 
ATOM     19  O   UNL A   1      36.779  32.658  35.301  1.00  0.00    -0.368 OA
BRANCH   7  20
ATOM     20  C   UNL A   1      41.105  34.117  30.229  1.00  0.00     0.034 C 
ATOM     21  C   UNL A   1      42.436  34.071  29.501  1.00  0.00     0.009 C 
ENDBRANCH   7  20
BRANCH   6  22
ATOM     22  C   UNL A   1      36.272  32.275  32.989  1.00  0.00     0.039 C 
ATOM     23  C   UNL A   1      37.027  30.951  33.069  1.00  0.00     0.007 C 
ENDBRANCH   6  22
ENDBRANCH   5   6
ENDBRANCH   3   5
ENDBRANCH   2   3
ENDBRANCH   1   2
BRANCH   1  24
ATOM     24  C   UNL A   1      33.688  34.150  29.585  1.00  0.00     0.275 C 
BRANCH  24  25
ATOM     25  O   UNL A   1      34.329  32.871  29.505  1.00  0.00    -0.458 OA
BRANCH  25  26
ATOM     26  C   UNL A   1      35.324  32.756  28.591  1.00  0.00     0.338 C 
ATOM     27  O   UNL A   1      35.486  33.434  27.592  1.00  0.00    -0.246 OA
BRANCH  26  28
ATOM     28  C   UNL A   1      36.356  31.923  29.241  1.00  0.00     0.060 A 
ATOM     29  C   UNL A   1      37.621  32.440  29.527  1.00  0.00     0.016 A 
ATOM     30  C   UNL A   1      36.135  30.547  29.237  1.00  0.00     0.016 A 
ATOM     31  C   UNL A   1      38.697  31.567  29.610  1.00  0.00     0.010 A 
ATOM     32  C   UNL A   1      37.212  29.676  29.288  1.00  0.00     0.010 A 
ATOM     33  C   UNL A   1      38.502  30.197  29.392  1.00  0.00    -0.014 A 
BRANCH  33  34
ATOM     34  C   UNL A   1      39.659  29.313  29.464  1.00  0.00     0.031 A 
ATOM     35  C   UNL A   1      40.089  29.057  30.854  1.00  0.00     0.074 A 
ATOM     36  C   UNL A   1      40.315  28.718  28.448  1.00  0.00     0.049 A 
ATOM     37  N   UNL A   1      41.075  29.617  31.469  1.00  0.00    -0.248 NA
ATOM     38  C   UNL A   1      39.243  28.207  31.700  1.00  0.00     0.031 C 
ATOM     39  C   UNL A   1      39.951  28.593  27.041  1.00  0.00     0.029 A 
ATOM     40  N   UNL A   1      41.491  28.023  28.515  1.00  0.00    -0.354 N 
ATOM     41  C   UNL A   1      41.081  29.068  32.744  1.00  0.00     0.074 A 
ATOM     42  C   UNL A   1      39.836  28.358  32.884  1.00  0.00     0.031 C 
ATOM     43  C   UNL A   1      40.778  27.715  26.429  1.00  0.00     0.029 A 
ATOM     44  C   UNL A   1      41.819  27.324  27.362  1.00  0.00     0.049 A 
ATOM     45  H   UNL A   1      42.059  28.019  29.319  1.00  0.00     0.167 HD
ATOM     46  C   UNL A   1      42.211  29.061  33.501  1.00  0.00     0.037 A 
ATOM     47  C   UNL A   1      42.863  26.476  27.191  1.00  0.00     0.037 A 
ATOM     48  C   UNL A   1      43.210  29.952  32.966  1.00  0.00     0.049 A 
ATOM     49  C   UNL A   1      43.875  26.796  28.228  1.00  0.00     0.074 A 
ATOM     50  C   UNL A   1      43.271  31.307  32.702  1.00  0.00     0.029 A 
ATOM     51  N   UNL A   1      44.264  29.395  32.282  1.00  0.00    -0.354 N 
ATOM     52  N   UNL A   1      44.617  27.867  28.211  1.00  0.00    -0.248 NA
ATOM     53  C   UNL A   1      43.768  26.136  29.521  1.00  0.00     0.031 C 
ATOM     54  C   UNL A   1      44.052  31.421  31.513  1.00  0.00     0.029 A 
ATOM     55  C   UNL A   1      44.446  30.136  31.144  1.00  0.00     0.049 A 
ATOM     56  H   UNL A   1      44.790  28.610  32.558  1.00  0.00     0.167 HD
ATOM     57  C   UNL A   1      44.700  28.259  29.538  1.00  0.00     0.074 A 
ATOM     58  C   UNL A   1      44.253  27.100  30.307  1.00  0.00     0.031 C 
ATOM     59  C   UNL A   1      44.849  29.573  29.877  1.00  0.00     0.037 A 
BRANCH  46  60
ATOM     60  C   UNL A   1      42.557  27.985  34.498  1.00  0.00     0.057 A 
ATOM     61  C   UNL A   1      42.296  28.062  35.881  1.00  0.00     0.134 A 
ATOM     62  C   UNL A   1      42.884  26.703  34.021  1.00  0.00     0.134 A 
ATOM     63  F   UNL A   1      41.906  29.191  36.484  1.00  0.00    -0.206 F 
ATOM     64  C   UNL A   1      42.318  26.944  36.717  1.00  0.00     0.040 A 
ATOM     65  C   UNL A   1      42.853  25.569  34.839  1.00  0.00     0.040 A 
ATOM     66  F   UNL A   1      43.158  26.499  32.723  1.00  0.00    -0.206 F 
ATOM     67  C   UNL A   1      42.557  25.686  36.190  1.00  0.00     0.006 A 
ENDBRANCH  46  60
BRANCH  47  68
ATOM     68  C   UNL A   1      42.981  25.298  26.303  1.00  0.00     0.057 A 
ATOM     69  C   UNL A   1      42.294  24.103  26.580  1.00  0.00     0.134 A 
ATOM     70  C   UNL A   1      43.966  25.222  25.308  1.00  0.00     0.134 A 
ATOM     71  F   UNL A   1      41.384  24.039  27.564  1.00  0.00    -0.206 F 
ATOM     72  C   UNL A   1      42.577  22.902  25.920  1.00  0.00     0.040 A 
ATOM     73  C   UNL A   1      44.266  24.023  24.645  1.00  0.00     0.040 A 
ATOM     74  F   UNL A   1      44.708  26.294  24.996  1.00  0.00    -0.206 F 
ATOM     75  C   UNL A   1      43.577  22.856  24.958  1.00  0.00     0.006 A 
ENDBRANCH  47  68
BRANCH  59  76
ATOM     76  C   UNL A   1      45.193  30.542  28.782  1.00  0.00     0.057 A 
ATOM     77  C   UNL A   1      46.511  30.999  28.671  1.00  0.00     0.134 A 
ATOM     78  C   UNL A   1      44.242  31.129  27.935  1.00  0.00     0.134 A 
ATOM     79  F   UNL A   1      47.463  30.523  29.490  1.00  0.00    -0.206 F 
ATOM     80  C   UNL A   1      46.872  31.984  27.751  1.00  0.00     0.040 A 
ATOM     81  C   UNL A   1      44.597  32.092  26.986  1.00  0.00     0.040 A 
ATOM     82  F   UNL A   1      42.940  30.829  28.039  1.00  0.00    -0.206 F 
ATOM     83  C   UNL A   1      45.917  32.526  26.895  1.00  0.00     0.006 A 
ENDBRANCH  59  76
ENDBRANCH  33  34
ENDBRANCH  26  28
ENDBRANCH  25  26
ENDBRANCH  24  25
ENDBRANCH   1  24
TORSDOF 14
ENDMDL
MODEL 2
REMARK VINA RESULT:     -10.0      4.252      9.278
REMARK SMILES CCc1cccc2c3c([nH]c12)[C@](CC)(CC(=O)OCCOC(=O)c1ccc(-c2c4nc(c(-c5c(F)cccc5F)c5ccc([nH]5)c(-c5c(F)cccc5F)c5nc(c(-c6c(F)cccc6F)c6ccc2[nH]6)C=C5)C=C4)cc1)OCC3
REMARK SMILES IDX 19 1 18 2 16 3 17 4 15 5 12 6 3 7 4 8 11 9 5 10 7 11 10 12
REMARK SMILES IDX 6 13 8 14 9 15 80 17 79 18 78 19 2 20 1 21 13 22 14 23 20 24
REMARK SMILES IDX 21 25 22 26 23 27 24 28 25 29 77 30 26 31 76 32 27 33 28 34
REMARK SMILES IDX 29 35 70 36 30 37 75 38 69 39 71 40 31 41 74 42 68 43 67 44
REMARK SMILES IDX 32 46 58 47 41 48 57 49 42 50 45 51 56 52 72 53 43 54 44 55
REMARK SMILES IDX 55 57 73 58 46 59 33 60 34 61 39 62 35 63 36 64 38 65 40 66
REMARK SMILES IDX 37 67 59 68 60 69 65 70 61 71 62 72 64 73 66 74 63 75 47 76
REMARK SMILES IDX 48 77 53 78 49 79 50 80 52 81 54 82 51 83
REMARK H PARENT 10 16 71 45 45 56
REMARK Flexibility Score: inf
ROOT
ATOM      1  C   UNL A   1      33.689  30.202  27.143  1.00  0.00     0.274 C 
ENDROOT
BRANCH   1   2
ATOM      2  O   UNL A   1      33.417  28.809  27.449  1.00  0.00    -0.462 OA
BRANCH   2   3
ATOM      3  C   UNL A   1      32.168  28.385  27.172  1.00  0.00     0.309 C 
ATOM      4  O   UNL A   1      31.415  27.968  28.050  1.00  0.00    -0.252 OA
BRANCH   3   5
ATOM      5  C   UNL A   1      31.772  28.253  25.710  1.00  0.00     0.164 C 
BRANCH   5   6
ATOM      6  C   UNL A   1      31.857  27.012  24.797  1.00  0.00     0.118 C 
ATOM      7  C   UNL A   1      35.241  23.374  25.910  1.00  0.00    -0.024 A 
ATOM      8  C   UNL A   1      35.124  22.235  26.743  1.00  0.00     0.006 A 
ATOM      9  C   UNL A   1      34.066  24.160  25.787  1.00  0.00     0.049 A 
ATOM     10  C   UNL A   1      33.936  21.879  27.374  1.00  0.00     0.001 A 
ATOM     11  C   UNL A   1      32.853  23.807  26.399  1.00  0.00     0.003 A 
ATOM     12  N   UNL A   1      33.811  25.342  25.112  1.00  0.00    -0.356 N 
ATOM     13  C   UNL A   1      32.790  22.644  27.188  1.00  0.00     0.010 A 
ATOM     14  C   UNL A   1      31.883  24.774  26.016  1.00  0.00    -0.014 A 
ATOM     15  C   UNL A   1      32.530  25.786  25.349  1.00  0.00     0.052 A 
ATOM     16  H   UNL A   1      34.463  25.804  24.537  1.00  0.00     0.166 HD
ATOM     17  C   UNL A   1      30.408  24.775  26.176  1.00  0.00     0.066 C 
ATOM     18  C   UNL A   1      29.743  25.963  25.440  1.00  0.00     0.166 C 
ATOM     19  O   UNL A   1      30.533  26.572  24.404  1.00  0.00    -0.368 OA
BRANCH   7  20
ATOM     20  C   UNL A   1      36.600  23.568  25.263  1.00  0.00     0.034 C 
ATOM     21  C   UNL A   1      36.811  23.099  23.836  1.00  0.00     0.009 C 
ENDBRANCH   7  20
BRANCH   6  22
ATOM     22  C   UNL A   1      32.567  27.421  23.460  1.00  0.00     0.039 C 
ATOM     23  C   UNL A   1      33.564  28.572  23.562  1.00  0.00     0.007 C 
ENDBRANCH   6  22
ENDBRANCH   5   6
ENDBRANCH   3   5
ENDBRANCH   2   3
ENDBRANCH   1   2
BRANCH   1  24
ATOM     24  C   UNL A   1      34.883  30.730  27.943  1.00  0.00     0.275 C 
BRANCH  24  25
ATOM     25  O   UNL A   1      35.960  29.791  27.846  1.00  0.00    -0.458 OA
BRANCH  25  26
ATOM     26  C   UNL A   1      36.684  29.590  28.974  1.00  0.00     0.338 C 
ATOM     27  O   UNL A   1      36.295  29.687  30.124  1.00  0.00    -0.246 OA
BRANCH  26  28
ATOM     28  C   UNL A   1      37.898  28.871  28.536  1.00  0.00     0.060 A 
ATOM     29  C   UNL A   1      38.568  28.002  29.398  1.00  0.00     0.016 A 
ATOM     30  C   UNL A   1      38.520  29.351  27.384  1.00  0.00     0.016 A 
ATOM     31  C   UNL A   1      39.924  27.778  29.202  1.00  0.00     0.010 A 
ATOM     32  C   UNL A   1      39.880  29.154  27.205  1.00  0.00     0.010 A 
ATOM     33  C   UNL A   1      40.596  28.435  28.162  1.00  0.00    -0.014 A 
BRANCH  33  34
ATOM     34  C   UNL A   1      42.024  28.194  28.001  1.00  0.00     0.031 A 
ATOM     35  C   UNL A   1      42.309  26.922  27.308  1.00  0.00     0.074 A 
ATOM     36  C   UNL A   1      43.048  28.989  28.372  1.00  0.00     0.049 A 
ATOM     37  N   UNL A   1      42.666  25.811  27.856  1.00  0.00    -0.248 NA
ATOM     38  C   UNL A   1      42.014  26.828  25.873  1.00  0.00     0.031 C 
ATOM     39  C   UNL A   1      43.044  30.376  28.824  1.00  0.00     0.029 A 
ATOM     40  N   UNL A   1      44.380  28.683  28.361  1.00  0.00    -0.354 N 
ATOM     41  C   UNL A   1      42.805  24.906  26.814  1.00  0.00     0.074 A 
ATOM     42  C   UNL A   1      42.217  25.529  25.657  1.00  0.00     0.031 C 
ATOM     43  C   UNL A   1      44.310  30.851  28.861  1.00  0.00     0.029 A 
ATOM     44  C   UNL A   1      45.226  29.762  28.576  1.00  0.00     0.049 A 
ATOM     45  H   UNL A   1      44.713  27.768  28.211  1.00  0.00     0.167 HD
ATOM     46  C   UNL A   1      43.591  23.803  26.939  1.00  0.00     0.037 A 
ATOM     47  C   UNL A   1      46.580  29.763  28.512  1.00  0.00     0.037 A 
ATOM     48  C   UNL A   1      43.937  23.555  28.318  1.00  0.00     0.049 A 
ATOM     49  C   UNL A   1      47.038  28.361  28.685  1.00  0.00     0.074 A 
ATOM     50  C   UNL A   1      43.224  23.306  29.475  1.00  0.00     0.029 A 
ATOM     51  N   UNL A   1      45.203  23.893  28.730  1.00  0.00    -0.354 N 
ATOM     52  N   UNL A   1      46.996  27.719  29.817  1.00  0.00    -0.248 NA
ATOM     53  C   UNL A   1      47.150  27.524  27.499  1.00  0.00     0.031 C 
ATOM     54  C   UNL A   1      43.952  23.962  30.511  1.00  0.00     0.029 A 
ATOM     55  C   UNL A   1      45.080  24.541  29.930  1.00  0.00     0.049 A 
ATOM     56  H   UNL A   1      46.043  23.703  28.252  1.00  0.00     0.167 HD
ATOM     57  C   UNL A   1      46.631  26.425  29.474  1.00  0.00     0.074 A 
ATOM     58  C   UNL A   1      46.847  26.338  28.032  1.00  0.00     0.031 C 
ATOM     59  C   UNL A   1      45.922  25.641  30.338  1.00  0.00     0.037 A 
BRANCH  46  60
ATOM     60  C   UNL A   1      44.353  23.170  25.803  1.00  0.00     0.057 A 
ATOM     61  C   UNL A   1      45.371  23.810  25.067  1.00  0.00     0.134 A 
ATOM     62  C   UNL A   1      44.279  21.776  25.636  1.00  0.00     0.134 A 
ATOM     63  F   UNL A   1      45.620  25.121  25.164  1.00  0.00    -0.206 F 
ATOM     64  C   UNL A   1      46.272  23.113  24.261  1.00  0.00     0.040 A 
ATOM     65  C   UNL A   1      45.212  21.063  24.876  1.00  0.00     0.040 A 
ATOM     66  F   UNL A   1      43.350  21.052  26.278  1.00  0.00    -0.206 F 
ATOM     67  C   UNL A   1      46.220  21.730  24.195  1.00  0.00     0.006 A 
ENDBRANCH  46  60
BRANCH  47  68
ATOM     68  C   UNL A   1      47.503  30.860  28.147  1.00  0.00     0.057 A 
ATOM     69  C   UNL A   1      48.396  31.406  29.085  1.00  0.00     0.134 A 
ATOM     70  C   UNL A   1      47.355  31.579  26.951  1.00  0.00     0.134 A 
ATOM     71  F   UNL A   1      48.559  30.847  30.294  1.00  0.00    -0.206 F 
ATOM     72  C   UNL A   1      49.091  32.599  28.858  1.00  0.00     0.040 A 
ATOM     73  C   UNL A   1      48.039  32.780  26.713  1.00  0.00     0.040 A 
ATOM     74  F   UNL A   1      46.498  31.167  26.007  1.00  0.00    -0.206 F 
ATOM     75  C   UNL A   1      48.902  33.299  27.673  1.00  0.00     0.006 A 
ENDBRANCH  47  68
BRANCH  59  76
ATOM     76  C   UNL A   1      45.785  26.112  31.757  1.00  0.00     0.057 A 
ATOM     77  C   UNL A   1      44.717  26.950  32.093  1.00  0.00     0.134 A 
ATOM     78  C   UNL A   1      46.745  25.875  32.752  1.00  0.00     0.134 A 
ATOM     79  F   UNL A   1      43.791  27.269  31.173  1.00  0.00    -0.206 F 
ATOM     80  C   UNL A   1      44.596  27.515  33.364  1.00  0.00     0.040 A 
ATOM     81  C   UNL A   1      46.618  26.407  34.039  1.00  0.00     0.040 A 
ATOM     82  F   UNL A   1      47.854  25.170  32.492  1.00  0.00    -0.206 F 
ATOM     83  C   UNL A   1      45.542  27.234  34.346  1.00  0.00     0.006 A 
ENDBRANCH  59  76
ENDBRANCH  33  34
ENDBRANCH  26  28
ENDBRANCH  25  26
ENDBRANCH  24  25
ENDBRANCH   1  24
TORSDOF 14
ENDMDL
MODEL 3
REMARK VINA RESULT:     -10.0      4.996     10.481
REMARK SMILES CCc1cccc2c3c([nH]c12)[C@](CC)(CC(=O)OCCOC(=O)c1ccc(-c2c4nc(c(-c5c(F)cccc5F)c5ccc([nH]5)c(-c5c(F)cccc5F)c5nc(c(-c6c(F)cccc6F)c6ccc2[nH]6)C=C5)C=C4)cc1)OCC3
REMARK SMILES IDX 19 1 18 2 16 3 17 4 15 5 12 6 3 7 4 8 11 9 5 10 7 11 10 12
REMARK SMILES IDX 6 13 8 14 9 15 80 17 79 18 78 19 2 20 1 21 13 22 14 23 20 24
REMARK SMILES IDX 21 25 22 26 23 27 24 28 25 29 77 30 26 31 76 32 27 33 28 34
REMARK SMILES IDX 29 35 70 36 30 37 75 38 69 39 71 40 31 41 74 42 68 43 67 44
REMARK SMILES IDX 32 46 58 47 41 48 57 49 42 50 45 51 56 52 72 53 43 54 44 55
REMARK SMILES IDX 55 57 73 58 46 59 33 60 34 61 39 62 35 63 36 64 38 65 40 66
REMARK SMILES IDX 37 67 59 68 60 69 65 70 61 71 62 72 64 73 66 74 63 75 47 76
REMARK SMILES IDX 48 77 53 78 49 79 50 80 52 81 54 82 51 83
REMARK H PARENT 10 16 71 45 45 56
REMARK Flexibility Score: inf
ROOT
ATOM      1  C   UNL A   1      37.586  22.042  25.810  1.00  0.00     0.274 C 
ENDROOT
BRANCH   1   2
ATOM      2  O   UNL A   1      37.452  22.962  24.694  1.00  0.00    -0.462 OA
BRANCH   2   3
ATOM      3  C   UNL A   1      36.442  22.701  23.841  1.00  0.00     0.309 C 
ATOM      4  O   UNL A   1      36.484  23.046  22.662  1.00  0.00    -0.252 OA
BRANCH   3   5
ATOM      5  C   UNL A   1      35.156  22.134  24.418  1.00  0.00     0.164 C 
BRANCH   5   6
ATOM      6  C   UNL A   1      33.796  22.837  24.618  1.00  0.00     0.118 C 
ATOM      7  C   UNL A   1      33.732  27.861  25.437  1.00  0.00    -0.024 A 
ATOM      8  C   UNL A   1      33.682  28.941  24.521  1.00  0.00     0.006 A 
ATOM      9  C   UNL A   1      33.685  26.569  24.855  1.00  0.00     0.049 A 
ATOM     10  C   UNL A   1      33.560  28.761  23.147  1.00  0.00     0.001 A 
ATOM     11  C   UNL A   1      33.543  26.366  23.473  1.00  0.00     0.003 A 
ATOM     12  N   UNL A   1      33.753  25.302  25.411  1.00  0.00    -0.356 N 
ATOM     13  C   UNL A   1      33.464  27.479  22.616  1.00  0.00     0.010 A 
ATOM     14  C   UNL A   1      33.470  24.963  23.251  1.00  0.00    -0.014 A 
ATOM     15  C   UNL A   1      33.751  24.329  24.437  1.00  0.00     0.052 A 
ATOM     16  H   UNL A   1      33.797  25.122  26.377  1.00  0.00     0.166 HD
ATOM     17  C   UNL A   1      33.095  24.197  22.037  1.00  0.00     0.066 C 
ATOM     18  C   UNL A   1      32.983  22.680  22.316  1.00  0.00     0.166 C 
ATOM     19  O   UNL A   1      32.807  22.314  23.696  1.00  0.00    -0.368 OA
BRANCH   7  20
ATOM     20  C   UNL A   1      33.808  28.256  26.900  1.00  0.00     0.034 C 
ATOM     21  C   UNL A   1      34.837  29.281  27.336  1.00  0.00     0.009 C 
ENDBRANCH   7  20
BRANCH   6  22
ATOM     22  C   UNL A   1      33.253  22.483  26.046  1.00  0.00     0.039 C 
ATOM     23  C   UNL A   1      34.278  21.912  27.023  1.00  0.00     0.007 C 
ENDBRANCH   6  22
ENDBRANCH   5   6
ENDBRANCH   3   5
ENDBRANCH   2   3
ENDBRANCH   1   2
BRANCH   1  24
ATOM     24  C   UNL A   1      38.914  21.283  25.758  1.00  0.00     0.275 C 
BRANCH  24  25
ATOM     25  O   UNL A   1      39.986  22.208  25.979  1.00  0.00    -0.458 OA
BRANCH  25  26
ATOM     26  C   UNL A   1      40.408  22.342  27.260  1.00  0.00     0.338 C 
ATOM     27  O   UNL A   1      40.696  21.449  28.036  1.00  0.00    -0.246 OA
BRANCH  26  28
ATOM     28  C   UNL A   1      40.810  23.758  27.392  1.00  0.00     0.060 A 
ATOM     29  C   UNL A   1      41.779  24.145  28.318  1.00  0.00     0.016 A 
ATOM     30  C   UNL A   1      39.956  24.699  26.819  1.00  0.00     0.016 A 
ATOM     31  C   UNL A   1      41.754  25.444  28.809  1.00  0.00     0.010 A 
ATOM     32  C   UNL A   1      39.909  25.987  27.331  1.00  0.00     0.010 A 
ATOM     33  C   UNL A   1      40.756  26.331  28.385  1.00  0.00    -0.014 A 
BRANCH  33  34
ATOM     34  C   UNL A   1      40.747  27.678  28.939  1.00  0.00     0.031 A 
ATOM     35  C   UNL A   1      41.872  28.499  28.449  1.00  0.00     0.074 A 
ATOM     36  C   UNL A   1      39.845  28.225  29.780  1.00  0.00     0.049 A 
ATOM     37  N   UNL A   1      42.966  28.759  29.081  1.00  0.00    -0.248 NA
ATOM     38  C   UNL A   1      41.850  28.950  27.053  1.00  0.00     0.031 C 
ATOM     39  C   UNL A   1      38.537  27.737  30.199  1.00  0.00     0.029 A 
ATOM     40  N   UNL A   1      39.932  29.431  30.417  1.00  0.00    -0.354 N 
ATOM     41  C   UNL A   1      43.716  29.551  28.223  1.00  0.00     0.074 A 
ATOM     42  C   UNL A   1      43.069  29.479  26.939  1.00  0.00     0.031 C 
ATOM     43  C   UNL A   1      37.874  28.713  30.862  1.00  0.00     0.029 A 
ATOM     44  C   UNL A   1      38.764  29.845  31.040  1.00  0.00     0.049 A 
ATOM     45  H   UNL A   1      40.760  29.965  30.432  1.00  0.00     0.167 HD
ATOM     46  C   UNL A   1      44.686  30.378  28.696  1.00  0.00     0.037 A 
ATOM     47  C   UNL A   1      38.541  31.036  31.649  1.00  0.00     0.037 A 
ATOM     48  C   UNL A   1      45.028  30.063  30.061  1.00  0.00     0.049 A 
ATOM     49  C   UNL A   1      39.862  31.617  31.996  1.00  0.00     0.074 A 
ATOM     50  C   UNL A   1      45.516  28.948  30.715  1.00  0.00     0.029 A 
ATOM     51  N   UNL A   1      44.542  30.887  31.048  1.00  0.00    -0.354 N 
ATOM     52  N   UNL A   1      40.625  31.164  32.949  1.00  0.00    -0.248 NA
ATOM     53  C   UNL A   1      40.533  32.441  31.001  1.00  0.00     0.031 C 
ATOM     54  C   UNL A   1      44.872  28.950  31.988  1.00  0.00     0.029 A 
ATOM     55  C   UNL A   1      44.060  30.082  32.046  1.00  0.00     0.049 A 
ATOM     56  H   UNL A   1      44.541  31.872  31.039  1.00  0.00     0.167 HD
ATOM     57  C   UNL A   1      41.914  31.265  32.446  1.00  0.00     0.074 A 
ATOM     58  C   UNL A   1      41.804  32.156  31.294  1.00  0.00     0.031 C 
ATOM     59  C   UNL A   1      42.892  30.396  32.835  1.00  0.00     0.037 A 
BRANCH  46  60
ATOM     60  C   UNL A   1      45.059  31.695  28.066  1.00  0.00     0.057 A 
ATOM     61  C   UNL A   1      46.193  31.902  27.254  1.00  0.00     0.134 A 
ATOM     62  C   UNL A   1      44.094  32.717  28.018  1.00  0.00     0.134 A 
ATOM     63  F   UNL A   1      47.172  30.998  27.132  1.00  0.00    -0.206 F 
ATOM     64  C   UNL A   1      46.336  33.017  26.427  1.00  0.00     0.040 A 
ATOM     65  C   UNL A   1      44.202  33.808  27.150  1.00  0.00     0.040 A 
ATOM     66  F   UNL A   1      42.971  32.640  28.749  1.00  0.00    -0.206 F 
ATOM     67  C   UNL A   1      45.321  33.955  26.342  1.00  0.00     0.006 A 
ENDBRANCH  46  60
BRANCH  47  68
ATOM     68  C   UNL A   1      37.277  31.789  31.804  1.00  0.00     0.057 A 
ATOM     69  C   UNL A   1      36.754  32.563  30.754  1.00  0.00     0.134 A 
ATOM     70  C   UNL A   1      36.684  31.981  33.061  1.00  0.00     0.134 A 
ATOM     71  F   UNL A   1      37.293  32.519  29.526  1.00  0.00    -0.206 F 
ATOM     72  C   UNL A   1      35.715  33.482  30.941  1.00  0.00     0.040 A 
ATOM     73  C   UNL A   1      35.648  32.905  33.264  1.00  0.00     0.040 A 
ATOM     74  F   UNL A   1      37.134  31.322  34.138  1.00  0.00    -0.206 F 
ATOM     75  C   UNL A   1      35.168  33.667  32.203  1.00  0.00     0.006 A 
ENDBRANCH  47  68
BRANCH  59  76
ATOM     76  C   UNL A   1      42.610  29.511  34.015  1.00  0.00     0.057 A 
ATOM     77  C   UNL A   1      43.139  29.857  35.263  1.00  0.00     0.134 A 
ATOM     78  C   UNL A   1      41.958  28.273  33.922  1.00  0.00     0.134 A 
ATOM     79  F   UNL A   1      43.827  31.000  35.413  1.00  0.00    -0.206 F 
ATOM     80  C   UNL A   1      43.012  29.020  36.374  1.00  0.00     0.040 A 
ATOM     81  C   UNL A   1      41.794  27.441  35.033  1.00  0.00     0.040 A 
ATOM     82  F   UNL A   1      41.511  27.812  32.746  1.00  0.00    -0.206 F 
ATOM     83  C   UNL A   1      42.327  27.813  36.264  1.00  0.00     0.006 A 
ENDBRANCH  59  76
ENDBRANCH  33  34
ENDBRANCH  26  28
ENDBRANCH  25  26
ENDBRANCH  24  25
ENDBRANCH   1  24
TORSDOF 14
ENDMDL
