MODEL 1
REMARK VINA RESULT:     -12.1      0.000      0.000
REMARK SMILES Cc1cc(-c2cncc(C(=O)OCCOC(=O)c3ccc(-c4c5nc(c(-c6c(F)cccc6F)c6ccc([nH]6)c(-c6c(F)cccc6F)c6nc(c(-c7c(F)cccc7F)c7ccc4[nH]7)C=C6)C=C5)cc3)c2)ccc1F
REMARK SMILES IDX 14 1 13 2 12 3 10 4 11 5 9 6 5 7 6 8 72 9 7 10 8 11 4 12
REMARK SMILES IDX 1 13 2 14 3 15 75 16 74 17 76 18 73 19 15 20 16 21 17 22
REMARK SMILES IDX 18 23 19 24 71 25 20 26 70 27 21 28 22 29 23 30 64 31 24 32
REMARK SMILES IDX 69 33 63 34 65 35 25 36 68 37 62 38 61 39 26 41 52 42 35 43
REMARK SMILES IDX 51 44 36 45 39 46 50 47 66 48 37 49 38 50 49 52 67 53 40 54
REMARK SMILES IDX 27 55 28 56 33 57 29 58 30 59 32 60 34 61 31 62 53 63 54 64
REMARK SMILES IDX 59 65 55 66 56 67 58 68 60 69 57 70 41 71 42 72 47 73 43 74
REMARK SMILES IDX 44 75 46 76 48 77 45 78
REMARK H PARENT 65 40 39 51
REMARK Flexibility Score: inf
ROOT
ATOM      1  C   UNL A   1      33.011  35.536  31.144  1.00  0.00     0.275 C 
ENDROOT
BRANCH   1   2
ATOM      2  C   UNL A   1      33.004  35.731  29.625  1.00  0.00     0.275 C 
BRANCH   2   3
ATOM      3  O   UNL A   1      33.772  34.730  28.916  1.00  0.00    -0.458 OA
BRANCH   3   4
ATOM      4  C   UNL A   1      33.088  33.891  28.094  1.00  0.00     0.339 C 
ATOM      5  O   UNL A   1      32.058  34.155  27.489  1.00  0.00    -0.246 OA
BRANCH   4   6
ATOM      6  C   UNL A   1      33.808  32.611  27.911  1.00  0.00     0.079 A 
ATOM      7  C   UNL A   1      33.909  30.223  27.509  1.00  0.00     0.001 A 
ATOM      8  C   UNL A   1      35.299  30.335  27.558  1.00  0.00     0.119 A 
ATOM      9  C   UNL A   1      33.162  31.389  27.748  1.00  0.00     0.027 A 
ATOM     10  N   UNL A   1      35.960  31.499  27.743  1.00  0.00    -0.263 NA
ATOM     11  C   UNL A   1      35.195  32.612  27.867  1.00  0.00     0.126 A 
BRANCH   7  12
ATOM     12  C   UNL A   1      33.251  28.991  27.074  1.00  0.00    -0.016 A 
ATOM     13  C   UNL A   1      34.330  25.760  25.347  1.00  0.00     0.047 C 
ATOM     14  C   UNL A   1      33.479  26.788  26.024  1.00  0.00    -0.015 A 
ATOM     15  C   UNL A   1      34.026  28.009  26.425  1.00  0.00     0.015 A 
ATOM     16  C   UNL A   1      32.131  26.552  26.280  1.00  0.00     0.126 A 
ATOM     17  C   UNL A   1      31.340  27.504  26.920  1.00  0.00     0.040 A 
ATOM     18  F   UNL A   1      31.579  25.388  25.911  1.00  0.00    -0.207 F 
ATOM     19  C   UNL A   1      31.897  28.722  27.320  1.00  0.00     0.012 A 
ENDBRANCH   7  12
ENDBRANCH   4   6
ENDBRANCH   3   4
ENDBRANCH   2   3
ENDBRANCH   1   2
BRANCH   1  20
ATOM     20  O   UNL A   1      34.177  36.125  31.720  1.00  0.00    -0.458 OA
BRANCH  20  21
ATOM     21  C   UNL A   1      34.790  35.290  32.580  1.00  0.00     0.338 C 
ATOM     22  O   UNL A   1      35.247  35.557  33.683  1.00  0.00    -0.246 OA
BRANCH  21  23
ATOM     23  C   UNL A   1      34.994  33.979  31.970  1.00  0.00     0.060 A 
ATOM     24  C   UNL A   1      34.973  32.923  32.896  1.00  0.00     0.016 A 
ATOM     25  C   UNL A   1      35.901  34.040  30.919  1.00  0.00     0.016 A 
ATOM     26  C   UNL A   1      36.082  32.122  33.008  1.00  0.00     0.010 A 
ATOM     27  C   UNL A   1      37.008  33.247  31.031  1.00  0.00     0.010 A 
ATOM     28  C   UNL A   1      37.120  32.374  32.126  1.00  0.00    -0.014 A 
BRANCH  28  29
ATOM     29  C   UNL A   1      38.365  31.661  32.177  1.00  0.00     0.031 A 
ATOM     30  C   UNL A   1      38.407  30.398  31.432  1.00  0.00     0.074 A 
ATOM     31  C   UNL A   1      39.431  32.331  32.654  1.00  0.00     0.049 A 
ATOM     32  N   UNL A   1      39.389  29.579  31.467  1.00  0.00    -0.248 NA
ATOM     33  C   UNL A   1      37.292  29.930  30.604  1.00  0.00     0.031 C 
ATOM     34  C   UNL A   1      40.833  32.125  32.334  1.00  0.00     0.029 A 
ATOM     35  N   UNL A   1      39.443  33.269  33.693  1.00  0.00    -0.354 N 
ATOM     36  C   UNL A   1      39.192  28.675  30.451  1.00  0.00     0.074 A 
ATOM     37  C   UNL A   1      37.836  28.866  30.008  1.00  0.00     0.031 C 
ATOM     38  C   UNL A   1      41.588  32.696  33.289  1.00  0.00     0.029 A 
ATOM     39  C   UNL A   1      40.682  33.108  34.350  1.00  0.00     0.049 A 
ATOM     40  H   UNL A   1      38.733  33.911  33.920  1.00  0.00     0.167 HD
ATOM     41  C   UNL A   1      40.270  27.981  30.003  1.00  0.00     0.037 A 
ATOM     42  C   UNL A   1      40.729  32.611  35.624  1.00  0.00     0.037 A 
ATOM     43  C   UNL A   1      41.443  28.317  30.797  1.00  0.00     0.049 A 
ATOM     44  C   UNL A   1      41.464  31.293  35.705  1.00  0.00     0.074 A 
ATOM     45  C   UNL A   1      42.421  29.286  30.644  1.00  0.00     0.029 A 
ATOM     46  N   UNL A   1      41.477  27.922  32.125  1.00  0.00    -0.354 N 
ATOM     47  N   UNL A   1      41.529  30.431  34.726  1.00  0.00    -0.248 NA
ATOM     48  C   UNL A   1      42.243  30.877  36.867  1.00  0.00     0.031 C 
ATOM     49  C   UNL A   1      43.019  29.504  31.911  1.00  0.00     0.029 A 
ATOM     50  C   UNL A   1      42.414  28.655  32.822  1.00  0.00     0.049 A 
ATOM     51  H   UNL A   1      40.911  27.217  32.516  1.00  0.00     0.167 HD
ATOM     52  C   UNL A   1      42.362  29.398  35.081  1.00  0.00     0.074 A 
ATOM     53  C   UNL A   1      42.775  29.721  36.433  1.00  0.00     0.031 C 
ATOM     54  C   UNL A   1      42.658  28.374  34.225  1.00  0.00     0.037 A 
BRANCH  41  55
ATOM     55  C   UNL A   1      40.319  27.230  28.708  1.00  0.00     0.057 A 
ATOM     56  C   UNL A   1      39.608  26.023  28.562  1.00  0.00     0.134 A 
ATOM     57  C   UNL A   1      41.040  27.636  27.574  1.00  0.00     0.134 A 
ATOM     58  F   UNL A   1      38.863  25.519  29.555  1.00  0.00    -0.206 F 
ATOM     59  C   UNL A   1      39.638  25.260  27.392  1.00  0.00     0.040 A 
ATOM     60  C   UNL A   1      41.113  26.859  26.409  1.00  0.00     0.040 A 
ATOM     61  F   UNL A   1      41.673  28.817  27.534  1.00  0.00    -0.206 F 
ATOM     62  C   UNL A   1      40.405  25.668  26.313  1.00  0.00     0.006 A 
ENDBRANCH  41  55
BRANCH  42  63
ATOM     63  C   UNL A   1      39.535  33.003  36.428  1.00  0.00     0.057 A 
ATOM     64  C   UNL A   1      38.543  32.025  36.632  1.00  0.00     0.134 A 
ATOM     65  C   UNL A   1      39.593  34.053  37.352  1.00  0.00     0.134 A 
ATOM     66  F   UNL A   1      38.422  30.999  35.774  1.00  0.00    -0.206 F 
ATOM     67  C   UNL A   1      37.762  31.998  37.790  1.00  0.00     0.040 A 
ATOM     68  C   UNL A   1      38.810  34.039  38.514  1.00  0.00     0.040 A 
ATOM     69  F   UNL A   1      40.497  35.033  37.216  1.00  0.00    -0.206 F 
ATOM     70  C   UNL A   1      37.932  32.983  38.757  1.00  0.00     0.006 A 
ENDBRANCH  42  63
BRANCH  54  71
ATOM     71  C   UNL A   1      43.258  27.027  34.572  1.00  0.00     0.057 A 
ATOM     72  C   UNL A   1      42.517  25.915  34.990  1.00  0.00     0.134 A 
ATOM     73  C   UNL A   1      44.624  26.756  34.294  1.00  0.00     0.134 A 
ATOM     74  F   UNL A   1      41.198  25.983  35.203  1.00  0.00    -0.206 F 
ATOM     75  C   UNL A   1      43.090  24.645  35.147  1.00  0.00     0.040 A 
ATOM     76  C   UNL A   1      45.186  25.481  34.376  1.00  0.00     0.040 A 
ATOM     77  F   UNL A   1      45.476  27.711  33.893  1.00  0.00    -0.206 F 
ATOM     78  C   UNL A   1      44.421  24.418  34.818  1.00  0.00     0.006 A 
ENDBRANCH  54  71
ENDBRANCH  28  29
ENDBRANCH  21  23
ENDBRANCH  20  21
ENDBRANCH   1  20
TORSDOF 12
ENDMDL
MODEL 2
REMARK VINA RESULT:     -11.9      3.233      4.637
REMARK SMILES Cc1cc(-c2cncc(C(=O)OCCOC(=O)c3ccc(-c4c5nc(c(-c6c(F)cccc6F)c6ccc([nH]6)c(-c6c(F)cccc6F)c6nc(c(-c7c(F)cccc7F)c7ccc4[nH]7)C=C6)C=C5)cc3)c2)ccc1F
REMARK SMILES IDX 14 1 13 2 12 3 10 4 11 5 9 6 5 7 6 8 72 9 7 10 8 11 4 12
REMARK SMILES IDX 1 13 2 14 3 15 75 16 74 17 76 18 73 19 15 20 16 21 17 22
REMARK SMILES IDX 18 23 19 24 71 25 20 26 70 27 21 28 22 29 23 30 64 31 24 32
REMARK SMILES IDX 69 33 63 34 65 35 25 36 68 37 62 38 61 39 26 41 52 42 35 43
REMARK SMILES IDX 51 44 36 45 39 46 50 47 66 48 37 49 38 50 49 52 67 53 40 54
REMARK SMILES IDX 27 55 28 56 33 57 29 58 30 59 32 60 34 61 31 62 53 63 54 64
REMARK SMILES IDX 59 65 55 66 56 67 58 68 60 69 57 70 41 71 42 72 47 73 43 74
REMARK SMILES IDX 44 75 46 76 48 77 45 78
REMARK H PARENT 65 40 39 51
REMARK Flexibility Score: inf
ROOT
ATOM      1  C   UNL A   1      33.436  30.407  26.922  1.00  0.00     0.275 C 
ENDROOT
BRANCH   1   2
ATOM      2  C   UNL A   1      34.035  29.111  26.367  1.00  0.00     0.275 C 
BRANCH   2   3
ATOM      3  O   UNL A   1      33.400  28.665  25.145  1.00  0.00    -0.458 OA
BRANCH   3   4
ATOM      4  C   UNL A   1      32.799  27.446  25.168  1.00  0.00     0.339 C 
ATOM      5  O   UNL A   1      33.254  26.426  25.669  1.00  0.00    -0.246 OA
BRANCH   4   6
ATOM      6  C   UNL A   1      31.433  27.508  24.602  1.00  0.00     0.079 A 
ATOM      7  C   UNL A   1      29.570  28.660  23.566  1.00  0.00     0.001 A 
ATOM      8  C   UNL A   1      28.898  27.437  23.556  1.00  0.00     0.119 A 
ATOM      9  C   UNL A   1      30.845  28.687  24.157  1.00  0.00     0.027 A 
ATOM     10  N   UNL A   1      29.426  26.277  24.007  1.00  0.00    -0.263 NA
ATOM     11  C   UNL A   1      30.698  26.337  24.474  1.00  0.00     0.126 A 
BRANCH   7  12
ATOM     12  C   UNL A   1      29.050  29.829  22.857  1.00  0.00    -0.016 A 
ATOM     13  C   UNL A   1      29.145  33.614  23.357  1.00  0.00     0.047 C 
ATOM     14  C   UNL A   1      28.866  32.271  22.759  1.00  0.00    -0.015 A 
ATOM     15  C   UNL A   1      29.290  31.106  23.402  1.00  0.00     0.015 A 
ATOM     16  C   UNL A   1      28.192  32.149  21.547  1.00  0.00     0.126 A 
ATOM     17  C   UNL A   1      27.942  30.899  20.983  1.00  0.00     0.040 A 
ATOM     18  F   UNL A   1      27.777  33.248  20.903  1.00  0.00    -0.207 F 
ATOM     19  C   UNL A   1      28.371  29.739  21.634  1.00  0.00     0.012 A 
ENDBRANCH   7  12
ENDBRANCH   4   6
ENDBRANCH   3   4
ENDBRANCH   2   3
ENDBRANCH   1   2
BRANCH   1  20
ATOM     20  O   UNL A   1      34.450  31.208  27.529  1.00  0.00    -0.458 OA
BRANCH  20  21
ATOM     21  C   UNL A   1      33.962  32.376  27.988  1.00  0.00     0.338 C 
ATOM     22  O   UNL A   1      32.973  32.978  27.593  1.00  0.00    -0.246 OA
BRANCH  21  23
ATOM     23  C   UNL A   1      34.866  32.962  28.972  1.00  0.00     0.060 A 
ATOM     24  C   UNL A   1      35.995  33.572  28.401  1.00  0.00     0.016 A 
ATOM     25  C   UNL A   1      34.932  32.192  30.128  1.00  0.00     0.016 A 
ATOM     26  C   UNL A   1      37.241  33.116  28.754  1.00  0.00     0.010 A 
ATOM     27  C   UNL A   1      36.170  31.733  30.479  1.00  0.00     0.010 A 
ATOM     28  C   UNL A   1      37.288  32.129  29.724  1.00  0.00    -0.014 A 
BRANCH  28  29
ATOM     29  C   UNL A   1      38.517  31.511  30.138  1.00  0.00     0.031 A 
ATOM     30  C   UNL A   1      38.896  30.297  29.410  1.00  0.00     0.074 A 
ATOM     31  C   UNL A   1      39.322  32.236  30.938  1.00  0.00     0.049 A 
ATOM     32  N   UNL A   1      39.889  29.555  29.725  1.00  0.00    -0.248 NA
ATOM     33  C   UNL A   1      38.133  29.788  28.265  1.00  0.00     0.031 C 
ATOM     34  C   UNL A   1      40.767  32.155  31.061  1.00  0.00     0.029 A 
ATOM     35  N   UNL A   1      38.933  33.117  31.954  1.00  0.00    -0.354 N 
ATOM     36  C   UNL A   1      40.093  28.692  28.674  1.00  0.00     0.074 A 
ATOM     37  C   UNL A   1      38.926  28.802  27.839  1.00  0.00     0.031 C 
ATOM     38  C   UNL A   1      41.140  32.731  32.217  1.00  0.00     0.029 A 
ATOM     39  C   UNL A   1      39.921  33.016  32.957  1.00  0.00     0.049 A 
ATOM     40  H   UNL A   1      38.132  33.690  31.967  1.00  0.00     0.167 HD
ATOM     41  C   UNL A   1      41.314  28.107  28.562  1.00  0.00     0.037 A 
ATOM     42  C   UNL A   1      39.620  32.458  34.170  1.00  0.00     0.037 A 
ATOM     43  C   UNL A   1      42.154  28.490  29.688  1.00  0.00     0.049 A 
ATOM     44  C   UNL A   1      40.410  31.198  34.440  1.00  0.00     0.074 A 
ATOM     45  C   UNL A   1      43.041  29.539  29.870  1.00  0.00     0.029 A 
ATOM     46  N   UNL A   1      41.815  28.030  30.951  1.00  0.00    -0.354 N 
ATOM     47  N   UNL A   1      40.847  30.396  33.506  1.00  0.00    -0.248 NA
ATOM     48  C   UNL A   1      40.831  30.783  35.774  1.00  0.00     0.031 C 
ATOM     49  C   UNL A   1      43.202  29.734  31.265  1.00  0.00     0.029 A 
ATOM     50  C   UNL A   1      42.425  28.795  31.922  1.00  0.00     0.049 A 
ATOM     51  H   UNL A   1      41.222  27.264  31.129  1.00  0.00     0.167 HD
ATOM     52  C   UNL A   1      41.620  29.413  34.073  1.00  0.00     0.074 A 
ATOM     53  C   UNL A   1      41.570  29.696  35.495  1.00  0.00     0.031 C 
ATOM     54  C   UNL A   1      42.254  28.461  33.324  1.00  0.00     0.037 A 
BRANCH  41  55
ATOM     55  C   UNL A   1      41.822  27.431  27.327  1.00  0.00     0.057 A 
ATOM     56  C   UNL A   1      41.946  26.029  27.286  1.00  0.00     0.134 A 
ATOM     57  C   UNL A   1      42.204  28.096  26.151  1.00  0.00     0.134 A 
ATOM     58  F   UNL A   1      41.606  25.261  28.330  1.00  0.00    -0.206 F 
ATOM     59  C   UNL A   1      42.442  25.342  26.176  1.00  0.00     0.040 A 
ATOM     60  C   UNL A   1      42.743  27.422  25.045  1.00  0.00     0.040 A 
ATOM     61  F   UNL A   1      42.036  29.418  26.008  1.00  0.00    -0.206 F 
ATOM     62  C   UNL A   1      42.860  26.038  25.054  1.00  0.00     0.006 A 
ENDBRANCH  41  55
BRANCH  42  63
ATOM     63  C   UNL A   1      38.208  32.715  34.577  1.00  0.00     0.057 A 
ATOM     64  C   UNL A   1      37.910  33.982  35.113  1.00  0.00     0.134 A 
ATOM     65  C   UNL A   1      37.147  31.996  34.014  1.00  0.00     0.134 A 
ATOM     66  F   UNL A   1      38.879  34.717  35.682  1.00  0.00    -0.206 F 
ATOM     67  C   UNL A   1      36.657  34.578  34.945  1.00  0.00     0.040 A 
ATOM     68  C   UNL A   1      35.885  32.581  33.845  1.00  0.00     0.040 A 
ATOM     69  F   UNL A   1      37.346  30.775  33.500  1.00  0.00    -0.206 F 
ATOM     70  C   UNL A   1      35.656  33.892  34.264  1.00  0.00     0.006 A 
ENDBRANCH  42  63
BRANCH  54  71
ATOM     71  C   UNL A   1      42.837  27.147  33.804  1.00  0.00     0.057 A 
ATOM     72  C   UNL A   1      44.191  26.802  33.711  1.00  0.00     0.134 A 
ATOM     73  C   UNL A   1      42.050  26.251  34.573  1.00  0.00     0.134 A 
ATOM     74  F   UNL A   1      45.082  27.590  33.099  1.00  0.00    -0.206 F 
ATOM     75  C   UNL A   1      44.715  25.647  34.309  1.00  0.00     0.040 A 
ATOM     76  C   UNL A   1      42.577  25.139  35.234  1.00  0.00     0.040 A 
ATOM     77  F   UNL A   1      40.733  26.429  34.754  1.00  0.00    -0.206 F 
ATOM     78  C   UNL A   1      43.914  24.825  35.092  1.00  0.00     0.006 A 
ENDBRANCH  54  71
ENDBRANCH  28  29
ENDBRANCH  21  23
ENDBRANCH  20  21
ENDBRANCH   1  20
TORSDOF 12
ENDMDL
MODEL 3
REMARK VINA RESULT:     -11.7      2.811      4.884
REMARK SMILES Cc1cc(-c2cncc(C(=O)OCCOC(=O)c3ccc(-c4c5nc(c(-c6c(F)cccc6F)c6ccc([nH]6)c(-c6c(F)cccc6F)c6nc(c(-c7c(F)cccc7F)c7ccc4[nH]7)C=C6)C=C5)cc3)c2)ccc1F
REMARK SMILES IDX 14 1 13 2 12 3 10 4 11 5 9 6 5 7 6 8 72 9 7 10 8 11 4 12
REMARK SMILES IDX 1 13 2 14 3 15 75 16 74 17 76 18 73 19 15 20 16 21 17 22
REMARK SMILES IDX 18 23 19 24 71 25 20 26 70 27 21 28 22 29 23 30 64 31 24 32
REMARK SMILES IDX 69 33 63 34 65 35 25 36 68 37 62 38 61 39 26 41 52 42 35 43
REMARK SMILES IDX 51 44 36 45 39 46 50 47 66 48 37 49 38 50 49 52 67 53 40 54
REMARK SMILES IDX 27 55 28 56 33 57 29 58 30 59 32 60 34 61 31 62 53 63 54 64
REMARK SMILES IDX 59 65 55 66 56 67 58 68 60 69 57 70 41 71 42 72 47 73 43 74
REMARK SMILES IDX 44 75 46 76 48 77 45 78
REMARK H PARENT 65 40 39 51
REMARK Flexibility Score: inf
ROOT
ATOM      1  C   UNL A   1      33.643  31.747  27.911  1.00  0.00     0.275 C 
ENDROOT
BRANCH   1   2
ATOM      2  C   UNL A   1      32.856  30.825  26.975  1.00  0.00     0.275 C 
BRANCH   2   3
ATOM      3  O   UNL A   1      33.543  29.585  26.684  1.00  0.00    -0.458 OA
BRANCH   3   4
ATOM      4  C   UNL A   1      33.179  28.924  25.553  1.00  0.00     0.339 C 
ATOM      5  O   UNL A   1      33.269  29.349  24.409  1.00  0.00    -0.246 OA
BRANCH   4   6
ATOM      6  C   UNL A   1      32.748  27.540  25.852  1.00  0.00     0.079 A 
ATOM      7  C   UNL A   1      33.072  25.140  25.914  1.00  0.00     0.001 A 
ATOM      8  C   UNL A   1      31.809  25.046  26.501  1.00  0.00     0.119 A 
ATOM      9  C   UNL A   1      33.511  26.420  25.538  1.00  0.00     0.027 A 
ATOM     10  N   UNL A   1      31.027  26.109  26.793  1.00  0.00    -0.263 NA
ATOM     11  C   UNL A   1      31.541  27.331  26.503  1.00  0.00     0.126 A 
BRANCH   7  12
ATOM     12  C   UNL A   1      33.971  23.988  25.835  1.00  0.00    -0.016 A 
ATOM     13  C   UNL A   1      37.746  23.457  25.614  1.00  0.00     0.047 C 
ATOM     14  C   UNL A   1      36.279  23.176  25.706  1.00  0.00    -0.015 A 
ATOM     15  C   UNL A   1      35.356  24.224  25.738  1.00  0.00     0.015 A 
ATOM     16  C   UNL A   1      35.799  21.871  25.773  1.00  0.00     0.126 A 
ATOM     17  C   UNL A   1      34.435  21.607  25.870  1.00  0.00     0.040 A 
ATOM     18  F   UNL A   1      36.660  20.844  25.750  1.00  0.00    -0.207 F 
ATOM     19  C   UNL A   1      33.519  22.663  25.904  1.00  0.00     0.012 A 
ENDBRANCH   7  12
ENDBRANCH   4   6
ENDBRANCH   3   4
ENDBRANCH   2   3
ENDBRANCH   1   2
BRANCH   1  20
ATOM     20  O   UNL A   1      34.976  31.928  27.434  1.00  0.00    -0.458 OA
BRANCH  20  21
ATOM     21  C   UNL A   1      35.892  31.612  28.368  1.00  0.00     0.338 C 
ATOM     22  O   UNL A   1      36.437  32.362  29.165  1.00  0.00    -0.246 OA
BRANCH  21  23
ATOM     23  C   UNL A   1      36.303  30.217  28.234  1.00  0.00     0.060 A 
ATOM     24  C   UNL A   1      36.300  29.515  29.451  1.00  0.00     0.016 A 
ATOM     25  C   UNL A   1      37.306  30.068  27.283  1.00  0.00     0.016 A 
ATOM     26  C   UNL A   1      37.473  28.953  29.891  1.00  0.00     0.010 A 
ATOM     27  C   UNL A   1      38.475  29.513  27.719  1.00  0.00     0.010 A 
ATOM     28  C   UNL A   1      38.565  29.054  29.045  1.00  0.00    -0.014 A 
BRANCH  28  29
ATOM     29  C   UNL A   1      39.868  28.574  29.407  1.00  0.00     0.031 A 
ATOM     30  C   UNL A   1      40.217  27.240  28.909  1.00  0.00     0.074 A 
ATOM     31  C   UNL A   1      40.729  29.476  29.917  1.00  0.00     0.049 A 
ATOM     32  N   UNL A   1      41.281  26.610  29.235  1.00  0.00    -0.248 NA
ATOM     33  C   UNL A   1      39.342  26.475  28.015  1.00  0.00     0.031 C 
ATOM     34  C   UNL A   1      42.181  29.460  29.854  1.00  0.00     0.029 A 
ATOM     35  N   UNL A   1      40.427  30.546  30.766  1.00  0.00    -0.354 N 
ATOM     36  C   UNL A   1      41.396  25.545  28.373  1.00  0.00     0.074 A 
ATOM     37  C   UNL A   1      40.126  25.440  27.703  1.00  0.00     0.031 C 
ATOM     38  C   UNL A   1      42.667  30.284  30.798  1.00  0.00     0.029 A 
ATOM     39  C   UNL A   1      41.539  30.693  31.622  1.00  0.00     0.049 A 
ATOM     40  H   UNL A   1      39.604  31.088  30.768  1.00  0.00     0.167 HD
ATOM     41  C   UNL A   1      42.622  24.981  28.221  1.00  0.00     0.037 A 
ATOM     42  C   UNL A   1      41.429  30.405  32.955  1.00  0.00     0.037 A 
ATOM     43  C   UNL A   1      43.577  25.622  29.113  1.00  0.00     0.049 A 
ATOM     44  C   UNL A   1      42.315  29.254  33.375  1.00  0.00     0.074 A 
ATOM     45  C   UNL A   1      44.422  26.707  28.944  1.00  0.00     0.029 A 
ATOM     46  N   UNL A   1      43.430  25.439  30.479  1.00  0.00    -0.354 N 
ATOM     47  N   UNL A   1      42.672  28.280  32.582  1.00  0.00    -0.248 NA
ATOM     48  C   UNL A   1      42.926  29.151  34.696  1.00  0.00     0.031 C 
ATOM     49  C   UNL A   1      44.750  27.206  30.230  1.00  0.00     0.029 A 
ATOM     50  C   UNL A   1      44.118  26.413  31.172  1.00  0.00     0.049 A 
ATOM     51  H   UNL A   1      42.908  24.716  30.896  1.00  0.00     0.167 HD
ATOM     52  C   UNL A   1      43.564  27.463  33.233  1.00  0.00     0.074 A 
ATOM     53  C   UNL A   1      43.682  28.048  34.555  1.00  0.00     0.031 C 
ATOM     54  C   UNL A   1      44.147  26.388  32.623  1.00  0.00     0.037 A 
BRANCH  41  55
ATOM     55  C   UNL A   1      43.003  24.065  27.100  1.00  0.00     0.057 A 
ATOM     56  C   UNL A   1      43.449  24.594  25.873  1.00  0.00     0.134 A 
ATOM     57  C   UNL A   1      42.954  22.663  27.160  1.00  0.00     0.134 A 
ATOM     58  F   UNL A   1      43.561  25.914  25.674  1.00  0.00    -0.206 F 
ATOM     59  C   UNL A   1      43.789  23.794  24.780  1.00  0.00     0.040 A 
ATOM     60  C   UNL A   1      43.252  21.851  26.057  1.00  0.00     0.040 A 
ATOM     61  F   UNL A   1      42.653  22.022  28.298  1.00  0.00    -0.206 F 
ATOM     62  C   UNL A   1      43.676  22.416  24.861  1.00  0.00     0.006 A 
ENDBRANCH  41  55
BRANCH  42  63
ATOM     63  C   UNL A   1      40.069  30.708  33.488  1.00  0.00     0.057 A 
ATOM     64  C   UNL A   1      39.769  32.055  33.767  1.00  0.00     0.134 A 
ATOM     65  C   UNL A   1      38.988  29.850  33.254  1.00  0.00     0.134 A 
ATOM     66  F   UNL A   1      40.759  32.927  34.016  1.00  0.00    -0.206 F 
ATOM     67  C   UNL A   1      38.472  32.561  33.647  1.00  0.00     0.040 A 
ATOM     68  C   UNL A   1      37.682  30.346  33.138  1.00  0.00     0.040 A 
ATOM     69  F   UNL A   1      39.190  28.549  33.001  1.00  0.00    -0.206 F 
ATOM     70  C   UNL A   1      37.433  31.711  33.284  1.00  0.00     0.006 A 
ENDBRANCH  42  63
BRANCH  54  71
ATOM     71  C   UNL A   1      44.858  25.226  33.286  1.00  0.00     0.057 A 
ATOM     72  C   UNL A   1      46.245  25.033  33.268  1.00  0.00     0.134 A 
ATOM     73  C   UNL A   1      44.151  24.351  34.153  1.00  0.00     0.134 A 
ATOM     74  F   UNL A   1      47.062  25.833  32.574  1.00  0.00    -0.206 F 
ATOM     75  C   UNL A   1      46.875  24.035  34.025  1.00  0.00     0.040 A 
ATOM     76  C   UNL A   1      44.777  23.405  34.966  1.00  0.00     0.040 A 
ATOM     77  F   UNL A   1      42.817  24.395  34.282  1.00  0.00    -0.206 F 
ATOM     78  C   UNL A   1      46.146  23.234  34.895  1.00  0.00     0.006 A 
ENDBRANCH  54  71
ENDBRANCH  28  29
ENDBRANCH  21  23
ENDBRANCH  20  21
ENDBRANCH   1  20
TORSDOF 12
ENDMDL
