MODEL 1
REMARK VINA RESULT:     -11.8      0.000      0.000
REMARK SMILES Cc1cc(C(=O)N2[C@@H](C(=O)OCCOC(=O)c3ccc(-c4c5nc(c(-c6c(F)cccc6F)c6ccc([nH]6)c(-c6c(F)cccc6F)c6nc(c(-c7c(F)cccc7F)c7ccc4[nH]7)C=C6)C=C5)cc3)C[C@H]3CCCC[C@H]32)c(C)s1
REMARK SMILES IDX 12 1 11 2 9 3 10 4 8 5 7 6 77 7 71 8 72 9 76 10 73 11 75 12
REMARK SMILES IDX 74 13 5 14 6 15 4 16 1 17 2 18 3 19 80 20 78 21 79 22 13 23
REMARK SMILES IDX 14 24 15 25 16 26 17 27 18 28 70 29 19 30 69 31 20 32 21 33
REMARK SMILES IDX 22 34 63 35 23 36 68 37 62 38 64 39 24 40 67 41 61 42 60 43
REMARK SMILES IDX 25 45 51 46 34 47 50 48 35 49 38 50 49 51 65 52 36 53 37 54
REMARK SMILES IDX 48 56 66 57 39 58 26 59 27 60 32 61 28 62 29 63 31 64 33 65
REMARK SMILES IDX 30 66 52 67 53 68 58 69 54 70 55 71 57 72 59 73 56 74 40 75
REMARK SMILES IDX 41 76 46 77 42 78 43 79 45 80 47 81 44 82
REMARK H PARENT 64 44 38 55
REMARK Flexibility Score: inf
ROOT
ATOM      1  C   UNL A   1      36.020  22.999  23.739  1.00  0.00     0.274 C 
ENDROOT
BRANCH   1   2
ATOM      2  O   UNL A   1      35.460  23.770  24.822  1.00  0.00    -0.461 OA
BRANCH   2   3
ATOM      3  C   UNL A   1      34.492  24.665  24.481  1.00  0.00     0.329 C 
ATOM      4  O   UNL A   1      34.105  24.864  23.334  1.00  0.00    -0.250 OA
BRANCH   3   5
ATOM      5  C   UNL A   1      33.797  25.294  25.698  1.00  0.00     0.196 C 
ATOM      6  N   UNL A   1      32.403  24.874  25.912  1.00  0.00    -0.322 N 
ATOM      7  C   UNL A   1      31.486  26.007  25.822  1.00  0.00     0.089 C 
ATOM      8  C   UNL A   1      33.709  26.824  25.573  1.00  0.00     0.043 C 
ATOM      9  C   UNL A   1      32.386  27.164  26.265  1.00  0.00     0.014 C 
ATOM     10  C   UNL A   1      30.912  26.201  24.412  1.00  0.00     0.025 C 
ATOM     11  C   UNL A   1      31.845  28.555  25.967  1.00  0.00     0.006 C 
ATOM     12  C   UNL A   1      30.282  27.583  24.245  1.00  0.00     0.002 C 
ATOM     13  C   UNL A   1      31.278  28.696  24.560  1.00  0.00     0.000 C 
BRANCH   6  14
ATOM     14  C   UNL A   1      31.978  23.650  26.409  1.00  0.00     0.255 C 
ATOM     15  O   UNL A   1      31.352  23.559  27.461  1.00  0.00    -0.269 OA
BRANCH  14  16
ATOM     16  C   UNL A   1      32.371  22.454  25.652  1.00  0.00     0.053 A 
ATOM     17  C   UNL A   1      32.153  20.294  22.531  1.00  0.00     0.056 C 
ATOM     18  C   UNL A   1      32.438  20.951  23.838  1.00  0.00     0.003 A 
ATOM     19  C   UNL A   1      31.986  22.169  24.292  1.00  0.00     0.029 A 
ATOM     20  S   UNL A   1      33.465  20.214  24.980  1.00  0.00    -0.145 S 
ATOM     21  C   UNL A   1      33.264  21.495  26.105  1.00  0.00     0.014 A 
ATOM     22  C   UNL A   1      34.031  21.456  27.386  1.00  0.00     0.057 C 
ENDBRANCH  14  16
ENDBRANCH   6  14
ENDBRANCH   3   5
ENDBRANCH   2   3
ENDBRANCH   1   2
BRANCH   1  23
ATOM     23  C   UNL A   1      36.690  21.722  24.252  1.00  0.00     0.275 C 
BRANCH  23  24
ATOM     24  O   UNL A   1      37.095  21.897  25.622  1.00  0.00    -0.458 OA
BRANCH  24  25
ATOM     25  C   UNL A   1      38.376  21.579  25.912  1.00  0.00     0.338 C 
ATOM     26  O   UNL A   1      38.941  20.516  25.725  1.00  0.00    -0.246 OA
BRANCH  25  27
ATOM     27  C   UNL A   1      39.055  22.754  26.485  1.00  0.00     0.060 A 
ATOM     28  C   UNL A   1      38.624  24.035  26.142  1.00  0.00     0.016 A 
ATOM     29  C   UNL A   1      40.201  22.587  27.261  1.00  0.00     0.016 A 
ATOM     30  C   UNL A   1      39.373  25.150  26.501  1.00  0.00     0.010 A 
ATOM     31  C   UNL A   1      40.906  23.713  27.695  1.00  0.00     0.010 A 
ATOM     32  C   UNL A   1      40.516  25.002  27.292  1.00  0.00    -0.014 A 
BRANCH  32  33
ATOM     33  C   UNL A   1      41.318  26.195  27.663  1.00  0.00     0.031 A 
ATOM     34  C   UNL A   1      40.704  27.277  28.504  1.00  0.00     0.074 A 
ATOM     35  C   UNL A   1      42.598  26.300  27.260  1.00  0.00     0.049 A 
ATOM     36  N   UNL A   1      41.177  28.461  28.803  1.00  0.00    -0.248 NA
ATOM     37  C   UNL A   1      39.381  26.995  29.083  1.00  0.00     0.031 C 
ATOM     38  C   UNL A   1      43.328  25.297  26.484  1.00  0.00     0.029 A 
ATOM     39  N   UNL A   1      43.513  27.305  27.448  1.00  0.00    -0.354 N 
ATOM     40  C   UNL A   1      40.191  29.082  29.557  1.00  0.00     0.074 A 
ATOM     41  C   UNL A   1      39.094  28.145  29.676  1.00  0.00     0.031 C 
ATOM     42  C   UNL A   1      44.581  25.729  26.274  1.00  0.00     0.029 A 
ATOM     43  C   UNL A   1      44.720  27.068  26.838  1.00  0.00     0.049 A 
ATOM     44  H   UNL A   1      43.322  28.119  27.969  1.00  0.00     0.167 HD
ATOM     45  C   UNL A   1      40.200  30.325  30.095  1.00  0.00     0.037 A 
ATOM     46  C   UNL A   1      45.803  27.855  26.708  1.00  0.00     0.037 A 
ATOM     47  C   UNL A   1      41.310  31.237  30.013  1.00  0.00     0.049 A 
ATOM     48  C   UNL A   1      45.779  29.239  27.290  1.00  0.00     0.074 A 
ATOM     49  C   UNL A   1      41.422  32.510  30.542  1.00  0.00     0.029 A 
ATOM     50  N   UNL A   1      42.505  30.964  29.367  1.00  0.00    -0.354 N 
ATOM     51  N   UNL A   1      44.823  29.833  27.961  1.00  0.00    -0.248 NA
ATOM     52  C   UNL A   1      46.974  30.066  27.078  1.00  0.00     0.031 C 
ATOM     53  C   UNL A   1      42.678  33.019  30.193  1.00  0.00     0.029 A 
ATOM     54  C   UNL A   1      43.358  32.050  29.473  1.00  0.00     0.049 A 
ATOM     55  H   UNL A   1      42.718  30.122  28.902  1.00  0.00     0.167 HD
ATOM     56  C   UNL A   1      45.301  31.101  28.257  1.00  0.00     0.074 A 
ATOM     57  C   UNL A   1      46.640  31.184  27.709  1.00  0.00     0.031 C 
ATOM     58  C   UNL A   1      44.685  32.111  28.919  1.00  0.00     0.037 A 
BRANCH  45  59
ATOM     59  C   UNL A   1      38.953  30.783  30.790  1.00  0.00     0.057 A 
ATOM     60  C   UNL A   1      37.930  31.458  30.115  1.00  0.00     0.134 A 
ATOM     61  C   UNL A   1      38.767  30.520  32.153  1.00  0.00     0.134 A 
ATOM     62  F   UNL A   1      38.055  31.755  28.812  1.00  0.00    -0.206 F 
ATOM     63  C   UNL A   1      36.772  31.873  30.776  1.00  0.00     0.040 A 
ATOM     64  C   UNL A   1      37.606  30.912  32.821  1.00  0.00     0.040 A 
ATOM     65  F   UNL A   1      39.710  29.876  32.857  1.00  0.00    -0.206 F 
ATOM     66  C   UNL A   1      36.606  31.595  32.132  1.00  0.00     0.006 A 
ENDBRANCH  45  59
BRANCH  46  67
ATOM     67  C   UNL A   1      46.983  27.364  25.957  1.00  0.00     0.057 A 
ATOM     68  C   UNL A   1      48.019  26.680  26.602  1.00  0.00     0.134 A 
ATOM     69  C   UNL A   1      47.094  27.554  24.574  1.00  0.00     0.134 A 
ATOM     70  F   UNL A   1      47.977  26.487  27.928  1.00  0.00    -0.206 F 
ATOM     71  C   UNL A   1      49.127  26.205  25.898  1.00  0.00     0.040 A 
ATOM     72  C   UNL A   1      48.185  27.066  23.855  1.00  0.00     0.040 A 
ATOM     73  F   UNL A   1      46.132  28.200  23.900  1.00  0.00    -0.206 F 
ATOM     74  C   UNL A   1      49.208  26.392  24.519  1.00  0.00     0.006 A 
ENDBRANCH  46  67
BRANCH  58  75
ATOM     75  C   UNL A   1      45.461  33.378  29.097  1.00  0.00     0.057 A 
ATOM     76  C   UNL A   1      45.354  34.437  28.187  1.00  0.00     0.134 A 
ATOM     77  C   UNL A   1      46.302  33.552  30.203  1.00  0.00     0.134 A 
ATOM     78  F   UNL A   1      44.576  34.323  27.100  1.00  0.00    -0.206 F 
ATOM     79  C   UNL A   1      46.068  35.623  28.365  1.00  0.00     0.040 A 
ATOM     80  C   UNL A   1      47.008  34.739  30.400  1.00  0.00     0.040 A 
ATOM     81  F   UNL A   1      46.443  32.575  31.111  1.00  0.00    -0.206 F 
ATOM     82  C   UNL A   1      46.894  35.778  29.477  1.00  0.00     0.006 A 
ENDBRANCH  58  75
ENDBRANCH  32  33
ENDBRANCH  25  27
ENDBRANCH  24  25
ENDBRANCH  23  24
ENDBRANCH   1  23
TORSDOF 13
ENDMDL
MODEL 2
REMARK VINA RESULT:     -11.7      4.004      8.735
REMARK SMILES Cc1cc(C(=O)N2[C@@H](C(=O)OCCOC(=O)c3ccc(-c4c5nc(c(-c6c(F)cccc6F)c6ccc([nH]6)c(-c6c(F)cccc6F)c6nc(c(-c7c(F)cccc7F)c7ccc4[nH]7)C=C6)C=C5)cc3)C[C@H]3CCCC[C@H]32)c(C)s1
REMARK SMILES IDX 12 1 11 2 9 3 10 4 8 5 7 6 77 7 71 8 72 9 76 10 73 11 75 12
REMARK SMILES IDX 74 13 5 14 6 15 4 16 1 17 2 18 3 19 80 20 78 21 79 22 13 23
REMARK SMILES IDX 14 24 15 25 16 26 17 27 18 28 70 29 19 30 69 31 20 32 21 33
REMARK SMILES IDX 22 34 63 35 23 36 68 37 62 38 64 39 24 40 67 41 61 42 60 43
REMARK SMILES IDX 25 45 51 46 34 47 50 48 35 49 38 50 49 51 65 52 36 53 37 54
REMARK SMILES IDX 48 56 66 57 39 58 26 59 27 60 32 61 28 62 29 63 31 64 33 65
REMARK SMILES IDX 30 66 52 67 53 68 58 69 54 70 55 71 57 72 59 73 56 74 40 75
REMARK SMILES IDX 41 76 46 77 42 78 43 79 45 80 47 81 44 82
REMARK H PARENT 64 44 38 55
REMARK Flexibility Score: inf
ROOT
ATOM      1  C   UNL A   1      31.870  28.016  26.745  1.00  0.00     0.274 C 
ENDROOT
BRANCH   1   2
ATOM      2  O   UNL A   1      32.975  27.448  26.012  1.00  0.00    -0.461 OA
BRANCH   2   3
ATOM      3  C   UNL A   1      32.944  26.099  25.831  1.00  0.00     0.329 C 
ATOM      4  O   UNL A   1      32.060  25.363  26.257  1.00  0.00    -0.250 OA
BRANCH   3   5
ATOM      5  C   UNL A   1      34.044  25.592  24.887  1.00  0.00     0.196 C 
ATOM      6  N   UNL A   1      33.574  25.081  23.591  1.00  0.00    -0.322 N 
ATOM      7  C   UNL A   1      33.905  23.669  23.421  1.00  0.00     0.089 C 
ATOM      8  C   UNL A   1      34.812  24.406  25.497  1.00  0.00     0.043 C 
ATOM      9  C   UNL A   1      35.167  23.548  24.279  1.00  0.00     0.014 C 
ATOM     10  C   UNL A   1      32.779  22.732  23.878  1.00  0.00     0.025 C 
ATOM     11  C   UNL A   1      35.595  22.122  24.604  1.00  0.00     0.006 C 
ATOM     12  C   UNL A   1      33.276  21.299  24.059  1.00  0.00     0.002 C 
ATOM     13  C   UNL A   1      34.441  21.229  25.042  1.00  0.00     0.000 C 
BRANCH   6  14
ATOM     14  C   UNL A   1      33.124  25.841  22.519  1.00  0.00     0.255 C 
ATOM     15  O   UNL A   1      33.653  25.780  21.413  1.00  0.00    -0.269 OA
BRANCH  14  16
ATOM     16  C   UNL A   1      32.025  26.778  22.785  1.00  0.00     0.053 A 
ATOM     17  C   UNL A   1      28.352  27.453  23.501  1.00  0.00     0.056 C 
ATOM     18  C   UNL A   1      29.823  27.472  23.259  1.00  0.00     0.003 A 
ATOM     19  C   UNL A   1      30.674  26.400  23.117  1.00  0.00     0.029 A 
ATOM     20  S   UNL A   1      30.672  28.946  23.158  1.00  0.00    -0.145 S 
ATOM     21  C   UNL A   1      32.168  28.154  22.871  1.00  0.00     0.014 A 
ATOM     22  C   UNL A   1      33.407  28.980  22.754  1.00  0.00     0.057 C 
ENDBRANCH  14  16
ENDBRANCH   6  14
ENDBRANCH   3   5
ENDBRANCH   2   3
ENDBRANCH   1   2
BRANCH   1  23
ATOM     23  C   UNL A   1      31.778  29.529  26.532  1.00  0.00     0.275 C 
BRANCH  23  24
ATOM     24  O   UNL A   1      33.087  30.068  26.273  1.00  0.00    -0.458 OA
BRANCH  24  25
ATOM     25  C   UNL A   1      33.455  31.131  27.023  1.00  0.00     0.338 C 
ATOM     26  O   UNL A   1      32.833  32.162  27.211  1.00  0.00    -0.246 OA
BRANCH  25  27
ATOM     27  C   UNL A   1      34.760  30.861  27.648  1.00  0.00     0.060 A 
ATOM     28  C   UNL A   1      35.099  29.555  28.001  1.00  0.00     0.016 A 
ATOM     29  C   UNL A   1      35.596  31.919  28.001  1.00  0.00     0.016 A 
ATOM     30  C   UNL A   1      36.227  29.304  28.775  1.00  0.00     0.010 A 
ATOM     31  C   UNL A   1      36.776  31.657  28.705  1.00  0.00     0.010 A 
ATOM     32  C   UNL A   1      37.084  30.351  29.125  1.00  0.00    -0.014 A 
BRANCH  32  33
ATOM     33  C   UNL A   1      38.281  30.080  29.960  1.00  0.00     0.031 A 
ATOM     34  C   UNL A   1      39.391  29.222  29.422  1.00  0.00     0.074 A 
ATOM     35  C   UNL A   1      38.379  30.612  31.193  1.00  0.00     0.049 A 
ATOM     36  N   UNL A   1      40.437  28.739  30.042  1.00  0.00    -0.248 NA
ATOM     37  C   UNL A   1      39.311  28.855  28.000  1.00  0.00     0.031 C 
ATOM     38  C   UNL A   1      37.397  31.503  31.813  1.00  0.00     0.029 A 
ATOM     39  N   UNL A   1      39.357  30.480  32.146  1.00  0.00    -0.354 N 
ATOM     40  C   UNL A   1      41.110  27.970  29.103  1.00  0.00     0.074 A 
ATOM     41  C   UNL A   1      40.359  28.053  27.868  1.00  0.00     0.031 C 
ATOM     42  C   UNL A   1      37.827  31.848  33.036  1.00  0.00     0.029 A 
ATOM     43  C   UNL A   1      39.077  31.148  33.313  1.00  0.00     0.049 A 
ATOM     44  H   UNL A   1      40.179  29.956  32.009  1.00  0.00     0.167 HD
ATOM     45  C   UNL A   1      42.250  27.255  29.260  1.00  0.00     0.037 A 
ATOM     46  C   UNL A   1      39.729  31.164  34.489  1.00  0.00     0.037 A 
ATOM     47  C   UNL A   1      43.018  27.211  30.476  1.00  0.00     0.049 A 
ATOM     48  C   UNL A   1      40.975  30.341  34.648  1.00  0.00     0.074 A 
ATOM     49  C   UNL A   1      44.197  26.531  30.728  1.00  0.00     0.029 A 
ATOM     50  N   UNL A   1      42.688  27.886  31.640  1.00  0.00    -0.354 N 
ATOM     51  N   UNL A   1      41.578  29.580  33.767  1.00  0.00    -0.248 NA
ATOM     52  C   UNL A   1      41.619  30.363  35.969  1.00  0.00     0.031 C 
ATOM     53  C   UNL A   1      44.565  26.774  32.056  1.00  0.00     0.029 A 
ATOM     54  C   UNL A   1      43.633  27.630  32.619  1.00  0.00     0.049 A 
ATOM     55  H   UNL A   1      41.898  28.463  31.755  1.00  0.00     0.167 HD
ATOM     56  C   UNL A   1      42.673  29.038  34.423  1.00  0.00     0.074 A 
ATOM     57  C   UNL A   1      42.663  29.571  35.770  1.00  0.00     0.031 C 
ATOM     58  C   UNL A   1      43.603  28.170  33.953  1.00  0.00     0.037 A 
BRANCH  45  59
ATOM     59  C   UNL A   1      42.712  26.432  28.096  1.00  0.00     0.057 A 
ATOM     60  C   UNL A   1      42.261  25.124  27.882  1.00  0.00     0.134 A 
ATOM     61  C   UNL A   1      43.606  26.970  27.161  1.00  0.00     0.134 A 
ATOM     62  F   UNL A   1      41.417  24.546  28.751  1.00  0.00    -0.206 F 
ATOM     63  C   UNL A   1      42.698  24.373  26.789  1.00  0.00     0.040 A 
ATOM     64  C   UNL A   1      44.035  26.237  26.054  1.00  0.00     0.040 A 
ATOM     65  F   UNL A   1      44.075  28.218  27.308  1.00  0.00    -0.206 F 
ATOM     66  C   UNL A   1      43.583  24.932  25.868  1.00  0.00     0.006 A 
ENDBRANCH  45  59
BRANCH  46  67
ATOM     67  C   UNL A   1      39.187  31.952  35.621  1.00  0.00     0.057 A 
ATOM     68  C   UNL A   1      38.284  31.389  36.529  1.00  0.00     0.134 A 
ATOM     69  C   UNL A   1      39.571  33.283  35.830  1.00  0.00     0.134 A 
ATOM     70  F   UNL A   1      37.864  30.126  36.367  1.00  0.00    -0.206 F 
ATOM     71  C   UNL A   1      37.778  32.122  37.603  1.00  0.00     0.040 A 
ATOM     72  C   UNL A   1      39.091  34.021  36.912  1.00  0.00     0.040 A 
ATOM     73  F   UNL A   1      40.436  33.877  34.995  1.00  0.00    -0.206 F 
ATOM     74  C   UNL A   1      38.188  33.441  37.801  1.00  0.00     0.006 A 
ENDBRANCH  46  67
BRANCH  58  75
ATOM     75  C   UNL A   1      44.688  27.761  34.900  1.00  0.00     0.057 A 
ATOM     76  C   UNL A   1      45.868  28.504  35.026  1.00  0.00     0.134 A 
ATOM     77  C   UNL A   1      44.540  26.629  35.711  1.00  0.00     0.134 A 
ATOM     78  F   UNL A   1      46.073  29.589  34.264  1.00  0.00    -0.206 F 
ATOM     79  C   UNL A   1      46.871  28.127  35.920  1.00  0.00     0.040 A 
ATOM     80  C   UNL A   1      45.528  26.253  36.620  1.00  0.00     0.040 A 
ATOM     81  F   UNL A   1      43.431  25.879  35.637  1.00  0.00    -0.206 F 
ATOM     82  C   UNL A   1      46.700  27.001  36.724  1.00  0.00     0.006 A 
ENDBRANCH  58  75
ENDBRANCH  32  33
ENDBRANCH  25  27
ENDBRANCH  24  25
ENDBRANCH  23  24
ENDBRANCH   1  23
TORSDOF 13
ENDMDL
MODEL 3
REMARK VINA RESULT:     -11.5      2.744      6.524
REMARK SMILES Cc1cc(C(=O)N2[C@@H](C(=O)OCCOC(=O)c3ccc(-c4c5nc(c(-c6c(F)cccc6F)c6ccc([nH]6)c(-c6c(F)cccc6F)c6nc(c(-c7c(F)cccc7F)c7ccc4[nH]7)C=C6)C=C5)cc3)C[C@H]3CCCC[C@H]32)c(C)s1
REMARK SMILES IDX 12 1 11 2 9 3 10 4 8 5 7 6 77 7 71 8 72 9 76 10 73 11 75 12
REMARK SMILES IDX 74 13 5 14 6 15 4 16 1 17 2 18 3 19 80 20 78 21 79 22 13 23
REMARK SMILES IDX 14 24 15 25 16 26 17 27 18 28 70 29 19 30 69 31 20 32 21 33
REMARK SMILES IDX 22 34 63 35 23 36 68 37 62 38 64 39 24 40 67 41 61 42 60 43
REMARK SMILES IDX 25 45 51 46 34 47 50 48 35 49 38 50 49 51 65 52 36 53 37 54
REMARK SMILES IDX 48 56 66 57 39 58 26 59 27 60 32 61 28 62 29 63 31 64 33 65
REMARK SMILES IDX 30 66 52 67 53 68 58 69 54 70 55 71 57 72 59 73 56 74 40 75
REMARK SMILES IDX 41 76 46 77 42 78 43 79 45 80 47 81 44 82
REMARK H PARENT 64 44 38 55
REMARK Flexibility Score: inf
ROOT
ATOM      1  C   UNL A   1      32.394  27.792  26.617  1.00  0.00     0.274 C 
ENDROOT
BRANCH   1   2
ATOM      2  O   UNL A   1      33.523  26.993  26.207  1.00  0.00    -0.461 OA
BRANCH   2   3
ATOM      3  C   UNL A   1      33.268  25.680  25.953  1.00  0.00     0.329 C 
ATOM      4  O   UNL A   1      32.307  25.062  26.400  1.00  0.00    -0.250 OA
BRANCH   3   5
ATOM      5  C   UNL A   1      34.211  25.074  24.904  1.00  0.00     0.196 C 
ATOM      6  N   UNL A   1      33.567  24.641  23.655  1.00  0.00    -0.322 N 
ATOM      7  C   UNL A   1      33.726  23.204  23.444  1.00  0.00     0.089 C 
ATOM      8  C   UNL A   1      34.900  23.803  25.428  1.00  0.00     0.043 C 
ATOM      9  C   UNL A   1      35.043  22.932  24.176  1.00  0.00     0.014 C 
ATOM     10  C   UNL A   1      32.552  22.386  24.000  1.00  0.00     0.025 C 
ATOM     11  C   UNL A   1      35.341  21.464  24.447  1.00  0.00     0.006 C 
ATOM     12  C   UNL A   1      32.906  20.905  24.122  1.00  0.00     0.002 C 
ATOM     13  C   UNL A   1      34.144  20.692  24.988  1.00  0.00     0.000 C 
BRANCH   6  14
ATOM     14  C   UNL A   1      33.104  25.463  22.638  1.00  0.00     0.255 C 
ATOM     15  O   UNL A   1      33.665  25.526  21.547  1.00  0.00    -0.269 OA
BRANCH  14  16
ATOM     16  C   UNL A   1      31.945  26.312  22.946  1.00  0.00     0.053 A 
ATOM     17  C   UNL A   1      28.279  26.697  23.875  1.00  0.00     0.056 C 
ATOM     18  C   UNL A   1      29.725  26.833  23.539  1.00  0.00     0.003 A 
ATOM     19  C   UNL A   1      30.655  25.832  23.374  1.00  0.00     0.029 A 
ATOM     20  S   UNL A   1      30.435  28.368  23.343  1.00  0.00    -0.145 S 
ATOM     21  C   UNL A   1      31.974  27.698  22.984  1.00  0.00     0.014 A 
ATOM     22  C   UNL A   1      33.128  28.621  22.765  1.00  0.00     0.057 C 
ENDBRANCH  14  16
ENDBRANCH   6  14
ENDBRANCH   3   5
ENDBRANCH   2   3
ENDBRANCH   1   2
BRANCH   1  23
ATOM     23  C   UNL A   1      32.844  29.094  27.284  1.00  0.00     0.275 C 
BRANCH  23  24
ATOM     24  O   UNL A   1      34.245  29.021  27.605  1.00  0.00    -0.458 OA
BRANCH  24  25
ATOM     25  C   UNL A   1      34.802  30.147  28.103  1.00  0.00     0.338 C 
ATOM     26  O   UNL A   1      34.251  31.203  28.357  1.00  0.00    -0.246 OA
BRANCH  25  27
ATOM     27  C   UNL A   1      36.236  29.918  28.347  1.00  0.00     0.060 A 
ATOM     28  C   UNL A   1      37.152  30.117  27.314  1.00  0.00     0.016 A 
ATOM     29  C   UNL A   1      36.660  29.381  29.561  1.00  0.00     0.016 A 
ATOM     30  C   UNL A   1      38.474  29.711  27.455  1.00  0.00     0.010 A 
ATOM     31  C   UNL A   1      38.008  29.052  29.733  1.00  0.00     0.010 A 
ATOM     32  C   UNL A   1      38.920  29.185  28.671  1.00  0.00    -0.014 A 
BRANCH  32  33
ATOM     33  C   UNL A   1      40.329  28.742  28.813  1.00  0.00     0.031 A 
ATOM     34  C   UNL A   1      41.363  29.695  29.342  1.00  0.00     0.074 A 
ATOM     35  C   UNL A   1      40.679  27.485  28.483  1.00  0.00     0.049 A 
ATOM     36  N   UNL A   1      42.664  29.559  29.394  1.00  0.00    -0.248 NA
ATOM     37  C   UNL A   1      40.871  30.973  29.879  1.00  0.00     0.031 C 
ATOM     38  C   UNL A   1      39.763  26.447  28.008  1.00  0.00     0.029 A 
ATOM     39  N   UNL A   1      41.904  26.867  28.498  1.00  0.00    -0.354 N 
ATOM     40  C   UNL A   1      43.148  30.749  29.918  1.00  0.00     0.074 A 
ATOM     41  C   UNL A   1      42.003  31.597  30.174  1.00  0.00     0.031 C 
ATOM     42  C   UNL A   1      40.454  25.318  27.789  1.00  0.00     0.029 A 
ATOM     43  C   UNL A   1      41.868  25.572  28.040  1.00  0.00     0.049 A 
ATOM     44  H   UNL A   1      42.728  27.308  28.806  1.00  0.00     0.167 HD
ATOM     45  C   UNL A   1      44.433  31.103  30.158  1.00  0.00     0.037 A 
ATOM     46  C   UNL A   1      42.866  24.700  27.808  1.00  0.00     0.037 A 
ATOM     47  C   UNL A   1      45.565  30.241  29.944  1.00  0.00     0.049 A 
ATOM     48  C   UNL A   1      44.285  25.126  28.055  1.00  0.00     0.074 A 
ATOM     49  C   UNL A   1      46.904  30.502  30.176  1.00  0.00     0.029 A 
ATOM     50  N   UNL A   1      45.487  28.945  29.460  1.00  0.00    -0.354 N 
ATOM     51  N   UNL A   1      44.735  26.270  28.507  1.00  0.00    -0.248 NA
ATOM     52  C   UNL A   1      45.334  24.146  27.741  1.00  0.00     0.031 C 
ATOM     53  C   UNL A   1      47.639  29.370  29.804  1.00  0.00     0.029 A 
ATOM     54  C   UNL A   1      46.755  28.396  29.372  1.00  0.00     0.049 A 
ATOM     55  H   UNL A   1      44.653  28.483  29.214  1.00  0.00     0.167 HD
ATOM     56  C   UNL A   1      46.116  26.148  28.538  1.00  0.00     0.074 A 
ATOM     57  C   UNL A   1      46.430  24.812  28.076  1.00  0.00     0.031 C 
ATOM     58  C   UNL A   1      47.044  27.064  28.909  1.00  0.00     0.037 A 
BRANCH  45  59
ATOM     59  C   UNL A   1      44.683  32.499  30.645  1.00  0.00     0.057 A 
ATOM     60  C   UNL A   1      44.868  33.572  29.766  1.00  0.00     0.134 A 
ATOM     61  C   UNL A   1      44.715  32.773  32.018  1.00  0.00     0.134 A 
ATOM     62  F   UNL A   1      44.866  33.372  28.438  1.00  0.00    -0.206 F 
ATOM     63  C   UNL A   1      45.094  34.867  30.236  1.00  0.00     0.040 A 
ATOM     64  C   UNL A   1      44.921  34.066  32.501  1.00  0.00     0.040 A 
ATOM     65  F   UNL A   1      44.544  31.788  32.912  1.00  0.00    -0.206 F 
ATOM     66  C   UNL A   1      45.115  35.117  31.608  1.00  0.00     0.006 A 
ENDBRANCH  45  59
BRANCH  46  67
ATOM     67  C   UNL A   1      42.556  23.355  27.270  1.00  0.00     0.057 A 
ATOM     68  C   UNL A   1      42.621  23.091  25.898  1.00  0.00     0.134 A 
ATOM     69  C   UNL A   1      42.203  22.297  28.117  1.00  0.00     0.134 A 
ATOM     70  F   UNL A   1      42.932  24.070  25.036  1.00  0.00    -0.206 F 
ATOM     71  C   UNL A   1      42.341  21.823  25.386  1.00  0.00     0.040 A 
ATOM     72  C   UNL A   1      41.943  21.019  27.622  1.00  0.00     0.040 A 
ATOM     73  F   UNL A   1      42.128  22.487  29.443  1.00  0.00    -0.206 F 
ATOM     74  C   UNL A   1      42.008  20.780  26.250  1.00  0.00     0.006 A 
ENDBRANCH  46  67
BRANCH  58  75
ATOM     75  C   UNL A   1      48.478  26.641  28.845  1.00  0.00     0.057 A 
ATOM     76  C   UNL A   1      49.282  26.942  27.739  1.00  0.00     0.134 A 
ATOM     77  C   UNL A   1      49.068  25.950  29.910  1.00  0.00     0.134 A 
ATOM     78  F   UNL A   1      48.769  27.588  26.681  1.00  0.00    -0.206 F 
ATOM     79  C   UNL A   1      50.623  26.558  27.690  1.00  0.00     0.040 A 
ATOM     80  C   UNL A   1      50.412  25.576  29.880  1.00  0.00     0.040 A 
ATOM     81  F   UNL A   1      48.350  25.636  30.999  1.00  0.00    -0.206 F 
ATOM     82  C   UNL A   1      51.192  25.878  28.764  1.00  0.00     0.006 A 
ENDBRANCH  58  75
ENDBRANCH  32  33
ENDBRANCH  25  27
ENDBRANCH  24  25
ENDBRANCH  23  24
ENDBRANCH   1  23
TORSDOF 13
ENDMDL
