MODEL 1
REMARK VINA RESULT:     -10.7      0.000      0.000
REMARK SMILES CC[C@H](C)CN(CC)C(=O)Nc1ccc(C(=O)OCCOC(=O)c2ccc(-c3c4nc(c(-c5c(F)cccc5F)c5ccc([nH]5)c(-c5c(F)cccc5F)c5nc(c(-c6c(F)cccc6F)c6ccc3[nH]6)C=C5)C=C4)cc2)cc1Cl
REMARK SMILES IDX 18 1 16 2 17 3 15 4 12 5 13 6 79 7 14 8 78 9 80 10 11 11
REMARK SMILES IDX 9 12 10 13 6 15 5 16 3 17 4 18 2 19 1 20 7 21 8 22 19 23
REMARK SMILES IDX 20 24 21 25 22 26 23 27 24 28 25 29 77 30 26 31 76 32 27 33
REMARK SMILES IDX 28 34 29 35 70 36 30 37 75 38 69 39 71 40 31 41 74 42 68 43
REMARK SMILES IDX 67 44 32 46 58 47 41 48 57 49 42 50 45 51 56 52 72 53 43 54
REMARK SMILES IDX 44 55 55 57 73 58 46 59 33 60 34 61 39 62 35 63 36 64 38 65
REMARK SMILES IDX 40 66 37 67 59 68 60 69 65 70 61 71 62 72 64 73 66 74 63 75
REMARK SMILES IDX 47 76 48 77 53 78 49 79 50 80 52 81 54 82 51 83
REMARK H PARENT 11 14 71 45 45 56
REMARK Flexibility Score: inf
ROOT
ATOM      1  O   UNL A   1      34.328  20.216  24.330  1.00  0.00    -0.458 OA
ENDROOT
BRANCH   1   2
ATOM      2  C   UNL A   1      33.136  20.032  24.941  1.00  0.00     0.338 C 
ATOM      3  O   UNL A   1      32.804  19.062  25.607  1.00  0.00    -0.246 OA
BRANCH   2   4
ATOM      4  C   UNL A   1      32.240  21.202  24.752  1.00  0.00     0.061 A 
ATOM      5  C   UNL A   1      30.843  23.565  24.321  1.00  0.00     0.061 A 
ATOM      6  C   UNL A   1      31.421  22.912  23.232  1.00  0.00     0.028 A 
ATOM      7  C   UNL A   1      30.806  22.953  25.582  1.00  0.00     0.065 A 
ATOM      8  C   UNL A   1      32.157  21.755  23.461  1.00  0.00     0.018 A 
ATOM      9  C   UNL A   1      31.503  21.764  25.799  1.00  0.00     0.038 A 
ATOM     10  Cl  UNL A   1      29.914  23.640  26.893  1.00  0.00    -0.082 Cl
BRANCH   5  11
ATOM     11  N   UNL A   1      30.438  24.881  24.122  1.00  0.00    -0.306 N 
ATOM     12  C   UNL A   1      31.010  26.052  24.510  1.00  0.00     0.321 C 
ATOM     13  O   UNL A   1      30.287  27.049  24.400  1.00  0.00    -0.248 OA
ATOM     14  H   UNL A   1      29.599  24.981  23.617  1.00  0.00     0.171 HD
BRANCH  12  15
ATOM     15  N   UNL A   1      32.339  26.158  24.884  1.00  0.00    -0.325 N 
BRANCH  15  16
ATOM     16  C   UNL A   1      32.593  26.435  26.307  1.00  0.00     0.124 C 
BRANCH  16  17
ATOM     17  C   UNL A   1      32.592  27.956  26.618  1.00  0.00     0.005 C 
ATOM     18  C   UNL A   1      31.523  28.325  27.652  1.00  0.00     0.009 C 
BRANCH  17  19
ATOM     19  C   UNL A   1      34.015  28.445  26.972  1.00  0.00     0.002 C 
ATOM     20  C   UNL A   1      34.194  29.944  27.149  1.00  0.00     0.004 C 
ENDBRANCH  17  19
ENDBRANCH  16  17
ENDBRANCH  15  16
BRANCH  15  21
ATOM     21  C   UNL A   1      33.552  26.170  24.052  1.00  0.00     0.118 C 
ATOM     22  C   UNL A   1      34.402  24.918  24.209  1.00  0.00     0.027 C 
ENDBRANCH  15  21
ENDBRANCH  12  15
ENDBRANCH   5  11
ENDBRANCH   2   4
ENDBRANCH   1   2
BRANCH   1  23
ATOM     23  C   UNL A   1      35.303  20.952  25.091  1.00  0.00     0.275 C 
BRANCH  23  24
ATOM     24  C   UNL A   1      36.672  20.274  25.014  1.00  0.00     0.275 C 
BRANCH  24  25
ATOM     25  O   UNL A   1      37.732  21.251  24.977  1.00  0.00    -0.458 OA
BRANCH  25  26
ATOM     26  C   UNL A   1      38.819  20.945  25.723  1.00  0.00     0.338 C 
ATOM     27  O   UNL A   1      39.418  19.883  25.762  1.00  0.00    -0.246 OA
BRANCH  26  28
ATOM     28  C   UNL A   1      39.292  22.129  26.455  1.00  0.00     0.060 A 
ATOM     29  C   UNL A   1      38.737  23.361  26.128  1.00  0.00     0.016 A 
ATOM     30  C   UNL A   1      40.414  22.067  27.279  1.00  0.00     0.016 A 
ATOM     31  C   UNL A   1      39.345  24.543  26.531  1.00  0.00     0.010 A 
ATOM     32  C   UNL A   1      40.988  23.258  27.747  1.00  0.00     0.010 A 
ATOM     33  C   UNL A   1      40.492  24.510  27.333  1.00  0.00    -0.014 A 
BRANCH  33  34
ATOM     34  C   UNL A   1      41.230  25.775  27.609  1.00  0.00     0.031 A 
ATOM     35  C   UNL A   1      40.597  26.834  28.478  1.00  0.00     0.074 A 
ATOM     36  C   UNL A   1      42.490  25.955  27.167  1.00  0.00     0.049 A 
ATOM     37  N   UNL A   1      41.012  28.047  28.745  1.00  0.00    -0.248 NA
ATOM     38  C   UNL A   1      39.324  26.481  29.127  1.00  0.00     0.031 C 
ATOM     39  C   UNL A   1      43.261  24.991  26.378  1.00  0.00     0.029 A 
ATOM     40  N   UNL A   1      43.356  27.007  27.340  1.00  0.00    -0.354 N 
ATOM     41  C   UNL A   1      40.026  28.618  29.541  1.00  0.00     0.074 A 
ATOM     42  C   UNL A   1      38.988  27.623  29.709  1.00  0.00     0.031 C 
ATOM     43  C   UNL A   1      44.496  25.476  26.176  1.00  0.00     0.029 A 
ATOM     44  C   UNL A   1      44.584  26.813  26.754  1.00  0.00     0.049 A 
ATOM     45  H   UNL A   1      43.119  27.823  27.837  1.00  0.00     0.167 HD
ATOM     46  C   UNL A   1      39.988  29.856  30.089  1.00  0.00     0.037 A 
ATOM     47  C   UNL A   1      45.650  27.631  26.667  1.00  0.00     0.037 A 
ATOM     48  C   UNL A   1      41.046  30.827  29.981  1.00  0.00     0.049 A 
ATOM     49  C   UNL A   1      45.575  29.010  27.263  1.00  0.00     0.074 A 
ATOM     50  C   UNL A   1      41.093  32.115  30.487  1.00  0.00     0.029 A 
ATOM     51  N   UNL A   1      42.257  30.603  29.346  1.00  0.00    -0.354 N 
ATOM     52  N   UNL A   1      44.601  29.567  27.939  1.00  0.00    -0.248 NA
ATOM     53  C   UNL A   1      46.746  29.879  27.066  1.00  0.00     0.031 C 
ATOM     54  C   UNL A   1      42.327  32.677  30.141  1.00  0.00     0.029 A 
ATOM     55  C   UNL A   1      43.060  31.727  29.451  1.00  0.00     0.049 A 
ATOM     56  H   UNL A   1      42.509  29.769  28.889  1.00  0.00     0.167 HD
ATOM     57  C   UNL A   1      45.044  30.845  28.259  1.00  0.00     0.074 A 
ATOM     58  C   UNL A   1      46.385  30.970  27.727  1.00  0.00     0.031 C 
ATOM     59  C   UNL A   1      44.396  31.831  28.925  1.00  0.00     0.037 A 
BRANCH  46  60
ATOM     60  C   UNL A   1      38.745  30.242  30.837  1.00  0.00     0.057 A 
ATOM     61  C   UNL A   1      38.631  30.085  32.223  1.00  0.00     0.134 A 
ATOM     62  C   UNL A   1      37.655  30.801  30.156  1.00  0.00     0.134 A 
ATOM     63  F   UNL A   1      39.632  29.540  32.930  1.00  0.00    -0.206 F 
ATOM     64  C   UNL A   1      37.468  30.449  32.904  1.00  0.00     0.040 A 
ATOM     65  C   UNL A   1      36.496  31.192  30.830  1.00  0.00     0.040 A 
ATOM     66  F   UNL A   1      37.700  30.983  28.828  1.00  0.00    -0.206 F 
ATOM     67  C   UNL A   1      36.399  31.010  32.208  1.00  0.00     0.006 A 
ENDBRANCH  46  60
BRANCH  47  68
ATOM     68  C   UNL A   1      46.878  27.189  25.959  1.00  0.00     0.057 A 
ATOM     69  C   UNL A   1      47.055  27.438  24.593  1.00  0.00     0.134 A 
ATOM     70  C   UNL A   1      47.886  26.477  26.620  1.00  0.00     0.134 A 
ATOM     71  F   UNL A   1      46.111  28.091  23.899  1.00  0.00    -0.206 F 
ATOM     72  C   UNL A   1      48.180  26.979  23.906  1.00  0.00     0.040 A 
ATOM     73  C   UNL A   1      49.030  26.037  25.951  1.00  0.00     0.040 A 
ATOM     74  F   UNL A   1      47.778  26.204  27.929  1.00  0.00    -0.206 F 
ATOM     75  C   UNL A   1      49.175  26.281  24.587  1.00  0.00     0.006 A 
ENDBRANCH  47  68
BRANCH  59  76
ATOM     76  C   UNL A   1      45.145  33.111  29.142  1.00  0.00     0.057 A 
ATOM     77  C   UNL A   1      45.954  33.310  30.269  1.00  0.00     0.134 A 
ATOM     78  C   UNL A   1      45.064  34.153  28.210  1.00  0.00     0.134 A 
ATOM     79  F   UNL A   1      46.061  32.356  31.205  1.00  0.00    -0.206 F 
ATOM     80  C   UNL A   1      46.631  34.513  30.475  1.00  0.00     0.040 A 
ATOM     81  C   UNL A   1      45.754  35.351  28.395  1.00  0.00     0.040 A 
ATOM     82  F   UNL A   1      44.311  34.023  27.107  1.00  0.00    -0.206 F 
ATOM     83  C   UNL A   1      46.534  35.537  29.535  1.00  0.00     0.006 A 
ENDBRANCH  59  76
ENDBRANCH  33  34
ENDBRANCH  26  28
ENDBRANCH  25  26
ENDBRANCH  24  25
ENDBRANCH  23  24
ENDBRANCH   1  23
TORSDOF 17
ENDMDL
MODEL 2
REMARK VINA RESULT:     -10.6      3.890      9.020
REMARK SMILES CC[C@H](C)CN(CC)C(=O)Nc1ccc(C(=O)OCCOC(=O)c2ccc(-c3c4nc(c(-c5c(F)cccc5F)c5ccc([nH]5)c(-c5c(F)cccc5F)c5nc(c(-c6c(F)cccc6F)c6ccc3[nH]6)C=C5)C=C4)cc2)cc1Cl
REMARK SMILES IDX 18 1 16 2 17 3 15 4 12 5 13 6 79 7 14 8 78 9 80 10 11 11
REMARK SMILES IDX 9 12 10 13 6 15 5 16 3 17 4 18 2 19 1 20 7 21 8 22 19 23
REMARK SMILES IDX 20 24 21 25 22 26 23 27 24 28 25 29 77 30 26 31 76 32 27 33
REMARK SMILES IDX 28 34 29 35 70 36 30 37 75 38 69 39 71 40 31 41 74 42 68 43
REMARK SMILES IDX 67 44 32 46 58 47 41 48 57 49 42 50 45 51 56 52 72 53 43 54
REMARK SMILES IDX 44 55 55 57 73 58 46 59 33 60 34 61 39 62 35 63 36 64 38 65
REMARK SMILES IDX 40 66 37 67 59 68 60 69 65 70 61 71 62 72 64 73 66 74 63 75
REMARK SMILES IDX 47 76 48 77 53 78 49 79 50 80 52 81 54 82 51 83
REMARK H PARENT 11 14 71 45 45 56
REMARK Flexibility Score: inf
ROOT
ATOM      1  O   UNL A   1      32.133  29.628  25.590  1.00  0.00    -0.458 OA
ENDROOT
BRANCH   1   2
ATOM      2  C   UNL A   1      31.809  28.443  26.154  1.00  0.00     0.338 C 
ATOM      3  O   UNL A   1      31.646  28.227  27.346  1.00  0.00    -0.246 OA
BRANCH   2   4
ATOM      4  C   UNL A   1      31.614  27.386  25.129  1.00  0.00     0.061 A 
ATOM      5  C   UNL A   1      31.268  25.187  23.466  1.00  0.00     0.061 A 
ATOM      6  C   UNL A   1      30.248  25.533  24.352  1.00  0.00     0.028 A 
ATOM      7  C   UNL A   1      32.370  26.034  23.281  1.00  0.00     0.065 A 
ATOM      8  C   UNL A   1      30.447  26.606  25.213  1.00  0.00     0.018 A 
ATOM      9  C   UNL A   1      32.543  27.141  24.113  1.00  0.00     0.038 A 
ATOM     10  Cl  UNL A   1      33.538  25.739  22.042  1.00  0.00    -0.082 Cl
BRANCH   5  11
ATOM     11  N   UNL A   1      31.199  23.922  22.891  1.00  0.00    -0.306 N 
ATOM     12  C   UNL A   1      31.699  22.730  23.312  1.00  0.00     0.321 C 
ATOM     13  O   UNL A   1      31.688  21.829  22.465  1.00  0.00    -0.248 OA
ATOM     14  H   UNL A   1      30.708  23.884  22.039  1.00  0.00     0.171 HD
BRANCH  12  15
ATOM     15  N   UNL A   1      32.080  22.488  24.622  1.00  0.00    -0.325 N 
BRANCH  15  16
ATOM     16  C   UNL A   1      33.498  22.158  24.835  1.00  0.00     0.124 C 
BRANCH  16  17
ATOM     17  C   UNL A   1      34.436  23.342  24.474  1.00  0.00     0.005 C 
ATOM     18  C   UNL A   1      35.162  23.889  25.708  1.00  0.00     0.009 C 
BRANCH  17  19
ATOM     19  C   UNL A   1      35.370  22.964  23.302  1.00  0.00     0.002 C 
ATOM     20  C   UNL A   1      36.860  22.937  23.602  1.00  0.00     0.004 C 
ENDBRANCH  17  19
ENDBRANCH  16  17
ENDBRANCH  15  16
BRANCH  15  21
ATOM     21  C   UNL A   1      31.256  22.377  25.836  1.00  0.00     0.118 C 
ATOM     22  C   UNL A   1      31.644  23.372  26.919  1.00  0.00     0.027 C 
ENDBRANCH  15  21
ENDBRANCH  12  15
ENDBRANCH   5  11
ENDBRANCH   2   4
ENDBRANCH   1   2
BRANCH   1  23
ATOM     23  C   UNL A   1      31.027  30.514  25.335  1.00  0.00     0.275 C 
BRANCH  23  24
ATOM     24  C   UNL A   1      31.199  31.828  26.098  1.00  0.00     0.275 C 
BRANCH  24  25
ATOM     25  O   UNL A   1      32.052  31.652  27.247  1.00  0.00    -0.458 OA
BRANCH  25  26
ATOM     26  C   UNL A   1      32.867  32.697  27.520  1.00  0.00     0.338 C 
ATOM     27  O   UNL A   1      32.567  33.877  27.584  1.00  0.00    -0.246 OA
BRANCH  26  28
ATOM     28  C   UNL A   1      34.220  32.223  27.850  1.00  0.00     0.060 A 
ATOM     29  C   UNL A   1      34.396  30.862  28.074  1.00  0.00     0.016 A 
ATOM     30  C   UNL A   1      35.242  33.117  28.156  1.00  0.00     0.016 A 
ATOM     31  C   UNL A   1      35.545  30.387  28.694  1.00  0.00     0.010 A 
ATOM     32  C   UNL A   1      36.433  32.633  28.717  1.00  0.00     0.010 A 
ATOM     33  C   UNL A   1      36.575  31.269  29.043  1.00  0.00    -0.014 A 
BRANCH  33  34
ATOM     34  C   UNL A   1      37.717  30.774  29.862  1.00  0.00     0.031 A 
ATOM     35  C   UNL A   1      38.780  29.917  29.219  1.00  0.00     0.074 A 
ATOM     36  C   UNL A   1      37.865  31.150  31.148  1.00  0.00     0.049 A 
ATOM     37  N   UNL A   1      39.787  29.288  29.773  1.00  0.00    -0.248 NA
ATOM     38  C   UNL A   1      38.693  29.740  27.761  1.00  0.00     0.031 C 
ATOM     39  C   UNL A   1      36.958  32.033  31.885  1.00  0.00     0.029 A 
ATOM     40  N   UNL A   1      38.849  30.852  32.058  1.00  0.00    -0.354 N 
ATOM     41  C   UNL A   1      40.414  28.598  28.742  1.00  0.00     0.074 A 
ATOM     42  C   UNL A   1      39.672  28.877  27.532  1.00  0.00     0.031 C 
ATOM     43  C   UNL A   1      37.453  32.241  33.116  1.00  0.00     0.029 A 
ATOM     44  C   UNL A   1      38.668  31.450  33.282  1.00  0.00     0.049 A 
ATOM     45  H   UNL A   1      39.612  30.265  31.853  1.00  0.00     0.167 HD
ATOM     46  C   UNL A   1      41.512  27.806  28.796  1.00  0.00     0.037 A 
ATOM     47  C   UNL A   1      39.383  31.350  34.419  1.00  0.00     0.037 A 
ATOM     48  C   UNL A   1      42.293  27.576  29.983  1.00  0.00     0.049 A 
ATOM     49  C   UNL A   1      40.584  30.447  34.459  1.00  0.00     0.074 A 
ATOM     50  C   UNL A   1      43.412  26.777  30.140  1.00  0.00     0.029 A 
ATOM     51  N   UNL A   1      42.053  28.173  31.210  1.00  0.00    -0.354 N 
ATOM     52  N   UNL A   1      41.115  29.732  33.498  1.00  0.00    -0.248 NA
ATOM     53  C   UNL A   1      41.275  30.325  35.752  1.00  0.00     0.031 C 
ATOM     54  C   UNL A   1      43.838  26.875  31.470  1.00  0.00     0.029 A 
ATOM     55  C   UNL A   1      43.005  27.762  32.129  1.00  0.00     0.049 A 
ATOM     56  H   UNL A   1      41.315  28.796  31.401  1.00  0.00     0.167 HD
ATOM     57  C   UNL A   1      42.207  29.086  34.065  1.00  0.00     0.074 A 
ATOM     58  C   UNL A   1      42.279  29.516  35.446  1.00  0.00     0.031 C 
ATOM     59  C   UNL A   1      43.068  28.208  33.496  1.00  0.00     0.037 A 
BRANCH  46  60
ATOM     60  C   UNL A   1      41.920  27.106  27.531  1.00  0.00     0.057 A 
ATOM     61  C   UNL A   1      42.752  27.710  26.582  1.00  0.00     0.134 A 
ATOM     62  C   UNL A   1      41.489  25.798  27.276  1.00  0.00     0.134 A 
ATOM     63  F   UNL A   1      43.185  28.967  26.758  1.00  0.00    -0.206 F 
ATOM     64  C   UNL A   1      43.123  27.046  25.410  1.00  0.00     0.040 A 
ATOM     65  C   UNL A   1      41.873  25.114  26.121  1.00  0.00     0.040 A 
ATOM     66  F   UNL A   1      40.693  25.160  28.147  1.00  0.00    -0.206 F 
ATOM     67  C   UNL A   1      42.688  25.742  25.181  1.00  0.00     0.006 A 
ENDBRANCH  46  60
BRANCH  47  68
ATOM     68  C   UNL A   1      38.970  32.100  35.632  1.00  0.00     0.057 A 
ATOM     69  C   UNL A   1      39.378  33.423  35.839  1.00  0.00     0.134 A 
ATOM     70  C   UNL A   1      38.190  31.503  36.630  1.00  0.00     0.134 A 
ATOM     71  F   UNL A   1      40.149  34.041  34.932  1.00  0.00    -0.206 F 
ATOM     72  C   UNL A   1      39.040  34.119  37.001  1.00  0.00     0.040 A 
ATOM     73  C   UNL A   1      37.821  32.196  37.783  1.00  0.00     0.040 A 
ATOM     74  F   UNL A   1      37.768  30.237  36.494  1.00  0.00    -0.206 F 
ATOM     75  C   UNL A   1      38.254  33.507  37.976  1.00  0.00     0.006 A 
ENDBRANCH  47  68
BRANCH  59  76
ATOM     76  C   UNL A   1      44.177  27.687  34.361  1.00  0.00     0.057 A 
ATOM     77  C   UNL A   1      44.049  26.494  35.085  1.00  0.00     0.134 A 
ATOM     78  C   UNL A   1      45.388  28.382  34.464  1.00  0.00     0.134 A 
ATOM     79  F   UNL A   1      42.909  25.791  35.039  1.00  0.00    -0.206 F 
ATOM     80  C   UNL A   1      45.078  26.028  35.904  1.00  0.00     0.040 A 
ATOM     81  C   UNL A   1      46.431  27.914  35.263  1.00  0.00     0.040 A 
ATOM     82  F   UNL A   1      45.575  29.528  33.791  1.00  0.00    -0.206 F 
ATOM     83  C   UNL A   1      46.275  26.737  35.993  1.00  0.00     0.006 A 
ENDBRANCH  59  76
ENDBRANCH  33  34
ENDBRANCH  26  28
ENDBRANCH  25  26
ENDBRANCH  24  25
ENDBRANCH  23  24
ENDBRANCH   1  23
TORSDOF 17
ENDMDL
MODEL 3
REMARK VINA RESULT:     -10.5      2.335      3.249
REMARK SMILES CC[C@H](C)CN(CC)C(=O)Nc1ccc(C(=O)OCCOC(=O)c2ccc(-c3c4nc(c(-c5c(F)cccc5F)c5ccc([nH]5)c(-c5c(F)cccc5F)c5nc(c(-c6c(F)cccc6F)c6ccc3[nH]6)C=C5)C=C4)cc2)cc1Cl
REMARK SMILES IDX 18 1 16 2 17 3 15 4 12 5 13 6 79 7 14 8 78 9 80 10 11 11
REMARK SMILES IDX 9 12 10 13 6 15 5 16 3 17 4 18 2 19 1 20 7 21 8 22 19 23
REMARK SMILES IDX 20 24 21 25 22 26 23 27 24 28 25 29 77 30 26 31 76 32 27 33
REMARK SMILES IDX 28 34 29 35 70 36 30 37 75 38 69 39 71 40 31 41 74 42 68 43
REMARK SMILES IDX 67 44 32 46 58 47 41 48 57 49 42 50 45 51 56 52 72 53 43 54
REMARK SMILES IDX 44 55 55 57 73 58 46 59 33 60 34 61 39 62 35 63 36 64 38 65
REMARK SMILES IDX 40 66 37 67 59 68 60 69 65 70 61 71 62 72 64 73 66 74 63 75
REMARK SMILES IDX 47 76 48 77 53 78 49 79 50 80 52 81 54 82 51 83
REMARK H PARENT 11 14 71 45 45 56
REMARK Flexibility Score: inf
ROOT
ATOM      1  O   UNL A   1      36.747  21.590  25.269  1.00  0.00    -0.458 OA
ENDROOT
BRANCH   1   2
ATOM      2  C   UNL A   1      36.401  22.412  24.253  1.00  0.00     0.338 C 
ATOM      3  O   UNL A   1      36.962  22.505  23.171  1.00  0.00    -0.246 OA
BRANCH   2   4
ATOM      4  C   UNL A   1      35.182  23.197  24.578  1.00  0.00     0.061 A 
ATOM      5  C   UNL A   1      32.990  24.626  25.512  1.00  0.00     0.061 A 
ATOM      6  C   UNL A   1      34.264  25.178  25.644  1.00  0.00     0.028 A 
ATOM      7  C   UNL A   1      32.792  23.459  24.760  1.00  0.00     0.065 A 
ATOM      8  C   UNL A   1      35.360  24.437  25.217  1.00  0.00     0.018 A 
ATOM      9  C   UNL A   1      33.892  22.742  24.287  1.00  0.00     0.038 A 
ATOM     10  Cl  UNL A   1      31.207  22.873  24.404  1.00  0.00    -0.082 Cl
BRANCH   5  11
ATOM     11  N   UNL A   1      31.972  25.207  26.263  1.00  0.00    -0.306 N 
ATOM     12  C   UNL A   1      31.245  26.334  26.046  1.00  0.00     0.321 C 
ATOM     13  O   UNL A   1      30.583  26.725  27.015  1.00  0.00    -0.248 OA
ATOM     14  H   UNL A   1      31.742  24.721  27.087  1.00  0.00     0.171 HD
BRANCH  12  15
ATOM     15  N   UNL A   1      31.141  26.942  24.805  1.00  0.00    -0.325 N 
BRANCH  15  16
ATOM     16  C   UNL A   1      31.644  28.322  24.714  1.00  0.00     0.124 C 
BRANCH  16  17
ATOM     17  C   UNL A   1      33.186  28.396  24.886  1.00  0.00     0.005 C 
ATOM     18  C   UNL A   1      33.899  28.595  23.545  1.00  0.00     0.009 C 
BRANCH  17  19
ATOM     19  C   UNL A   1      33.568  29.430  25.970  1.00  0.00     0.002 C 
ATOM     20  C   UNL A   1      32.545  29.672  27.069  1.00  0.00     0.004 C 
ENDBRANCH  17  19
ENDBRANCH  16  17
ENDBRANCH  15  16
BRANCH  15  21
ATOM     21  C   UNL A   1      30.479  26.470  23.579  1.00  0.00     0.118 C 
ATOM     22  C   UNL A   1      31.456  26.022  22.502  1.00  0.00     0.027 C 
ENDBRANCH  15  21
ENDBRANCH  12  15
ENDBRANCH   5  11
ENDBRANCH   2   4
ENDBRANCH   1   2
BRANCH   1  23
ATOM     23  C   UNL A   1      36.787  20.188  24.942  1.00  0.00     0.275 C 
BRANCH  23  24
ATOM     24  C   UNL A   1      38.225  19.669  24.962  1.00  0.00     0.275 C 
BRANCH  24  25
ATOM     25  O   UNL A   1      39.077  20.530  25.744  1.00  0.00    -0.458 OA
BRANCH  25  26
ATOM     26  C   UNL A   1      40.320  20.050  25.974  1.00  0.00     0.338 C 
ATOM     27  O   UNL A   1      40.747  18.938  25.714  1.00  0.00    -0.246 OA
BRANCH  26  28
ATOM     28  C   UNL A   1      41.189  21.106  26.515  1.00  0.00     0.060 A 
ATOM     29  C   UNL A   1      41.171  21.324  27.888  1.00  0.00     0.016 A 
ATOM     30  C   UNL A   1      41.833  22.011  25.674  1.00  0.00     0.016 A 
ATOM     31  C   UNL A   1      41.701  22.488  28.429  1.00  0.00     0.010 A 
ATOM     32  C   UNL A   1      42.433  23.152  26.226  1.00  0.00     0.010 A 
ATOM     33  C   UNL A   1      42.325  23.430  27.603  1.00  0.00    -0.014 A 
BRANCH  33  34
ATOM     34  C   UNL A   1      42.730  24.747  28.170  1.00  0.00     0.031 A 
ATOM     35  C   UNL A   1      41.679  25.795  28.448  1.00  0.00     0.074 A 
ATOM     36  C   UNL A   1      44.008  24.990  28.522  1.00  0.00     0.049 A 
ATOM     37  N   UNL A   1      41.828  27.041  28.825  1.00  0.00    -0.248 NA
ATOM     38  C   UNL A   1      40.277  25.387  28.269  1.00  0.00     0.031 C 
ATOM     39  C   UNL A   1      45.121  24.048  28.382  1.00  0.00     0.029 A 
ATOM     40  N   UNL A   1      44.583  26.099  29.092  1.00  0.00    -0.354 N 
ATOM     41  C   UNL A   1      40.546  27.577  28.872  1.00  0.00     0.074 A 
ATOM     42  C   UNL A   1      39.633  26.526  28.478  1.00  0.00     0.031 C 
ATOM     43  C   UNL A   1      46.232  24.602  28.896  1.00  0.00     0.029 A 
ATOM     44  C   UNL A   1      45.930  25.962  29.332  1.00  0.00     0.049 A 
ATOM     45  H   UNL A   1      44.078  26.916  29.309  1.00  0.00     0.167 HD
ATOM     46  C   UNL A   1      40.162  28.829  29.218  1.00  0.00     0.037 A 
ATOM     47  C   UNL A   1      46.825  26.841  29.820  1.00  0.00     0.037 A 
ATOM     48  C   UNL A   1      41.058  29.859  29.674  1.00  0.00     0.049 A 
ATOM     49  C   UNL A   1      46.378  28.231  30.174  1.00  0.00     0.074 A 
ATOM     50  C   UNL A   1      40.765  31.164  30.031  1.00  0.00     0.029 A 
ATOM     51  N   UNL A   1      42.420  29.688  29.867  1.00  0.00    -0.354 N 
ATOM     52  N   UNL A   1      45.176  28.751  30.131  1.00  0.00    -0.248 NA
ATOM     53  C   UNL A   1      47.421  29.164  30.630  1.00  0.00     0.031 C 
ATOM     54  C   UNL A   1      41.955  31.789  30.422  1.00  0.00     0.029 A 
ATOM     55  C   UNL A   1      42.981  30.863  30.341  1.00  0.00     0.049 A 
ATOM     56  H   UNL A   1      42.915  28.856  29.692  1.00  0.00     0.167 HD
ATOM     57  C   UNL A   1      45.314  30.064  30.564  1.00  0.00     0.074 A 
ATOM     58  C   UNL A   1      46.712  30.253  30.892  1.00  0.00     0.031 C 
ATOM     59  C   UNL A   1      44.371  31.031  30.671  1.00  0.00     0.037 A 
BRANCH  46  60
ATOM     60  C   UNL A   1      38.704  29.163  29.089  1.00  0.00     0.057 A 
ATOM     61  C   UNL A   1      37.825  29.091  30.176  1.00  0.00     0.134 A 
ATOM     62  C   UNL A   1      38.180  29.585  27.860  1.00  0.00     0.134 A 
ATOM     63  F   UNL A   1      38.260  28.677  31.376  1.00  0.00    -0.206 F 
ATOM     64  C   UNL A   1      36.471  29.405  30.041  1.00  0.00     0.040 A 
ATOM     65  C   UNL A   1      36.834  29.926  27.718  1.00  0.00     0.040 A 
ATOM     66  F   UNL A   1      38.969  29.680  26.780  1.00  0.00    -0.206 F 
ATOM     67  C   UNL A   1      35.974  29.830  28.810  1.00  0.00     0.006 A 
ENDBRANCH  46  60
BRANCH  47  68
ATOM     68  C   UNL A   1      48.249  26.450  29.976  1.00  0.00     0.057 A 
ATOM     69  C   UNL A   1      48.707  25.836  31.148  1.00  0.00     0.134 A 
ATOM     70  C   UNL A   1      49.193  26.713  28.976  1.00  0.00     0.134 A 
ATOM     71  F   UNL A   1      47.856  25.583  32.153  1.00  0.00    -0.206 F 
ATOM     72  C   UNL A   1      50.053  25.514  31.327  1.00  0.00     0.040 A 
ATOM     73  C   UNL A   1      50.537  26.371  29.130  1.00  0.00     0.040 A 
ATOM     74  F   UNL A   1      48.820  27.301  27.830  1.00  0.00    -0.206 F 
ATOM     75  C   UNL A   1      50.973  25.777  30.313  1.00  0.00     0.006 A 
ENDBRANCH  47  68
BRANCH  59  76
ATOM     76  C   UNL A   1      44.819  32.362  31.197  1.00  0.00     0.057 A 
ATOM     77  C   UNL A   1      45.260  33.381  30.343  1.00  0.00     0.134 A 
ATOM     78  C   UNL A   1      44.801  32.629  32.571  1.00  0.00     0.134 A 
ATOM     79  F   UNL A   1      45.315  33.181  29.018  1.00  0.00    -0.206 F 
ATOM     80  C   UNL A   1      45.697  34.609  30.841  1.00  0.00     0.040 A 
ATOM     81  C   UNL A   1      45.213  33.861  33.079  1.00  0.00     0.040 A 
ATOM     82  F   UNL A   1      44.384  31.698  33.441  1.00  0.00    -0.206 F 
ATOM     83  C   UNL A   1      45.671  34.854  32.213  1.00  0.00     0.006 A 
ENDBRANCH  59  76
ENDBRANCH  33  34
ENDBRANCH  26  28
ENDBRANCH  25  26
ENDBRANCH  24  25
ENDBRANCH  23  24
ENDBRANCH   1  23
TORSDOF 17
ENDMDL
