MODEL 1
REMARK VINA RESULT:     -12.5      0.000      0.000
REMARK SMILES O=C(OCCOC(=O)[C@H]1CC=CC[C@@H]1C(=O)N[C@@H]1CCCN(c2ccccc2F)C1=O)c1ccc(-c2c3nc(c(-c4c(F)cccc4F)c4ccc([nH]4)c(-c4c(F)cccc4F)c4nc(c(-c5c(F)cccc5F)c5ccc2[nH]5)C=C4)C=C3)cc1
REMARK SMILES IDX 5 1 4 2 3 3 2 4 1 5 32 6 33 7 85 8 34 9 84 10 35 11 36 12
REMARK SMILES IDX 37 13 78 14 38 15 83 16 77 17 79 18 39 19 82 20 76 21 75 22
REMARK SMILES IDX 40 24 66 25 49 26 65 27 50 28 53 29 64 30 80 31 51 32 52 33
REMARK SMILES IDX 63 35 81 36 54 37 41 38 42 39 47 40 43 41 44 42 46 43 48 44
REMARK SMILES IDX 45 45 67 46 68 47 73 48 69 49 70 50 72 51 74 52 71 53 55 54
REMARK SMILES IDX 56 55 61 56 57 57 58 58 60 59 62 60 59 61 6 62 7 63 8 64
REMARK SMILES IDX 9 65 10 66 14 67 11 68 13 69 12 70 15 71 16 72 17 73 18 75
REMARK SMILES IDX 19 76 30 77 20 78 22 79 31 80 21 81 23 82 24 83 28 84 25 85
REMARK SMILES IDX 27 86 29 87 26 88
REMARK H PARENT 79 23 53 34 17 74
REMARK Flexibility Score: inf
ROOT
ATOM      1  C   UNL A   1      31.241  31.836  26.714  1.00  0.00     0.274 C 
ENDROOT
BRANCH   1   2
ATOM      2  C   UNL A   1      32.295  32.935  26.633  1.00  0.00     0.275 C 
BRANCH   2   3
ATOM      3  O   UNL A   1      32.153  33.973  27.626  1.00  0.00    -0.458 OA
BRANCH   3   4
ATOM      4  C   UNL A   1      33.031  34.508  28.508  1.00  0.00     0.338 C 
ATOM      5  O   UNL A   1      32.838  35.660  28.896  1.00  0.00    -0.246 OA
BRANCH   4   6
ATOM      6  C   UNL A   1      34.283  33.835  28.989  1.00  0.00     0.060 A 
ATOM      7  C   UNL A   1      35.581  34.105  28.552  1.00  0.00     0.016 A 
ATOM      8  C   UNL A   1      34.122  32.823  29.958  1.00  0.00     0.016 A 
ATOM      9  C   UNL A   1      36.690  33.460  29.126  1.00  0.00     0.010 A 
ATOM     10  C   UNL A   1      35.224  32.184  30.543  1.00  0.00     0.010 A 
ATOM     11  C   UNL A   1      36.526  32.509  30.137  1.00  0.00    -0.014 A 
BRANCH  11  12
ATOM     12  C   UNL A   1      37.695  31.751  30.655  1.00  0.00     0.031 A 
ATOM     13  C   UNL A   1      38.252  32.157  31.988  1.00  0.00     0.074 A 
ATOM     14  C   UNL A   1      38.211  30.683  30.009  1.00  0.00     0.049 A 
ATOM     15  N   UNL A   1      39.196  31.583  32.685  1.00  0.00    -0.248 NA
ATOM     16  C   UNL A   1      37.622  33.309  32.656  1.00  0.00     0.031 C 
ATOM     17  C   UNL A   1      37.673  30.080  28.793  1.00  0.00     0.029 A 
ATOM     18  N   UNL A   1      39.319  29.911  30.277  1.00  0.00    -0.354 N 
ATOM     19  C   UNL A   1      39.183  32.224  33.914  1.00  0.00     0.074 A 
ATOM     20  C   UNL A   1      38.240  33.314  33.828  1.00  0.00     0.031 C 
ATOM     21  C   UNL A   1      38.499  29.109  28.363  1.00  0.00     0.029 A 
ATOM     22  C   UNL A   1      39.620  29.000  29.284  1.00  0.00     0.049 A 
ATOM     23  H   UNL A   1      39.848  29.999  31.102  1.00  0.00     0.167 HD
ATOM     24  C   UNL A   1      39.839  31.871  35.042  1.00  0.00     0.037 A 
ATOM     25  C   UNL A   1      40.688  28.191  29.140  1.00  0.00     0.037 A 
ATOM     26  C   UNL A   1      40.810  30.814  35.104  1.00  0.00     0.049 A 
ATOM     27  C   UNL A   1      41.634  28.059  30.295  1.00  0.00     0.074 A 
ATOM     28  C   UNL A   1      41.527  30.366  36.196  1.00  0.00     0.029 A 
ATOM     29  N   UNL A   1      41.220  30.063  34.013  1.00  0.00    -0.354 N 
ATOM     30  N   UNL A   1      41.590  28.653  31.459  1.00  0.00    -0.248 NA
ATOM     31  C   UNL A   1      42.719  27.081  30.146  1.00  0.00     0.031 C 
ATOM     32  C   UNL A   1      42.420  29.385  35.753  1.00  0.00     0.029 A 
ATOM     33  C   UNL A   1      42.217  29.185  34.397  1.00  0.00     0.049 A 
ATOM     34  H   UNL A   1      40.856  30.142  33.102  1.00  0.00     0.167 HD
ATOM     35  C   UNL A   1      42.592  28.067  32.214  1.00  0.00     0.074 A 
ATOM     36  C   UNL A   1      43.259  27.107  31.356  1.00  0.00     0.031 C 
ATOM     37  C   UNL A   1      42.891  28.263  33.520  1.00  0.00     0.037 A 
BRANCH  24  38
ATOM     38  C   UNL A   1      39.488  32.604  36.297  1.00  0.00     0.057 A 
ATOM     39  C   UNL A   1      38.450  32.169  37.125  1.00  0.00     0.134 A 
ATOM     40  C   UNL A   1      40.157  33.785  36.654  1.00  0.00     0.134 A 
ATOM     41  F   UNL A   1      37.777  31.044  36.840  1.00  0.00    -0.206 F 
ATOM     42  C   UNL A   1      38.077  32.891  38.260  1.00  0.00     0.040 A 
ATOM     43  C   UNL A   1      39.805  34.504  37.796  1.00  0.00     0.040 A 
ATOM     44  F   UNL A   1      41.175  34.242  35.909  1.00  0.00    -0.206 F 
ATOM     45  C   UNL A   1      38.755  34.062  38.597  1.00  0.00     0.006 A 
ENDBRANCH  24  38
BRANCH  25  46
ATOM     46  C   UNL A   1      40.965  27.438  27.889  1.00  0.00     0.057 A 
ATOM     47  C   UNL A   1      40.416  26.161  27.709  1.00  0.00     0.134 A 
ATOM     48  C   UNL A   1      41.691  27.974  26.824  1.00  0.00     0.134 A 
ATOM     49  F   UNL A   1      39.663  25.613  28.675  1.00  0.00    -0.206 F 
ATOM     50  C   UNL A   1      40.641  25.411  26.553  1.00  0.00     0.040 A 
ATOM     51  C   UNL A   1      41.901  27.248  25.647  1.00  0.00     0.040 A 
ATOM     52  F   UNL A   1      42.182  29.218  26.902  1.00  0.00    -0.206 F 
ATOM     53  C   UNL A   1      41.392  25.956  25.516  1.00  0.00     0.006 A 
ENDBRANCH  25  46
BRANCH  37  54
ATOM     54  C   UNL A   1      43.958  27.394  34.103  1.00  0.00     0.057 A 
ATOM     55  C   UNL A   1      43.628  26.151  34.657  1.00  0.00     0.134 A 
ATOM     56  C   UNL A   1      45.299  27.789  34.135  1.00  0.00     0.134 A 
ATOM     57  F   UNL A   1      42.358  25.716  34.651  1.00  0.00    -0.206 F 
ATOM     58  C   UNL A   1      44.595  25.337  35.241  1.00  0.00     0.040 A 
ATOM     59  C   UNL A   1      46.281  26.968  34.687  1.00  0.00     0.040 A 
ATOM     60  F   UNL A   1      45.677  28.955  33.591  1.00  0.00    -0.206 F 
ATOM     61  C   UNL A   1      45.927  25.742  35.251  1.00  0.00     0.006 A 
ENDBRANCH  37  54
ENDBRANCH  11  12
ENDBRANCH   4   6
ENDBRANCH   3   4
ENDBRANCH   2   3
ENDBRANCH   1   2
BRANCH   1  62
ATOM     62  O   UNL A   1      31.612  30.728  25.896  1.00  0.00    -0.462 OA
BRANCH  62  63
ATOM     63  C   UNL A   1      31.986  29.568  26.507  1.00  0.00     0.310 C 
ATOM     64  O   UNL A   1      32.644  29.513  27.541  1.00  0.00    -0.252 OA
BRANCH  63  65
ATOM     65  C   UNL A   1      31.403  28.364  25.764  1.00  0.00     0.115 C 
ATOM     66  C   UNL A   1      31.649  28.519  24.261  1.00  0.00     0.043 C 
ATOM     67  C   UNL A   1      31.951  27.033  26.301  1.00  0.00     0.097 C 
ATOM     68  C   UNL A   1      33.046  28.158  23.859  1.00  0.00    -0.030 C 
ATOM     69  C   UNL A   1      33.427  26.833  25.951  1.00  0.00     0.041 C 
ATOM     70  C   UNL A   1      33.850  27.427  24.639  1.00  0.00    -0.030 C 
BRANCH  67  71
ATOM     71  C   UNL A   1      30.978  25.846  26.126  1.00  0.00     0.224 C 
ATOM     72  O   UNL A   1      29.886  25.892  26.712  1.00  0.00    -0.275 OA
ATOM     73  N   UNL A   1      31.144  24.756  25.336  1.00  0.00    -0.344 N 
ATOM     74  H   UNL A   1      30.390  24.123  25.370  1.00  0.00     0.164 HD
BRANCH  73  75
ATOM     75  C   UNL A   1      32.215  24.338  24.448  1.00  0.00     0.172 C 
ATOM     76  C   UNL A   1      31.737  23.936  23.060  1.00  0.00     0.037 C 
ATOM     77  C   UNL A   1      33.096  23.209  24.987  1.00  0.00     0.249 C 
ATOM     78  C   UNL A   1      32.960  23.933  22.160  1.00  0.00     0.025 C 
ATOM     79  N   UNL A   1      34.251  23.051  24.201  1.00  0.00    -0.308 N 
ATOM     80  O   UNL A   1      32.841  22.667  26.055  1.00  0.00    -0.272 OA
ATOM     81  C   UNL A   1      34.149  23.162  22.745  1.00  0.00     0.126 C 
BRANCH  79  82
ATOM     82  C   UNL A   1      35.513  22.684  24.788  1.00  0.00     0.080 A 
ATOM     83  C   UNL A   1      35.997  21.370  24.626  1.00  0.00     0.029 A 
ATOM     84  C   UNL A   1      36.377  23.602  25.403  1.00  0.00     0.146 A 
ATOM     85  C   UNL A   1      37.300  21.015  25.002  1.00  0.00     0.002 A 
ATOM     86  C   UNL A   1      37.677  23.255  25.773  1.00  0.00     0.041 A 
ATOM     87  F   UNL A   1      35.963  24.827  25.750  1.00  0.00    -0.205 F 
ATOM     88  C   UNL A   1      38.148  21.965  25.560  1.00  0.00     0.003 A 
ENDBRANCH  79  82
ENDBRANCH  73  75
ENDBRANCH  67  71
ENDBRANCH  63  65
ENDBRANCH  62  63
ENDBRANCH   1  62
TORSDOF 14
ENDMDL
MODEL 2
REMARK VINA RESULT:     -12.3      3.877      8.739
REMARK SMILES O=C(OCCOC(=O)[C@H]1CC=CC[C@@H]1C(=O)N[C@@H]1CCCN(c2ccccc2F)C1=O)c1ccc(-c2c3nc(c(-c4c(F)cccc4F)c4ccc([nH]4)c(-c4c(F)cccc4F)c4nc(c(-c5c(F)cccc5F)c5ccc2[nH]5)C=C4)C=C3)cc1
REMARK SMILES IDX 5 1 4 2 3 3 2 4 1 5 32 6 33 7 85 8 34 9 84 10 35 11 36 12
REMARK SMILES IDX 37 13 78 14 38 15 83 16 77 17 79 18 39 19 82 20 76 21 75 22
REMARK SMILES IDX 40 24 66 25 49 26 65 27 50 28 53 29 64 30 80 31 51 32 52 33
REMARK SMILES IDX 63 35 81 36 54 37 41 38 42 39 47 40 43 41 44 42 46 43 48 44
REMARK SMILES IDX 45 45 67 46 68 47 73 48 69 49 70 50 72 51 74 52 71 53 55 54
REMARK SMILES IDX 56 55 61 56 57 57 58 58 60 59 62 60 59 61 6 62 7 63 8 64
REMARK SMILES IDX 9 65 10 66 14 67 11 68 13 69 12 70 15 71 16 72 17 73 18 75
REMARK SMILES IDX 19 76 30 77 20 78 22 79 31 80 21 81 23 82 24 83 28 84 25 85
REMARK SMILES IDX 27 86 29 87 26 88
REMARK H PARENT 79 23 53 34 17 74
REMARK Flexibility Score: inf
ROOT
ATOM      1  C   UNL A   1      36.163  20.604  25.235  1.00  0.00     0.274 C 
ENDROOT
BRANCH   1   2
ATOM      2  C   UNL A   1      37.368  21.346  24.667  1.00  0.00     0.275 C 
BRANCH   2   3
ATOM      3  O   UNL A   1      37.809  22.467  25.463  1.00  0.00    -0.458 OA
BRANCH   3   4
ATOM      4  C   UNL A   1      38.923  22.666  26.207  1.00  0.00     0.338 C 
ATOM      5  O   UNL A   1      39.641  21.698  26.455  1.00  0.00    -0.246 OA
BRANCH   4   6
ATOM      6  C   UNL A   1      39.312  23.973  26.836  1.00  0.00     0.060 A 
ATOM      7  C   UNL A   1      39.064  24.356  28.155  1.00  0.00     0.016 A 
ATOM      8  C   UNL A   1      39.973  24.901  26.004  1.00  0.00     0.016 A 
ATOM      9  C   UNL A   1      39.538  25.580  28.658  1.00  0.00     0.010 A 
ATOM     10  C   UNL A   1      40.460  26.117  26.502  1.00  0.00     0.010 A 
ATOM     11  C   UNL A   1      40.255  26.463  27.845  1.00  0.00    -0.014 A 
BRANCH  11  12
ATOM     12  C   UNL A   1      40.651  27.802  28.355  1.00  0.00     0.031 A 
ATOM     13  C   UNL A   1      42.113  28.056  28.579  1.00  0.00     0.074 A 
ATOM     14  C   UNL A   1      39.760  28.798  28.545  1.00  0.00     0.049 A 
ATOM     15  N   UNL A   1      42.704  29.170  28.918  1.00  0.00    -0.248 NA
ATOM     16  C   UNL A   1      43.037  26.937  28.319  1.00  0.00     0.031 C 
ATOM     17  C   UNL A   1      38.339  28.746  28.217  1.00  0.00     0.029 A 
ATOM     18  N   UNL A   1      39.912  30.060  29.076  1.00  0.00    -0.354 N 
ATOM     19  C   UNL A   1      44.061  28.919  28.790  1.00  0.00     0.074 A 
ATOM     20  C   UNL A   1      44.217  27.518  28.477  1.00  0.00     0.031 C 
ATOM     21  C   UNL A   1      37.731  29.867  28.645  1.00  0.00     0.029 A 
ATOM     22  C   UNL A   1      38.723  30.736  29.260  1.00  0.00     0.049 A 
ATOM     23  H   UNL A   1      40.789  30.445  29.302  1.00  0.00     0.167 HD
ATOM     24  C   UNL A   1      45.079  29.807  28.842  1.00  0.00     0.037 A 
ATOM     25  C   UNL A   1      38.476  31.912  29.871  1.00  0.00     0.037 A 
ATOM     26  C   UNL A   1      44.917  31.188  29.201  1.00  0.00     0.049 A 
ATOM     27  C   UNL A   1      39.645  32.767  30.254  1.00  0.00     0.074 A 
ATOM     28  C   UNL A   1      45.878  32.176  29.275  1.00  0.00     0.029 A 
ATOM     29  N   UNL A   1      43.713  31.764  29.575  1.00  0.00    -0.354 N 
ATOM     30  N   UNL A   1      40.920  32.523  30.100  1.00  0.00    -0.248 NA
ATOM     31  C   UNL A   1      39.336  34.091  30.809  1.00  0.00     0.031 C 
ATOM     32  C   UNL A   1      45.266  33.337  29.759  1.00  0.00     0.029 A 
ATOM     33  C   UNL A   1      43.914  33.085  29.930  1.00  0.00     0.049 A 
ATOM     34  H   UNL A   1      42.843  31.301  29.587  1.00  0.00     0.167 HD
ATOM     35  C   UNL A   1      41.569  33.691  30.465  1.00  0.00     0.074 A 
ATOM     36  C   UNL A   1      40.546  34.623  30.897  1.00  0.00     0.031 C 
ATOM     37  C   UNL A   1      42.888  33.984  30.390  1.00  0.00     0.037 A 
BRANCH  24  38
ATOM     38  C   UNL A   1      46.438  29.314  28.457  1.00  0.00     0.057 A 
ATOM     39  C   UNL A   1      47.328  28.822  29.416  1.00  0.00     0.134 A 
ATOM     40  C   UNL A   1      46.881  29.381  27.128  1.00  0.00     0.134 A 
ATOM     41  F   UNL A   1      46.960  28.727  30.702  1.00  0.00    -0.206 F 
ATOM     42  C   UNL A   1      48.621  28.426  29.068  1.00  0.00     0.040 A 
ATOM     43  C   UNL A   1      48.164  28.972  26.767  1.00  0.00     0.040 A 
ATOM     44  F   UNL A   1      46.065  29.827  26.160  1.00  0.00    -0.206 F 
ATOM     45  C   UNL A   1      49.041  28.501  27.741  1.00  0.00     0.006 A 
ENDBRANCH  24  38
BRANCH  25  46
ATOM     46  C   UNL A   1      37.101  32.384  30.183  1.00  0.00     0.057 A 
ATOM     47  C   UNL A   1      36.386  33.121  29.229  1.00  0.00     0.134 A 
ATOM     48  C   UNL A   1      36.437  32.061  31.367  1.00  0.00     0.134 A 
ATOM     49  F   UNL A   1      36.950  33.417  28.049  1.00  0.00    -0.206 F 
ATOM     50  C   UNL A   1      35.091  33.586  29.468  1.00  0.00     0.040 A 
ATOM     51  C   UNL A   1      35.129  32.494  31.610  1.00  0.00     0.040 A 
ATOM     52  F   UNL A   1      37.038  31.298  32.290  1.00  0.00    -0.206 F 
ATOM     53  C   UNL A   1      34.459  33.275  30.668  1.00  0.00     0.006 A 
ENDBRANCH  25  46
BRANCH  37  54
ATOM     54  C   UNL A   1      43.288  35.379  30.745  1.00  0.00     0.057 A 
ATOM     55  C   UNL A   1      43.373  36.362  29.750  1.00  0.00     0.134 A 
ATOM     56  C   UNL A   1      43.607  35.748  32.055  1.00  0.00     0.134 A 
ATOM     57  F   UNL A   1      43.075  36.069  28.475  1.00  0.00    -0.206 F 
ATOM     58  C   UNL A   1      43.779  37.661  30.045  1.00  0.00     0.040 A 
ATOM     59  C   UNL A   1      43.983  37.053  32.369  1.00  0.00     0.040 A 
ATOM     60  F   UNL A   1      43.514  34.856  33.054  1.00  0.00    -0.206 F 
ATOM     61  C   UNL A   1      44.079  38.011  31.359  1.00  0.00     0.006 A 
ENDBRANCH  37  54
ENDBRANCH  11  12
ENDBRANCH   4   6
ENDBRANCH   3   4
ENDBRANCH   2   3
ENDBRANCH   1   2
BRANCH   1  62
ATOM     62  O   UNL A   1      35.048  20.717  24.355  1.00  0.00    -0.462 OA
BRANCH  62  63
ATOM     63  C   UNL A   1      33.800  20.800  24.897  1.00  0.00     0.310 C 
ATOM     64  O   UNL A   1      33.406  20.111  25.832  1.00  0.00    -0.252 OA
BRANCH  63  65
ATOM     65  C   UNL A   1      33.002  21.921  24.227  1.00  0.00     0.115 C 
ATOM     66  C   UNL A   1      31.907  22.412  25.177  1.00  0.00     0.043 C 
ATOM     67  C   UNL A   1      33.907  23.069  23.751  1.00  0.00     0.097 C 
ATOM     68  C   UNL A   1      32.425  23.340  26.232  1.00  0.00    -0.030 C 
ATOM     69  C   UNL A   1      34.494  23.864  24.920  1.00  0.00     0.041 C 
ATOM     70  C   UNL A   1      33.604  23.963  26.125  1.00  0.00    -0.030 C 
BRANCH  67  71
ATOM     71  C   UNL A   1      33.345  23.840  22.536  1.00  0.00     0.224 C 
ATOM     72  O   UNL A   1      33.654  23.448  21.401  1.00  0.00    -0.275 OA
ATOM     73  N   UNL A   1      32.476  24.881  22.553  1.00  0.00    -0.344 N 
ATOM     74  H   UNL A   1      32.243  25.217  21.657  1.00  0.00     0.164 HD
BRANCH  73  75
ATOM     75  C   UNL A   1      31.821  25.599  23.632  1.00  0.00     0.172 C 
ATOM     76  C   UNL A   1      30.302  25.538  23.574  1.00  0.00     0.037 C 
ATOM     77  C   UNL A   1      32.227  27.068  23.770  1.00  0.00     0.249 C 
ATOM     78  C   UNL A   1      29.794  25.956  24.942  1.00  0.00     0.025 C 
ATOM     79  N   UNL A   1      31.763  27.609  24.981  1.00  0.00    -0.308 N 
ATOM     80  O   UNL A   1      32.989  27.588  22.964  1.00  0.00    -0.272 OA
ATOM     81  C   UNL A   1      30.427  27.253  25.461  1.00  0.00     0.126 C 
BRANCH  79  82
ATOM     82  C   UNL A   1      32.532  28.583  25.712  1.00  0.00     0.080 A 
ATOM     83  C   UNL A   1      32.005  29.875  25.911  1.00  0.00     0.029 A 
ATOM     84  C   UNL A   1      33.733  28.283  26.371  1.00  0.00     0.146 A 
ATOM     85  C   UNL A   1      32.616  30.792  26.777  1.00  0.00     0.002 A 
ATOM     86  C   UNL A   1      34.341  29.191  27.240  1.00  0.00     0.041 A 
ATOM     87  F   UNL A   1      34.402  27.150  26.126  1.00  0.00    -0.205 F 
ATOM     88  C   UNL A   1      33.777  30.443  27.456  1.00  0.00     0.003 A 
ENDBRANCH  79  82
ENDBRANCH  73  75
ENDBRANCH  67  71
ENDBRANCH  63  65
ENDBRANCH  62  63
ENDBRANCH   1  62
TORSDOF 14
ENDMDL
MODEL 3
REMARK VINA RESULT:     -12.2      4.364      9.949
REMARK SMILES O=C(OCCOC(=O)[C@H]1CC=CC[C@@H]1C(=O)N[C@@H]1CCCN(c2ccccc2F)C1=O)c1ccc(-c2c3nc(c(-c4c(F)cccc4F)c4ccc([nH]4)c(-c4c(F)cccc4F)c4nc(c(-c5c(F)cccc5F)c5ccc2[nH]5)C=C4)C=C3)cc1
REMARK SMILES IDX 5 1 4 2 3 3 2 4 1 5 32 6 33 7 85 8 34 9 84 10 35 11 36 12
REMARK SMILES IDX 37 13 78 14 38 15 83 16 77 17 79 18 39 19 82 20 76 21 75 22
REMARK SMILES IDX 40 24 66 25 49 26 65 27 50 28 53 29 64 30 80 31 51 32 52 33
REMARK SMILES IDX 63 35 81 36 54 37 41 38 42 39 47 40 43 41 44 42 46 43 48 44
REMARK SMILES IDX 45 45 67 46 68 47 73 48 69 49 70 50 72 51 74 52 71 53 55 54
REMARK SMILES IDX 56 55 61 56 57 57 58 58 60 59 62 60 59 61 6 62 7 63 8 64
REMARK SMILES IDX 9 65 10 66 14 67 11 68 13 69 12 70 15 71 16 72 17 73 18 75
REMARK SMILES IDX 19 76 30 77 20 78 22 79 31 80 21 81 23 82 24 83 28 84 25 85
REMARK SMILES IDX 27 86 29 87 26 88
REMARK H PARENT 79 23 53 34 17 74
REMARK Flexibility Score: inf
ROOT
ATOM      1  C   UNL A   1      38.159  19.912  24.649  1.00  0.00     0.274 C 
ENDROOT
BRANCH   1   2
ATOM      2  C   UNL A   1      38.950  19.298  25.798  1.00  0.00     0.275 C 
BRANCH   2   3
ATOM      3  O   UNL A   1      40.348  19.081  25.512  1.00  0.00    -0.458 OA
BRANCH   3   4
ATOM      4  C   UNL A   1      41.475  19.450  26.168  1.00  0.00     0.338 C 
ATOM      5  O   UNL A   1      42.275  18.573  26.492  1.00  0.00    -0.246 OA
BRANCH   4   6
ATOM      6  C   UNL A   1      41.788  20.848  26.615  1.00  0.00     0.060 A 
ATOM      7  C   UNL A   1      41.919  21.278  27.937  1.00  0.00     0.016 A 
ATOM      8  C   UNL A   1      41.946  21.814  25.599  1.00  0.00     0.016 A 
ATOM      9  C   UNL A   1      42.287  22.602  28.237  1.00  0.00     0.010 A 
ATOM     10  C   UNL A   1      42.324  23.132  25.890  1.00  0.00     0.010 A 
ATOM     11  C   UNL A   1      42.511  23.535  27.220  1.00  0.00    -0.014 A 
BRANCH  11  12
ATOM     12  C   UNL A   1      42.786  24.958  27.552  1.00  0.00     0.031 A 
ATOM     13  C   UNL A   1      44.187  25.458  27.358  1.00  0.00     0.074 A 
ATOM     14  C   UNL A   1      41.816  25.812  27.942  1.00  0.00     0.049 A 
ATOM     15  N   UNL A   1      44.641  26.677  27.481  1.00  0.00    -0.248 NA
ATOM     16  C   UNL A   1      45.191  24.483  26.897  1.00  0.00     0.031 C 
ATOM     17  C   UNL A   1      40.390  25.507  28.017  1.00  0.00     0.029 A 
ATOM     18  N   UNL A   1      41.878  27.121  28.363  1.00  0.00    -0.354 N 
ATOM     19  C   UNL A   1      45.939  26.635  26.996  1.00  0.00     0.074 A 
ATOM     20  C   UNL A   1      46.251  25.255  26.704  1.00  0.00     0.031 C 
ATOM     21  C   UNL A   1      39.729  26.549  28.553  1.00  0.00     0.029 A 
ATOM     22  C   UNL A   1      40.679  27.613  28.841  1.00  0.00     0.049 A 
ATOM     23  H   UNL A   1      42.702  27.659  28.327  1.00  0.00     0.167 HD
ATOM     24  C   UNL A   1      46.762  27.674  26.734  1.00  0.00     0.037 A 
ATOM     25  C   UNL A   1      40.400  28.781  29.452  1.00  0.00     0.037 A 
ATOM     26  C   UNL A   1      46.460  29.037  27.072  1.00  0.00     0.049 A 
ATOM     27  C   UNL A   1      41.459  29.840  29.469  1.00  0.00     0.074 A 
ATOM     28  C   UNL A   1      47.219  30.168  26.845  1.00  0.00     0.029 A 
ATOM     29  N   UNL A   1      45.316  29.443  27.741  1.00  0.00    -0.354 N 
ATOM     30  N   UNL A   1      42.672  29.790  28.981  1.00  0.00    -0.248 NA
ATOM     31  C   UNL A   1      41.080  31.140  30.038  1.00  0.00     0.031 C 
ATOM     32  C   UNL A   1      46.562  31.253  27.433  1.00  0.00     0.029 A 
ATOM     33  C   UNL A   1      45.369  30.804  27.978  1.00  0.00     0.049 A 
ATOM     34  H   UNL A   1      44.576  28.851  28.007  1.00  0.00     0.167 HD
ATOM     35  C   UNL A   1      43.178  31.073  29.111  1.00  0.00     0.074 A 
ATOM     36  C   UNL A   1      42.158  31.863  29.771  1.00  0.00     0.031 C 
ATOM     37  C   UNL A   1      44.359  31.564  28.666  1.00  0.00     0.037 A 
BRANCH  24  38
ATOM     38  C   UNL A   1      48.037  27.373  26.012  1.00  0.00     0.057 A 
ATOM     39  C   UNL A   1      48.094  27.368  24.615  1.00  0.00     0.134 A 
ATOM     40  C   UNL A   1      49.202  27.035  26.714  1.00  0.00     0.134 A 
ATOM     41  F   UNL A   1      47.014  27.688  23.888  1.00  0.00    -0.206 F 
ATOM     42  C   UNL A   1      49.265  27.020  23.940  1.00  0.00     0.040 A 
ATOM     43  C   UNL A   1      50.383  26.704  26.050  1.00  0.00     0.040 A 
ATOM     44  F   UNL A   1      49.215  27.042  28.057  1.00  0.00    -0.206 F 
ATOM     45  C   UNL A   1      50.413  26.687  24.657  1.00  0.00     0.006 A 
ENDBRANCH  24  38
BRANCH  25  46
ATOM     46  C   UNL A   1      39.095  29.054  30.110  1.00  0.00     0.057 A 
ATOM     47  C   UNL A   1      38.039  29.595  29.364  1.00  0.00     0.134 A 
ATOM     48  C   UNL A   1      38.830  28.719  31.439  1.00  0.00     0.134 A 
ATOM     49  F   UNL A   1      38.215  29.888  28.067  1.00  0.00    -0.206 F 
ATOM     50  C   UNL A   1      36.793  29.868  29.931  1.00  0.00     0.040 A 
ATOM     51  C   UNL A   1      37.577  28.958  32.014  1.00  0.00     0.040 A 
ATOM     52  F   UNL A   1      39.773  28.131  32.187  1.00  0.00    -0.206 F 
ATOM     53  C   UNL A   1      36.560  29.552  31.265  1.00  0.00     0.006 A 
ENDBRANCH  25  46
BRANCH  37  54
ATOM     54  C   UNL A   1      44.586  33.030  28.846  1.00  0.00     0.057 A 
ATOM     55  C   UNL A   1      44.282  33.922  27.810  1.00  0.00     0.134 A 
ATOM     56  C   UNL A   1      45.121  33.557  30.026  1.00  0.00     0.134 A 
ATOM     57  F   UNL A   1      43.763  33.476  26.656  1.00  0.00    -0.206 F 
ATOM     58  C   UNL A   1      44.519  35.289  27.936  1.00  0.00     0.040 A 
ATOM     59  C   UNL A   1      45.331  34.927  30.176  1.00  0.00     0.040 A 
ATOM     60  F   UNL A   1      45.403  32.754  31.063  1.00  0.00    -0.206 F 
ATOM     61  C   UNL A   1      45.040  35.795  29.124  1.00  0.00     0.006 A 
ENDBRANCH  37  54
ENDBRANCH  11  12
ENDBRANCH   4   6
ENDBRANCH   3   4
ENDBRANCH   2   3
ENDBRANCH   1   2
BRANCH   1  62
ATOM     62  O   UNL A   1      36.989  20.563  25.140  1.00  0.00    -0.462 OA
BRANCH  62  63
ATOM     63  C   UNL A   1      36.785  21.869  24.806  1.00  0.00     0.310 C 
ATOM     64  O   UNL A   1      37.639  22.745  24.890  1.00  0.00    -0.252 OA
BRANCH  63  65
ATOM     65  C   UNL A   1      35.375  22.058  24.242  1.00  0.00     0.115 C 
ATOM     66  C   UNL A   1      34.378  21.234  25.060  1.00  0.00     0.043 C 
ATOM     67  C   UNL A   1      34.975  23.540  24.172  1.00  0.00     0.097 C 
ATOM     68  C   UNL A   1      34.006  21.890  26.354  1.00  0.00    -0.030 C 
ATOM     69  C   UNL A   1      34.756  24.145  25.561  1.00  0.00     0.041 C 
ATOM     70  C   UNL A   1      34.209  23.192  26.584  1.00  0.00    -0.030 C 
BRANCH  67  71
ATOM     71  C   UNL A   1      33.956  23.856  23.055  1.00  0.00     0.224 C 
ATOM     72  O   UNL A   1      34.156  23.378  21.928  1.00  0.00    -0.275 OA
ATOM     73  N   UNL A   1      32.801  24.558  23.169  1.00  0.00    -0.344 N 
ATOM     74  H   UNL A   1      32.297  24.631  22.326  1.00  0.00     0.164 HD
BRANCH  73  75
ATOM     75  C   UNL A   1      32.160  25.222  24.290  1.00  0.00     0.172 C 
ATOM     76  C   UNL A   1      30.708  24.813  24.495  1.00  0.00     0.037 C 
ATOM     77  C   UNL A   1      32.216  26.751  24.253  1.00  0.00     0.249 C 
ATOM     78  C   UNL A   1      30.324  25.251  25.898  1.00  0.00     0.025 C 
ATOM     79  N   UNL A   1      31.820  27.301  25.484  1.00  0.00    -0.308 N 
ATOM     80  O   UNL A   1      32.702  27.339  23.295  1.00  0.00    -0.272 OA
ATOM     81  C   UNL A   1      30.696  26.706  26.207  1.00  0.00     0.126 C 
BRANCH  79  82
ATOM     82  C   UNL A   1      32.431  28.497  26.003  1.00  0.00     0.080 A 
ATOM     83  C   UNL A   1      31.696  29.700  26.021  1.00  0.00     0.029 A 
ATOM     84  C   UNL A   1      33.685  28.515  26.632  1.00  0.00     0.146 A 
ATOM     85  C   UNL A   1      32.166  30.838  26.691  1.00  0.00     0.002 A 
ATOM     86  C   UNL A   1      34.154  29.644  27.306  1.00  0.00     0.041 A 
ATOM     87  F   UNL A   1      34.531  27.482  26.534  1.00  0.00    -0.205 F 
ATOM     88  C   UNL A   1      33.389  30.804  27.350  1.00  0.00     0.003 A 
ENDBRANCH  79  82
ENDBRANCH  73  75
ENDBRANCH  67  71
ENDBRANCH  63  65
ENDBRANCH  62  63
ENDBRANCH   1  62
TORSDOF 14
ENDMDL
