MODEL 1
REMARK VINA RESULT:     -11.5      0.000      0.000
REMARK SMILES Cc1c(C[C@@H](C)O)c(=O)oc2cc(OCC(=O)OCCOC(=O)c3ccc(-c4c5nc(c(-c6c(F)cccc6F)c6ccc([nH]6)c(-c6c(F)cccc6F)c6nc(c(-c7c(F)cccc7F)c7ccc4[nH]7)C=C6)C=C5)cc3)ccc12
REMARK SMILES IDX 18 1 16 2 17 3 15 4 14 5 13 6 1 7 2 8 3 9 80 10 8 11 11 12
REMARK SMILES IDX 79 13 9 14 10 15 12 16 78 17 4 18 5 19 6 20 7 21 19 23 20 24
REMARK SMILES IDX 21 25 22 26 23 27 24 28 25 29 77 30 26 31 76 32 27 33 28 34
REMARK SMILES IDX 29 35 70 36 30 37 75 38 69 39 71 40 31 41 74 42 68 43 67 44
REMARK SMILES IDX 32 46 58 47 41 48 57 49 42 50 45 51 56 52 72 53 43 54 44 55
REMARK SMILES IDX 55 57 73 58 46 59 33 60 34 61 39 62 35 63 36 64 38 65 40 66
REMARK SMILES IDX 37 67 59 68 60 69 65 70 61 71 62 72 64 73 66 74 63 75 47 76
REMARK SMILES IDX 48 77 53 78 49 79 50 80 52 81 54 82 51 83
REMARK H PARENT 7 22 71 45 45 56
REMARK Flexibility Score: inf
ROOT
ATOM      1  O   UNL A   1      41.121  20.762  26.677  1.00  0.00    -0.460 OA
ENDROOT
BRANCH   1   2
ATOM      2  C   UNL A   1      39.964  20.357  26.089  1.00  0.00     0.344 C 
ATOM      3  O   UNL A   1      39.723  19.207  25.733  1.00  0.00    -0.248 OA
BRANCH   2   4
ATOM      4  C   UNL A   1      38.968  21.496  25.880  1.00  0.00     0.351 C 
BRANCH   4   5
ATOM      5  O   UNL A   1      37.832  21.277  25.063  1.00  0.00    -0.482 OA
BRANCH   5   6
ATOM      6  C   UNL A   1      36.965  22.308  24.844  1.00  0.00     0.123 A 
ATOM      7  C   UNL A   1      33.929  26.456  25.723  1.00  0.00     0.046 C 
ATOM      8  C   UNL A   1      34.067  25.489  24.576  1.00  0.00    -0.030 A 
ATOM      9  C   UNL A   1      33.290  25.496  23.470  1.00  0.00     0.044 A 
ATOM     10  C   UNL A   1      35.092  24.437  24.709  1.00  0.00     0.021 A 
ATOM     11  C   UNL A   1      33.594  24.602  22.313  1.00  0.00     0.339 A 
ATOM     12  C   UNL A   1      35.423  23.678  23.595  1.00  0.00     0.142 A 
ATOM     13  C   UNL A   1      35.725  24.112  25.913  1.00  0.00     0.016 A 
ATOM     14  O   UNL A   1      32.893  24.587  21.307  1.00  0.00    -0.246 OA
ATOM     15  O   UNL A   1      34.769  23.872  22.371  1.00  0.00    -0.422 OA
ATOM     16  C   UNL A   1      36.370  22.647  23.639  1.00  0.00     0.094 A 
ATOM     17  C   UNL A   1      36.637  23.049  25.980  1.00  0.00     0.047 A 
BRANCH   9  18
ATOM     18  C   UNL A   1      32.087  26.391  23.252  1.00  0.00     0.075 C 
BRANCH  18  19
ATOM     19  C   UNL A   1      32.422  27.712  22.531  1.00  0.00     0.116 C 
ATOM     20  C   UNL A   1      32.972  28.796  23.455  1.00  0.00     0.038 C 
BRANCH  19  21
ATOM     21  O   UNL A   1      33.404  27.456  21.523  1.00  0.00    -0.393 OA
ATOM     22  H   UNL A   1      34.219  27.937  21.736  1.00  0.00     0.210 HD
ENDBRANCH  19  21
ENDBRANCH  18  19
ENDBRANCH   9  18
ENDBRANCH   5   6
ENDBRANCH   4   5
ENDBRANCH   2   4
ENDBRANCH   1   2
BRANCH   1  23
ATOM     23  C   UNL A   1      42.334  20.200  26.136  1.00  0.00     0.274 C 
BRANCH  23  24
ATOM     24  C   UNL A   1      43.271  21.306  25.658  1.00  0.00     0.275 C 
BRANCH  24  25
ATOM     25  O   UNL A   1      42.506  22.489  25.367  1.00  0.00    -0.458 OA
BRANCH  25  26
ATOM     26  C   UNL A   1      43.226  23.616  25.187  1.00  0.00     0.338 C 
ATOM     27  O   UNL A   1      44.109  23.791  24.354  1.00  0.00    -0.246 OA
BRANCH  26  28
ATOM     28  C   UNL A   1      42.789  24.666  26.133  1.00  0.00     0.060 A 
ATOM     29  C   UNL A   1      43.367  25.940  26.130  1.00  0.00     0.016 A 
ATOM     30  C   UNL A   1      41.865  24.328  27.124  1.00  0.00     0.016 A 
ATOM     31  C   UNL A   1      43.097  26.832  27.171  1.00  0.00     0.010 A 
ATOM     32  C   UNL A   1      41.530  25.254  28.114  1.00  0.00     0.010 A 
ATOM     33  C   UNL A   1      42.165  26.504  28.167  1.00  0.00    -0.014 A 
BRANCH  33  34
ATOM     34  C   UNL A   1      41.831  27.463  29.254  1.00  0.00     0.031 A 
ATOM     35  C   UNL A   1      42.595  27.456  30.551  1.00  0.00     0.074 A 
ATOM     36  C   UNL A   1      40.802  28.317  29.091  1.00  0.00     0.049 A 
ATOM     37  N   UNL A   1      42.341  28.103  31.662  1.00  0.00    -0.248 NA
ATOM     38  C   UNL A   1      43.796  26.608  30.612  1.00  0.00     0.031 C 
ATOM     39  C   UNL A   1      39.984  28.439  27.883  1.00  0.00     0.029 A 
ATOM     40  N   UNL A   1      40.259  29.235  29.955  1.00  0.00    -0.354 N 
ATOM     41  C   UNL A   1      43.326  27.715  32.563  1.00  0.00     0.074 A 
ATOM     42  C   UNL A   1      44.182  26.774  31.870  1.00  0.00     0.031 C 
ATOM     43  C   UNL A   1      39.052  29.383  28.077  1.00  0.00     0.029 A 
ATOM     44  C   UNL A   1      39.161  29.883  29.443  1.00  0.00     0.049 A 
ATOM     45  H   UNL A   1      40.620  29.411  30.854  1.00  0.00     0.167 HD
ATOM     46  C   UNL A   1      43.496  28.103  33.850  1.00  0.00     0.037 A 
ATOM     47  C   UNL A   1      38.306  30.749  30.017  1.00  0.00     0.037 A 
ATOM     48  C   UNL A   1      42.659  29.053  34.535  1.00  0.00     0.049 A 
ATOM     49  C   UNL A   1      38.493  31.133  31.453  1.00  0.00     0.074 A 
ATOM     50  C   UNL A   1      42.777  29.532  35.830  1.00  0.00     0.029 A 
ATOM     51  N   UNL A   1      41.546  29.669  33.983  1.00  0.00    -0.354 N 
ATOM     52  N   UNL A   1      39.419  30.748  32.295  1.00  0.00    -0.248 NA
ATOM     53  C   UNL A   1      37.506  32.060  32.022  1.00  0.00     0.031 C 
ATOM     54  C   UNL A   1      41.717  30.415  36.071  1.00  0.00     0.029 A 
ATOM     55  C   UNL A   1      40.960  30.511  34.915  1.00  0.00     0.049 A 
ATOM     56  H   UNL A   1      41.221  29.529  33.065  1.00  0.00     0.167 HD
ATOM     57  C   UNL A   1      39.132  31.388  33.492  1.00  0.00     0.074 A 
ATOM     58  C   UNL A   1      37.956  32.201  33.262  1.00  0.00     0.031 C 
ATOM     59  C   UNL A   1      39.784  31.305  34.676  1.00  0.00     0.037 A 
BRANCH  46  60
ATOM     60  C   UNL A   1      44.626  27.486  34.618  1.00  0.00     0.057 A 
ATOM     61  C   UNL A   1      44.474  26.278  35.310  1.00  0.00     0.134 A 
ATOM     62  C   UNL A   1      45.896  28.075  34.613  1.00  0.00     0.134 A 
ATOM     63  F   UNL A   1      43.281  25.666  35.360  1.00  0.00    -0.206 F 
ATOM     64  C   UNL A   1      45.547  25.682  35.977  1.00  0.00     0.040 A 
ATOM     65  C   UNL A   1      46.979  27.481  35.262  1.00  0.00     0.040 A 
ATOM     66  F   UNL A   1      46.108  29.229  33.961  1.00  0.00    -0.206 F 
ATOM     67  C   UNL A   1      46.806  26.281  35.948  1.00  0.00     0.006 A 
ENDBRANCH  46  60
BRANCH  47  68
ATOM     68  C   UNL A   1      37.172  31.280  29.228  1.00  0.00     0.057 A 
ATOM     69  C   UNL A   1      36.039  30.499  28.978  1.00  0.00     0.134 A 
ATOM     70  C   UNL A   1      37.181  32.590  28.731  1.00  0.00     0.134 A 
ATOM     71  F   UNL A   1      35.984  29.233  29.412  1.00  0.00    -0.206 F 
ATOM     72  C   UNL A   1      34.953  31.002  28.261  1.00  0.00     0.040 A 
ATOM     73  C   UNL A   1      36.093  33.112  28.031  1.00  0.00     0.040 A 
ATOM     74  F   UNL A   1      38.239  33.386  28.943  1.00  0.00    -0.206 F 
ATOM     75  C   UNL A   1      34.975  32.315  27.793  1.00  0.00     0.006 A 
ENDBRANCH  47  68
BRANCH  59  76
ATOM     76  C   UNL A   1      39.243  32.129  35.804  1.00  0.00     0.057 A 
ATOM     77  C   UNL A   1      39.616  33.467  35.979  1.00  0.00     0.134 A 
ATOM     78  C   UNL A   1      38.336  31.581  36.719  1.00  0.00     0.134 A 
ATOM     79  F   UNL A   1      40.495  34.042  35.144  1.00  0.00    -0.206 F 
ATOM     80  C   UNL A   1      39.121  34.227  37.039  1.00  0.00     0.040 A 
ATOM     81  C   UNL A   1      37.819  32.337  37.773  1.00  0.00     0.040 A 
ATOM     82  F   UNL A   1      37.937  30.305  36.602  1.00  0.00    -0.206 F 
ATOM     83  C   UNL A   1      38.217  33.663  37.937  1.00  0.00     0.006 A 
ENDBRANCH  59  76
ENDBRANCH  33  34
ENDBRANCH  26  28
ENDBRANCH  25  26
ENDBRANCH  24  25
ENDBRANCH  23  24
ENDBRANCH   1  23
TORSDOF 16
ENDMDL
MODEL 2
REMARK VINA RESULT:     -11.5      1.984      2.773
REMARK SMILES Cc1c(C[C@@H](C)O)c(=O)oc2cc(OCC(=O)OCCOC(=O)c3ccc(-c4c5nc(c(-c6c(F)cccc6F)c6ccc([nH]6)c(-c6c(F)cccc6F)c6nc(c(-c7c(F)cccc7F)c7ccc4[nH]7)C=C6)C=C5)cc3)ccc12
REMARK SMILES IDX 18 1 16 2 17 3 15 4 14 5 13 6 1 7 2 8 3 9 80 10 8 11 11 12
REMARK SMILES IDX 79 13 9 14 10 15 12 16 78 17 4 18 5 19 6 20 7 21 19 23 20 24
REMARK SMILES IDX 21 25 22 26 23 27 24 28 25 29 77 30 26 31 76 32 27 33 28 34
REMARK SMILES IDX 29 35 70 36 30 37 75 38 69 39 71 40 31 41 74 42 68 43 67 44
REMARK SMILES IDX 32 46 58 47 41 48 57 49 42 50 45 51 56 52 72 53 43 54 44 55
REMARK SMILES IDX 55 57 73 58 46 59 33 60 34 61 39 62 35 63 36 64 38 65 40 66
REMARK SMILES IDX 37 67 59 68 60 69 65 70 61 71 62 72 64 73 66 74 63 75 47 76
REMARK SMILES IDX 48 77 53 78 49 79 50 80 52 81 54 82 51 83
REMARK H PARENT 7 22 71 45 45 56
REMARK Flexibility Score: inf
ROOT
ATOM      1  O   UNL A   1      44.206  20.261  24.264  1.00  0.00    -0.460 OA
ENDROOT
BRANCH   1   2
ATOM      2  C   UNL A   1      43.825  19.217  25.047  1.00  0.00     0.344 C 
ATOM      3  O   UNL A   1      44.233  18.066  24.930  1.00  0.00    -0.248 OA
BRANCH   2   4
ATOM      4  C   UNL A   1      42.794  19.608  26.105  1.00  0.00     0.351 C 
BRANCH   4   5
ATOM      5  O   UNL A   1      41.501  19.033  26.052  1.00  0.00    -0.482 OA
BRANCH   5   6
ATOM      6  C   UNL A   1      40.419  19.849  25.894  1.00  0.00     0.123 A 
ATOM      7  C   UNL A   1      37.377  24.081  26.087  1.00  0.00     0.046 C 
ATOM      8  C   UNL A   1      37.122  22.626  25.792  1.00  0.00    -0.030 A 
ATOM      9  C   UNL A   1      35.902  22.094  25.556  1.00  0.00     0.044 A 
ATOM     10  C   UNL A   1      38.290  21.725  25.813  1.00  0.00     0.021 A 
ATOM     11  C   UNL A   1      35.755  20.674  25.118  1.00  0.00     0.339 A 
ATOM     12  C   UNL A   1      38.153  20.436  25.316  1.00  0.00     0.142 A 
ATOM     13  C   UNL A   1      39.531  22.069  26.358  1.00  0.00     0.016 A 
ATOM     14  O   UNL A   1      34.655  20.172  24.912  1.00  0.00    -0.246 OA
ATOM     15  O   UNL A   1      36.917  19.975  24.839  1.00  0.00    -0.422 OA
ATOM     16  C   UNL A   1      39.204  19.511  25.318  1.00  0.00     0.094 A 
ATOM     17  C   UNL A   1      40.576  21.135  26.411  1.00  0.00     0.047 A 
BRANCH   9  18
ATOM     18  C   UNL A   1      34.587  22.839  25.666  1.00  0.00     0.075 C 
BRANCH  18  19
ATOM     19  C   UNL A   1      33.993  22.839  27.089  1.00  0.00     0.116 C 
ATOM     20  C   UNL A   1      32.471  22.951  27.122  1.00  0.00     0.038 C 
BRANCH  19  21
ATOM     21  O   UNL A   1      34.357  21.620  27.744  1.00  0.00    -0.393 OA
ATOM     22  H   UNL A   1      34.095  21.665  28.678  1.00  0.00     0.210 HD
ENDBRANCH  19  21
ENDBRANCH  18  19
ENDBRANCH   9  18
ENDBRANCH   5   6
ENDBRANCH   4   5
ENDBRANCH   2   4
ENDBRANCH   1   2
BRANCH   1  23
ATOM     23  C   UNL A   1      45.326  21.034  24.743  1.00  0.00     0.274 C 
BRANCH  23  24
ATOM     24  C   UNL A   1      45.228  22.478  24.260  1.00  0.00     0.275 C 
BRANCH  24  25
ATOM     25  O   UNL A   1      44.853  23.326  25.359  1.00  0.00    -0.458 OA
BRANCH  25  26
ATOM     26  C   UNL A   1      43.534  23.590  25.465  1.00  0.00     0.338 C 
ATOM     27  O   UNL A   1      42.644  23.159  24.739  1.00  0.00    -0.246 OA
BRANCH  26  28
ATOM     28  C   UNL A   1      43.273  24.474  26.622  1.00  0.00     0.060 A 
ATOM     29  C   UNL A   1      42.382  24.109  27.637  1.00  0.00     0.016 A 
ATOM     30  C   UNL A   1      43.841  25.750  26.627  1.00  0.00     0.016 A 
ATOM     31  C   UNL A   1      41.987  25.048  28.591  1.00  0.00     0.010 A 
ATOM     32  C   UNL A   1      43.512  26.659  27.634  1.00  0.00     0.010 A 
ATOM     33  C   UNL A   1      42.558  26.329  28.609  1.00  0.00    -0.014 A 
BRANCH  33  34
ATOM     34  C   UNL A   1      42.183  27.325  29.649  1.00  0.00     0.031 A 
ATOM     35  C   UNL A   1      42.907  27.371  30.969  1.00  0.00     0.074 A 
ATOM     36  C   UNL A   1      41.155  28.165  29.424  1.00  0.00     0.049 A 
ATOM     37  N   UNL A   1      42.614  28.056  32.047  1.00  0.00    -0.248 NA
ATOM     38  C   UNL A   1      44.111  26.536  31.098  1.00  0.00     0.031 C 
ATOM     39  C   UNL A   1      40.375  28.236  28.187  1.00  0.00     0.029 A 
ATOM     40  N   UNL A   1      40.578  29.109  30.235  1.00  0.00    -0.354 N 
ATOM     41  C   UNL A   1      43.572  27.709  32.992  1.00  0.00     0.074 A 
ATOM     42  C   UNL A   1      44.456  26.751  32.361  1.00  0.00     0.031 C 
ATOM     43  C   UNL A   1      39.431  29.179  28.317  1.00  0.00     0.029 A 
ATOM     44  C   UNL A   1      39.493  29.729  29.666  1.00  0.00     0.049 A 
ATOM     45  H   UNL A   1      40.910  29.321  31.138  1.00  0.00     0.167 HD
ATOM     46  C   UNL A   1      43.700  28.146  34.268  1.00  0.00     0.037 A 
ATOM     47  C   UNL A   1      38.615  30.609  30.181  1.00  0.00     0.037 A 
ATOM     48  C   UNL A   1      42.835  29.114  34.892  1.00  0.00     0.049 A 
ATOM     49  C   UNL A   1      38.754  31.047  31.607  1.00  0.00     0.074 A 
ATOM     50  C   UNL A   1      42.909  29.641  36.171  1.00  0.00     0.029 A 
ATOM     51  N   UNL A   1      41.736  29.701  34.283  1.00  0.00    -0.354 N 
ATOM     52  N   UNL A   1      39.656  30.700  32.491  1.00  0.00    -0.248 NA
ATOM     53  C   UNL A   1      37.743  31.987  32.110  1.00  0.00     0.031 C 
ATOM     54  C   UNL A   1      41.837  30.524  36.346  1.00  0.00     0.029 A 
ATOM     55  C   UNL A   1      41.115  30.572  35.165  1.00  0.00     0.049 A 
ATOM     56  H   UNL A   1      41.441  29.524  33.361  1.00  0.00     0.167 HD
ATOM     57  C   UNL A   1      39.327  31.381  33.654  1.00  0.00     0.074 A 
ATOM     58  C   UNL A   1      38.153  32.176  33.357  1.00  0.00     0.031 C 
ATOM     59  C   UNL A   1      39.942  31.347  34.860  1.00  0.00     0.037 A 
BRANCH  46  60
ATOM     60  C   UNL A   1      44.808  27.566  35.093  1.00  0.00     0.057 A 
ATOM     61  C   UNL A   1      44.642  26.387  35.829  1.00  0.00     0.134 A 
ATOM     62  C   UNL A   1      46.076  28.161  35.101  1.00  0.00     0.134 A 
ATOM     63  F   UNL A   1      43.450  25.772  35.870  1.00  0.00    -0.206 F 
ATOM     64  C   UNL A   1      45.697  25.824  36.551  1.00  0.00     0.040 A 
ATOM     65  C   UNL A   1      47.142  27.599  35.805  1.00  0.00     0.040 A 
ATOM     66  F   UNL A   1      46.303  29.288  34.409  1.00  0.00    -0.206 F 
ATOM     67  C   UNL A   1      46.953  26.428  36.534  1.00  0.00     0.006 A 
ENDBRANCH  46  60
BRANCH  47  68
ATOM     68  C   UNL A   1      37.502  31.102  29.338  1.00  0.00     0.057 A 
ATOM     69  C   UNL A   1      36.393  30.296  29.065  1.00  0.00     0.134 A 
ATOM     70  C   UNL A   1      37.509  32.400  28.811  1.00  0.00     0.134 A 
ATOM     71  F   UNL A   1      36.343  29.039  29.526  1.00  0.00    -0.206 F 
ATOM     72  C   UNL A   1      35.326  30.763  28.296  1.00  0.00     0.040 A 
ATOM     73  C   UNL A   1      36.440  32.886  28.059  1.00  0.00     0.040 A 
ATOM     74  F   UNL A   1      38.544  33.219  29.043  1.00  0.00    -0.206 F 
ATOM     75  C   UNL A   1      35.345  32.065  27.798  1.00  0.00     0.006 A 
ENDBRANCH  47  68
BRANCH  59  76
ATOM     76  C   UNL A   1      39.360  32.208  35.939  1.00  0.00     0.057 A 
ATOM     77  C   UNL A   1      39.807  33.517  36.154  1.00  0.00     0.134 A 
ATOM     78  C   UNL A   1      38.340  31.724  36.767  1.00  0.00     0.134 A 
ATOM     79  F   UNL A   1      40.795  34.029  35.403  1.00  0.00    -0.206 F 
ATOM     80  C   UNL A   1      39.273  34.311  37.169  1.00  0.00     0.040 A 
ATOM     81  C   UNL A   1      37.785  32.515  37.775  1.00  0.00     0.040 A 
ATOM     82  F   UNL A   1      37.867  30.479  36.609  1.00  0.00    -0.206 F 
ATOM     83  C   UNL A   1      38.256  33.811  37.980  1.00  0.00     0.006 A 
ENDBRANCH  59  76
ENDBRANCH  33  34
ENDBRANCH  26  28
ENDBRANCH  25  26
ENDBRANCH  24  25
ENDBRANCH  23  24
ENDBRANCH   1  23
TORSDOF 16
ENDMDL
MODEL 3
REMARK VINA RESULT:     -11.4      1.658      2.251
REMARK SMILES Cc1c(C[C@@H](C)O)c(=O)oc2cc(OCC(=O)OCCOC(=O)c3ccc(-c4c5nc(c(-c6c(F)cccc6F)c6ccc([nH]6)c(-c6c(F)cccc6F)c6nc(c(-c7c(F)cccc7F)c7ccc4[nH]7)C=C6)C=C5)cc3)ccc12
REMARK SMILES IDX 18 1 16 2 17 3 15 4 14 5 13 6 1 7 2 8 3 9 80 10 8 11 11 12
REMARK SMILES IDX 79 13 9 14 10 15 12 16 78 17 4 18 5 19 6 20 7 21 19 23 20 24
REMARK SMILES IDX 21 25 22 26 23 27 24 28 25 29 77 30 26 31 76 32 27 33 28 34
REMARK SMILES IDX 29 35 70 36 30 37 75 38 69 39 71 40 31 41 74 42 68 43 67 44
REMARK SMILES IDX 32 46 58 47 41 48 57 49 42 50 45 51 56 52 72 53 43 54 44 55
REMARK SMILES IDX 55 57 73 58 46 59 33 60 34 61 39 62 35 63 36 64 38 65 40 66
REMARK SMILES IDX 37 67 59 68 60 69 65 70 61 71 62 72 64 73 66 74 63 75 47 76
REMARK SMILES IDX 48 77 53 78 49 79 50 80 52 81 54 82 51 83
REMARK H PARENT 7 22 71 45 45 56
REMARK Flexibility Score: inf
ROOT
ATOM      1  O   UNL A   1      42.608  20.131  25.253  1.00  0.00    -0.460 OA
ENDROOT
BRANCH   1   2
ATOM      2  C   UNL A   1      41.865  19.617  26.269  1.00  0.00     0.344 C 
ATOM      3  O   UNL A   1      42.288  18.850  27.129  1.00  0.00    -0.248 OA
BRANCH   2   4
ATOM      4  C   UNL A   1      40.407  20.071  26.233  1.00  0.00     0.351 C 
BRANCH   4   5
ATOM      5  O   UNL A   1      40.113  21.453  26.332  1.00  0.00    -0.482 OA
BRANCH   5   6
ATOM      6  C   UNL A   1      38.850  21.883  26.045  1.00  0.00     0.123 A 
ATOM      7  C   UNL A   1      34.762  25.053  25.387  1.00  0.00     0.046 C 
ATOM      8  C   UNL A   1      34.919  23.557  25.468  1.00  0.00    -0.030 A 
ATOM      9  C   UNL A   1      33.894  22.676  25.440  1.00  0.00     0.044 A 
ATOM     10  C   UNL A   1      36.289  23.037  25.638  1.00  0.00     0.021 A 
ATOM     11  C   UNL A   1      34.147  21.206  25.368  1.00  0.00     0.339 A 
ATOM     12  C   UNL A   1      36.516  21.677  25.477  1.00  0.00     0.142 A 
ATOM     13  C   UNL A   1      37.383  23.827  26.010  1.00  0.00     0.016 A 
ATOM     14  O   UNL A   1      33.229  20.393  25.354  1.00  0.00    -0.246 OA
ATOM     15  O   UNL A   1      35.459  20.799  25.199  1.00  0.00    -0.422 OA
ATOM     16  C   UNL A   1      37.780  21.099  25.641  1.00  0.00     0.094 A 
ATOM     17  C   UNL A   1      38.642  23.251  26.226  1.00  0.00     0.047 A 
BRANCH   9  18
ATOM     18  C   UNL A   1      32.424  23.044  25.444  1.00  0.00     0.075 C 
BRANCH  18  19
ATOM     19  C   UNL A   1      31.836  23.227  26.856  1.00  0.00     0.116 C 
ATOM     20  C   UNL A   1      30.330  22.986  26.933  1.00  0.00     0.038 C 
BRANCH  19  21
ATOM     21  O   UNL A   1      32.473  22.307  27.747  1.00  0.00    -0.393 OA
ATOM     22  H   UNL A   1      31.885  21.551  27.906  1.00  0.00     0.210 HD
ENDBRANCH  19  21
ENDBRANCH  18  19
ENDBRANCH   9  18
ENDBRANCH   5   6
ENDBRANCH   4   5
ENDBRANCH   2   4
ENDBRANCH   1   2
BRANCH   1  23
ATOM     23  C   UNL A   1      44.029  20.211  25.488  1.00  0.00     0.274 C 
BRANCH  23  24
ATOM     24  C   UNL A   1      44.432  21.633  25.864  1.00  0.00     0.275 C 
BRANCH  24  25
ATOM     25  O   UNL A   1      43.261  22.467  25.909  1.00  0.00    -0.458 OA
BRANCH  25  26
ATOM     26  C   UNL A   1      43.401  23.695  25.367  1.00  0.00     0.338 C 
ATOM     27  O   UNL A   1      43.838  23.953  24.249  1.00  0.00    -0.246 OA
BRANCH  26  28
ATOM     28  C   UNL A   1      42.922  24.733  26.305  1.00  0.00     0.060 A 
ATOM     29  C   UNL A   1      43.386  26.051  26.237  1.00  0.00     0.016 A 
ATOM     30  C   UNL A   1      42.084  24.348  27.354  1.00  0.00     0.016 A 
ATOM     31  C   UNL A   1      43.093  26.949  27.265  1.00  0.00     0.010 A 
ATOM     32  C   UNL A   1      41.720  25.273  28.334  1.00  0.00     0.010 A 
ATOM     33  C   UNL A   1      42.245  26.575  28.318  1.00  0.00    -0.014 A 
BRANCH  33  34
ATOM     34  C   UNL A   1      41.884  27.535  29.395  1.00  0.00     0.031 A 
ATOM     35  C   UNL A   1      42.630  27.545  30.703  1.00  0.00     0.074 A 
ATOM     36  C   UNL A   1      40.848  28.376  29.214  1.00  0.00     0.049 A 
ATOM     37  N   UNL A   1      42.352  28.195  31.807  1.00  0.00    -0.248 NA
ATOM     38  C   UNL A   1      43.840  26.712  30.785  1.00  0.00     0.031 C 
ATOM     39  C   UNL A   1      40.045  28.482  27.993  1.00  0.00     0.029 A 
ATOM     40  N   UNL A   1      40.281  29.292  30.064  1.00  0.00    -0.354 N 
ATOM     41  C   UNL A   1      43.329  27.824  32.723  1.00  0.00     0.074 A 
ATOM     42  C   UNL A   1      44.206  26.890  32.048  1.00  0.00     0.031 C 
ATOM     43  C   UNL A   1      39.099  29.415  28.169  1.00  0.00     0.029 A 
ATOM     44  C   UNL A   1      39.183  29.924  29.533  1.00  0.00     0.049 A 
ATOM     45  H   UNL A   1      40.627  29.478  30.967  1.00  0.00     0.167 HD
ATOM     46  C   UNL A   1      43.477  28.222  34.010  1.00  0.00     0.037 A 
ATOM     47  C   UNL A   1      38.310  30.782  30.090  1.00  0.00     0.037 A 
ATOM     48  C   UNL A   1      42.618  29.165  34.678  1.00  0.00     0.049 A 
ATOM     49  C   UNL A   1      38.472  31.177  31.527  1.00  0.00     0.074 A 
ATOM     50  C   UNL A   1      42.712  29.653  35.972  1.00  0.00     0.029 A 
ATOM     51  N   UNL A   1      41.506  29.764  34.107  1.00  0.00    -0.354 N 
ATOM     52  N   UNL A   1      39.390  30.808  32.384  1.00  0.00    -0.248 NA
ATOM     53  C   UNL A   1      37.465  32.095  32.076  1.00  0.00     0.031 C 
ATOM     54  C   UNL A   1      41.639  30.524  36.193  1.00  0.00     0.029 A 
ATOM     55  C   UNL A   1      40.897  30.605  35.027  1.00  0.00     0.049 A 
ATOM     56  H   UNL A   1      41.196  29.615  33.185  1.00  0.00     0.167 HD
ATOM     57  C   UNL A   1      39.078  31.451  33.573  1.00  0.00     0.074 A 
ATOM     58  C   UNL A   1      37.896  32.248  33.321  1.00  0.00     0.031 C 
ATOM     59  C   UNL A   1      39.715  31.383  34.766  1.00  0.00     0.037 A 
BRANCH  46  60
ATOM     60  C   UNL A   1      44.602  27.622  34.798  1.00  0.00     0.057 A 
ATOM     61  C   UNL A   1      44.457  26.414  35.491  1.00  0.00     0.134 A 
ATOM     62  C   UNL A   1      45.864  28.229  34.811  1.00  0.00     0.134 A 
ATOM     63  F   UNL A   1      43.272  25.786  35.525  1.00  0.00    -0.206 F 
ATOM     64  C   UNL A   1      45.528  25.835  36.176  1.00  0.00     0.040 A 
ATOM     65  C   UNL A   1      46.945  27.652  35.478  1.00  0.00     0.040 A 
ATOM     66  F   UNL A   1      46.070  29.383  34.158  1.00  0.00    -0.206 F 
ATOM     67  C   UNL A   1      46.778  26.452  36.165  1.00  0.00     0.006 A 
ENDBRANCH  46  60
BRANCH  47  68
ATOM     68  C   UNL A   1      37.180  31.296  29.282  1.00  0.00     0.057 A 
ATOM     69  C   UNL A   1      36.035  30.522  29.072  1.00  0.00     0.134 A 
ATOM     70  C   UNL A   1      37.208  32.582  28.728  1.00  0.00     0.134 A 
ATOM     71  F   UNL A   1      35.962  29.277  29.562  1.00  0.00    -0.206 F 
ATOM     72  C   UNL A   1      34.953  31.009  28.336  1.00  0.00     0.040 A 
ATOM     73  C   UNL A   1      36.125  33.089  28.009  1.00  0.00     0.040 A 
ATOM     74  F   UNL A   1      38.278  33.370  28.901  1.00  0.00    -0.206 F 
ATOM     75  C   UNL A   1      34.994  32.300  27.811  1.00  0.00     0.006 A 
ENDBRANCH  47  68
BRANCH  59  76
ATOM     76  C   UNL A   1      39.148  32.206  35.881  1.00  0.00     0.057 A 
ATOM     77  C   UNL A   1      38.244  31.666  36.805  1.00  0.00     0.134 A 
ATOM     78  C   UNL A   1      39.513  33.549  36.037  1.00  0.00     0.134 A 
ATOM     79  F   UNL A   1      37.844  30.390  36.697  1.00  0.00    -0.206 F 
ATOM     80  C   UNL A   1      37.706  32.440  37.834  1.00  0.00     0.040 A 
ATOM     81  C   UNL A   1      38.996  34.328  37.073  1.00  0.00     0.040 A 
ATOM     82  F   UNL A   1      40.377  34.123  35.186  1.00  0.00    -0.206 F 
ATOM     83  C   UNL A   1      38.085  33.774  37.971  1.00  0.00     0.006 A 
ENDBRANCH  59  76
ENDBRANCH  33  34
ENDBRANCH  26  28
ENDBRANCH  25  26
ENDBRANCH  24  25
ENDBRANCH  23  24
ENDBRANCH   1  23
TORSDOF 16
ENDMDL
