MODEL 1
REMARK VINA RESULT:     -11.7      0.000      0.000
REMARK SMILES O=C(OCCOC(=O)[C@H]1CCCCN1C(=O)c1nc(C2CC2)n[nH]1)c1ccc(-c2c3nc(c(-c4c(F)cccc4F)c4ccc([nH]4)c(-c4c(F)cccc4F)c4nc(c(-c5c(F)cccc5F)c5ccc2[nH]5)C=C4)C=C3)cc1
REMARK SMILES IDX 5 1 4 2 3 3 2 4 1 5 25 6 26 7 78 8 27 9 77 10 28 11 29 12
REMARK SMILES IDX 30 13 71 14 31 15 76 16 70 17 72 18 32 19 75 20 69 21 68 22
REMARK SMILES IDX 33 24 59 25 42 26 58 27 43 28 46 29 57 30 73 31 44 32 45 33
REMARK SMILES IDX 56 35 74 36 47 37 34 38 35 39 40 40 36 41 37 42 39 43 41 44
REMARK SMILES IDX 38 45 60 46 61 47 66 48 62 49 63 50 65 51 67 52 64 53 48 54
REMARK SMILES IDX 49 55 54 56 50 57 51 58 53 59 55 60 52 61 6 62 7 63 8 64
REMARK SMILES IDX 9 65 10 66 14 67 11 68 13 69 12 70 15 71 16 72 17 73 18 74
REMARK SMILES IDX 24 75 19 76 23 77 20 79 21 80 22 81
REMARK H PARENT 72 23 46 34 24 78
REMARK Flexibility Score: inf
ROOT
ATOM      1  C   UNL A   1      34.404  32.869  33.006  1.00  0.00     0.274 C 
ENDROOT
BRANCH   1   2
ATOM      2  C   UNL A   1      35.533  33.694  33.650  1.00  0.00     0.275 C 
BRANCH   2   3
ATOM      3  O   UNL A   1      36.275  32.914  34.576  1.00  0.00    -0.458 OA
BRANCH   3   4
ATOM      4  C   UNL A   1      37.597  33.082  34.736  1.00  0.00     0.338 C 
ATOM      5  O   UNL A   1      38.032  34.030  35.383  1.00  0.00    -0.246 OA
BRANCH   4   6
ATOM      6  C   UNL A   1      38.568  32.262  33.957  1.00  0.00     0.060 A 
ATOM      7  C   UNL A   1      39.122  30.593  34.276  1.00  0.00     0.016 A 
ATOM      8  C   UNL A   1      38.661  32.793  32.299  1.00  0.00     0.016 A 
ATOM      9  C   UNL A   1      39.646  29.518  32.729  1.00  0.00     0.010 A 
ATOM     10  C   UNL A   1      39.166  31.807  30.983  1.00  0.00     0.010 A 
ATOM     11  C   UNL A   1      39.759  30.219  31.130  1.00  0.00    -0.014 A 
BRANCH  11  12
ATOM     12  C   UNL A   1      40.978  29.760  30.306  1.00  0.00     0.031 A 
ATOM     13  C   UNL A   1      40.970  28.411  29.562  1.00  0.00     0.074 A 
ATOM     14  C   UNL A   1      41.912  30.670  29.932  1.00  0.00     0.049 A 
ATOM     15  N   UNL A   1      41.878  27.914  28.748  1.00  0.00    -0.248 NA
ATOM     16  C   UNL A   1      39.812  27.508  29.698  1.00  0.00     0.031 C 
ATOM     17  C   UNL A   1      41.991  32.052  30.415  1.00  0.00     0.029 A 
ATOM     18  N   UNL A   1      42.913  30.622  28.985  1.00  0.00    -0.354 N 
ATOM     19  C   UNL A   1      41.411  26.658  28.355  1.00  0.00     0.074 A 
ATOM     20  C   UNL A   1      40.126  26.472  28.950  1.00  0.00     0.031 C 
ATOM     21  C   UNL A   1      42.816  32.753  29.629  1.00  0.00     0.029 A 
ATOM     22  C   UNL A   1      43.569  31.821  28.814  1.00  0.00     0.049 A 
ATOM     23  H   UNL A   1      43.137  29.808  28.480  1.00  0.00     0.167 HD
ATOM     24  C   UNL A   1      42.008  25.701  27.610  1.00  0.00     0.037 A 
ATOM     25  C   UNL A   1      44.724  32.144  28.195  1.00  0.00     0.037 A 
ATOM     26  C   UNL A   1      43.316  25.856  27.053  1.00  0.00     0.049 A 
ATOM     27  C   UNL A   1      45.483  31.027  27.551  1.00  0.00     0.074 A 
ATOM     28  C   UNL A   1      44.101  24.915  26.419  1.00  0.00     0.029 A 
ATOM     29  N   UNL A   1      44.037  27.038  27.092  1.00  0.00    -0.354 N 
ATOM     30  N   UNL A   1      45.104  29.786  27.363  1.00  0.00    -0.248 NA
ATOM     31  C   UNL A   1      46.843  31.323  27.090  1.00  0.00     0.031 C 
ATOM     32  C   UNL A   1      45.337  25.507  26.151  1.00  0.00     0.029 A 
ATOM     33  C   UNL A   1      45.280  26.841  26.525  1.00  0.00     0.049 A 
ATOM     34  H   UNL A   1      43.713  27.889  27.465  1.00  0.00     0.167 HD
ATOM     35  C   UNL A   1      46.174  29.151  26.756  1.00  0.00     0.074 A 
ATOM     36  C   UNL A   1      47.212  30.151  26.592  1.00  0.00     0.031 C 
ATOM     37  C   UNL A   1      46.287  27.858  26.371  1.00  0.00     0.037 A 
BRANCH  24  38
ATOM     38  C   UNL A   1      41.321  24.361  27.537  1.00  0.00     0.057 A 
ATOM     39  C   UNL A   1      41.735  23.242  28.274  1.00  0.00     0.134 A 
ATOM     40  C   UNL A   1      40.269  24.175  26.629  1.00  0.00     0.134 A 
ATOM     41  F   UNL A   1      42.770  23.330  29.123  1.00  0.00    -0.206 F 
ATOM     42  C   UNL A   1      41.150  21.986  28.084  1.00  0.00     0.040 A 
ATOM     43  C   UNL A   1      39.654  22.935  26.456  1.00  0.00     0.040 A 
ATOM     44  F   UNL A   1      39.834  25.196  25.875  1.00  0.00    -0.206 F 
ATOM     45  C   UNL A   1      40.103  21.831  27.177  1.00  0.00     0.006 A 
ENDBRANCH  24  38
BRANCH  25  46
ATOM     46  C   UNL A   1      45.301  33.518  28.332  1.00  0.00     0.057 A 
ATOM     47  C   UNL A   1      46.159  33.865  29.381  1.00  0.00     0.134 A 
ATOM     48  C   UNL A   1      45.024  34.524  27.389  1.00  0.00     0.134 A 
ATOM     49  F   UNL A   1      46.442  32.975  30.345  1.00  0.00    -0.206 F 
ATOM     50  C   UNL A   1      46.733  35.139  29.474  1.00  0.00     0.040 A 
ATOM     51  C   UNL A   1      45.624  35.784  27.442  1.00  0.00     0.040 A 
ATOM     52  F   UNL A   1      44.200  34.280  26.357  1.00  0.00    -0.206 F 
ATOM     53  C   UNL A   1      46.480  36.095  28.491  1.00  0.00     0.006 A 
ENDBRANCH  25  46
BRANCH  37  54
ATOM     54  C   UNL A   1      47.546  27.462  25.671  1.00  0.00     0.057 A 
ATOM     55  C   UNL A   1      48.651  26.953  26.359  1.00  0.00     0.134 A 
ATOM     56  C   UNL A   1      47.613  27.528  24.274  1.00  0.00     0.134 A 
ATOM     57  F   UNL A   1      48.645  26.873  27.698  1.00  0.00    -0.206 F 
ATOM     58  C   UNL A   1      49.796  26.541  25.678  1.00  0.00     0.040 A 
ATOM     59  C   UNL A   1      48.737  27.088  23.581  1.00  0.00     0.040 A 
ATOM     60  F   UNL A   1      46.575  27.995  23.563  1.00  0.00    -0.206 F 
ATOM     61  C   UNL A   1      49.835  26.599  24.284  1.00  0.00     0.006 A 
ENDBRANCH  37  54
ENDBRANCH  11  12
ENDBRANCH   4   6
ENDBRANCH   3   4
ENDBRANCH   2   3
ENDBRANCH   1   2
BRANCH   1  62
ATOM     62  O   UNL A   1      34.466  32.706  31.559  1.00  0.00    -0.461 OA
BRANCH  62  63
ATOM     63  C   UNL A   1      35.430  31.906  30.984  1.00  0.00     0.328 C 
ATOM     64  O   UNL A   1      35.824  30.863  31.484  1.00  0.00    -0.250 OA
BRANCH  63  65
ATOM     65  C   UNL A   1      35.751  32.359  29.477  1.00  0.00     0.195 C 
ATOM     66  C   UNL A   1      36.867  31.107  28.495  1.00  0.00     0.037 C 
ATOM     67  N   UNL A   1      34.355  32.804  28.682  1.00  0.00    -0.322 N 
ATOM     68  C   UNL A   1      35.773  29.551  27.367  1.00  0.00     0.005 C 
ATOM     69  C   UNL A   1      33.231  31.653  27.962  1.00  0.00     0.121 C 
ATOM     70  C   UNL A   1      33.859  30.036  27.141  1.00  0.00     0.022 C 
BRANCH  67  71
ATOM     71  C   UNL A   1      34.456  34.175  28.298  1.00  0.00     0.291 C 
ATOM     72  O   UNL A   1      35.008  34.481  27.237  1.00  0.00    -0.265 OA
BRANCH  71  73
ATOM     73  C   UNL A   1      33.871  35.238  29.063  1.00  0.00     0.214 A 
ATOM     74  N   UNL A   1      33.583  35.245  30.341  1.00  0.00    -0.207 NA
ATOM     75  N   UNL A   1      33.747  36.515  28.576  1.00  0.00    -0.255 N 
ATOM     76  C   UNL A   1      33.239  36.555  30.573  1.00  0.00     0.154 A 
ATOM     77  N   UNL A   1      33.224  37.343  29.494  1.00  0.00    -0.158 NA
ATOM     78  H   UNL A   1      34.010  36.789  27.668  1.00  0.00     0.192 HD
BRANCH  76  79
ATOM     79  C   UNL A   1      32.941  37.065  31.965  1.00  0.00     0.060 C 
ATOM     80  C   UNL A   1      33.964  36.745  33.035  1.00  0.00     0.012 C 
ATOM     81  C   UNL A   1      33.827  38.148  32.542  1.00  0.00     0.012 C 
ENDBRANCH  76  79
ENDBRANCH  71  73
ENDBRANCH  67  71
ENDBRANCH  63  65
ENDBRANCH  62  63
ENDBRANCH   1  62
TORSDOF 14
ENDMDL
MODEL 2
REMARK VINA RESULT:     -11.4      4.763      7.990
REMARK SMILES O=C(OCCOC(=O)[C@H]1CCCCN1C(=O)c1nc(C2CC2)n[nH]1)c1ccc(-c2c3nc(c(-c4c(F)cccc4F)c4ccc([nH]4)c(-c4c(F)cccc4F)c4nc(c(-c5c(F)cccc5F)c5ccc2[nH]5)C=C4)C=C3)cc1
REMARK SMILES IDX 5 1 4 2 3 3 2 4 1 5 25 6 26 7 78 8 27 9 77 10 28 11 29 12
REMARK SMILES IDX 30 13 71 14 31 15 76 16 70 17 72 18 32 19 75 20 69 21 68 22
REMARK SMILES IDX 33 24 59 25 42 26 58 27 43 28 46 29 57 30 73 31 44 32 45 33
REMARK SMILES IDX 56 35 74 36 47 37 34 38 35 39 40 40 36 41 37 42 39 43 41 44
REMARK SMILES IDX 38 45 60 46 61 47 66 48 62 49 63 50 65 51 67 52 64 53 48 54
REMARK SMILES IDX 49 55 54 56 50 57 51 58 53 59 55 60 52 61 6 62 7 63 8 64
REMARK SMILES IDX 9 65 10 66 14 67 11 68 13 69 12 70 15 71 16 72 17 73 18 74
REMARK SMILES IDX 24 75 19 76 23 77 20 79 21 80 22 81
REMARK H PARENT 72 23 46 34 24 78
REMARK Flexibility Score: inf
ROOT
ATOM      1  C   UNL A   1      31.764  30.458  25.680  1.00  0.00     0.274 C 
ENDROOT
BRANCH   1   2
ATOM      2  C   UNL A   1      31.267  31.576  26.615  1.00  0.00     0.275 C 
BRANCH   2   3
ATOM      3  O   UNL A   1      32.142  32.695  26.587  1.00  0.00    -0.458 OA
BRANCH   3   4
ATOM      4  C   UNL A   1      32.824  33.079  27.676  1.00  0.00     0.338 C 
ATOM      5  O   UNL A   1      32.689  34.212  28.132  1.00  0.00    -0.246 OA
BRANCH   4   6
ATOM      6  C   UNL A   1      33.920  32.231  28.227  1.00  0.00     0.060 A 
ATOM      7  C   UNL A   1      34.137  30.463  28.083  1.00  0.00     0.016 A 
ATOM      8  C   UNL A   1      35.372  33.160  28.487  1.00  0.00     0.016 A 
ATOM      9  C   UNL A   1      35.972  29.786  28.105  1.00  0.00     0.010 A 
ATOM     10  C   UNL A   1      36.961  32.499  28.532  1.00  0.00     0.010 A 
ATOM     11  C   UNL A   1      37.325  30.839  28.451  1.00  0.00    -0.014 A 
BRANCH  11  12
ATOM     12  C   UNL A   1      38.401  30.230  29.371  1.00  0.00     0.031 A 
ATOM     13  C   UNL A   1      39.562  29.398  28.791  1.00  0.00     0.074 A 
ATOM     14  C   UNL A   1      38.547  30.704  30.633  1.00  0.00     0.049 A 
ATOM     15  N   UNL A   1      40.603  28.890  29.416  1.00  0.00    -0.248 NA
ATOM     16  C   UNL A   1      39.607  29.115  27.344  1.00  0.00     0.031 C 
ATOM     17  C   UNL A   1      37.627  31.627  31.303  1.00  0.00     0.029 A 
ATOM     18  N   UNL A   1      39.568  30.572  31.551  1.00  0.00    -0.354 N 
ATOM     19  C   UNL A   1      41.348  28.208  28.452  1.00  0.00     0.074 A 
ATOM     20  C   UNL A   1      40.702  28.401  27.193  1.00  0.00     0.031 C 
ATOM     21  C   UNL A   1      38.215  32.128  32.396  1.00  0.00     0.029 A 
ATOM     22  C   UNL A   1      39.390  31.332  32.686  1.00  0.00     0.049 A 
ATOM     23  H   UNL A   1      40.348  29.990  31.408  1.00  0.00     0.167 HD
ATOM     24  C   UNL A   1      42.448  27.433  28.588  1.00  0.00     0.037 A 
ATOM     25  C   UNL A   1      39.995  31.316  33.893  1.00  0.00     0.037 A 
ATOM     26  C   UNL A   1      43.072  27.191  29.852  1.00  0.00     0.049 A 
ATOM     27  C   UNL A   1      41.076  30.303  34.096  1.00  0.00     0.074 A 
ATOM     28  C   UNL A   1      44.086  26.306  30.157  1.00  0.00     0.029 A 
ATOM     29  N   UNL A   1      42.714  27.831  31.026  1.00  0.00    -0.354 N 
ATOM     30  N   UNL A   1      41.636  29.519  33.206  1.00  0.00    -0.248 NA
ATOM     31  C   UNL A   1      41.570  30.118  35.465  1.00  0.00     0.031 C 
ATOM     32  C   UNL A   1      44.282  26.348  31.540  1.00  0.00     0.029 A 
ATOM     33  C   UNL A   1      43.462  27.332  32.073  1.00  0.00     0.049 A 
ATOM     34  H   UNL A   1      42.031  28.535  31.104  1.00  0.00     0.167 HD
ATOM     35  C   UNL A   1      42.554  28.751  33.903  1.00  0.00     0.074 A 
ATOM     36  C   UNL A   1      42.487  29.177  35.288  1.00  0.00     0.031 C 
ATOM     37  C   UNL A   1      43.376  27.781  33.438  1.00  0.00     0.037 A 
BRANCH  24  38
ATOM     38  C   UNL A   1      42.897  26.660  27.375  1.00  0.00     0.057 A 
ATOM     39  C   UNL A   1      42.416  25.383  27.052  1.00  0.00     0.134 A 
ATOM     40  C   UNL A   1      43.911  27.186  26.561  1.00  0.00     0.134 A 
ATOM     41  F   UNL A   1      41.484  24.794  27.815  1.00  0.00    -0.206 F 
ATOM     42  C   UNL A   1      42.950  24.650  25.987  1.00  0.00     0.040 A 
ATOM     43  C   UNL A   1      44.428  26.478  25.476  1.00  0.00     0.040 A 
ATOM     44  F   UNL A   1      44.435  28.394  26.822  1.00  0.00    -0.206 F 
ATOM     45  C   UNL A   1      43.955  25.199  25.193  1.00  0.00     0.006 A 
ENDBRANCH  24  38
BRANCH  25  46
ATOM     46  C   UNL A   1      39.461  32.142  35.021  1.00  0.00     0.057 A 
ATOM     47  C   UNL A   1      39.856  33.468  35.226  1.00  0.00     0.134 A 
ATOM     48  C   UNL A   1      38.510  31.624  35.920  1.00  0.00     0.134 A 
ATOM     49  F   UNL A   1      40.788  34.025  34.438  1.00  0.00    -0.206 F 
ATOM     50  C   UNL A   1      39.313  34.248  36.255  1.00  0.00     0.040 A 
ATOM     51  C   UNL A   1      37.928  32.402  36.921  1.00  0.00     0.040 A 
ATOM     52  F   UNL A   1      38.087  30.355  35.803  1.00  0.00    -0.206 F 
ATOM     53  C   UNL A   1      38.332  33.720  37.093  1.00  0.00     0.006 A 
ENDBRANCH  25  46
BRANCH  37  54
ATOM     54  C   UNL A   1      44.320  27.160  34.415  1.00  0.00     0.057 A 
ATOM     55  C   UNL A   1      44.018  25.974  35.091  1.00  0.00     0.134 A 
ATOM     56  C   UNL A   1      45.582  27.731  34.619  1.00  0.00     0.134 A 
ATOM     57  F   UNL A   1      42.822  25.387  34.938  1.00  0.00    -0.206 F 
ATOM     58  C   UNL A   1      44.937  25.386  35.959  1.00  0.00     0.040 A 
ATOM     59  C   UNL A   1      46.520  27.135  35.457  1.00  0.00     0.040 A 
ATOM     60  F   UNL A   1      45.930  28.861  33.985  1.00  0.00    -0.206 F 
ATOM     61  C   UNL A   1      46.195  25.963  36.135  1.00  0.00     0.006 A 
ENDBRANCH  37  54
ENDBRANCH  11  12
ENDBRANCH   4   6
ENDBRANCH   3   4
ENDBRANCH   2   3
ENDBRANCH   1   2
BRANCH   1  62
ATOM     62  O   UNL A   1      31.477  29.091  26.096  1.00  0.00    -0.461 OA
BRANCH  62  63
ATOM     63  C   UNL A   1      32.398  28.087  25.887  1.00  0.00     0.328 C 
ATOM     64  O   UNL A   1      33.046  27.572  26.786  1.00  0.00    -0.250 OA
BRANCH  63  65
ATOM     65  C   UNL A   1      32.303  27.499  24.395  1.00  0.00     0.195 C 
ATOM     66  C   UNL A   1      33.683  26.199  23.968  1.00  0.00     0.037 C 
ATOM     67  N   UNL A   1      30.753  26.991  24.055  1.00  0.00    -0.322 N 
ATOM     68  C   UNL A   1      33.162  24.094  24.398  1.00  0.00     0.005 C 
ATOM     69  C   UNL A   1      30.098  25.439  24.572  1.00  0.00     0.121 C 
ATOM     70  C   UNL A   1      31.203  23.872  24.647  1.00  0.00     0.022 C 
BRANCH  67  71
ATOM     71  C   UNL A   1      30.243  27.754  22.962  1.00  0.00     0.291 C 
ATOM     72  O   UNL A   1      30.636  27.528  21.814  1.00  0.00    -0.265 OA
BRANCH  71  73
ATOM     73  C   UNL A   1      29.218  28.744  23.120  1.00  0.00     0.214 A 
ATOM     74  N   UNL A   1      29.352  30.047  23.120  1.00  0.00    -0.207 NA
ATOM     75  N   UNL A   1      27.882  28.438  23.058  1.00  0.00    -0.255 N 
ATOM     76  C   UNL A   1      28.051  30.492  23.108  1.00  0.00     0.154 A 
ATOM     77  N   UNL A   1      27.119  29.536  23.177  1.00  0.00    -0.158 NA
ATOM     78  H   UNL A   1      27.527  27.527  22.941  1.00  0.00     0.192 HD
BRANCH  76  79
ATOM     79  C   UNL A   1      27.713  31.960  22.981  1.00  0.00     0.060 C 
ATOM     80  C   UNL A   1      28.869  32.931  23.092  1.00  0.00     0.012 C 
ATOM     81  C   UNL A   1      28.214  32.714  21.768  1.00  0.00     0.012 C 
ENDBRANCH  76  79
ENDBRANCH  71  73
ENDBRANCH  67  71
ENDBRANCH  63  65
ENDBRANCH  62  63
ENDBRANCH   1  62
TORSDOF 14
ENDMDL
MODEL 3
REMARK VINA RESULT:     -11.4      4.032      5.838
REMARK SMILES O=C(OCCOC(=O)[C@H]1CCCCN1C(=O)c1nc(C2CC2)n[nH]1)c1ccc(-c2c3nc(c(-c4c(F)cccc4F)c4ccc([nH]4)c(-c4c(F)cccc4F)c4nc(c(-c5c(F)cccc5F)c5ccc2[nH]5)C=C4)C=C3)cc1
REMARK SMILES IDX 5 1 4 2 3 3 2 4 1 5 25 6 26 7 78 8 27 9 77 10 28 11 29 12
REMARK SMILES IDX 30 13 71 14 31 15 76 16 70 17 72 18 32 19 75 20 69 21 68 22
REMARK SMILES IDX 33 24 59 25 42 26 58 27 43 28 46 29 57 30 73 31 44 32 45 33
REMARK SMILES IDX 56 35 74 36 47 37 34 38 35 39 40 40 36 41 37 42 39 43 41 44
REMARK SMILES IDX 38 45 60 46 61 47 66 48 62 49 63 50 65 51 67 52 64 53 48 54
REMARK SMILES IDX 49 55 54 56 50 57 51 58 53 59 55 60 52 61 6 62 7 63 8 64
REMARK SMILES IDX 9 65 10 66 14 67 11 68 13 69 12 70 15 71 16 72 17 73 18 74
REMARK SMILES IDX 24 75 19 76 23 77 20 79 21 80 22 81
REMARK H PARENT 72 23 46 34 24 78
REMARK Flexibility Score: inf
ROOT
ATOM      1  C   UNL A   1      33.469  29.781  26.398  1.00  0.00     0.274 C 
ENDROOT
BRANCH   1   2
ATOM      2  C   UNL A   1      33.110  30.883  27.412  1.00  0.00     0.275 C 
BRANCH   2   3
ATOM      3  O   UNL A   1      34.243  31.680  27.726  1.00  0.00    -0.458 OA
BRANCH   3   4
ATOM      4  C   UNL A   1      34.750  31.721  28.968  1.00  0.00     0.338 C 
ATOM      5  O   UNL A   1      34.227  32.416  29.835  1.00  0.00    -0.246 OA
BRANCH   4   6
ATOM      6  C   UNL A   1      36.075  31.107  29.269  1.00  0.00     0.060 A 
ATOM      7  C   UNL A   1      36.623  30.331  30.783  1.00  0.00     0.016 A 
ATOM      8  C   UNL A   1      36.882  30.592  27.812  1.00  0.00     0.016 A 
ATOM      9  C   UNL A   1      37.963  28.916  30.623  1.00  0.00     0.010 A 
ATOM     10  C   UNL A   1      38.082  29.361  27.741  1.00  0.00     0.010 A 
ATOM     11  C   UNL A   1      38.735  28.563  29.094  1.00  0.00    -0.014 A 
BRANCH  11  12
ATOM     12  C   UNL A   1      40.249  28.285  29.181  1.00  0.00     0.031 A 
ATOM     13  C   UNL A   1      40.857  27.006  28.574  1.00  0.00     0.074 A 
ATOM     14  C   UNL A   1      41.100  29.302  29.465  1.00  0.00     0.049 A 
ATOM     15  N   UNL A   1      42.124  26.661  28.479  1.00  0.00    -0.248 NA
ATOM     16  C   UNL A   1      39.973  25.994  27.964  1.00  0.00     0.031 C 
ATOM     17  C   UNL A   1      40.702  30.641  29.909  1.00  0.00     0.029 A 
ATOM     18  N   UNL A   1      42.466  29.422  29.326  1.00  0.00    -0.354 N 
ATOM     19  C   UNL A   1      42.147  25.405  27.870  1.00  0.00     0.074 A 
ATOM     20  C   UNL A   1      40.799  25.055  27.554  1.00  0.00     0.031 C 
ATOM     21  C   UNL A   1      41.742  31.476  29.798  1.00  0.00     0.029 A 
ATOM     22  C   UNL A   1      42.941  30.686  29.603  1.00  0.00     0.049 A 
ATOM     23  H   UNL A   1      43.047  28.676  29.055  1.00  0.00     0.167 HD
ATOM     24  C   UNL A   1      43.184  24.569  27.635  1.00  0.00     0.037 A 
ATOM     25  C   UNL A   1      44.185  31.160  29.823  1.00  0.00     0.037 A 
ATOM     26  C   UNL A   1      44.531  24.887  27.995  1.00  0.00     0.049 A 
ATOM     27  C   UNL A   1      45.307  30.173  29.765  1.00  0.00     0.074 A 
ATOM     28  C   UNL A   1      45.647  24.075  27.963  1.00  0.00     0.029 A 
ATOM     29  N   UNL A   1      44.932  26.122  28.477  1.00  0.00    -0.354 N 
ATOM     30  N   UNL A   1      45.273  28.923  29.372  1.00  0.00    -0.248 NA
ATOM     31  C   UNL A   1      46.620  30.628  30.234  1.00  0.00     0.031 C 
ATOM     32  C   UNL A   1      46.710  24.797  28.511  1.00  0.00     0.029 A 
ATOM     33  C   UNL A   1      46.276  26.085  28.786  1.00  0.00     0.049 A 
ATOM     34  H   UNL A   1      44.347  26.906  28.583  1.00  0.00     0.167 HD
ATOM     35  C   UNL A   1      46.560  28.439  29.539  1.00  0.00     0.074 A 
ATOM     36  C   UNL A   1      47.355  29.538  30.053  1.00  0.00     0.031 C 
ATOM     37  C   UNL A   1      47.039  27.197  29.290  1.00  0.00     0.037 A 
BRANCH  24  38
ATOM     38  C   UNL A   1      42.851  23.183  27.145  1.00  0.00     0.057 A 
ATOM     39  C   UNL A   1      42.930  22.802  25.798  1.00  0.00     0.134 A 
ATOM     40  C   UNL A   1      42.348  22.237  28.049  1.00  0.00     0.134 A 
ATOM     41  F   UNL A   1      43.351  23.671  24.868  1.00  0.00    -0.206 F 
ATOM     42  C   UNL A   1      42.493  21.544  25.368  1.00  0.00     0.040 A 
ATOM     43  C   UNL A   1      41.940  20.967  27.638  1.00  0.00     0.040 A 
ATOM     44  F   UNL A   1      42.223  22.539  29.351  1.00  0.00    -0.206 F 
ATOM     45  C   UNL A   1      42.001  20.622  26.291  1.00  0.00     0.006 A 
ENDBRANCH  24  38
BRANCH  25  46
ATOM     46  C   UNL A   1      44.389  32.565  30.297  1.00  0.00     0.057 A 
ATOM     47  C   UNL A   1      44.609  33.626  29.411  1.00  0.00     0.134 A 
ATOM     48  C   UNL A   1      44.343  32.889  31.665  1.00  0.00     0.134 A 
ATOM     49  F   UNL A   1      44.708  33.396  28.093  1.00  0.00    -0.206 F 
ATOM     50  C   UNL A   1      44.750  34.944  29.861  1.00  0.00     0.040 A 
ATOM     51  C   UNL A   1      44.436  34.204  32.125  1.00  0.00     0.040 A 
ATOM     52  F   UNL A   1      44.149  31.929  32.583  1.00  0.00    -0.206 F 
ATOM     53  C   UNL A   1      44.644  35.238  31.220  1.00  0.00     0.006 A 
ENDBRANCH  25  46
BRANCH  37  54
ATOM     54  C   UNL A   1      48.500  26.975  29.500  1.00  0.00     0.057 A 
ATOM     55  C   UNL A   1      49.009  26.442  30.689  1.00  0.00     0.134 A 
ATOM     56  C   UNL A   1      49.399  27.234  28.459  1.00  0.00     0.134 A 
ATOM     57  F   UNL A   1      48.194  26.180  31.723  1.00  0.00    -0.206 F 
ATOM     58  C   UNL A   1      50.372  26.194  30.842  1.00  0.00     0.040 A 
ATOM     59  C   UNL A   1      50.757  26.960  28.588  1.00  0.00     0.040 A 
ATOM     60  F   UNL A   1      48.964  27.732  27.291  1.00  0.00    -0.206 F 
ATOM     61  C   UNL A   1      51.248  26.445  29.785  1.00  0.00     0.006 A 
ENDBRANCH  37  54
ENDBRANCH  11  12
ENDBRANCH   4   6
ENDBRANCH   3   4
ENDBRANCH   2   3
ENDBRANCH   1   2
BRANCH   1  62
ATOM     62  O   UNL A   1      33.534  28.421  26.915  1.00  0.00    -0.461 OA
BRANCH  62  63
ATOM     63  C   UNL A   1      32.499  27.537  26.699  1.00  0.00     0.328 C 
ATOM     64  O   UNL A   1      31.418  27.617  27.264  1.00  0.00    -0.250 OA
BRANCH  63  65
ATOM     65  C   UNL A   1      32.786  26.589  25.435  1.00  0.00     0.195 C 
ATOM     66  C   UNL A   1      33.863  25.025  25.847  1.00  0.00     0.037 C 
ATOM     67  N   UNL A   1      31.375  26.254  24.614  1.00  0.00    -0.322 N 
ATOM     68  C   UNL A   1      32.725  23.222  26.431  1.00  0.00     0.005 C 
ATOM     69  C   UNL A   1      30.221  25.020  25.117  1.00  0.00     0.121 C 
ATOM     70  C   UNL A   1      30.811  23.381  25.922  1.00  0.00     0.022 C 
BRANCH  67  71
ATOM     71  C   UNL A   1      31.480  26.760  23.283  1.00  0.00     0.291 C 
ATOM     72  O   UNL A   1      32.294  26.268  22.497  1.00  0.00    -0.265 OA
BRANCH  71  73
ATOM     73  C   UNL A   1      30.618  27.787  22.776  1.00  0.00     0.214 A 
ATOM     74  N   UNL A   1      29.371  28.025  23.103  1.00  0.00    -0.207 NA
ATOM     75  N   UNL A   1      31.083  28.835  22.023  1.00  0.00    -0.255 N 
ATOM     76  C   UNL A   1      29.109  29.219  22.474  1.00  0.00     0.154 A 
ATOM     77  N   UNL A   1      30.100  29.695  21.714  1.00  0.00    -0.158 NA
ATOM     78  H   UNL A   1      32.021  28.943  21.743  1.00  0.00     0.192 HD
BRANCH  76  79
ATOM     79  C   UNL A   1      27.801  29.952  22.672  1.00  0.00     0.060 C 
ATOM     80  C   UNL A   1      27.839  31.172  23.568  1.00  0.00     0.012 C 
ATOM     81  C   UNL A   1      27.660  31.344  22.095  1.00  0.00     0.012 C 
ENDBRANCH  76  79
ENDBRANCH  71  73
ENDBRANCH  67  71
ENDBRANCH  63  65
ENDBRANCH  62  63
ENDBRANCH   1  62
TORSDOF 14
ENDMDL
