MODEL 1
REMARK VINA RESULT:     -11.8      0.000      0.000
REMARK SMILES CC(C)[N@@H+](C)Cc1cc2c(cc1Cl)C=C(C(=O)OCCOC(=O)c1ccc(-c3c4nc(c(-c5c(F)cccc5F)c5ccc([nH]5)c(-c5c(F)cccc5F)c5nc(c(-c6c(F)cccc6F)c6ccc3[nH]6)C=C5)C=C4)cc1)[C@@H](C(F)(F)F)O2
REMARK SMILES IDX 19 1 18 2 16 3 17 4 15 5 7 6 8 7 12 8 9 9 11 10 13 11 10 12
REMARK SMILES IDX 83 13 14 14 78 15 6 16 4 17 5 18 2 20 1 21 3 22 79 23 80 24
REMARK SMILES IDX 81 25 82 26 20 27 21 28 22 29 23 30 24 31 25 32 77 33 26 34
REMARK SMILES IDX 76 35 27 36 28 37 29 38 70 39 30 40 75 41 69 42 71 43 31 44
REMARK SMILES IDX 74 45 68 46 67 47 32 49 58 50 41 51 57 52 42 53 45 54 56 55
REMARK SMILES IDX 72 56 43 57 44 58 55 60 73 61 46 62 33 63 34 64 39 65 35 66
REMARK SMILES IDX 36 67 38 68 40 69 37 70 59 71 60 72 65 73 61 74 62 75 64 76
REMARK SMILES IDX 66 77 63 78 47 79 48 80 53 81 49 82 50 83 52 84 54 85 51 86
REMARK H PARENT 4 19 71 48 45 59
REMARK Flexibility Score: inf
ROOT
ATOM      1  C   UNL A   1      31.634  28.977  24.585  1.00  0.00     0.275 C 
ENDROOT
BRANCH   1   2
ATOM      2  O   UNL A   1      32.089  27.664  24.974  1.00  0.00    -0.459 OA
BRANCH   2   3
ATOM      3  C   UNL A   1      32.985  27.077  24.144  1.00  0.00     0.338 C 
ATOM      4  O   UNL A   1      33.683  27.629  23.317  1.00  0.00    -0.246 OA
BRANCH   3   5
ATOM      5  C   UNL A   1      33.080  25.635  24.457  1.00  0.00     0.087 C 
ATOM      6  C   UNL A   1      34.605  20.891  24.884  1.00  0.00     0.029 A 
ATOM      7  C   UNL A   1      33.378  21.545  25.112  1.00  0.00     0.058 A 
ATOM      8  C   UNL A   1      35.769  21.672  24.810  1.00  0.00     0.050 A 
ATOM      9  C   UNL A   1      33.276  22.927  25.005  1.00  0.00     0.128 A 
ATOM     10  C   UNL A   1      35.673  23.061  24.747  1.00  0.00     0.033 A 
ATOM     11  Cl  UNL A   1      37.355  20.994  24.752  1.00  0.00    -0.084 Cl
ATOM     12  C   UNL A   1      34.419  23.674  24.762  1.00  0.00     0.019 A 
ATOM     13  O   UNL A   1      32.024  23.467  25.097  1.00  0.00    -0.475 OA
ATOM     14  C   UNL A   1      34.298  25.084  24.480  1.00  0.00     0.027 C 
ATOM     15  C   UNL A   1      31.825  24.827  24.615  1.00  0.00     0.316 C 
BRANCH   6  16
ATOM     16  C   UNL A   1      34.601  19.404  24.599  1.00  0.00     0.300 C 
BRANCH  16  17
ATOM     17  N   UNL A   1      33.273  18.761  24.549  1.00  0.00    -0.332 N 
ATOM     18  C   UNL A   1      32.764  18.352  25.854  1.00  0.00     0.333 C 
ATOM     19  H   UNL A   1      32.730  19.561  24.221  1.00  0.00     0.348 HD
BRANCH  17  20
ATOM     20  C   UNL A   1      32.962  17.791  23.482  1.00  0.00     0.177 C 
ATOM     21  C   UNL A   1      32.288  18.416  22.257  1.00  0.00     0.075 C 
ATOM     22  C   UNL A   1      34.091  16.827  23.083  1.00  0.00     0.075 C 
ENDBRANCH  17  20
ENDBRANCH  16  17
ENDBRANCH   6  16
BRANCH  15  23
ATOM     23  C   UNL A   1      31.063  24.786  23.277  1.00  0.00     0.430 C 
ATOM     24  F   UNL A   1      30.286  23.682  23.177  1.00  0.00    -0.167 F 
ATOM     25  F   UNL A   1      30.240  25.856  23.145  1.00  0.00    -0.167 F 
ATOM     26  F   UNL A   1      31.899  24.790  22.213  1.00  0.00    -0.167 F 
ENDBRANCH  15  23
ENDBRANCH   3   5
ENDBRANCH   2   3
ENDBRANCH   1   2
BRANCH   1  27
ATOM     27  C   UNL A   1      31.791  29.972  25.737  1.00  0.00     0.275 C 
BRANCH  27  28
ATOM     28  O   UNL A   1      33.164  30.032  26.170  1.00  0.00    -0.458 OA
BRANCH  28  29
ATOM     29  C   UNL A   1      33.474  31.073  26.974  1.00  0.00     0.338 C 
ATOM     30  O   UNL A   1      32.759  32.009  27.293  1.00  0.00    -0.246 OA
BRANCH  29  31
ATOM     31  C   UNL A   1      34.804  30.859  27.560  1.00  0.00     0.060 A 
ATOM     32  C   UNL A   1      35.666  31.903  27.860  1.00  0.00     0.016 A 
ATOM     33  C   UNL A   1      35.120  29.568  27.962  1.00  0.00     0.016 A 
ATOM     34  C   UNL A   1      36.854  31.626  28.552  1.00  0.00     0.010 A 
ATOM     35  C   UNL A   1      36.204  29.322  28.795  1.00  0.00     0.010 A 
ATOM     36  C   UNL A   1      37.122  30.337  29.066  1.00  0.00    -0.014 A 
BRANCH  36  37
ATOM     37  C   UNL A   1      38.357  30.047  29.857  1.00  0.00     0.031 A 
ATOM     38  C   UNL A   1      38.524  30.563  31.273  1.00  0.00     0.074 A 
ATOM     39  C   UNL A   1      39.356  29.335  29.296  1.00  0.00     0.049 A 
ATOM     40  N   UNL A   1      39.511  30.368  32.114  1.00  0.00    -0.248 NA
ATOM     41  C   UNL A   1      37.472  31.449  31.802  1.00  0.00     0.031 C 
ATOM     42  C   UNL A   1      39.392  28.872  27.907  1.00  0.00     0.029 A 
ATOM     43  N   UNL A   1      40.528  28.856  29.830  1.00  0.00    -0.354 N 
ATOM     44  C   UNL A   1      39.205  31.118  33.246  1.00  0.00     0.074 A 
ATOM     45  C   UNL A   1      37.993  31.845  32.952  1.00  0.00     0.031 C 
ATOM     46  C   UNL A   1      40.478  28.104  27.724  1.00  0.00     0.029 A 
ATOM     47  C   UNL A   1      41.240  28.057  28.966  1.00  0.00     0.049 A 
ATOM     48  H   UNL A   1      40.829  29.066  30.744  1.00  0.00     0.167 HD
ATOM     49  C   UNL A   1      39.838  31.164  34.445  1.00  0.00     0.037 A 
ATOM     50  C   UNL A   1      42.368  27.348  29.159  1.00  0.00     0.037 A 
ATOM     51  C   UNL A   1      41.016  30.402  34.762  1.00  0.00     0.049 A 
ATOM     52  C   UNL A   1      43.033  27.380  30.508  1.00  0.00     0.074 A 
ATOM     53  C   UNL A   1      41.690  30.314  35.968  1.00  0.00     0.029 A 
ATOM     54  N   UNL A   1      41.693  29.593  33.863  1.00  0.00    -0.354 N 
ATOM     55  N   UNL A   1      42.669  28.013  31.596  1.00  0.00    -0.248 NA
ATOM     56  C   UNL A   1      44.264  26.591  30.654  1.00  0.00     0.031 C 
ATOM     57  C   UNL A   1      42.797  29.477  35.788  1.00  0.00     0.029 A 
ATOM     58  C   UNL A   1      42.786  29.011  34.484  1.00  0.00     0.049 A 
ATOM     59  H   UNL A   1      41.434  29.452  32.924  1.00  0.00     0.167 HD
ATOM     60  C   UNL A   1      43.613  27.684  32.561  1.00  0.00     0.074 A 
ATOM     61  C   UNL A   1      44.547  26.772  31.936  1.00  0.00     0.031 C 
ATOM     62  C   UNL A   1      43.702  28.102  33.846  1.00  0.00     0.037 A 
BRANCH  49  63
ATOM     63  C   UNL A   1      39.241  32.040  35.513  1.00  0.00     0.057 A 
ATOM     64  C   UNL A   1      39.593  33.392  35.618  1.00  0.00     0.134 A 
ATOM     65  C   UNL A   1      38.328  31.539  36.453  1.00  0.00     0.134 A 
ATOM     66  F   UNL A   1      40.469  33.938  34.761  1.00  0.00    -0.206 F 
ATOM     67  C   UNL A   1      39.054  34.213  36.611  1.00  0.00     0.040 A 
ATOM     68  C   UNL A   1      37.758  32.358  37.430  1.00  0.00     0.040 A 
ATOM     69  F   UNL A   1      37.940  30.256  36.407  1.00  0.00    -0.206 F 
ATOM     70  C   UNL A   1      38.126  33.698  37.515  1.00  0.00     0.006 A 
ENDBRANCH  49  63
BRANCH  50  71
ATOM     71  C   UNL A   1      42.923  26.506  28.068  1.00  0.00     0.057 A 
ATOM     72  C   UNL A   1      43.893  26.993  27.184  1.00  0.00     0.134 A 
ATOM     73  C   UNL A   1      42.511  25.177  27.901  1.00  0.00     0.134 A 
ATOM     74  F   UNL A   1      44.324  28.258  27.281  1.00  0.00    -0.206 F 
ATOM     75  C   UNL A   1      44.434  26.190  26.177  1.00  0.00     0.040 A 
ATOM     76  C   UNL A   1      43.064  24.355  26.918  1.00  0.00     0.040 A 
ATOM     77  F   UNL A   1      41.596  24.646  28.726  1.00  0.00    -0.206 F 
ATOM     78  C   UNL A   1      44.027  24.863  26.050  1.00  0.00     0.006 A 
ENDBRANCH  50  71
BRANCH  62  79
ATOM     79  C   UNL A   1      44.834  27.552  34.664  1.00  0.00     0.057 A 
ATOM     80  C   UNL A   1      44.681  26.362  35.385  1.00  0.00     0.134 A 
ATOM     81  C   UNL A   1      46.068  28.209  34.752  1.00  0.00     0.134 A 
ATOM     82  F   UNL A   1      43.521  25.689  35.352  1.00  0.00    -0.206 F 
ATOM     83  C   UNL A   1      45.715  25.842  36.162  1.00  0.00     0.040 A 
ATOM     84  C   UNL A   1      47.120  27.684  35.502  1.00  0.00     0.040 A 
ATOM     85  F   UNL A   1      46.283  29.347  34.073  1.00  0.00    -0.206 F 
ATOM     86  C   UNL A   1      46.944  26.500  36.215  1.00  0.00     0.006 A 
ENDBRANCH  62  79
ENDBRANCH  36  37
ENDBRANCH  29  31
ENDBRANCH  28  29
ENDBRANCH  27  28
ENDBRANCH   1  27
TORSDOF 15
ENDMDL
MODEL 2
REMARK VINA RESULT:     -11.7      4.305      9.109
REMARK SMILES CC(C)[N@@H+](C)Cc1cc2c(cc1Cl)C=C(C(=O)OCCOC(=O)c1ccc(-c3c4nc(c(-c5c(F)cccc5F)c5ccc([nH]5)c(-c5c(F)cccc5F)c5nc(c(-c6c(F)cccc6F)c6ccc3[nH]6)C=C5)C=C4)cc1)[C@@H](C(F)(F)F)O2
REMARK SMILES IDX 19 1 18 2 16 3 17 4 15 5 7 6 8 7 12 8 9 9 11 10 13 11 10 12
REMARK SMILES IDX 83 13 14 14 78 15 6 16 4 17 5 18 2 20 1 21 3 22 79 23 80 24
REMARK SMILES IDX 81 25 82 26 20 27 21 28 22 29 23 30 24 31 25 32 77 33 26 34
REMARK SMILES IDX 76 35 27 36 28 37 29 38 70 39 30 40 75 41 69 42 71 43 31 44
REMARK SMILES IDX 74 45 68 46 67 47 32 49 58 50 41 51 57 52 42 53 45 54 56 55
REMARK SMILES IDX 72 56 43 57 44 58 55 60 73 61 46 62 33 63 34 64 39 65 35 66
REMARK SMILES IDX 36 67 38 68 40 69 37 70 59 71 60 72 65 73 61 74 62 75 64 76
REMARK SMILES IDX 66 77 63 78 47 79 48 80 53 81 49 82 50 83 52 84 54 85 51 86
REMARK H PARENT 4 19 71 48 45 59
REMARK Flexibility Score: inf
ROOT
ATOM      1  C   UNL A   1      36.188  20.214  25.002  1.00  0.00     0.275 C 
ENDROOT
BRANCH   1   2
ATOM      2  O   UNL A   1      35.983  21.563  24.532  1.00  0.00    -0.459 OA
BRANCH   2   3
ATOM      3  C   UNL A   1      35.211  22.354  25.317  1.00  0.00     0.338 C 
ATOM      4  O   UNL A   1      35.132  22.322  26.529  1.00  0.00    -0.246 OA
BRANCH   3   5
ATOM      5  C   UNL A   1      34.529  23.366  24.482  1.00  0.00     0.087 C 
ATOM      6  C   UNL A   1      32.121  27.437  22.859  1.00  0.00     0.029 A 
ATOM      7  C   UNL A   1      32.430  26.190  22.278  1.00  0.00     0.058 A 
ATOM      8  C   UNL A   1      32.837  27.833  23.998  1.00  0.00     0.050 A 
ATOM      9  C   UNL A   1      33.222  25.267  22.951  1.00  0.00     0.128 A 
ATOM     10  C   UNL A   1      33.668  26.924  24.650  1.00  0.00     0.033 A 
ATOM     11  Cl  UNL A   1      32.718  29.414  24.681  1.00  0.00    -0.084 Cl
ATOM     12  C   UNL A   1      33.789  25.621  24.167  1.00  0.00     0.019 A 
ATOM     13  O   UNL A   1      33.353  24.031  22.385  1.00  0.00    -0.475 OA
ATOM     14  C   UNL A   1      34.467  24.617  24.951  1.00  0.00     0.027 C 
ATOM     15  C   UNL A   1      33.835  22.940  23.221  1.00  0.00     0.316 C 
BRANCH   6  16
ATOM     16  C   UNL A   1      30.951  28.229  22.313  1.00  0.00     0.300 C 
BRANCH  16  17
ATOM     17  N   UNL A   1      29.799  28.387  23.223  1.00  0.00    -0.332 N 
ATOM     18  C   UNL A   1      29.162  27.127  23.595  1.00  0.00     0.333 C 
ATOM     19  H   UNL A   1      30.297  28.755  24.034  1.00  0.00     0.348 HD
BRANCH  17  20
ATOM     20  C   UNL A   1      28.831  29.477  23.005  1.00  0.00     0.177 C 
ATOM     21  C   UNL A   1      29.169  30.373  21.808  1.00  0.00     0.075 C 
ATOM     22  C   UNL A   1      27.344  29.087  23.024  1.00  0.00     0.075 C 
ENDBRANCH  17  20
ENDBRANCH  16  17
ENDBRANCH   6  16
BRANCH  15  23
ATOM     23  C   UNL A   1      32.661  22.005  23.565  1.00  0.00     0.430 C 
ATOM     24  F   UNL A   1      33.021  20.702  23.492  1.00  0.00    -0.167 F 
ATOM     25  F   UNL A   1      32.216  22.217  24.829  1.00  0.00    -0.167 F 
ATOM     26  F   UNL A   1      31.607  22.181  22.734  1.00  0.00    -0.167 F 
ENDBRANCH  15  23
ENDBRANCH   3   5
ENDBRANCH   2   3
ENDBRANCH   1   2
BRANCH   1  27
ATOM     27  C   UNL A   1      37.676  19.855  24.998  1.00  0.00     0.275 C 
BRANCH  27  28
ATOM     28  O   UNL A   1      38.473  20.999  25.361  1.00  0.00    -0.458 OA
BRANCH  28  29
ATOM     29  C   UNL A   1      39.532  20.739  26.160  1.00  0.00     0.338 C 
ATOM     30  O   UNL A   1      40.111  19.676  26.309  1.00  0.00    -0.246 OA
BRANCH  29  31
ATOM     31  C   UNL A   1      40.013  21.993  26.758  1.00  0.00     0.060 A 
ATOM     32  C   UNL A   1      41.066  22.035  27.659  1.00  0.00     0.016 A 
ATOM     33  C   UNL A   1      39.479  23.175  26.266  1.00  0.00     0.016 A 
ATOM     34  C   UNL A   1      41.559  23.282  28.068  1.00  0.00     0.010 A 
ATOM     35  C   UNL A   1      40.078  24.399  26.535  1.00  0.00     0.010 A 
ATOM     36  C   UNL A   1      41.100  24.483  27.483  1.00  0.00    -0.014 A 
BRANCH  36  37
ATOM     37  C   UNL A   1      41.663  25.813  27.869  1.00  0.00     0.031 A 
ATOM     38  C   UNL A   1      43.051  26.237  27.432  1.00  0.00     0.074 A 
ATOM     39  C   UNL A   1      40.936  26.645  28.644  1.00  0.00     0.049 A 
ATOM     40  N   UNL A   1      43.676  27.371  27.644  1.00  0.00    -0.248 NA
ATOM     41  C   UNL A   1      43.866  25.249  26.704  1.00  0.00     0.031 C 
ATOM     42  C   UNL A   1      39.635  26.331  29.239  1.00  0.00     0.029 A 
ATOM     43  N   UNL A   1      41.177  27.936  29.048  1.00  0.00    -0.354 N 
ATOM     44  C   UNL A   1      44.946  27.218  27.096  1.00  0.00     0.074 A 
ATOM     45  C   UNL A   1      45.040  25.855  26.628  1.00  0.00     0.031 C 
ATOM     46  C   UNL A   1      39.154  27.423  29.852  1.00  0.00     0.029 A 
ATOM     47  C   UNL A   1      40.129  28.501  29.737  1.00  0.00     0.049 A 
ATOM     48  H   UNL A   1      42.020  28.410  28.864  1.00  0.00     0.167 HD
ATOM     49  C   UNL A   1      45.933  28.135  26.943  1.00  0.00     0.037 A 
ATOM     50  C   UNL A   1      39.962  29.753  30.203  1.00  0.00     0.037 A 
ATOM     51  C   UNL A   1      45.828  29.508  27.360  1.00  0.00     0.049 A 
ATOM     52  C   UNL A   1      41.052  30.767  29.988  1.00  0.00     0.074 A 
ATOM     53  C   UNL A   1      46.735  30.538  27.181  1.00  0.00     0.029 A 
ATOM     54  N   UNL A   1      44.742  30.041  28.036  1.00  0.00    -0.354 N 
ATOM     55  N   UNL A   1      42.202  30.629  29.376  1.00  0.00    -0.248 NA
ATOM     56  C   UNL A   1      40.814  32.113  30.526  1.00  0.00     0.031 C 
ATOM     57  C   UNL A   1      46.212  31.687  27.783  1.00  0.00     0.029 A 
ATOM     58  C   UNL A   1      44.962  31.384  28.296  1.00  0.00     0.049 A 
ATOM     59  H   UNL A   1      43.934  29.540  28.294  1.00  0.00     0.167 HD
ATOM     60  C   UNL A   1      42.816  31.874  29.436  1.00  0.00     0.074 A 
ATOM     61  C   UNL A   1      41.897  32.760  30.119  1.00  0.00     0.031 C 
ATOM     62  C   UNL A   1      44.033  32.250  28.973  1.00  0.00     0.037 A 
BRANCH  49  63
ATOM     63  C   UNL A   1      47.198  27.688  26.261  1.00  0.00     0.057 A 
ATOM     64  C   UNL A   1      48.304  27.253  27.003  1.00  0.00     0.134 A 
ATOM     65  C   UNL A   1      47.329  27.705  24.864  1.00  0.00     0.134 A 
ATOM     66  F   UNL A   1      48.257  27.221  28.343  1.00  0.00    -0.206 F 
ATOM     67  C   UNL A   1      49.487  26.846  26.382  1.00  0.00     0.040 A 
ATOM     68  C   UNL A   1      48.495  27.270  24.231  1.00  0.00     0.040 A 
ATOM     69  F   UNL A   1      46.307  28.102  24.091  1.00  0.00    -0.206 F 
ATOM     70  C   UNL A   1      49.581  26.844  24.991  1.00  0.00     0.006 A 
ENDBRANCH  49  63
BRANCH  50  71
ATOM     71  C   UNL A   1      38.697  30.141  30.880  1.00  0.00     0.057 A 
ATOM     72  C   UNL A   1      38.517  29.967  32.257  1.00  0.00     0.134 A 
ATOM     73  C   UNL A   1      37.645  30.724  30.162  1.00  0.00     0.134 A 
ATOM     74  F   UNL A   1      39.480  29.407  33.001  1.00  0.00    -0.206 F 
ATOM     75  C   UNL A   1      37.338  30.359  32.895  1.00  0.00     0.040 A 
ATOM     76  C   UNL A   1      36.473  31.147  30.791  1.00  0.00     0.040 A 
ATOM     77  F   UNL A   1      37.763  30.932  28.842  1.00  0.00    -0.206 F 
ATOM     78  C   UNL A   1      36.317  30.963  32.163  1.00  0.00     0.006 A 
ENDBRANCH  50  71
BRANCH  62  79
ATOM     79  C   UNL A   1      44.421  33.686  29.168  1.00  0.00     0.057 A 
ATOM     80  C   UNL A   1      44.106  34.648  28.201  1.00  0.00     0.134 A 
ATOM     81  C   UNL A   1      45.122  34.114  30.304  1.00  0.00     0.134 A 
ATOM     82  F   UNL A   1      43.445  34.303  27.086  1.00  0.00    -0.206 F 
ATOM     83  C   UNL A   1      44.471  35.985  28.356  1.00  0.00     0.040 A 
ATOM     84  C   UNL A   1      45.466  35.453  30.485  1.00  0.00     0.040 A 
ATOM     85  F   UNL A   1      45.441  33.244  31.274  1.00  0.00    -0.206 F 
ATOM     86  C   UNL A   1      45.146  36.393  29.506  1.00  0.00     0.006 A 
ENDBRANCH  62  79
ENDBRANCH  36  37
ENDBRANCH  29  31
ENDBRANCH  28  29
ENDBRANCH  27  28
ENDBRANCH   1  27
TORSDOF 15
ENDMDL
MODEL 3
REMARK VINA RESULT:     -11.6      4.191      9.070
REMARK SMILES CC(C)[N@@H+](C)Cc1cc2c(cc1Cl)C=C(C(=O)OCCOC(=O)c1ccc(-c3c4nc(c(-c5c(F)cccc5F)c5ccc([nH]5)c(-c5c(F)cccc5F)c5nc(c(-c6c(F)cccc6F)c6ccc3[nH]6)C=C5)C=C4)cc1)[C@@H](C(F)(F)F)O2
REMARK SMILES IDX 19 1 18 2 16 3 17 4 15 5 7 6 8 7 12 8 9 9 11 10 13 11 10 12
REMARK SMILES IDX 83 13 14 14 78 15 6 16 4 17 5 18 2 20 1 21 3 22 79 23 80 24
REMARK SMILES IDX 81 25 82 26 20 27 21 28 22 29 23 30 24 31 25 32 77 33 26 34
REMARK SMILES IDX 76 35 27 36 28 37 29 38 70 39 30 40 75 41 69 42 71 43 31 44
REMARK SMILES IDX 74 45 68 46 67 47 32 49 58 50 41 51 57 52 42 53 45 54 56 55
REMARK SMILES IDX 72 56 43 57 44 58 55 60 73 61 46 62 33 63 34 64 39 65 35 66
REMARK SMILES IDX 36 67 38 68 40 69 37 70 59 71 60 72 65 73 61 74 62 75 64 76
REMARK SMILES IDX 66 77 63 78 47 79 48 80 53 81 49 82 50 83 52 84 54 85 51 86
REMARK H PARENT 4 19 71 48 45 59
REMARK Flexibility Score: inf
ROOT
ATOM      1  C   UNL A   1      34.868  20.977  24.850  1.00  0.00     0.275 C 
ENDROOT
BRANCH   1   2
ATOM      2  O   UNL A   1      34.779  22.411  24.714  1.00  0.00    -0.459 OA
BRANCH   2   3
ATOM      3  C   UNL A   1      34.073  23.056  25.675  1.00  0.00     0.338 C 
ATOM      4  O   UNL A   1      33.985  22.746  26.847  1.00  0.00    -0.246 OA
BRANCH   3   5
ATOM      5  C   UNL A   1      33.484  24.290  25.113  1.00  0.00     0.087 C 
ATOM      6  C   UNL A   1      31.592  28.880  24.510  1.00  0.00     0.029 A 
ATOM      7  C   UNL A   1      31.657  27.736  23.688  1.00  0.00     0.058 A 
ATOM      8  C   UNL A   1      32.454  28.953  25.613  1.00  0.00     0.050 A 
ATOM      9  C   UNL A   1      32.354  26.605  24.096  1.00  0.00     0.128 A 
ATOM     10  C   UNL A   1      33.190  27.834  25.999  1.00  0.00     0.033 A 
ATOM     11  Cl  UNL A   1      32.636  30.377  26.572  1.00  0.00    -0.084 Cl
ATOM     12  C   UNL A   1      33.070  26.642  25.283  1.00  0.00     0.019 A 
ATOM     13  O   UNL A   1      32.247  25.492  23.310  1.00  0.00    -0.475 OA
ATOM     14  C   UNL A   1      33.653  25.426  25.798  1.00  0.00     0.027 C 
ATOM     15  C   UNL A   1      32.628  24.208  23.882  1.00  0.00     0.316 C 
BRANCH   6  16
ATOM     16  C   UNL A   1      30.513  29.909  24.246  1.00  0.00     0.300 C 
BRANCH  16  17
ATOM     17  N   UNL A   1      29.627  29.636  23.097  1.00  0.00    -0.332 N 
ATOM     18  C   UNL A   1      30.169  30.076  21.815  1.00  0.00     0.333 C 
ATOM     19  H   UNL A   1      29.647  28.617  23.130  1.00  0.00     0.348 HD
BRANCH  17  20
ATOM     20  C   UNL A   1      28.175  29.863  23.215  1.00  0.00     0.177 C 
ATOM     21  C   UNL A   1      27.655  31.003  22.332  1.00  0.00     0.075 C 
ATOM     22  C   UNL A   1      27.277  28.618  23.128  1.00  0.00     0.075 C 
ENDBRANCH  17  20
ENDBRANCH  16  17
ENDBRANCH   6  16
BRANCH  15  23
ATOM     23  C   UNL A   1      31.359  23.389  24.187  1.00  0.00     0.430 C 
ATOM     24  F   UNL A   1      30.835  23.710  25.393  1.00  0.00    -0.167 F 
ATOM     25  F   UNL A   1      30.390  23.621  23.266  1.00  0.00    -0.167 F 
ATOM     26  F   UNL A   1      31.599  22.058  24.189  1.00  0.00    -0.167 F 
ENDBRANCH  15  23
ENDBRANCH   3   5
ENDBRANCH   2   3
ENDBRANCH   1   2
BRANCH   1  27
ATOM     27  C   UNL A   1      36.324  20.532  24.999  1.00  0.00     0.275 C 
BRANCH  27  28
ATOM     28  O   UNL A   1      37.082  21.516  25.728  1.00  0.00    -0.458 OA
BRANCH  28  29
ATOM     29  C   UNL A   1      38.406  21.267  25.834  1.00  0.00     0.338 C 
ATOM     30  O   UNL A   1      39.025  20.313  25.391  1.00  0.00    -0.246 OA
BRANCH  29  31
ATOM     31  C   UNL A   1      39.071  22.416  26.466  1.00  0.00     0.060 A 
ATOM     32  C   UNL A   1      40.254  22.295  27.180  1.00  0.00     0.016 A 
ATOM     33  C   UNL A   1      38.558  23.675  26.189  1.00  0.00     0.016 A 
ATOM     34  C   UNL A   1      40.900  23.458  27.624  1.00  0.00     0.010 A 
ATOM     35  C   UNL A   1      39.285  24.824  26.476  1.00  0.00     0.010 A 
ATOM     36  C   UNL A   1      40.448  24.741  27.245  1.00  0.00    -0.014 A 
BRANCH  36  37
ATOM     37  C   UNL A   1      41.165  25.984  27.663  1.00  0.00     0.031 A 
ATOM     38  C   UNL A   1      42.581  26.268  27.203  1.00  0.00     0.074 A 
ATOM     39  C   UNL A   1      40.555  26.861  28.488  1.00  0.00     0.049 A 
ATOM     40  N   UNL A   1      43.335  27.316  27.438  1.00  0.00    -0.248 NA
ATOM     41  C   UNL A   1      43.263  25.225  26.416  1.00  0.00     0.031 C 
ATOM     42  C   UNL A   1      39.242  26.670  29.107  1.00  0.00     0.029 A 
ATOM     43  N   UNL A   1      40.949  28.100  28.932  1.00  0.00    -0.354 N 
ATOM     44  C   UNL A   1      44.565  27.045  26.849  1.00  0.00     0.074 A 
ATOM     45  C   UNL A   1      44.495  25.700  26.329  1.00  0.00     0.031 C 
ATOM     46  C   UNL A   1      38.901  27.784  29.774  1.00  0.00     0.029 A 
ATOM     47  C   UNL A   1      39.987  28.751  29.669  1.00  0.00     0.049 A 
ATOM     48  H   UNL A   1      41.835  28.484  28.741  1.00  0.00     0.167 HD
ATOM     49  C   UNL A   1      45.645  27.852  26.702  1.00  0.00     0.037 A 
ATOM     50  C   UNL A   1      39.973  29.994  30.186  1.00  0.00     0.037 A 
ATOM     51  C   UNL A   1      45.705  29.210  27.171  1.00  0.00     0.049 A 
ATOM     52  C   UNL A   1      41.164  30.888  29.977  1.00  0.00     0.074 A 
ATOM     53  C   UNL A   1      46.717  30.140  27.004  1.00  0.00     0.029 A 
ATOM     54  N   UNL A   1      44.702  29.834  27.897  1.00  0.00    -0.354 N 
ATOM     55  N   UNL A   1      42.277  30.647  29.328  1.00  0.00    -0.248 NA
ATOM     56  C   UNL A   1      41.092  32.230  30.570  1.00  0.00     0.031 C 
ATOM     57  C   UNL A   1      46.341  31.315  27.662  1.00  0.00     0.029 A 
ATOM     58  C   UNL A   1      45.077  31.133  28.199  1.00  0.00     0.049 A 
ATOM     59  H   UNL A   1      43.850  29.416  28.158  1.00  0.00     0.167 HD
ATOM     60  C   UNL A   1      43.028  31.813  29.416  1.00  0.00     0.074 A 
ATOM     61  C   UNL A   1      42.230  32.768  30.156  1.00  0.00     0.031 C 
ATOM     62  C   UNL A   1      44.267  32.070  28.933  1.00  0.00     0.037 A 
BRANCH  49  63
ATOM     63  C   UNL A   1      46.836  27.294  25.968  1.00  0.00     0.057 A 
ATOM     64  C   UNL A   1      46.965  27.444  24.582  1.00  0.00     0.134 A 
ATOM     65  C   UNL A   1      47.849  26.589  26.636  1.00  0.00     0.134 A 
ATOM     66  F   UNL A   1      46.029  28.095  23.875  1.00  0.00    -0.206 F 
ATOM     67  C   UNL A   1      48.059  26.921  23.889  1.00  0.00     0.040 A 
ATOM     68  C   UNL A   1      48.964  26.091  25.958  1.00  0.00     0.040 A 
ATOM     69  F   UNL A   1      47.794  26.416  27.965  1.00  0.00    -0.206 F 
ATOM     70  C   UNL A   1      49.068  26.252  24.579  1.00  0.00     0.006 A 
ENDBRANCH  49  63
BRANCH  50  71
ATOM     71  C   UNL A   1      38.777  30.494  30.911  1.00  0.00     0.057 A 
ATOM     72  C   UNL A   1      37.753  31.185  30.252  1.00  0.00     0.134 A 
ATOM     73  C   UNL A   1      38.618  30.265  32.285  1.00  0.00     0.134 A 
ATOM     74  F   UNL A   1      37.846  31.446  28.941  1.00  0.00    -0.206 F 
ATOM     75  C   UNL A   1      36.616  31.628  30.932  1.00  0.00     0.040 A 
ATOM     76  C   UNL A   1      37.474  30.677  32.970  1.00  0.00     0.040 A 
ATOM     77  F   UNL A   1      39.557  29.595  32.969  1.00  0.00    -0.206 F 
ATOM     78  C   UNL A   1      36.469  31.364  32.292  1.00  0.00     0.006 A 
ENDBRANCH  50  71
BRANCH  62  79
ATOM     79  C   UNL A   1      44.819  33.445  29.168  1.00  0.00     0.057 A 
ATOM     80  C   UNL A   1      45.586  33.720  30.307  1.00  0.00     0.134 A 
ATOM     81  C   UNL A   1      44.577  34.500  28.279  1.00  0.00     0.134 A 
ATOM     82  F   UNL A   1      45.846  32.757  31.203  1.00  0.00    -0.206 F 
ATOM     83  C   UNL A   1      46.096  34.995  30.552  1.00  0.00     0.040 A 
ATOM     84  C   UNL A   1      45.106  35.772  28.498  1.00  0.00     0.040 A 
ATOM     85  F   UNL A   1      43.861  34.298  27.163  1.00  0.00    -0.206 F 
ATOM     86  C   UNL A   1      45.864  36.024  29.640  1.00  0.00     0.006 A 
ENDBRANCH  62  79
ENDBRANCH  36  37
ENDBRANCH  29  31
ENDBRANCH  28  29
ENDBRANCH  27  28
ENDBRANCH   1  27
TORSDOF 15
ENDMDL
