MODEL 1
REMARK VINA RESULT:      -9.9      0.000      0.000
REMARK SMILES CCCCSc1ccccc1C(=O)OCCOC(=O)c1ccc(-c2c3nc(c(-c4c(F)cccc4F)c4ccc([nH]4)c(-c4c(F)cccc4F)c4nc(c(-c5c(F)cccc5F)c5ccc2[nH]5)C=C4)C=C3)cc1
REMARK SMILES IDX 15 1 14 2 12 3 13 4 11 5 6 6 7 7 8 8 10 9 9 10 5 11 4 12
REMARK SMILES IDX 3 13 2 14 1 15 16 16 17 17 18 18 19 19 20 20 21 21 73 22
REMARK SMILES IDX 22 23 72 24 23 25 24 26 25 27 66 28 26 29 71 30 65 31 67 32
REMARK SMILES IDX 27 33 70 34 64 35 63 36 28 38 54 39 37 40 53 41 38 42 41 43
REMARK SMILES IDX 52 44 68 45 39 46 40 47 51 49 69 50 42 51 29 52 30 53 35 54
REMARK SMILES IDX 31 55 32 56 34 57 36 58 33 59 55 60 56 61 61 62 57 63 58 64
REMARK SMILES IDX 60 65 62 66 59 67 43 68 44 69 49 70 45 71 46 72 48 73 50 74
REMARK SMILES IDX 47 75
REMARK H PARENT 67 37 41 48
REMARK Flexibility Score: inf
ROOT
ATOM      1  C   UNL A   1      31.017  31.509  25.769  1.00  0.00     0.275 C 
ENDROOT
BRANCH   1   2
ATOM      2  O   UNL A   1      31.764  30.383  26.276  1.00  0.00    -0.458 OA
BRANCH   2   3
ATOM      3  C   UNL A   1      32.214  29.514  25.343  1.00  0.00     0.339 C 
ATOM      4  O   UNL A   1      33.262  29.625  24.718  1.00  0.00    -0.246 OA
BRANCH   3   5
ATOM      5  C   UNL A   1      31.346  28.319  25.168  1.00  0.00     0.073 A 
ATOM      6  C   UNL A   1      30.681  27.963  23.985  1.00  0.00     0.022 A 
ATOM      7  C   UNL A   1      30.115  26.677  23.897  1.00  0.00     0.016 A 
ATOM      8  C   UNL A   1      30.089  25.811  24.991  1.00  0.00     0.001 A 
ATOM      9  C   UNL A   1      31.326  27.428  26.261  1.00  0.00     0.017 A 
ATOM     10  C   UNL A   1      30.673  26.199  26.186  1.00  0.00     0.001 A 
BRANCH   6  11
ATOM     11  S   UNL A   1      30.510  28.967  22.518  1.00  0.00    -0.125 SA
BRANCH  11  12
ATOM     12  C   UNL A   1      28.757  29.486  22.672  1.00  0.00     0.075 C 
BRANCH  12  13
ATOM     13  C   UNL A   1      28.463  30.936  22.264  1.00  0.00     0.011 C 
BRANCH  13  14
ATOM     14  C   UNL A   1      28.346  31.980  23.378  1.00  0.00    -0.003 C 
ATOM     15  C   UNL A   1      28.861  33.363  23.011  1.00  0.00     0.004 C 
ENDBRANCH  13  14
ENDBRANCH  12  13
ENDBRANCH  11  12
ENDBRANCH   6  11
ENDBRANCH   3   5
ENDBRANCH   2   3
ENDBRANCH   1   2
BRANCH   1  16
ATOM     16  C   UNL A   1      31.473  32.815  26.411  1.00  0.00     0.275 C 
BRANCH  16  17
ATOM     17  O   UNL A   1      32.334  32.531  27.527  1.00  0.00    -0.458 OA
BRANCH  17  18
ATOM     18  C   UNL A   1      33.307  33.436  27.760  1.00  0.00     0.338 C 
ATOM     19  O   UNL A   1      33.215  34.655  27.744  1.00  0.00    -0.246 OA
BRANCH  18  20
ATOM     20  C   UNL A   1      34.565  32.743  28.078  1.00  0.00     0.060 A 
ATOM     21  C   UNL A   1      34.560  31.362  28.257  1.00  0.00     0.016 A 
ATOM     22  C   UNL A   1      35.715  33.483  28.351  1.00  0.00     0.016 A 
ATOM     23  C   UNL A   1      35.674  30.724  28.800  1.00  0.00     0.010 A 
ATOM     24  C   UNL A   1      36.859  32.830  28.822  1.00  0.00     0.010 A 
ATOM     25  C   UNL A   1      36.835  31.451  29.105  1.00  0.00    -0.014 A 
BRANCH  25  26
ATOM     26  C   UNL A   1      37.974  30.800  29.815  1.00  0.00     0.031 A 
ATOM     27  C   UNL A   1      38.188  31.057  31.286  1.00  0.00     0.074 A 
ATOM     28  C   UNL A   1      38.799  29.947  29.175  1.00  0.00     0.049 A 
ATOM     29  N   UNL A   1      39.199  30.722  32.050  1.00  0.00    -0.248 NA
ATOM     30  C   UNL A   1      37.134  31.806  31.988  1.00  0.00     0.031 C 
ATOM     31  C   UNL A   1      38.698  29.559  27.769  1.00  0.00     0.029 A 
ATOM     32  N   UNL A   1      39.881  29.237  29.638  1.00  0.00    -0.354 N 
ATOM     33  C   UNL A   1      38.936  31.280  33.296  1.00  0.00     0.074 A 
ATOM     34  C   UNL A   1      37.667  31.968  33.191  1.00  0.00     0.031 C 
ATOM     35  C   UNL A   1      39.643  28.644  27.497  1.00  0.00     0.029 A 
ATOM     36  C   UNL A   1      40.463  28.436  28.686  1.00  0.00     0.049 A 
ATOM     37  H   UNL A   1      40.208  29.298  30.565  1.00  0.00     0.167 HD
ATOM     38  C   UNL A   1      39.682  31.228  34.424  1.00  0.00     0.037 A 
ATOM     39  C   UNL A   1      41.548  27.641  28.752  1.00  0.00     0.037 A 
ATOM     40  C   UNL A   1      40.902  30.477  34.563  1.00  0.00     0.049 A 
ATOM     41  C   UNL A   1      42.344  27.570  30.023  1.00  0.00     0.074 A 
ATOM     42  C   UNL A   1      41.725  30.362  35.670  1.00  0.00     0.029 A 
ATOM     43  N   UNL A   1      41.454  29.682  33.571  1.00  0.00    -0.354 N 
ATOM     44  N   UNL A   1      42.129  28.174  31.166  1.00  0.00    -0.248 NA
ATOM     45  C   UNL A   1      43.546  26.724  30.007  1.00  0.00     0.031 C 
ATOM     46  C   UNL A   1      42.783  29.506  35.345  1.00  0.00     0.029 A 
ATOM     47  C   UNL A   1      42.602  29.069  34.043  1.00  0.00     0.049 A 
ATOM     48  H   UNL A   1      41.085  29.572  32.665  1.00  0.00     0.167 HD
ATOM     49  C   UNL A   1      43.165  27.781  32.004  1.00  0.00     0.074 A 
ATOM     50  C   UNL A   1      43.995  26.867  31.247  1.00  0.00     0.031 C 
ATOM     51  C   UNL A   1      43.413  28.155  33.282  1.00  0.00     0.037 A 
BRANCH  38  52
ATOM     52  C   UNL A   1      39.215  32.032  35.600  1.00  0.00     0.057 A 
ATOM     53  C   UNL A   1      38.378  31.496  36.585  1.00  0.00     0.134 A 
ATOM     54  C   UNL A   1      39.640  33.357  35.761  1.00  0.00     0.134 A 
ATOM     55  F   UNL A   1      37.924  30.239  36.480  1.00  0.00    -0.206 F 
ATOM     56  C   UNL A   1      37.967  32.256  37.682  1.00  0.00     0.040 A 
ATOM     57  C   UNL A   1      39.253  34.120  36.863  1.00  0.00     0.040 A 
ATOM     58  F   UNL A   1      40.447  33.928  34.854  1.00  0.00    -0.206 F 
ATOM     59  C   UNL A   1      38.409  33.570  37.827  1.00  0.00     0.006 A 
ENDBRANCH  38  52
BRANCH  39  60
ATOM     60  C   UNL A   1      41.963  26.859  27.561  1.00  0.00     0.057 A 
ATOM     61  C   UNL A   1      41.559  25.530  27.396  1.00  0.00     0.134 A 
ATOM     62  C   UNL A   1      42.766  27.421  26.562  1.00  0.00     0.134 A 
ATOM     63  F   UNL A   1      40.810  24.931  28.334  1.00  0.00    -0.206 F 
ATOM     64  C   UNL A   1      41.942  24.784  26.281  1.00  0.00     0.040 A 
ATOM     65  C   UNL A   1      43.137  26.693  25.431  1.00  0.00     0.040 A 
ATOM     66  F   UNL A   1      43.186  28.690  26.665  1.00  0.00    -0.206 F 
ATOM     67  C   UNL A   1      42.728  25.369  25.290  1.00  0.00     0.006 A 
ENDBRANCH  39  60
BRANCH  51  68
ATOM     68  C   UNL A   1      44.614  27.558  33.948  1.00  0.00     0.057 A 
ATOM     69  C   UNL A   1      44.542  26.338  34.631  1.00  0.00     0.134 A 
ATOM     70  C   UNL A   1      45.858  28.195  33.882  1.00  0.00     0.134 A 
ATOM     71  F   UNL A   1      43.373  25.687  34.738  1.00  0.00    -0.206 F 
ATOM     72  C   UNL A   1      45.666  25.780  35.242  1.00  0.00     0.040 A 
ATOM     73  C   UNL A   1      46.993  27.639  34.475  1.00  0.00     0.040 A 
ATOM     74  F   UNL A   1      45.992  29.365  33.239  1.00  0.00    -0.206 F 
ATOM     75  C   UNL A   1      46.896  26.429  35.160  1.00  0.00     0.006 A 
ENDBRANCH  51  68
ENDBRANCH  25  26
ENDBRANCH  18  20
ENDBRANCH  17  18
ENDBRANCH  16  17
ENDBRANCH   1  16
TORSDOF 15
ENDMDL
MODEL 2
REMARK VINA RESULT:      -9.8      5.168      7.522
REMARK SMILES CCCCSc1ccccc1C(=O)OCCOC(=O)c1ccc(-c2c3nc(c(-c4c(F)cccc4F)c4ccc([nH]4)c(-c4c(F)cccc4F)c4nc(c(-c5c(F)cccc5F)c5ccc2[nH]5)C=C4)C=C3)cc1
REMARK SMILES IDX 15 1 14 2 12 3 13 4 11 5 6 6 7 7 8 8 10 9 9 10 5 11 4 12
REMARK SMILES IDX 3 13 2 14 1 15 16 16 17 17 18 18 19 19 20 20 21 21 73 22
REMARK SMILES IDX 22 23 72 24 23 25 24 26 25 27 66 28 26 29 71 30 65 31 67 32
REMARK SMILES IDX 27 33 70 34 64 35 63 36 28 38 54 39 37 40 53 41 38 42 41 43
REMARK SMILES IDX 52 44 68 45 39 46 40 47 51 49 69 50 42 51 29 52 30 53 35 54
REMARK SMILES IDX 31 55 32 56 34 57 36 58 33 59 55 60 56 61 61 62 57 63 58 64
REMARK SMILES IDX 60 65 62 66 59 67 43 68 44 69 49 70 45 71 46 72 48 73 50 74
REMARK SMILES IDX 47 75
REMARK H PARENT 67 37 41 48
REMARK Flexibility Score: inf
ROOT
ATOM      1  C   UNL A   1      34.958  20.898  24.842  1.00  0.00     0.275 C 
ENDROOT
BRANCH   1   2
ATOM      2  O   UNL A   1      33.940  20.515  25.790  1.00  0.00    -0.458 OA
BRANCH   2   3
ATOM      3  C   UNL A   1      32.666  20.593  25.343  1.00  0.00     0.339 C 
ATOM      4  O   UNL A   1      31.979  19.643  24.992  1.00  0.00    -0.246 OA
BRANCH   3   5
ATOM      5  C   UNL A   1      32.103  21.970  25.377  1.00  0.00     0.073 A 
ATOM      6  C   UNL A   1      31.695  22.709  24.256  1.00  0.00     0.022 A 
ATOM      7  C   UNL A   1      30.945  23.882  24.464  1.00  0.00     0.016 A 
ATOM      8  C   UNL A   1      30.715  24.386  25.745  1.00  0.00     0.001 A 
ATOM      9  C   UNL A   1      31.849  22.483  26.666  1.00  0.00     0.017 A 
ATOM     10  C   UNL A   1      31.192  23.698  26.849  1.00  0.00     0.001 A 
BRANCH   6  11
ATOM     11  S   UNL A   1      31.986  22.291  22.544  1.00  0.00    -0.125 SA
BRANCH  11  12
ATOM     12  C   UNL A   1      33.593  23.130  22.264  1.00  0.00     0.075 C 
BRANCH  12  13
ATOM     13  C   UNL A   1      33.846  24.372  23.129  1.00  0.00     0.011 C 
BRANCH  13  14
ATOM     14  C   UNL A   1      35.014  24.324  24.119  1.00  0.00    -0.003 C 
ATOM     15  C   UNL A   1      34.690  24.843  25.511  1.00  0.00     0.004 C 
ENDBRANCH  13  14
ENDBRANCH  12  13
ENDBRANCH  11  12
ENDBRANCH   6  11
ENDBRANCH   3   5
ENDBRANCH   2   3
ENDBRANCH   1   2
BRANCH   1  16
ATOM     16  C   UNL A   1      36.312  20.299  25.205  1.00  0.00     0.275 C 
BRANCH  16  17
ATOM     17  O   UNL A   1      37.335  21.300  25.074  1.00  0.00    -0.458 OA
BRANCH  17  18
ATOM     18  C   UNL A   1      38.533  20.986  25.611  1.00  0.00     0.338 C 
ATOM     19  O   UNL A   1      39.122  19.916  25.554  1.00  0.00    -0.246 OA
BRANCH  18  20
ATOM     20  C   UNL A   1      39.092  22.161  26.297  1.00  0.00     0.060 A 
ATOM     21  C   UNL A   1      38.525  23.415  26.082  1.00  0.00     0.016 A 
ATOM     22  C   UNL A   1      40.272  22.040  27.029  1.00  0.00     0.016 A 
ATOM     23  C   UNL A   1      39.184  24.564  26.516  1.00  0.00     0.010 A 
ATOM     24  C   UNL A   1      40.893  23.188  27.533  1.00  0.00     0.010 A 
ATOM     25  C   UNL A   1      40.386  24.468  27.235  1.00  0.00    -0.014 A 
BRANCH  25  26
ATOM     26  C   UNL A   1      41.165  25.693  27.577  1.00  0.00     0.031 A 
ATOM     27  C   UNL A   1      40.562  26.739  28.483  1.00  0.00     0.074 A 
ATOM     28  C   UNL A   1      42.423  25.870  27.125  1.00  0.00     0.049 A 
ATOM     29  N   UNL A   1      41.001  27.939  28.775  1.00  0.00    -0.248 NA
ATOM     30  C   UNL A   1      39.287  26.396  29.134  1.00  0.00     0.031 C 
ATOM     31  C   UNL A   1      43.163  24.933  26.281  1.00  0.00     0.029 A 
ATOM     32  N   UNL A   1      43.308  26.900  27.332  1.00  0.00    -0.354 N 
ATOM     33  C   UNL A   1      40.023  28.516  29.579  1.00  0.00     0.074 A 
ATOM     34  C   UNL A   1      38.974  27.533  29.738  1.00  0.00     0.031 C 
ATOM     35  C   UNL A   1      44.404  25.405  26.084  1.00  0.00     0.029 A 
ATOM     36  C   UNL A   1      44.526  26.711  26.725  1.00  0.00     0.049 A 
ATOM     37  H   UNL A   1      43.090  27.699  27.865  1.00  0.00     0.167 HD
ATOM     38  C   UNL A   1      40.001  29.751  30.133  1.00  0.00     0.037 A 
ATOM     39  C   UNL A   1      45.612  27.506  26.668  1.00  0.00     0.037 A 
ATOM     40  C   UNL A   1      41.076  30.703  30.050  1.00  0.00     0.049 A 
ATOM     41  C   UNL A   1      45.578  28.860  27.317  1.00  0.00     0.074 A 
ATOM     42  C   UNL A   1      41.144  31.980  30.583  1.00  0.00     0.029 A 
ATOM     43  N   UNL A   1      42.289  30.468  29.423  1.00  0.00    -0.354 N 
ATOM     44  N   UNL A   1      44.613  29.425  28.000  1.00  0.00    -0.248 NA
ATOM     45  C   UNL A   1      46.779  29.696  27.170  1.00  0.00     0.031 C 
ATOM     46  C   UNL A   1      42.395  32.522  30.268  1.00  0.00     0.029 A 
ATOM     47  C   UNL A   1      43.114  31.572  29.562  1.00  0.00     0.049 A 
ATOM     48  H   UNL A   1      42.529  29.640  28.948  1.00  0.00     0.167 HD
ATOM     49  C   UNL A   1      45.088  30.678  28.364  1.00  0.00     0.074 A 
ATOM     50  C   UNL A   1      46.437  30.783  27.849  1.00  0.00     0.031 C 
ATOM     51  C   UNL A   1      44.456  31.659  29.052  1.00  0.00     0.037 A 
BRANCH  38  52
ATOM     52  C   UNL A   1      38.754  30.160  30.857  1.00  0.00     0.057 A 
ATOM     53  C   UNL A   1      38.576  29.927  32.226  1.00  0.00     0.134 A 
ATOM     54  C   UNL A   1      37.729  30.830  30.175  1.00  0.00     0.134 A 
ATOM     55  F   UNL A   1      39.513  29.278  32.932  1.00  0.00    -0.206 F 
ATOM     56  C   UNL A   1      37.415  30.331  32.887  1.00  0.00     0.040 A 
ATOM     57  C   UNL A   1      36.573  31.256  30.829  1.00  0.00     0.040 A 
ATOM     58  F   UNL A   1      37.840  31.087  28.863  1.00  0.00    -0.206 F 
ATOM     59  C   UNL A   1      36.412  31.003  32.190  1.00  0.00     0.006 A 
ENDBRANCH  38  52
BRANCH  39  60
ATOM     60  C   UNL A   1      46.823  27.049  25.944  1.00  0.00     0.057 A 
ATOM     61  C   UNL A   1      47.807  26.293  26.592  1.00  0.00     0.134 A 
ATOM     62  C   UNL A   1      47.024  27.352  24.592  1.00  0.00     0.134 A 
ATOM     63  F   UNL A   1      47.680  25.995  27.894  1.00  0.00    -0.206 F 
ATOM     64  C   UNL A   1      48.950  25.858  25.923  1.00  0.00     0.040 A 
ATOM     65  C   UNL A   1      48.153  26.903  23.906  1.00  0.00     0.040 A 
ATOM     66  F   UNL A   1      46.118  28.074  23.919  1.00  0.00    -0.206 F 
ATOM     67  C   UNL A   1      49.122  26.157  24.572  1.00  0.00     0.006 A 
ENDBRANCH  39  60
BRANCH  51  68
ATOM     68  C   UNL A   1      45.226  32.918  29.308  1.00  0.00     0.057 A 
ATOM     69  C   UNL A   1      46.038  33.063  30.439  1.00  0.00     0.134 A 
ATOM     70  C   UNL A   1      45.175  33.983  28.401  1.00  0.00     0.134 A 
ATOM     71  F   UNL A   1      46.117  32.081  31.350  1.00  0.00    -0.206 F 
ATOM     72  C   UNL A   1      46.761  34.234  30.669  1.00  0.00     0.040 A 
ATOM     73  C   UNL A   1      45.907  35.153  28.612  1.00  0.00     0.040 A 
ATOM     74  F   UNL A   1      44.418  33.903  27.297  1.00  0.00    -0.206 F 
ATOM     75  C   UNL A   1      46.700  35.281  29.751  1.00  0.00     0.006 A 
ENDBRANCH  51  68
ENDBRANCH  25  26
ENDBRANCH  18  20
ENDBRANCH  17  18
ENDBRANCH  16  17
ENDBRANCH   1  16
TORSDOF 15
ENDMDL
MODEL 3
REMARK VINA RESULT:      -9.8      5.309      9.829
REMARK SMILES CCCCSc1ccccc1C(=O)OCCOC(=O)c1ccc(-c2c3nc(c(-c4c(F)cccc4F)c4ccc([nH]4)c(-c4c(F)cccc4F)c4nc(c(-c5c(F)cccc5F)c5ccc2[nH]5)C=C4)C=C3)cc1
REMARK SMILES IDX 15 1 14 2 12 3 13 4 11 5 6 6 7 7 8 8 10 9 9 10 5 11 4 12
REMARK SMILES IDX 3 13 2 14 1 15 16 16 17 17 18 18 19 19 20 20 21 21 73 22
REMARK SMILES IDX 22 23 72 24 23 25 24 26 25 27 66 28 26 29 71 30 65 31 67 32
REMARK SMILES IDX 27 33 70 34 64 35 63 36 28 38 54 39 37 40 53 41 38 42 41 43
REMARK SMILES IDX 52 44 68 45 39 46 40 47 51 49 69 50 42 51 29 52 30 53 35 54
REMARK SMILES IDX 31 55 32 56 34 57 36 58 33 59 55 60 56 61 61 62 57 63 58 64
REMARK SMILES IDX 60 65 62 66 59 67 43 68 44 69 49 70 45 71 46 72 48 73 50 74
REMARK SMILES IDX 47 75
REMARK H PARENT 67 37 41 48
REMARK Flexibility Score: inf
ROOT
ATOM      1  C   UNL A   1      38.117  20.933  25.312  1.00  0.00     0.275 C 
ENDROOT
BRANCH   1   2
ATOM      2  O   UNL A   1      36.779  20.615  24.872  1.00  0.00    -0.458 OA
BRANCH   2   3
ATOM      3  C   UNL A   1      35.803  21.427  25.339  1.00  0.00     0.339 C 
ATOM      4  O   UNL A   1      35.798  21.969  26.437  1.00  0.00    -0.246 OA
BRANCH   3   5
ATOM      5  C   UNL A   1      34.719  21.687  24.354  1.00  0.00     0.073 A 
ATOM      6  C   UNL A   1      33.527  20.955  24.245  1.00  0.00     0.022 A 
ATOM      7  C   UNL A   1      32.491  21.479  23.449  1.00  0.00     0.016 A 
ATOM      8  C   UNL A   1      32.670  22.627  22.675  1.00  0.00     0.001 A 
ATOM      9  C   UNL A   1      34.881  22.854  23.579  1.00  0.00     0.017 A 
ATOM     10  C   UNL A   1      33.879  23.302  22.719  1.00  0.00     0.001 A 
BRANCH   6  11
ATOM     11  S   UNL A   1      33.146  19.416  25.065  1.00  0.00    -0.125 SA
BRANCH  11  12
ATOM     12  C   UNL A   1      32.467  18.448  23.661  1.00  0.00     0.075 C 
BRANCH  12  13
ATOM     13  C   UNL A   1      33.347  17.288  23.176  1.00  0.00     0.011 C 
BRANCH  13  14
ATOM     14  C   UNL A   1      34.416  16.755  24.136  1.00  0.00    -0.003 C 
ATOM     15  C   UNL A   1      33.902  15.781  25.184  1.00  0.00     0.004 C 
ENDBRANCH  13  14
ENDBRANCH  12  13
ENDBRANCH  11  12
ENDBRANCH   6  11
ENDBRANCH   3   5
ENDBRANCH   2   3
ENDBRANCH   1   2
BRANCH   1  16
ATOM     16  C   UNL A   1      39.044  19.728  25.192  1.00  0.00     0.275 C 
BRANCH  16  17
ATOM     17  O   UNL A   1      39.909  19.668  26.338  1.00  0.00    -0.458 OA
BRANCH  17  18
ATOM     18  C   UNL A   1      41.232  19.657  26.073  1.00  0.00     0.338 C 
ATOM     19  O   UNL A   1      41.871  18.797  25.484  1.00  0.00    -0.246 OA
BRANCH  18  20
ATOM     20  C   UNL A   1      41.852  20.889  26.587  1.00  0.00     0.060 A 
ATOM     21  C   UNL A   1      41.958  21.080  27.962  1.00  0.00     0.016 A 
ATOM     22  C   UNL A   1      42.183  21.919  25.707  1.00  0.00     0.016 A 
ATOM     23  C   UNL A   1      42.305  22.331  28.469  1.00  0.00     0.010 A 
ATOM     24  C   UNL A   1      42.607  23.151  26.215  1.00  0.00     0.010 A 
ATOM     25  C   UNL A   1      42.621  23.389  27.602  1.00  0.00    -0.014 A 
BRANCH  25  26
ATOM     26  C   UNL A   1      42.854  24.763  28.136  1.00  0.00     0.031 A 
ATOM     27  C   UNL A   1      44.258  25.216  28.457  1.00  0.00     0.074 A 
ATOM     28  C   UNL A   1      41.836  25.631  28.300  1.00  0.00     0.049 A 
ATOM     29  N   UNL A   1      44.661  26.300  29.072  1.00  0.00    -0.248 NA
ATOM     30  C   UNL A   1      45.353  24.322  28.045  1.00  0.00     0.031 C 
ATOM     31  C   UNL A   1      40.431  25.362  27.994  1.00  0.00     0.029 A 
ATOM     32  N   UNL A   1      41.834  26.928  28.754  1.00  0.00    -0.354 N 
ATOM     33  C   UNL A   1      46.042  26.182  29.186  1.00  0.00     0.074 A 
ATOM     34  C   UNL A   1      46.410  24.926  28.567  1.00  0.00     0.031 C 
ATOM     35  C   UNL A   1      39.713  26.474  28.218  1.00  0.00     0.029 A 
ATOM     36  C   UNL A   1      40.590  27.511  28.753  1.00  0.00     0.049 A 
ATOM     37  H   UNL A   1      42.648  27.396  29.051  1.00  0.00     0.167 HD
ATOM     38  C   UNL A   1      46.923  27.038  29.754  1.00  0.00     0.037 A 
ATOM     39  C   UNL A   1      40.192  28.731  29.161  1.00  0.00     0.037 A 
ATOM     40  C   UNL A   1      46.577  28.326  30.296  1.00  0.00     0.049 A 
ATOM     41  C   UNL A   1      41.191  29.680  29.758  1.00  0.00     0.074 A 
ATOM     42  C   UNL A   1      47.405  29.264  30.890  1.00  0.00     0.029 A 
ATOM     43  N   UNL A   1      45.304  28.872  30.276  1.00  0.00    -0.354 N 
ATOM     44  N   UNL A   1      42.479  29.517  29.938  1.00  0.00    -0.248 NA
ATOM     45  C   UNL A   1      40.677  30.975  30.229  1.00  0.00     0.031 C 
ATOM     46  C   UNL A   1      46.630  30.375  31.240  1.00  0.00     0.029 A 
ATOM     47  C   UNL A   1      45.326  30.137  30.839  1.00  0.00     0.049 A 
ATOM     48  H   UNL A   1      44.504  28.427  29.915  1.00  0.00     0.167 HD
ATOM     49  C   UNL A   1      42.929  30.684  30.539  1.00  0.00     0.074 A 
ATOM     50  C   UNL A   1      41.782  31.559  30.672  1.00  0.00     0.031 C 
ATOM     51  C   UNL A   1      44.179  30.999  30.957  1.00  0.00     0.037 A 
BRANCH  38  52
ATOM     52  C   UNL A   1      48.353  26.596  29.849  1.00  0.00     0.057 A 
ATOM     53  C   UNL A   1      49.305  26.942  28.883  1.00  0.00     0.134 A 
ATOM     54  C   UNL A   1      48.787  25.841  30.946  1.00  0.00     0.134 A 
ATOM     55  F   UNL A   1      48.950  27.651  27.801  1.00  0.00    -0.206 F 
ATOM     56  C   UNL A   1      50.636  26.535  28.996  1.00  0.00     0.040 A 
ATOM     57  C   UNL A   1      50.118  25.447  31.081  1.00  0.00     0.040 A 
ATOM     58  F   UNL A   1      47.923  25.481  31.908  1.00  0.00    -0.206 F 
ATOM     59  C   UNL A   1      51.047  25.791  30.101  1.00  0.00     0.006 A 
ENDBRANCH  38  52
BRANCH  39  60
ATOM     60  C   UNL A   1      38.766  29.121  29.037  1.00  0.00     0.057 A 
ATOM     61  C   UNL A   1      38.249  29.584  27.823  1.00  0.00     0.134 A 
ATOM     62  C   UNL A   1      37.889  29.036  30.125  1.00  0.00     0.134 A 
ATOM     63  F   UNL A   1      39.048  29.711  26.753  1.00  0.00    -0.206 F 
ATOM     64  C   UNL A   1      36.910  29.954  27.694  1.00  0.00     0.040 A 
ATOM     65  C   UNL A   1      36.543  29.381  30.004  1.00  0.00     0.040 A 
ATOM     66  F   UNL A   1      38.326  28.601  31.315  1.00  0.00    -0.206 F 
ATOM     67  C   UNL A   1      36.050  29.845  28.786  1.00  0.00     0.006 A 
ENDBRANCH  39  60
BRANCH  51  68
ATOM     68  C   UNL A   1      44.375  32.350  31.573  1.00  0.00     0.057 A 
ATOM     69  C   UNL A   1      44.262  32.548  32.954  1.00  0.00     0.134 A 
ATOM     70  C   UNL A   1      44.705  33.455  30.781  1.00  0.00     0.134 A 
ATOM     71  F   UNL A   1      43.935  31.528  33.763  1.00  0.00    -0.206 F 
ATOM     72  C   UNL A   1      44.455  33.807  33.525  1.00  0.00     0.040 A 
ATOM     73  C   UNL A   1      44.917  34.715  31.343  1.00  0.00     0.040 A 
ATOM     74  F   UNL A   1      44.831  33.328  29.451  1.00  0.00    -0.206 F 
ATOM     75  C   UNL A   1      44.787  34.893  32.718  1.00  0.00     0.006 A 
ENDBRANCH  51  68
ENDBRANCH  25  26
ENDBRANCH  18  20
ENDBRANCH  17  18
ENDBRANCH  16  17
ENDBRANCH   1  16
TORSDOF 15
ENDMDL
