MODEL 1
REMARK VINA RESULT:     -14.4      0.000      0.000
REMARK SMILES O=C(OCCOC(=O)c1ccc(-c2c3nc(c(-c4c(F)cccc4F)c4ccc([nH]4)c(-c4c(F)cccc4F)c4nc(c(-c5c(F)cccc5F)c5ccc2[nH]5)C=C4)C=C3)cc1)C1=Cc2cc(Cl)c(Cl)cc2O[C@@H]1C(F)(F)F
REMARK SMILES IDX 5 1 4 2 3 3 2 4 1 5 63 6 64 7 74 8 65 9 73 10 66 11 72 12
REMARK SMILES IDX 67 13 71 14 68 15 69 16 70 17 75 18 76 19 77 20 78 21 6 22
REMARK SMILES IDX 7 23 8 24 9 25 10 26 62 27 11 28 61 29 12 30 13 31 14 32
REMARK SMILES IDX 55 33 15 34 60 35 54 36 56 37 16 38 59 39 53 40 52 41 17 43
REMARK SMILES IDX 43 44 26 45 42 46 27 47 30 48 41 49 57 50 28 51 29 52 40 54
REMARK SMILES IDX 58 55 31 56 18 57 19 58 24 59 20 60 21 61 23 62 25 63 22 64
REMARK SMILES IDX 44 65 45 66 50 67 46 68 47 69 49 70 51 71 48 72 32 73 33 74
REMARK SMILES IDX 38 75 34 76 35 77 37 78 39 79 36 80
REMARK H PARENT 56 42 30 53
REMARK Flexibility Score: inf
ROOT
ATOM      1  C   UNL A   1      31.517  32.407  26.618  1.00  0.00     0.275 C 
ENDROOT
BRANCH   1   2
ATOM      2  C   UNL A   1      31.771  30.233  26.654  1.00  0.00     0.275 C 
BRANCH   2   3
ATOM      3  O   UNL A   1      32.150  29.339  25.508  1.00  0.00    -0.459 OA
BRANCH   3   4
ATOM      4  C   UNL A   1      31.925  28.055  25.795  1.00  0.00     0.338 C 
ATOM      5  O   UNL A   1      32.112  27.493  26.846  1.00  0.00    -0.246 OA
BRANCH   4   6
ATOM      6  C   UNL A   1      31.946  27.526  24.428  1.00  0.00     0.087 C 
ATOM      7  C   UNL A   1      33.145  26.871  24.000  1.00  0.00     0.027 C 
ATOM      8  C   UNL A   1      30.275  26.663  24.720  1.00  0.00     0.316 C 
ATOM      9  C   UNL A   1      33.352  25.127  23.901  1.00  0.00     0.019 A 
ATOM     10  O   UNL A   1      30.496  24.713  24.826  1.00  0.00    -0.475 OA
ATOM     11  C   UNL A   1      34.576  24.688  23.504  1.00  0.00     0.034 A 
ATOM     12  C   UNL A   1      32.163  24.001  24.451  1.00  0.00     0.129 A 
ATOM     13  C   UNL A   1      34.788  23.319  23.689  1.00  0.00     0.060 A 
ATOM     14  C   UNL A   1      32.442  22.678  24.619  1.00  0.00     0.069 A 
ATOM     15  Cl  UNL A   1      36.383  22.796  23.219  1.00  0.00    -0.083 Cl
ATOM     16  C   UNL A   1      33.798  22.378  24.255  1.00  0.00     0.063 A 
ATOM     17  Cl  UNL A   1      34.329  20.747  24.572  1.00  0.00    -0.083 Cl
BRANCH   8  18
ATOM     18  C   UNL A   1      29.761  27.767  23.519  1.00  0.00     0.430 C 
ATOM     19  F   UNL A   1      30.318  27.538  22.346  1.00  0.00    -0.167 F 
ATOM     20  F   UNL A   1      28.438  27.571  23.203  1.00  0.00    -0.167 F 
ATOM     21  F   UNL A   1      29.805  29.092  23.793  1.00  0.00    -0.167 F 
ENDBRANCH   8  18
ENDBRANCH   4   6
ENDBRANCH   3   4
ENDBRANCH   2   3
ENDBRANCH   1   2
BRANCH   1  22
ATOM     22  O   UNL A   1      32.256  33.453  27.860  1.00  0.00    -0.458 OA
BRANCH  22  23
ATOM     23  C   UNL A   1      33.406  34.211  28.095  1.00  0.00     0.338 C 
ATOM     24  O   UNL A   1      33.515  35.312  28.607  1.00  0.00    -0.246 OA
BRANCH  23  25
ATOM     25  C   UNL A   1      34.580  33.276  28.045  1.00  0.00     0.060 A 
ATOM     26  C   UNL A   1      35.896  33.804  28.067  1.00  0.00     0.016 A 
ATOM     27  C   UNL A   1      34.363  31.949  28.397  1.00  0.00     0.016 A 
ATOM     28  C   UNL A   1      36.930  33.075  28.705  1.00  0.00     0.010 A 
ATOM     29  C   UNL A   1      35.381  31.241  29.037  1.00  0.00     0.010 A 
ATOM     30  C   UNL A   1      36.643  31.824  29.283  1.00  0.00    -0.014 A 
BRANCH  30  31
ATOM     31  C   UNL A   1      37.700  30.953  29.865  1.00  0.00     0.031 A 
ATOM     32  C   UNL A   1      37.960  31.225  31.313  1.00  0.00     0.074 A 
ATOM     33  C   UNL A   1      38.489  30.092  29.182  1.00  0.00     0.049 A 
ATOM     34  N   UNL A   1      38.938  30.840  32.082  1.00  0.00    -0.248 NA
ATOM     35  C   UNL A   1      36.999  32.141  31.956  1.00  0.00     0.031 C 
ATOM     36  C   UNL A   1      38.372  29.735  27.769  1.00  0.00     0.029 A 
ATOM     37  N   UNL A   1      39.589  29.369  29.605  1.00  0.00    -0.354 N 
ATOM     38  C   UNL A   1      38.719  31.496  33.283  1.00  0.00     0.074 A 
ATOM     39  C   UNL A   1      37.592  32.376  33.107  1.00  0.00     0.031 C 
ATOM     40  C   UNL A   1      39.358  28.871  27.444  1.00  0.00     0.029 A 
ATOM     41  C   UNL A   1      40.205  28.633  28.614  1.00  0.00     0.049 A 
ATOM     42  H   UNL A   1      39.907  29.378  30.537  1.00  0.00     0.167 HD
ATOM     43  C   UNL A   1      39.377  31.359  34.451  1.00  0.00     0.037 A 
ATOM     44  C   UNL A   1      41.327  27.876  28.652  1.00  0.00     0.037 A 
ATOM     45  C   UNL A   1      40.502  30.494  34.620  1.00  0.00     0.049 A 
ATOM     46  C   UNL A   1      42.092  27.765  29.958  1.00  0.00     0.074 A 
ATOM     47  C   UNL A   1      41.235  30.255  35.763  1.00  0.00     0.029 A 
ATOM     48  N   UNL A   1      41.068  29.743  33.600  1.00  0.00    -0.354 N 
ATOM     49  N   UNL A   1      41.838  28.330  31.116  1.00  0.00    -0.248 NA
ATOM     50  C   UNL A   1      43.297  26.916  29.969  1.00  0.00     0.031 C 
ATOM     51  C   UNL A   1      42.295  29.414  35.419  1.00  0.00     0.029 A 
ATOM     52  C   UNL A   1      42.167  29.061  34.083  1.00  0.00     0.049 A 
ATOM     53  H   UNL A   1      40.737  29.703  32.674  1.00  0.00     0.167 HD
ATOM     54  C   UNL A   1      42.818  27.878  31.994  1.00  0.00     0.074 A 
ATOM     55  C   UNL A   1      43.676  26.991  31.239  1.00  0.00     0.031 C 
ATOM     56  C   UNL A   1      42.990  28.163  33.310  1.00  0.00     0.037 A 
BRANCH  43  57
ATOM     57  C   UNL A   1      38.892  32.209  35.584  1.00  0.00     0.057 A 
ATOM     58  C   UNL A   1      39.262  33.559  35.713  1.00  0.00     0.134 A 
ATOM     59  C   UNL A   1      38.140  31.642  36.618  1.00  0.00     0.134 A 
ATOM     60  F   UNL A   1      40.019  34.150  34.775  1.00  0.00    -0.206 F 
ATOM     61  C   UNL A   1      38.958  34.289  36.860  1.00  0.00     0.040 A 
ATOM     62  C   UNL A   1      37.790  32.379  37.748  1.00  0.00     0.040 A 
ATOM     63  F   UNL A   1      37.765  30.356  36.562  1.00  0.00    -0.206 F 
ATOM     64  C   UNL A   1      38.217  33.699  37.881  1.00  0.00     0.006 A 
ENDBRANCH  43  57
BRANCH  44  65
ATOM     65  C   UNL A   1      41.827  27.161  27.436  1.00  0.00     0.057 A 
ATOM     66  C   UNL A   1      41.545  25.803  27.212  1.00  0.00     0.134 A 
ATOM     67  C   UNL A   1      42.647  27.795  26.494  1.00  0.00     0.134 A 
ATOM     68  F   UNL A   1      40.802  25.114  28.090  1.00  0.00    -0.206 F 
ATOM     69  C   UNL A   1      42.068  25.108  26.115  1.00  0.00     0.040 A 
ATOM     70  C   UNL A   1      43.155  27.118  25.378  1.00  0.00     0.040 A 
ATOM     71  F   UNL A   1      42.979  29.085  26.648  1.00  0.00    -0.206 F 
ATOM     72  C   UNL A   1      42.870  25.769  25.188  1.00  0.00     0.006 A 
ENDBRANCH  44  65
BRANCH  56  73
ATOM     73  C   UNL A   1      44.100  27.476  34.053  1.00  0.00     0.057 A 
ATOM     74  C   UNL A   1      43.942  26.208  34.625  1.00  0.00     0.134 A 
ATOM     75  C   UNL A   1      45.384  28.038  34.063  1.00  0.00     0.134 A 
ATOM     76  F   UNL A   1      42.740  25.615  34.648  1.00  0.00    -0.206 F 
ATOM     77  C   UNL A   1      45.025  25.526  35.183  1.00  0.00     0.040 A 
ATOM     78  C   UNL A   1      46.479  27.352  34.587  1.00  0.00     0.040 A 
ATOM     79  F   UNL A   1      45.605  29.241  33.512  1.00  0.00    -0.206 F 
ATOM     80  C   UNL A   1      46.299  26.090  35.151  1.00  0.00     0.006 A 
ENDBRANCH  56  73
ENDBRANCH  30  31
ENDBRANCH  23  25
ENDBRANCH  22  23
ENDBRANCH   1  22
TORSDOF 12
ENDMDL
MODEL 2
REMARK VINA RESULT:     -14.2      4.737      9.730
REMARK SMILES O=C(OCCOC(=O)c1ccc(-c2c3nc(c(-c4c(F)cccc4F)c4ccc([nH]4)c(-c4c(F)cccc4F)c4nc(c(-c5c(F)cccc5F)c5ccc2[nH]5)C=C4)C=C3)cc1)C1=Cc2cc(Cl)c(Cl)cc2O[C@@H]1C(F)(F)F
REMARK SMILES IDX 5 1 4 2 3 3 2 4 1 5 63 6 64 7 74 8 65 9 73 10 66 11 72 12
REMARK SMILES IDX 67 13 71 14 68 15 69 16 70 17 75 18 76 19 77 20 78 21 6 22
REMARK SMILES IDX 7 23 8 24 9 25 10 26 62 27 11 28 61 29 12 30 13 31 14 32
REMARK SMILES IDX 55 33 15 34 60 35 54 36 56 37 16 38 59 39 53 40 52 41 17 43
REMARK SMILES IDX 43 44 26 45 42 46 27 47 30 48 41 49 57 50 28 51 29 52 40 54
REMARK SMILES IDX 58 55 31 56 18 57 19 58 24 59 20 60 21 61 23 62 25 63 22 64
REMARK SMILES IDX 44 65 45 66 50 67 46 68 47 69 49 70 51 71 48 72 32 73 33 74
REMARK SMILES IDX 38 75 34 76 35 77 37 78 39 79 36 80
REMARK H PARENT 56 42 30 53
REMARK Flexibility Score: inf
ROOT
ATOM      1  C   UNL A   1      38.197  19.406  25.001  1.00  0.00     0.275 C 
ENDROOT
BRANCH   1   2
ATOM      2  C   UNL A   1      37.183  21.311  24.631  1.00  0.00     0.275 C 
BRANCH   2   3
ATOM      3  O   UNL A   1      35.884  21.783  25.221  1.00  0.00    -0.459 OA
BRANCH   3   4
ATOM      4  C   UNL A   1      35.268  22.647  24.413  1.00  0.00     0.338 C 
ATOM      5  O   UNL A   1      35.770  23.526  23.754  1.00  0.00    -0.246 OA
BRANCH   4   6
ATOM      6  C   UNL A   1      33.924  22.557  24.993  1.00  0.00     0.087 C 
ATOM      7  C   UNL A   1      33.537  23.587  25.908  1.00  0.00     0.027 C 
ATOM      8  C   UNL A   1      33.179  22.298  23.260  1.00  0.00     0.316 C 
ATOM      9  C   UNL A   1      32.482  24.937  25.508  1.00  0.00     0.019 A 
ATOM     10  O   UNL A   1      32.160  23.878  22.687  1.00  0.00    -0.475 OA
ATOM     11  C   UNL A   1      32.253  25.837  26.501  1.00  0.00     0.034 A 
ATOM     12  C   UNL A   1      31.906  25.245  23.909  1.00  0.00     0.129 A 
ATOM     13  C   UNL A   1      31.638  27.019  26.081  1.00  0.00     0.060 A 
ATOM     14  C   UNL A   1      31.323  26.428  23.565  1.00  0.00     0.069 A 
ATOM     15  Cl  UNL A   1      31.404  28.173  27.367  1.00  0.00    -0.083 Cl
ATOM     16  C   UNL A   1      31.238  27.316  24.689  1.00  0.00     0.063 A 
ATOM     17  Cl  UNL A   1      30.653  28.924  24.347  1.00  0.00    -0.083 Cl
BRANCH   8  18
ATOM     18  C   UNL A   1      32.785  20.767  23.915  1.00  0.00     0.430 C 
ATOM     19  F   UNL A   1      31.922  20.846  24.909  1.00  0.00    -0.167 F 
ATOM     20  F   UNL A   1      32.059  20.020  23.019  1.00  0.00    -0.167 F 
ATOM     21  F   UNL A   1      33.792  19.927  24.252  1.00  0.00    -0.167 F 
ENDBRANCH   8  18
ENDBRANCH   4   6
ENDBRANCH   3   4
ENDBRANCH   2   3
ENDBRANCH   1   2
BRANCH   1  22
ATOM     22  O   UNL A   1      39.653  19.309  26.029  1.00  0.00    -0.458 OA
BRANCH  22  23
ATOM     23  C   UNL A   1      40.950  19.823  26.123  1.00  0.00     0.338 C 
ATOM     24  O   UNL A   1      41.938  19.550  25.464  1.00  0.00    -0.246 OA
BRANCH  23  25
ATOM     25  C   UNL A   1      40.866  21.125  26.865  1.00  0.00     0.060 A 
ATOM     26  C   UNL A   1      41.910  21.492  27.752  1.00  0.00     0.016 A 
ATOM     27  C   UNL A   1      40.012  22.100  26.363  1.00  0.00     0.016 A 
ATOM     28  C   UNL A   1      42.250  22.860  27.902  1.00  0.00     0.010 A 
ATOM     29  C   UNL A   1      40.360  23.444  26.503  1.00  0.00     0.010 A 
ATOM     30  C   UNL A   1      41.529  23.837  27.190  1.00  0.00    -0.014 A 
BRANCH  30  31
ATOM     31  C   UNL A   1      41.752  25.295  27.386  1.00  0.00     0.031 A 
ATOM     32  C   UNL A   1      43.076  25.765  26.870  1.00  0.00     0.074 A 
ATOM     33  C   UNL A   1      40.956  26.136  28.084  1.00  0.00     0.049 A 
ATOM     34  N   UNL A   1      43.706  26.888  27.063  1.00  0.00    -0.248 NA
ATOM     35  C   UNL A   1      43.825  24.769  26.082  1.00  0.00     0.031 C 
ATOM     36  C   UNL A   1      39.649  25.824  28.661  1.00  0.00     0.029 A 
ATOM     37  N   UNL A   1      41.161  27.454  28.451  1.00  0.00    -0.354 N 
ATOM     38  C   UNL A   1      44.934  26.712  26.446  1.00  0.00     0.074 A 
ATOM     39  C   UNL A   1      45.000  25.352  25.973  1.00  0.00     0.031 C 
ATOM     40  C   UNL A   1      39.177  26.910  29.309  1.00  0.00     0.029 A 
ATOM     41  C   UNL A   1      40.157  27.994  29.229  1.00  0.00     0.049 A 
ATOM     42  H   UNL A   1      41.958  27.966  28.179  1.00  0.00     0.167 HD
ATOM     43  C   UNL A   1      45.919  27.611  26.254  1.00  0.00     0.037 A 
ATOM     44  C   UNL A   1      40.060  29.211  29.815  1.00  0.00     0.037 A 
ATOM     45  C   UNL A   1      45.857  28.956  26.734  1.00  0.00     0.049 A 
ATOM     46  C   UNL A   1      41.195  30.203  29.636  1.00  0.00     0.074 A 
ATOM     47  C   UNL A   1      46.784  29.965  26.580  1.00  0.00     0.029 A 
ATOM     48  N   UNL A   1      44.808  29.467  27.485  1.00  0.00    -0.354 N 
ATOM     49  N   UNL A   1      42.326  30.057  28.986  1.00  0.00    -0.248 NA
ATOM     50  C   UNL A   1      41.047  31.525  30.270  1.00  0.00     0.031 C 
ATOM     51  C   UNL A   1      46.331  31.070  27.303  1.00  0.00     0.029 A 
ATOM     52  C   UNL A   1      45.082  30.775  27.831  1.00  0.00     0.049 A 
ATOM     53  H   UNL A   1      43.994  28.973  27.733  1.00  0.00     0.167 HD
ATOM     54  C   UNL A   1      42.999  31.270  29.097  1.00  0.00     0.074 A 
ATOM     55  C   UNL A   1      42.153  32.145  29.879  1.00  0.00     0.031 C 
ATOM     56  C   UNL A   1      44.205  31.632  28.592  1.00  0.00     0.037 A 
BRANCH  43  57
ATOM     57  C   UNL A   1      47.135  27.114  25.535  1.00  0.00     0.057 A 
ATOM     58  C   UNL A   1      48.159  26.418  26.199  1.00  0.00     0.134 A 
ATOM     59  C   UNL A   1      47.336  27.435  24.189  1.00  0.00     0.134 A 
ATOM     60  F   UNL A   1      48.044  26.117  27.502  1.00  0.00    -0.206 F 
ATOM     61  C   UNL A   1      49.364  26.120  25.565  1.00  0.00     0.040 A 
ATOM     62  C   UNL A   1      48.519  27.099  23.533  1.00  0.00     0.040 A 
ATOM     63  F   UNL A   1      46.403  28.109  23.501  1.00  0.00    -0.206 F 
ATOM     64  C   UNL A   1      49.545  26.459  24.227  1.00  0.00     0.006 A 
ENDBRANCH  43  57
BRANCH  44  65
ATOM     65  C   UNL A   1      38.867  29.588  30.635  1.00  0.00     0.057 A 
ATOM     66  C   UNL A   1      37.798  30.318  30.090  1.00  0.00     0.134 A 
ATOM     67  C   UNL A   1      38.785  29.281  32.000  1.00  0.00     0.134 A 
ATOM     68  F   UNL A   1      37.821  30.688  28.801  1.00  0.00    -0.206 F 
ATOM     69  C   UNL A   1      36.712  30.737  30.868  1.00  0.00     0.040 A 
ATOM     70  C   UNL A   1      37.692  29.670  32.783  1.00  0.00     0.040 A 
ATOM     71  F   UNL A   1      39.775  28.604  32.600  1.00  0.00    -0.206 F 
ATOM     72  C   UNL A   1      36.653  30.406  32.219  1.00  0.00     0.006 A 
ENDBRANCH  44  65
BRANCH  56  73
ATOM     73  C   UNL A   1      44.676  33.044  28.800  1.00  0.00     0.057 A 
ATOM     74  C   UNL A   1      45.456  33.416  29.900  1.00  0.00     0.134 A 
ATOM     75  C   UNL A   1      44.461  34.005  27.802  1.00  0.00     0.134 A 
ATOM     76  F   UNL A   1      45.700  32.544  30.890  1.00  0.00    -0.206 F 
ATOM     77  C   UNL A   1      46.004  34.696  30.001  1.00  0.00     0.040 A 
ATOM     78  C   UNL A   1      45.030  35.274  27.875  1.00  0.00     0.040 A 
ATOM     79  F   UNL A   1      43.737  33.704  26.712  1.00  0.00    -0.206 F 
ATOM     80  C   UNL A   1      45.805  35.623  28.979  1.00  0.00     0.006 A 
ENDBRANCH  56  73
ENDBRANCH  30  31
ENDBRANCH  23  25
ENDBRANCH  22  23
ENDBRANCH   1  22
TORSDOF 12
ENDMDL
MODEL 3
REMARK VINA RESULT:     -14.1      5.133      8.597
REMARK SMILES O=C(OCCOC(=O)c1ccc(-c2c3nc(c(-c4c(F)cccc4F)c4ccc([nH]4)c(-c4c(F)cccc4F)c4nc(c(-c5c(F)cccc5F)c5ccc2[nH]5)C=C4)C=C3)cc1)C1=Cc2cc(Cl)c(Cl)cc2O[C@@H]1C(F)(F)F
REMARK SMILES IDX 5 1 4 2 3 3 2 4 1 5 63 6 64 7 74 8 65 9 73 10 66 11 72 12
REMARK SMILES IDX 67 13 71 14 68 15 69 16 70 17 75 18 76 19 77 20 78 21 6 22
REMARK SMILES IDX 7 23 8 24 9 25 10 26 62 27 11 28 61 29 12 30 13 31 14 32
REMARK SMILES IDX 55 33 15 34 60 35 54 36 56 37 16 38 59 39 53 40 52 41 17 43
REMARK SMILES IDX 43 44 26 45 42 46 27 47 30 48 41 49 57 50 28 51 29 52 40 54
REMARK SMILES IDX 58 55 31 56 18 57 19 58 24 59 20 60 21 61 23 62 25 63 22 64
REMARK SMILES IDX 44 65 45 66 50 67 46 68 47 69 49 70 51 71 48 72 32 73 33 74
REMARK SMILES IDX 38 75 34 76 35 77 37 78 39 79 36 80
REMARK H PARENT 56 42 30 53
REMARK Flexibility Score: inf
ROOT
ATOM      1  C   UNL A   1      38.217  19.951  24.943  1.00  0.00     0.275 C 
ENDROOT
BRANCH   1   2
ATOM      2  C   UNL A   1      37.558  21.922  25.632  1.00  0.00     0.275 C 
BRANCH   2   3
ATOM      3  O   UNL A   1      37.371  23.163  24.804  1.00  0.00    -0.459 OA
BRANCH   3   4
ATOM      4  C   UNL A   1      36.394  23.008  23.909  1.00  0.00     0.338 C 
ATOM      5  O   UNL A   1      36.469  23.122  22.710  1.00  0.00    -0.246 OA
BRANCH   4   6
ATOM      6  C   UNL A   1      35.252  23.223  24.804  1.00  0.00     0.087 C 
ATOM      7  C   UNL A   1      35.056  24.548  25.306  1.00  0.00     0.027 C 
ATOM      8  C   UNL A   1      34.101  22.340  23.571  1.00  0.00     0.316 C 
ATOM      9  C   UNL A   1      33.858  25.684  24.695  1.00  0.00     0.019 A 
ATOM     10  O   UNL A   1      32.881  23.615  22.707  1.00  0.00    -0.475 OA
ATOM     11  C   UNL A   1      33.842  26.912  25.277  1.00  0.00     0.034 A 
ATOM     12  C   UNL A   1      32.873  25.364  23.313  1.00  0.00     0.129 A 
ATOM     13  C   UNL A   1      33.073  27.863  24.600  1.00  0.00     0.060 A 
ATOM     14  C   UNL A   1      32.155  26.344  22.695  1.00  0.00     0.069 A 
ATOM     15  Cl  UNL A   1      33.113  29.440  25.341  1.00  0.00    -0.083 Cl
ATOM     16  C   UNL A   1      32.311  27.607  23.359  1.00  0.00     0.063 A 
ATOM     17  Cl  UNL A   1      31.568  28.977  22.576  1.00  0.00    -0.083 Cl
BRANCH   8  18
ATOM     18  C   UNL A   1      33.978  21.214  24.853  1.00  0.00     0.430 C 
ATOM     19  F   UNL A   1      32.831  20.563  24.851  1.00  0.00    -0.167 F 
ATOM     20  F   UNL A   1      34.853  20.169  24.676  1.00  0.00    -0.167 F 
ATOM     21  F   UNL A   1      34.264  21.628  26.110  1.00  0.00    -0.167 F 
ENDBRANCH   8  18
ENDBRANCH   4   6
ENDBRANCH   3   4
ENDBRANCH   2   3
ENDBRANCH   1   2
BRANCH   1  22
ATOM     22  O   UNL A   1      39.623  19.130  25.674  1.00  0.00    -0.458 OA
BRANCH  22  23
ATOM     23  C   UNL A   1      40.966  19.355  25.990  1.00  0.00     0.338 C 
ATOM     24  O   UNL A   1      41.962  18.784  25.579  1.00  0.00    -0.246 OA
BRANCH  23  25
ATOM     25  C   UNL A   1      41.067  20.734  26.576  1.00  0.00     0.060 A 
ATOM     26  C   UNL A   1      41.414  20.888  27.943  1.00  0.00     0.016 A 
ATOM     27  C   UNL A   1      41.230  21.798  25.698  1.00  0.00     0.016 A 
ATOM     28  C   UNL A   1      42.176  22.013  28.346  1.00  0.00     0.010 A 
ATOM     29  C   UNL A   1      41.993  22.896  26.097  1.00  0.00     0.010 A 
ATOM     30  C   UNL A   1      42.553  22.975  27.390  1.00  0.00    -0.014 A 
BRANCH  30  31
ATOM     31  C   UNL A   1      43.250  24.237  27.760  1.00  0.00     0.031 A 
ATOM     32  C   UNL A   1      42.316  25.331  28.171  1.00  0.00     0.074 A 
ATOM     33  C   UNL A   1      44.571  24.489  27.618  1.00  0.00     0.049 A 
ATOM     34  N   UNL A   1      42.528  26.605  28.335  1.00  0.00    -0.248 NA
ATOM     35  C   UNL A   1      40.910  24.916  28.341  1.00  0.00     0.031 C 
ATOM     36  C   UNL A   1      45.603  23.535  27.212  1.00  0.00     0.029 A 
ATOM     37  N   UNL A   1      45.274  25.669  27.781  1.00  0.00    -0.354 N 
ATOM     38  C   UNL A   1      41.275  27.139  28.594  1.00  0.00     0.074 A 
ATOM     39  C   UNL A   1      40.307  26.080  28.459  1.00  0.00     0.031 C 
ATOM     40  C   UNL A   1      46.796  24.165  27.153  1.00  0.00     0.029 A 
ATOM     41  C   UNL A   1      46.618  25.580  27.483  1.00  0.00     0.049 A 
ATOM     42  H   UNL A   1      44.850  26.504  28.085  1.00  0.00     0.167 HD
ATOM     43  C   UNL A   1      40.952  28.398  28.949  1.00  0.00     0.037 A 
ATOM     44  C   UNL A   1      47.577  26.536  27.464  1.00  0.00     0.037 A 
ATOM     45  C   UNL A   1      41.912  29.449  29.070  1.00  0.00     0.049 A 
ATOM     46  C   UNL A   1      47.197  27.963  27.817  1.00  0.00     0.074 A 
ATOM     47  C   UNL A   1      41.706  30.760  29.445  1.00  0.00     0.029 A 
ATOM     48  N   UNL A   1      43.264  29.306  28.793  1.00  0.00    -0.354 N 
ATOM     49  N   UNL A   1      46.021  28.450  28.136  1.00  0.00    -0.248 NA
ATOM     50  C   UNL A   1      48.270  28.973  27.807  1.00  0.00     0.031 C 
ATOM     51  C   UNL A   1      42.923  31.433  29.324  1.00  0.00     0.029 A 
ATOM     52  C   UNL A   1      43.902  30.519  28.959  1.00  0.00     0.049 A 
ATOM     53  H   UNL A   1      43.702  28.467  28.520  1.00  0.00     0.167 HD
ATOM     54  C   UNL A   1      46.217  29.802  28.401  1.00  0.00     0.074 A 
ATOM     55  C   UNL A   1      47.627  30.064  28.205  1.00  0.00     0.031 C 
ATOM     56  C   UNL A   1      45.316  30.743  28.780  1.00  0.00     0.037 A 
BRANCH  43  57
ATOM     57  C   UNL A   1      39.496  28.666  29.173  1.00  0.00     0.057 A 
ATOM     58  C   UNL A   1      38.674  29.198  28.164  1.00  0.00     0.134 A 
ATOM     59  C   UNL A   1      38.937  28.497  30.443  1.00  0.00     0.134 A 
ATOM     60  F   UNL A   1      39.163  29.424  26.935  1.00  0.00    -0.206 F 
ATOM     61  C   UNL A   1      37.371  29.614  28.433  1.00  0.00     0.040 A 
ATOM     62  C   UNL A   1      37.619  28.866  30.710  1.00  0.00     0.040 A 
ATOM     63  F   UNL A   1      39.671  28.005  31.452  1.00  0.00    -0.206 F 
ATOM     64  C   UNL A   1      36.840  29.445  29.709  1.00  0.00     0.006 A 
ENDBRANCH  43  57
BRANCH  44  65
ATOM     65  C   UNL A   1      48.992  26.214  27.097  1.00  0.00     0.057 A 
ATOM     66  C   UNL A   1      49.942  25.855  28.067  1.00  0.00     0.134 A 
ATOM     67  C   UNL A   1      49.450  26.312  25.777  1.00  0.00     0.134 A 
ATOM     68  F   UNL A   1      49.592  25.781  29.360  1.00  0.00    -0.206 F 
ATOM     69  C   UNL A   1      51.284  25.622  27.742  1.00  0.00     0.040 A 
ATOM     70  C   UNL A   1      50.783  26.055  25.434  1.00  0.00     0.040 A 
ATOM     71  F   UNL A   1      48.609  26.669  24.795  1.00  0.00    -0.206 F 
ATOM     72  C   UNL A   1      51.706  25.715  26.418  1.00  0.00     0.006 A 
ENDBRANCH  44  65
BRANCH  56  73
ATOM     73  C   UNL A   1      45.809  32.131  29.075  1.00  0.00     0.057 A 
ATOM     74  C   UNL A   1      45.787  33.150  28.117  1.00  0.00     0.134 A 
ATOM     75  C   UNL A   1      46.173  32.478  30.384  1.00  0.00     0.134 A 
ATOM     76  F   UNL A   1      45.448  32.885  26.847  1.00  0.00    -0.206 F 
ATOM     77  C   UNL A   1      46.112  34.466  28.452  1.00  0.00     0.040 A 
ATOM     78  C   UNL A   1      46.466  33.794  30.737  1.00  0.00     0.040 A 
ATOM     79  F   UNL A   1      46.194  31.550  31.354  1.00  0.00    -0.206 F 
ATOM     80  C   UNL A   1      46.437  34.793  29.767  1.00  0.00     0.006 A 
ENDBRANCH  56  73
ENDBRANCH  30  31
ENDBRANCH  23  25
ENDBRANCH  22  23
ENDBRANCH   1  22
TORSDOF 12
ENDMDL
