MODEL 1
REMARK VINA RESULT:     -11.6      0.000      0.000
REMARK SMILES COc1ccc(N2/C(=[NH+]/C(=O)CCCC(=O)OCCOC(=O)c3ccc(-c4c5nc(c(-c6c(F)cccc6F)c6ccc([nH]6)c(-c6c(F)cccc6F)c6nc(c(-c7c(F)cccc7F)c7ccc4[nH]7)C=C6)C=C5)cc3)S[C@@H]3CS(=O)(=O)C[C@H]32)cc1Cl
REMARK SMILES IDX 17 1 15 2 16 3 14 4 13 5 12 6 10 7 7 8 8 9 84 10 9 11 77 12
REMARK SMILES IDX 78 13 83 14 79 16 80 17 11 18 81 19 82 20 6 21 3 22 4 23
REMARK SMILES IDX 86 24 5 25 85 26 87 27 2 28 1 29 18 30 19 31 20 32 21 33
REMARK SMILES IDX 22 34 23 35 24 36 76 37 25 38 75 39 26 40 27 41 28 42 69 43
REMARK SMILES IDX 29 44 74 45 68 46 70 47 30 48 73 49 67 50 66 51 31 53 57 54
REMARK SMILES IDX 40 55 56 56 41 57 44 58 55 59 71 60 42 61 43 62 54 64 72 65
REMARK SMILES IDX 45 66 32 67 33 68 38 69 34 70 35 71 37 72 39 73 36 74 58 75
REMARK SMILES IDX 59 76 64 77 60 78 61 79 63 80 65 81 62 82 46 83 47 84 52 85
REMARK SMILES IDX 48 86 49 87 51 88 53 89 50 90
REMARK H PARENT 9 15 70 52 44 63
REMARK Flexibility Score: inf
ROOT
ATOM      1  O   UNL A   1      33.697  33.443  29.966  1.00  0.00    -0.462 OA
ENDROOT
BRANCH   1   2
ATOM      2  C   UNL A   1      34.066  33.756  28.704  1.00  0.00     0.305 C 
ATOM      3  O   UNL A   1      33.768  34.800  28.135  1.00  0.00    -0.252 OA
BRANCH   2   4
ATOM      4  C   UNL A   1      34.904  32.687  28.027  1.00  0.00     0.123 C 
BRANCH   4   5
ATOM      5  C   UNL A   1      34.410  31.246  28.048  1.00  0.00     0.024 C 
BRANCH   5   6
ATOM      6  C   UNL A   1      33.239  30.855  27.148  1.00  0.00     0.128 C 
BRANCH   6   7
ATOM      7  C   UNL A   1      33.006  29.385  26.838  1.00  0.00     0.307 C 
ATOM      8  N   UNL A   1      31.757  27.682  23.870  1.00  0.00    -0.217 N 
ATOM      9  C   UNL A   1      32.515  28.157  24.943  1.00  0.00     0.319 C 
ATOM     10  C   UNL A   1      32.403  26.608  23.114  1.00  0.00     0.212 C 
ATOM     11  N   UNL A   1      32.204  29.109  25.757  1.00  0.00    -0.204 N 
ATOM     12  S   UNL A   1      34.037  27.197  25.028  1.00  0.00    -0.029 SA
ATOM     13  C   UNL A   1      33.211  25.848  24.171  1.00  0.00     0.120 C 
ATOM     14  C   UNL A   1      31.550  25.532  22.476  1.00  0.00     0.188 C 
ATOM     15  H   UNL A   1      31.390  29.639  25.602  1.00  0.00     0.316 HD
ATOM     16  C   UNL A   1      33.978  24.786  23.430  1.00  0.00     0.156 C 
ATOM     17  S   UNL A   1      32.728  24.186  22.279  1.00  0.00     0.155 S 
ATOM     18  O   UNL A   1      33.378  28.534  27.645  1.00  0.00    -0.247 OA
ATOM     19  O   UNL A   1      32.134  22.984  22.823  1.00  0.00    -0.229 OA
ATOM     20  O   UNL A   1      33.274  24.249  20.942  1.00  0.00    -0.229 OA
BRANCH   8  21
ATOM     21  C   UNL A   1      30.679  28.344  23.274  1.00  0.00     0.130 A 
ATOM     22  C   UNL A   1      28.513  29.790  22.118  1.00  0.00     0.137 A 
ATOM     23  C   UNL A   1      29.846  30.082  21.796  1.00  0.00     0.052 A 
ATOM     24  C   UNL A   1      28.268  28.756  23.028  1.00  0.00     0.087 A 
ATOM     25  C   UNL A   1      30.910  29.374  22.362  1.00  0.00     0.056 A 
ATOM     26  C   UNL A   1      29.349  28.054  23.606  1.00  0.00     0.076 A 
ATOM     27  Cl  UNL A   1      26.696  28.210  23.502  1.00  0.00    -0.080 Cl
BRANCH  22  28
ATOM     28  O   UNL A   1      27.642  30.582  21.422  1.00  0.00    -0.495 OA
ATOM     29  C   UNL A   1      28.121  31.734  20.748  1.00  0.00     0.278 C 
ENDBRANCH  22  28
ENDBRANCH   8  21
ENDBRANCH   6   7
ENDBRANCH   5   6
ENDBRANCH   4   5
ENDBRANCH   2   4
ENDBRANCH   1   2
BRANCH   1  30
ATOM     30  C   UNL A   1      34.431  34.072  31.033  1.00  0.00     0.274 C 
BRANCH  30  31
ATOM     31  C   UNL A   1      34.523  33.150  32.252  1.00  0.00     0.275 C 
BRANCH  31  32
ATOM     32  O   UNL A   1      35.309  31.977  31.970  1.00  0.00    -0.458 OA
BRANCH  32  33
ATOM     33  C   UNL A   1      36.423  31.835  32.725  1.00  0.00     0.338 C 
ATOM     34  O   UNL A   1      36.529  31.969  33.931  1.00  0.00    -0.246 OA
BRANCH  33  35
ATOM     35  C   UNL A   1      37.516  31.330  31.884  1.00  0.00     0.060 A 
ATOM     36  C   UNL A   1      38.625  30.772  32.521  1.00  0.00     0.016 A 
ATOM     37  C   UNL A   1      37.497  31.474  30.499  1.00  0.00     0.016 A 
ATOM     38  C   UNL A   1      39.726  30.352  31.789  1.00  0.00     0.010 A 
ATOM     39  C   UNL A   1      38.599  31.039  29.756  1.00  0.00     0.010 A 
ATOM     40  C   UNL A   1      39.719  30.478  30.399  1.00  0.00    -0.014 A 
BRANCH  40  41
ATOM     41  C   UNL A   1      40.904  30.048  29.628  1.00  0.00     0.031 A 
ATOM     42  C   UNL A   1      40.974  28.650  29.092  1.00  0.00     0.074 A 
ATOM     43  C   UNL A   1      41.897  30.922  29.390  1.00  0.00     0.049 A 
ATOM     44  N   UNL A   1      41.977  28.030  28.528  1.00  0.00    -0.248 NA
ATOM     45  C   UNL A   1      39.749  27.842  29.207  1.00  0.00     0.031 C 
ATOM     46  C   UNL A   1      41.902  32.329  29.796  1.00  0.00     0.029 A 
ATOM     47  N   UNL A   1      43.101  30.754  28.754  1.00  0.00    -0.354 N 
ATOM     48  C   UNL A   1      41.517  26.751  28.247  1.00  0.00     0.074 A 
ATOM     49  C   UNL A   1      40.147  26.681  28.708  1.00  0.00     0.031 C 
ATOM     50  C   UNL A   1      43.058  32.891  29.411  1.00  0.00     0.029 A 
ATOM     51  C   UNL A   1      43.896  31.872  28.789  1.00  0.00     0.049 A 
ATOM     52  H   UNL A   1      43.368  29.913  28.316  1.00  0.00     0.167 HD
ATOM     53  C   UNL A   1      42.185  25.732  27.657  1.00  0.00     0.037 A 
ATOM     54  C   UNL A   1      45.176  32.040  28.408  1.00  0.00     0.037 A 
ATOM     55  C   UNL A   1      43.545  25.821  27.193  1.00  0.00     0.049 A 
ATOM     56  C   UNL A   1      45.921  30.871  27.827  1.00  0.00     0.074 A 
ATOM     57  C   UNL A   1      44.320  24.845  26.593  1.00  0.00     0.029 A 
ATOM     58  N   UNL A   1      44.330  26.962  27.275  1.00  0.00    -0.354 N 
ATOM     59  N   UNL A   1      45.497  29.651  27.604  1.00  0.00    -0.248 NA
ATOM     60  C   UNL A   1      47.324  31.099  27.460  1.00  0.00     0.031 C 
ATOM     61  C   UNL A   1      45.587  25.385  26.344  1.00  0.00     0.029 A 
ATOM     62  C   UNL A   1      45.587  26.710  26.751  1.00  0.00     0.049 A 
ATOM     63  H   UNL A   1      44.038  27.824  27.649  1.00  0.00     0.167 HD
ATOM     64  C   UNL A   1      46.574  28.967  27.059  1.00  0.00     0.074 A 
ATOM     65  C   UNL A   1      47.667  29.917  26.967  1.00  0.00     0.031 C 
ATOM     66  C   UNL A   1      46.657  27.671  26.672  1.00  0.00     0.037 A 
BRANCH  53  67
ATOM     67  C   UNL A   1      41.465  24.423  27.521  1.00  0.00     0.057 A 
ATOM     68  C   UNL A   1      41.761  23.324  28.337  1.00  0.00     0.134 A 
ATOM     69  C   UNL A   1      40.448  24.268  26.570  1.00  0.00     0.134 A 
ATOM     70  F   UNL A   1      42.737  23.402  29.253  1.00  0.00    -0.206 F 
ATOM     71  C   UNL A   1      41.083  22.111  28.199  1.00  0.00     0.040 A 
ATOM     72  C   UNL A   1      39.748  23.068  26.439  1.00  0.00     0.040 A 
ATOM     73  F   UNL A   1      40.116  25.282  25.758  1.00  0.00    -0.206 F 
ATOM     74  C   UNL A   1      40.069  21.983  27.253  1.00  0.00     0.006 A 
ENDBRANCH  53  67
BRANCH  54  75
ATOM     75  C   UNL A   1      45.844  33.347  28.617  1.00  0.00     0.057 A 
ATOM     76  C   UNL A   1      46.536  33.630  29.798  1.00  0.00     0.134 A 
ATOM     77  C   UNL A   1      45.805  34.348  27.637  1.00  0.00     0.134 A 
ATOM     78  F   UNL A   1      46.591  32.721  30.782  1.00  0.00    -0.206 F 
ATOM     79  C   UNL A   1      47.157  34.864  30.004  1.00  0.00     0.040 A 
ATOM     80  C   UNL A   1      46.443  35.576  27.818  1.00  0.00     0.040 A 
ATOM     81  F   UNL A   1      45.159  34.139  26.480  1.00  0.00    -0.206 F 
ATOM     82  C   UNL A   1      47.116  35.838  29.009  1.00  0.00     0.006 A 
ENDBRANCH  54  75
BRANCH  66  83
ATOM     83  C   UNL A   1      47.964  27.218  26.095  1.00  0.00     0.057 A 
ATOM     84  C   UNL A   1      48.973  26.670  26.897  1.00  0.00     0.134 A 
ATOM     85  C   UNL A   1      48.204  27.304  24.718  1.00  0.00     0.134 A 
ATOM     86  F   UNL A   1      48.808  26.575  28.225  1.00  0.00    -0.206 F 
ATOM     87  C   UNL A   1      50.183  26.241  26.351  1.00  0.00     0.040 A 
ATOM     88  C   UNL A   1      49.400  26.857  24.158  1.00  0.00     0.040 A 
ATOM     89  F   UNL A   1      47.274  27.814  23.895  1.00  0.00    -0.206 F 
ATOM     90  C   UNL A   1      50.396  26.329  24.977  1.00  0.00     0.006 A 
ENDBRANCH  66  83
ENDBRANCH  40  41
ENDBRANCH  33  35
ENDBRANCH  32  33
ENDBRANCH  31  32
ENDBRANCH  30  31
ENDBRANCH   1  30
TORSDOF 16
ENDMDL
MODEL 2
REMARK VINA RESULT:     -11.1      5.752     10.991
REMARK SMILES COc1ccc(N2/C(=[NH+]/C(=O)CCCC(=O)OCCOC(=O)c3ccc(-c4c5nc(c(-c6c(F)cccc6F)c6ccc([nH]6)c(-c6c(F)cccc6F)c6nc(c(-c7c(F)cccc7F)c7ccc4[nH]7)C=C6)C=C5)cc3)S[C@@H]3CS(=O)(=O)C[C@H]32)cc1Cl
REMARK SMILES IDX 17 1 15 2 16 3 14 4 13 5 12 6 10 7 7 8 8 9 84 10 9 11 77 12
REMARK SMILES IDX 78 13 83 14 79 16 80 17 11 18 81 19 82 20 6 21 3 22 4 23
REMARK SMILES IDX 86 24 5 25 85 26 87 27 2 28 1 29 18 30 19 31 20 32 21 33
REMARK SMILES IDX 22 34 23 35 24 36 76 37 25 38 75 39 26 40 27 41 28 42 69 43
REMARK SMILES IDX 29 44 74 45 68 46 70 47 30 48 73 49 67 50 66 51 31 53 57 54
REMARK SMILES IDX 40 55 56 56 41 57 44 58 55 59 71 60 42 61 43 62 54 64 72 65
REMARK SMILES IDX 45 66 32 67 33 68 38 69 34 70 35 71 37 72 39 73 36 74 58 75
REMARK SMILES IDX 59 76 64 77 60 78 61 79 63 80 65 81 62 82 46 83 47 84 52 85
REMARK SMILES IDX 48 86 49 87 51 88 53 89 50 90
REMARK H PARENT 9 15 70 52 44 63
REMARK Flexibility Score: inf
ROOT
ATOM      1  O   UNL A   1      46.339  20.117  25.433  1.00  0.00    -0.462 OA
ENDROOT
BRANCH   1   2
ATOM      2  C   UNL A   1      45.646  18.985  25.179  1.00  0.00     0.305 C 
ATOM      3  O   UNL A   1      46.095  17.853  25.320  1.00  0.00    -0.252 OA
BRANCH   2   4
ATOM      4  C   UNL A   1      44.230  19.229  24.695  1.00  0.00     0.123 C 
BRANCH   4   5
ATOM      5  C   UNL A   1      43.076  19.031  25.671  1.00  0.00     0.024 C 
BRANCH   5   6
ATOM      6  C   UNL A   1      42.591  20.225  26.489  1.00  0.00     0.128 C 
BRANCH   6   7
ATOM      7  C   UNL A   1      41.099  20.394  26.734  1.00  0.00     0.307 C 
ATOM      8  N   UNL A   1      38.888  23.276  26.454  1.00  0.00    -0.217 N 
ATOM      9  C   UNL A   1      39.537  22.045  26.319  1.00  0.00     0.319 C 
ATOM     10  C   UNL A   1      37.657  23.388  25.670  1.00  0.00     0.212 C 
ATOM     11  N   UNL A   1      40.646  21.683  26.872  1.00  0.00    -0.204 N 
ATOM     12  S   UNL A   1      38.549  21.002  25.232  1.00  0.00    -0.029 SA
ATOM     13  C   UNL A   1      37.092  21.964  25.665  1.00  0.00     0.120 C 
ATOM     14  C   UNL A   1      36.513  24.224  26.201  1.00  0.00     0.188 C 
ATOM     15  H   UNL A   1      41.168  22.334  27.393  1.00  0.00     0.316 HD
ATOM     16  C   UNL A   1      35.871  21.999  24.786  1.00  0.00     0.156 C 
ATOM     17  S   UNL A   1      35.106  23.545  25.309  1.00  0.00     0.155 S 
ATOM     18  O   UNL A   1      40.414  19.401  26.974  1.00  0.00    -0.247 OA
ATOM     19  O   UNL A   1      34.064  23.247  26.268  1.00  0.00    -0.229 OA
ATOM     20  O   UNL A   1      34.874  24.356  24.134  1.00  0.00    -0.229 OA
BRANCH   8  21
ATOM     21  C   UNL A   1      39.462  24.454  26.942  1.00  0.00     0.130 A 
ATOM     22  C   UNL A   1      40.525  26.899  27.945  1.00  0.00     0.137 A 
ATOM     23  C   UNL A   1      39.741  26.057  28.745  1.00  0.00     0.052 A 
ATOM     24  C   UNL A   1      40.780  26.504  26.627  1.00  0.00     0.087 A 
ATOM     25  C   UNL A   1      39.219  24.857  28.256  1.00  0.00     0.056 A 
ATOM     26  C   UNL A   1      40.237  25.296  26.136  1.00  0.00     0.076 A 
ATOM     27  Cl  UNL A   1      41.772  27.377  25.510  1.00  0.00    -0.080 Cl
BRANCH  22  28
ATOM     28  O   UNL A   1      40.955  27.996  28.640  1.00  0.00    -0.495 OA
ATOM     29  C   UNL A   1      42.084  27.894  29.491  1.00  0.00     0.278 C 
ENDBRANCH  22  28
ENDBRANCH   8  21
ENDBRANCH   6   7
ENDBRANCH   5   6
ENDBRANCH   4   5
ENDBRANCH   2   4
ENDBRANCH   1   2
BRANCH   1  30
ATOM     30  C   UNL A   1      45.920  21.307  24.739  1.00  0.00     0.274 C 
BRANCH  30  31
ATOM     31  C   UNL A   1      45.613  22.437  25.726  1.00  0.00     0.275 C 
BRANCH  31  32
ATOM     32  O   UNL A   1      44.341  23.053  25.446  1.00  0.00    -0.458 OA
BRANCH  32  33
ATOM     33  C   UNL A   1      43.851  23.837  26.434  1.00  0.00     0.338 C 
ATOM     34  O   UNL A   1      42.992  23.557  27.251  1.00  0.00    -0.246 OA
BRANCH  33  35
ATOM     35  C   UNL A   1      44.628  25.082  26.493  1.00  0.00     0.060 A 
ATOM     36  C   UNL A   1      44.920  25.727  25.291  1.00  0.00     0.016 A 
ATOM     37  C   UNL A   1      45.133  25.570  27.696  1.00  0.00     0.016 A 
ATOM     38  C   UNL A   1      45.717  26.862  25.270  1.00  0.00     0.010 A 
ATOM     39  C   UNL A   1      45.925  26.722  27.682  1.00  0.00     0.010 A 
ATOM     40  C   UNL A   1      46.222  27.371  26.468  1.00  0.00    -0.014 A 
BRANCH  40  41
ATOM     41  C   UNL A   1      47.089  28.568  26.436  1.00  0.00     0.031 A 
ATOM     42  C   UNL A   1      46.474  29.932  26.529  1.00  0.00     0.074 A 
ATOM     43  C   UNL A   1      48.423  28.423  26.353  1.00  0.00     0.049 A 
ATOM     44  N   UNL A   1      47.032  31.103  26.369  1.00  0.00    -0.248 NA
ATOM     45  C   UNL A   1      45.037  29.983  26.846  1.00  0.00     0.031 C 
ATOM     46  C   UNL A   1      49.135  27.144  26.334  1.00  0.00     0.029 A 
ATOM     47  N   UNL A   1      49.418  29.362  26.259  1.00  0.00    -0.354 N 
ATOM     48  C   UNL A   1      46.013  32.031  26.534  1.00  0.00     0.074 A 
ATOM     49  C   UNL A   1      44.800  31.286  26.801  1.00  0.00     0.031 C 
ATOM     50  C   UNL A   1      50.452  27.379  26.222  1.00  0.00     0.029 A 
ATOM     51  C   UNL A   1      50.667  28.816  26.098  1.00  0.00     0.049 A 
ATOM     52  H   UNL A   1      49.252  30.332  26.301  1.00  0.00     0.167 HD
ATOM     53  C   UNL A   1      46.090  33.380  26.467  1.00  0.00     0.037 A 
ATOM     54  C   UNL A   1      51.846  29.409  25.831  1.00  0.00     0.037 A 
ATOM     55  C   UNL A   1      47.307  34.106  26.212  1.00  0.00     0.049 A 
ATOM     56  C   UNL A   1      51.891  30.903  25.684  1.00  0.00     0.074 A 
ATOM     57  C   UNL A   1      47.493  35.473  26.111  1.00  0.00     0.029 A 
ATOM     58  N   UNL A   1      48.549  33.517  26.023  1.00  0.00    -0.354 N 
ATOM     59  N   UNL A   1      50.917  31.774  25.796  1.00  0.00    -0.248 NA
ATOM     60  C   UNL A   1      53.195  31.496  25.358  1.00  0.00     0.031 C 
ATOM     61  C   UNL A   1      48.843  35.709  25.825  1.00  0.00     0.029 A 
ATOM     62  C   UNL A   1      49.504  34.492  25.789  1.00  0.00     0.049 A 
ATOM     63  H   UNL A   1      48.726  32.549  26.051  1.00  0.00     0.167 HD
ATOM     64  C   UNL A   1      51.490  33.017  25.569  1.00  0.00     0.074 A 
ATOM     65  C   UNL A   1      52.902  32.789  25.331  1.00  0.00     0.031 C 
ATOM     66  C   UNL A   1      50.902  34.239  25.554  1.00  0.00     0.037 A 
BRANCH  53  67
ATOM     67  C   UNL A   1      44.815  34.152  26.631  1.00  0.00     0.057 A 
ATOM     68  C   UNL A   1      43.989  34.462  25.544  1.00  0.00     0.134 A 
ATOM     69  C   UNL A   1      44.400  34.576  27.901  1.00  0.00     0.134 A 
ATOM     70  F   UNL A   1      44.339  34.102  24.300  1.00  0.00    -0.206 F 
ATOM     71  C   UNL A   1      42.804  35.182  25.711  1.00  0.00     0.040 A 
ATOM     72  C   UNL A   1      43.207  35.276  28.083  1.00  0.00     0.040 A 
ATOM     73  F   UNL A   1      45.146  34.312  28.983  1.00  0.00    -0.206 F 
ATOM     74  C   UNL A   1      42.408  35.586  26.984  1.00  0.00     0.006 A 
ENDBRANCH  53  67
BRANCH  54  75
ATOM     75  C   UNL A   1      53.061  28.582  25.630  1.00  0.00     0.057 A 
ATOM     76  C   UNL A   1      53.409  28.095  24.367  1.00  0.00     0.134 A 
ATOM     77  C   UNL A   1      53.904  28.258  26.702  1.00  0.00     0.134 A 
ATOM     78  F   UNL A   1      52.630  28.353  23.306  1.00  0.00    -0.206 F 
ATOM     79  C   UNL A   1      54.545  27.306  24.176  1.00  0.00     0.040 A 
ATOM     80  C   UNL A   1      55.056  27.493  26.521  1.00  0.00     0.040 A 
ATOM     81  F   UNL A   1      53.626  28.696  27.939  1.00  0.00    -0.206 F 
ATOM     82  C   UNL A   1      55.375  27.009  25.255  1.00  0.00     0.006 A 
ENDBRANCH  54  75
BRANCH  66  83
ATOM     83  C   UNL A   1      51.793  35.416  25.294  1.00  0.00     0.057 A 
ATOM     84  C   UNL A   1      52.173  35.780  23.996  1.00  0.00     0.134 A 
ATOM     85  C   UNL A   1      52.251  36.211  26.352  1.00  0.00     0.134 A 
ATOM     86  F   UNL A   1      51.779  35.048  22.943  1.00  0.00    -0.206 F 
ATOM     87  C   UNL A   1      52.995  36.883  23.762  1.00  0.00     0.040 A 
ATOM     88  C   UNL A   1      53.053  37.330  26.128  1.00  0.00     0.040 A 
ATOM     89  F   UNL A   1      51.917  35.919  27.619  1.00  0.00    -0.206 F 
ATOM     90  C   UNL A   1      53.432  37.665  24.829  1.00  0.00     0.006 A 
ENDBRANCH  66  83
ENDBRANCH  40  41
ENDBRANCH  33  35
ENDBRANCH  32  33
ENDBRANCH  31  32
ENDBRANCH  30  31
ENDBRANCH   1  30
TORSDOF 16
ENDMDL
MODEL 3
REMARK VINA RESULT:     -11.0      6.449     12.990
REMARK SMILES COc1ccc(N2/C(=[NH+]/C(=O)CCCC(=O)OCCOC(=O)c3ccc(-c4c5nc(c(-c6c(F)cccc6F)c6ccc([nH]6)c(-c6c(F)cccc6F)c6nc(c(-c7c(F)cccc7F)c7ccc4[nH]7)C=C6)C=C5)cc3)S[C@@H]3CS(=O)(=O)C[C@H]32)cc1Cl
REMARK SMILES IDX 17 1 15 2 16 3 14 4 13 5 12 6 10 7 7 8 8 9 84 10 9 11 77 12
REMARK SMILES IDX 78 13 83 14 79 16 80 17 11 18 81 19 82 20 6 21 3 22 4 23
REMARK SMILES IDX 86 24 5 25 85 26 87 27 2 28 1 29 18 30 19 31 20 32 21 33
REMARK SMILES IDX 22 34 23 35 24 36 76 37 25 38 75 39 26 40 27 41 28 42 69 43
REMARK SMILES IDX 29 44 74 45 68 46 70 47 30 48 73 49 67 50 66 51 31 53 57 54
REMARK SMILES IDX 40 55 56 56 41 57 44 58 55 59 71 60 42 61 43 62 54 64 72 65
REMARK SMILES IDX 45 66 32 67 33 68 38 69 34 70 35 71 37 72 39 73 36 74 58 75
REMARK SMILES IDX 59 76 64 77 60 78 61 79 63 80 65 81 62 82 46 83 47 84 52 85
REMARK SMILES IDX 48 86 49 87 51 88 53 89 50 90
REMARK H PARENT 9 15 70 52 44 63
REMARK Flexibility Score: inf
ROOT
ATOM      1  O   UNL A   1      45.855  22.981  35.947  1.00  0.00    -0.462 OA
ENDROOT
BRANCH   1   2
ATOM      2  C   UNL A   1      45.291  22.792  34.733  1.00  0.00     0.305 C 
ATOM      3  O   UNL A   1      45.515  21.828  34.009  1.00  0.00    -0.252 OA
BRANCH   2   4
ATOM      4  C   UNL A   1      44.328  23.890  34.327  1.00  0.00     0.123 C 
BRANCH   4   5
ATOM      5  C   UNL A   1      44.766  24.895  33.267  1.00  0.00     0.024 C 
BRANCH   5   6
ATOM      6  C   UNL A   1      46.257  25.159  33.075  1.00  0.00     0.128 C 
BRANCH   6   7
ATOM      7  C   UNL A   1      46.713  25.979  31.878  1.00  0.00     0.307 C 
ATOM      8  N   UNL A   1      45.068  26.855  28.748  1.00  0.00    -0.217 N 
ATOM      9  C   UNL A   1      45.698  26.854  29.996  1.00  0.00     0.319 C 
ATOM     10  C   UNL A   1      44.853  28.191  28.192  1.00  0.00     0.212 C 
ATOM     11  N   UNL A   1      45.987  25.826  30.722  1.00  0.00    -0.204 N 
ATOM     12  S   UNL A   1      46.069  28.558  30.443  1.00  0.00    -0.029 SA
ATOM     13  C   UNL A   1      46.052  28.999  28.699  1.00  0.00     0.120 C 
ATOM     14  C   UNL A   1      44.899  28.388  26.692  1.00  0.00     0.188 C 
ATOM     15  H   UNL A   1      45.684  24.931  30.447  1.00  0.00     0.316 HD
ATOM     16  C   UNL A   1      45.832  30.414  28.237  1.00  0.00     0.156 C 
ATOM     17  S   UNL A   1      45.246  30.148  26.554  1.00  0.00     0.155 S 
ATOM     18  O   UNL A   1      47.784  26.582  31.935  1.00  0.00    -0.247 OA
ATOM     19  O   UNL A   1      46.357  30.319  25.642  1.00  0.00    -0.229 OA
ATOM     20  O   UNL A   1      43.991  30.850  26.394  1.00  0.00    -0.229 OA
BRANCH   8  21
ATOM     21  C   UNL A   1      44.346  25.793  28.195  1.00  0.00     0.130 A 
ATOM     22  C   UNL A   1      42.929  23.556  27.143  1.00  0.00     0.137 A 
ATOM     23  C   UNL A   1      42.702  24.022  28.445  1.00  0.00     0.052 A 
ATOM     24  C   UNL A   1      43.876  24.226  26.360  1.00  0.00     0.087 A 
ATOM     25  C   UNL A   1      43.396  25.119  28.963  1.00  0.00     0.056 A 
ATOM     26  C   UNL A   1      44.583  25.325  26.897  1.00  0.00     0.076 A 
ATOM     27  Cl  UNL A   1      44.249  23.839  24.716  1.00  0.00    -0.080 Cl
BRANCH  22  28
ATOM     28  O   UNL A   1      42.117  22.498  26.839  1.00  0.00    -0.495 OA
ATOM     29  C   UNL A   1      41.131  22.076  27.766  1.00  0.00     0.278 C 
ENDBRANCH  22  28
ENDBRANCH   8  21
ENDBRANCH   6   7
ENDBRANCH   5   6
ENDBRANCH   4   5
ENDBRANCH   2   4
ENDBRANCH   1   2
BRANCH   1  30
ATOM     30  C   UNL A   1      47.274  23.223  35.974  1.00  0.00     0.274 C 
BRANCH  30  31
ATOM     31  C   UNL A   1      47.612  24.397  36.896  1.00  0.00     0.275 C 
BRANCH  31  32
ATOM     32  O   UNL A   1      46.931  25.601  36.492  1.00  0.00    -0.458 OA
BRANCH  32  33
ATOM     33  C   UNL A   1      45.893  25.967  37.278  1.00  0.00     0.338 C 
ATOM     34  O   UNL A   1      45.729  25.721  38.460  1.00  0.00    -0.246 OA
BRANCH  33  35
ATOM     35  C   UNL A   1      45.010  26.868  36.525  1.00  0.00     0.060 A 
ATOM     36  C   UNL A   1      43.633  26.686  36.650  1.00  0.00     0.016 A 
ATOM     37  C   UNL A   1      45.519  27.822  35.648  1.00  0.00     0.016 A 
ATOM     38  C   UNL A   1      42.746  27.449  35.905  1.00  0.00     0.010 A 
ATOM     39  C   UNL A   1      44.629  28.604  34.905  1.00  0.00     0.010 A 
ATOM     40  C   UNL A   1      43.238  28.418  35.029  1.00  0.00    -0.014 A 
BRANCH  40  41
ATOM     41  C   UNL A   1      42.289  29.213  34.222  1.00  0.00     0.031 A 
ATOM     42  C   UNL A   1      41.671  30.447  34.805  1.00  0.00     0.074 A 
ATOM     43  C   UNL A   1      42.009  28.837  32.962  1.00  0.00     0.049 A 
ATOM     44  N   UNL A   1      40.709  31.194  34.329  1.00  0.00    -0.248 NA
ATOM     45  C   UNL A   1      42.208  30.901  36.098  1.00  0.00     0.031 C 
ATOM     46  C   UNL A   1      42.610  27.698  32.265  1.00  0.00     0.029 A 
ATOM     47  N   UNL A   1      41.140  29.370  32.044  1.00  0.00    -0.354 N 
ATOM     48  C   UNL A   1      40.504  32.189  35.275  1.00  0.00     0.074 A 
ATOM     49  C   UNL A   1      41.436  31.947  36.356  1.00  0.00     0.031 C 
ATOM     50  C   UNL A   1      42.081  27.610  31.034  1.00  0.00     0.029 A 
ATOM     51  C   UNL A   1      41.064  28.645  30.881  1.00  0.00     0.049 A 
ATOM     52  H   UNL A   1      40.620  30.191  32.205  1.00  0.00     0.167 HD
ATOM     53  C   UNL A   1      39.615  33.209  35.239  1.00  0.00     0.037 A 
ATOM     54  C   UNL A   1      40.232  28.772  29.831  1.00  0.00     0.037 A 
ATOM     55  C   UNL A   1      38.702  33.443  34.150  1.00  0.00     0.049 A 
ATOM     56  C   UNL A   1      39.201  29.865  29.849  1.00  0.00     0.074 A 
ATOM     57  C   UNL A   1      37.751  34.440  34.018  1.00  0.00     0.029 A 
ATOM     58  N   UNL A   1      38.633  32.668  33.001  1.00  0.00    -0.354 N 
ATOM     59  N   UNL A   1      38.979  30.776  30.765  1.00  0.00    -0.248 NA
ATOM     60  C   UNL A   1      38.295  29.938  28.695  1.00  0.00     0.031 C 
ATOM     61  C   UNL A   1      37.082  34.245  32.804  1.00  0.00     0.029 A 
ATOM     62  C   UNL A   1      37.644  33.153  32.162  1.00  0.00     0.049 A 
ATOM     63  H   UNL A   1      39.202  31.888  32.811  1.00  0.00     0.167 HD
ATOM     64  C   UNL A   1      37.920  31.539  30.296  1.00  0.00     0.074 A 
ATOM     65  C   UNL A   1      37.555  30.994  29.002  1.00  0.00     0.031 C 
ATOM     66  C   UNL A   1      37.300  32.593  30.881  1.00  0.00     0.037 A 
BRANCH  53  67
ATOM     67  C   UNL A   1      39.561  34.120  36.428  1.00  0.00     0.057 A 
ATOM     68  C   UNL A   1      38.843  33.791  37.584  1.00  0.00     0.134 A 
ATOM     69  C   UNL A   1      40.255  35.337  36.423  1.00  0.00     0.134 A 
ATOM     70  F   UNL A   1      38.141  32.649  37.646  1.00  0.00    -0.206 F 
ATOM     71  C   UNL A   1      38.801  34.649  38.685  1.00  0.00     0.040 A 
ATOM     72  C   UNL A   1      40.240  36.192  37.525  1.00  0.00     0.040 A 
ATOM     73  F   UNL A   1      40.963  35.712  35.347  1.00  0.00    -0.206 F 
ATOM     74  C   UNL A   1      39.506  35.850  38.660  1.00  0.00     0.006 A 
ENDBRANCH  53  67
BRANCH  54  75
ATOM     75  C   UNL A   1      40.304  27.806  28.709  1.00  0.00     0.057 A 
ATOM     76  C   UNL A   1      41.063  28.074  27.565  1.00  0.00     0.134 A 
ATOM     77  C   UNL A   1      39.613  26.588  28.753  1.00  0.00     0.134 A 
ATOM     78  F   UNL A   1      41.730  29.232  27.454  1.00  0.00    -0.206 F 
ATOM     79  C   UNL A   1      41.125  27.172  26.501  1.00  0.00     0.040 A 
ATOM     80  C   UNL A   1      39.686  25.666  27.709  1.00  0.00     0.040 A 
ATOM     81  F   UNL A   1      38.868  26.270  29.823  1.00  0.00    -0.206 F 
ATOM     82  C   UNL A   1      40.439  25.961  26.575  1.00  0.00     0.006 A 
ENDBRANCH  54  75
BRANCH  66  83
ATOM     83  C   UNL A   1      36.183  33.234  30.113  1.00  0.00     0.057 A 
ATOM     84  C   UNL A   1      36.430  34.125  29.061  1.00  0.00     0.134 A 
ATOM     85  C   UNL A   1      34.848  32.933  30.410  1.00  0.00     0.134 A 
ATOM     86  F   UNL A   1      37.687  34.465  28.739  1.00  0.00    -0.206 F 
ATOM     87  C   UNL A   1      35.385  34.710  28.344  1.00  0.00     0.040 A 
ATOM     88  C   UNL A   1      33.797  33.494  29.685  1.00  0.00     0.040 A 
ATOM     89  F   UNL A   1      34.546  32.081  31.403  1.00  0.00    -0.206 F 
ATOM     90  C   UNL A   1      34.065  34.389  28.653  1.00  0.00     0.006 A 
ENDBRANCH  66  83
ENDBRANCH  40  41
ENDBRANCH  33  35
ENDBRANCH  32  33
ENDBRANCH  31  32
ENDBRANCH  30  31
ENDBRANCH   1  30
TORSDOF 16
ENDMDL
