MODEL 1
REMARK VINA RESULT:      -9.5      0.000      0.000
REMARK SMILES Cc1occc1C(=O)N[C@@H](C)CC(=O)OCCOC(=O)c1ccc(-c2c3nc(c(-c4c(F)cccc4F)c4ccc([nH]4)c(-c4c(F)cccc4F)c4nc(c(-c5c(F)cccc5F)c5ccc2[nH]5)C=C4)C=C3)cc1
REMARK SMILES IDX 16 1 15 2 13 3 14 4 12 5 10 6 11 7 9 8 7 9 8 10 6 12 1 13
REMARK SMILES IDX 2 14 3 15 4 16 5 17 17 18 18 19 19 20 20 21 21 22 22 23
REMARK SMILES IDX 74 24 23 25 73 26 24 27 25 28 26 29 67 30 27 31 72 32 66 33
REMARK SMILES IDX 68 34 28 35 71 36 65 37 64 38 29 40 55 41 38 42 54 43 39 44
REMARK SMILES IDX 42 45 53 46 69 47 40 48 41 49 52 51 70 52 43 53 30 54 31 55
REMARK SMILES IDX 36 56 32 57 33 58 35 59 37 60 34 61 56 62 57 63 62 64 58 65
REMARK SMILES IDX 59 66 61 67 63 68 60 69 44 70 45 71 50 72 46 73 47 74 49 75
REMARK SMILES IDX 51 76 48 77
REMARK H PARENT 9 11 68 39 42 50
REMARK Flexibility Score: inf
ROOT
ATOM      1  C   UNL A   1      41.698  20.104  26.452  1.00  0.00     0.274 C 
ENDROOT
BRANCH   1   2
ATOM      2  O   UNL A   1      42.202  19.253  25.402  1.00  0.00    -0.462 OA
BRANCH   2   3
ATOM      3  C   UNL A   1      43.552  19.179  25.286  1.00  0.00     0.307 C 
ATOM      4  O   UNL A   1      44.178  18.164  25.000  1.00  0.00    -0.252 OA
BRANCH   3   5
ATOM      5  C   UNL A   1      44.231  20.478  25.633  1.00  0.00     0.147 C 
BRANCH   5   6
ATOM      6  C   UNL A   1      44.685  21.321  24.432  1.00  0.00     0.090 C 
ATOM      7  C   UNL A   1      46.168  21.666  24.622  1.00  0.00     0.031 C 
BRANCH   6   8
ATOM      8  N   UNL A   1      43.941  22.572  24.354  1.00  0.00    -0.349 N 
ATOM      9  C   UNL A   1      43.671  23.596  25.218  1.00  0.00     0.255 C 
ATOM     10  O   UNL A   1      43.066  24.545  24.707  1.00  0.00    -0.269 OA
ATOM     11  H   UNL A   1      43.536  22.712  23.467  1.00  0.00     0.164 HD
BRANCH   9  12
ATOM     12  C   UNL A   1      44.068  23.674  26.620  1.00  0.00     0.080 A 
ATOM     13  C   UNL A   1      46.617  24.415  26.924  1.00  0.00     0.088 C 
ATOM     14  C   UNL A   1      45.250  23.989  27.280  1.00  0.00     0.113 A 
ATOM     15  O   UNL A   1      45.092  23.848  28.633  1.00  0.00    -0.469 OA
ATOM     16  C   UNL A   1      43.833  23.421  28.863  1.00  0.00     0.196 A 
ATOM     17  C   UNL A   1      43.168  23.284  27.677  1.00  0.00     0.056 A 
ENDBRANCH   9  12
ENDBRANCH   6   8
ENDBRANCH   5   6
ENDBRANCH   3   5
ENDBRANCH   2   3
ENDBRANCH   1   2
BRANCH   1  18
ATOM     18  C   UNL A   1      40.781  21.219  25.931  1.00  0.00     0.275 C 
BRANCH  18  19
ATOM     19  O   UNL A   1      39.905  21.740  26.951  1.00  0.00    -0.458 OA
BRANCH  19  20
ATOM     20  C   UNL A   1      39.044  22.675  26.501  1.00  0.00     0.338 C 
ATOM     21  O   UNL A   1      38.025  22.470  25.859  1.00  0.00    -0.246 OA
BRANCH  20  22
ATOM     22  C   UNL A   1      39.380  24.022  26.968  1.00  0.00     0.060 A 
ATOM     23  C   UNL A   1      39.943  24.911  26.045  1.00  0.00     0.016 A 
ATOM     24  C   UNL A   1      39.277  24.362  28.316  1.00  0.00     0.016 A 
ATOM     25  C   UNL A   1      40.409  26.150  26.470  1.00  0.00     0.010 A 
ATOM     26  C   UNL A   1      39.736  25.613  28.739  1.00  0.00     0.010 A 
ATOM     27  C   UNL A   1      40.308  26.510  27.820  1.00  0.00    -0.014 A 
BRANCH  27  28
ATOM     28  C   UNL A   1      40.777  27.843  28.260  1.00  0.00     0.031 A 
ATOM     29  C   UNL A   1      42.237  28.179  28.264  1.00  0.00     0.074 A 
ATOM     30  C   UNL A   1      39.868  28.756  28.647  1.00  0.00     0.049 A 
ATOM     31  N   UNL A   1      42.829  29.276  28.661  1.00  0.00    -0.248 NA
ATOM     32  C   UNL A   1      43.151  27.149  27.751  1.00  0.00     0.031 C 
ATOM     33  C   UNL A   1      38.419  28.552  28.647  1.00  0.00     0.029 A 
ATOM     34  N   UNL A   1      40.030  30.034  29.114  1.00  0.00    -0.354 N 
ATOM     35  C   UNL A   1      44.187  29.068  28.458  1.00  0.00     0.074 A 
ATOM     36  C   UNL A   1      44.332  27.732  27.917  1.00  0.00     0.031 C 
ATOM     37  C   UNL A   1      37.822  29.673  29.084  1.00  0.00     0.029 A 
ATOM     38  C   UNL A   1      38.847  30.651  29.434  1.00  0.00     0.049 A 
ATOM     39  H   UNL A   1      40.909  30.467  29.208  1.00  0.00     0.167 HD
ATOM     40  C   UNL A   1      45.214  29.917  28.698  1.00  0.00     0.037 A 
ATOM     41  C   UNL A   1      38.617  31.863  29.970  1.00  0.00     0.037 A 
ATOM     42  C   UNL A   1      45.065  31.244  29.239  1.00  0.00     0.049 A 
ATOM     43  C   UNL A   1      39.779  32.754  30.301  1.00  0.00     0.074 A 
ATOM     44  C   UNL A   1      46.045  32.187  29.504  1.00  0.00     0.029 A 
ATOM     45  N   UNL A   1      43.855  31.815  29.607  1.00  0.00    -0.354 N 
ATOM     46  N   UNL A   1      41.058  32.548  30.103  1.00  0.00    -0.248 NA
ATOM     47  C   UNL A   1      39.464  34.039  30.939  1.00  0.00     0.031 C 
ATOM     48  C   UNL A   1      45.432  33.311  30.068  1.00  0.00     0.029 A 
ATOM     49  C   UNL A   1      44.065  33.085  30.119  1.00  0.00     0.049 A 
ATOM     50  H   UNL A   1      42.975  31.381  29.517  1.00  0.00     0.167 HD
ATOM     51  C   UNL A   1      41.701  33.684  30.578  1.00  0.00     0.074 A 
ATOM     52  C   UNL A   1      40.669  34.578  31.063  1.00  0.00     0.031 C 
ATOM     53  C   UNL A   1      43.028  33.960  30.605  1.00  0.00     0.037 A 
BRANCH  40  54
ATOM     54  C   UNL A   1      46.598  29.420  28.401  1.00  0.00     0.057 A 
ATOM     55  C   UNL A   1      47.195  29.600  27.147  1.00  0.00     0.134 A 
ATOM     56  C   UNL A   1      47.348  28.768  29.387  1.00  0.00     0.134 A 
ATOM     57  F   UNL A   1      46.525  30.206  26.156  1.00  0.00    -0.206 F 
ATOM     58  C   UNL A   1      48.481  29.129  26.877  1.00  0.00     0.040 A 
ATOM     59  C   UNL A   1      48.642  28.310  29.136  1.00  0.00     0.040 A 
ATOM     60  F   UNL A   1      46.836  28.567  30.611  1.00  0.00    -0.206 F 
ATOM     61  C   UNL A   1      49.210  28.484  27.875  1.00  0.00     0.006 A 
ENDBRANCH  40  54
BRANCH  41  62
ATOM     62  C   UNL A   1      37.224  32.296  30.228  1.00  0.00     0.057 A 
ATOM     63  C   UNL A   1      36.516  33.038  29.278  1.00  0.00     0.134 A 
ATOM     64  C   UNL A   1      36.561  31.955  31.413  1.00  0.00     0.134 A 
ATOM     65  F   UNL A   1      37.106  33.408  28.132  1.00  0.00    -0.206 F 
ATOM     66  C   UNL A   1      35.195  33.430  29.497  1.00  0.00     0.040 A 
ATOM     67  C   UNL A   1      35.235  32.323  31.637  1.00  0.00     0.040 A 
ATOM     68  F   UNL A   1      37.190  31.242  32.359  1.00  0.00    -0.206 F 
ATOM     69  C   UNL A   1      34.548  33.065  30.678  1.00  0.00     0.006 A 
ENDBRANCH  41  62
BRANCH  53  70
ATOM     70  C   UNL A   1      43.430  35.291  31.163  1.00  0.00     0.057 A 
ATOM     71  C   UNL A   1      43.608  35.490  32.538  1.00  0.00     0.134 A 
ATOM     72  C   UNL A   1      43.659  36.381  30.314  1.00  0.00     0.134 A 
ATOM     73  F   UNL A   1      43.386  34.490  33.403  1.00  0.00    -0.206 F 
ATOM     74  C   UNL A   1      43.980  36.734  33.051  1.00  0.00     0.040 A 
ATOM     75  C   UNL A   1      44.052  37.623  30.814  1.00  0.00     0.040 A 
ATOM     76  F   UNL A   1      43.509  36.254  28.986  1.00  0.00    -0.206 F 
ATOM     77  C   UNL A   1      44.208  37.803  32.186  1.00  0.00     0.006 A 
ENDBRANCH  53  70
ENDBRANCH  27  28
ENDBRANCH  20  22
ENDBRANCH  19  20
ENDBRANCH  18  19
ENDBRANCH   1  18
TORSDOF 14
ENDMDL
MODEL 2
REMARK VINA RESULT:      -9.5      4.371     10.866
REMARK SMILES Cc1occc1C(=O)N[C@@H](C)CC(=O)OCCOC(=O)c1ccc(-c2c3nc(c(-c4c(F)cccc4F)c4ccc([nH]4)c(-c4c(F)cccc4F)c4nc(c(-c5c(F)cccc5F)c5ccc2[nH]5)C=C4)C=C3)cc1
REMARK SMILES IDX 16 1 15 2 13 3 14 4 12 5 10 6 11 7 9 8 7 9 8 10 6 12 1 13
REMARK SMILES IDX 2 14 3 15 4 16 5 17 17 18 18 19 19 20 20 21 21 22 22 23
REMARK SMILES IDX 74 24 23 25 73 26 24 27 25 28 26 29 67 30 27 31 72 32 66 33
REMARK SMILES IDX 68 34 28 35 71 36 65 37 64 38 29 40 55 41 38 42 54 43 39 44
REMARK SMILES IDX 42 45 53 46 69 47 40 48 41 49 52 51 70 52 43 53 30 54 31 55
REMARK SMILES IDX 36 56 32 57 33 58 35 59 37 60 34 61 56 62 57 63 62 64 58 65
REMARK SMILES IDX 59 66 61 67 63 68 60 69 44 70 45 71 50 72 46 73 47 74 49 75
REMARK SMILES IDX 51 76 48 77
REMARK H PARENT 9 11 68 39 42 50
REMARK Flexibility Score: inf
ROOT
ATOM      1  C   UNL A   1      35.122  33.429  28.728  1.00  0.00     0.274 C 
ENDROOT
BRANCH   1   2
ATOM      2  O   UNL A   1      35.722  33.052  29.985  1.00  0.00    -0.462 OA
BRANCH   2   3
ATOM      3  C   UNL A   1      37.077  33.095  30.039  1.00  0.00     0.307 C 
ATOM      4  O   UNL A   1      37.823  32.983  29.073  1.00  0.00    -0.252 OA
BRANCH   3   5
ATOM      5  C   UNL A   1      37.593  33.213  31.450  1.00  0.00     0.147 C 
BRANCH   5   6
ATOM      6  C   UNL A   1      36.853  34.229  32.335  1.00  0.00     0.090 C 
ATOM      7  C   UNL A   1      37.674  34.435  33.615  1.00  0.00     0.031 C 
BRANCH   6   8
ATOM      8  N   UNL A   1      35.539  33.732  32.721  1.00  0.00    -0.349 N 
ATOM      9  C   UNL A   1      34.274  34.250  32.741  1.00  0.00     0.255 C 
ATOM     10  O   UNL A   1      33.398  33.437  33.058  1.00  0.00    -0.269 OA
ATOM     11  H   UNL A   1      35.569  32.804  33.046  1.00  0.00     0.164 HD
BRANCH   9  12
ATOM     12  C   UNL A   1      33.889  35.611  32.382  1.00  0.00     0.080 A 
ATOM     13  C   UNL A   1      32.806  35.763  29.945  1.00  0.00     0.088 C 
ATOM     14  C   UNL A   1      33.318  36.197  31.259  1.00  0.00     0.113 A 
ATOM     15  O   UNL A   1      33.221  37.553  31.425  1.00  0.00    -0.469 OA
ATOM     16  C   UNL A   1      33.745  37.863  32.629  1.00  0.00     0.196 A 
ATOM     17  C   UNL A   1      34.179  36.725  33.251  1.00  0.00     0.056 A 
ENDBRANCH   9  12
ENDBRANCH   6   8
ENDBRANCH   5   6
ENDBRANCH   3   5
ENDBRANCH   2   3
ENDBRANCH   1   2
BRANCH   1  18
ATOM     18  C   UNL A   1      34.065  32.427  28.245  1.00  0.00     0.275 C 
BRANCH  18  19
ATOM     19  O   UNL A   1      34.592  31.477  27.296  1.00  0.00    -0.458 OA
BRANCH  19  20
ATOM     20  C   UNL A   1      34.738  30.234  27.797  1.00  0.00     0.338 C 
ATOM     21  O   UNL A   1      33.877  29.370  27.850  1.00  0.00    -0.246 OA
BRANCH  20  22
ATOM     22  C   UNL A   1      36.120  29.944  28.187  1.00  0.00     0.060 A 
ATOM     23  C   UNL A   1      37.109  30.029  27.200  1.00  0.00     0.016 A 
ATOM     24  C   UNL A   1      36.422  29.462  29.460  1.00  0.00     0.016 A 
ATOM     25  C   UNL A   1      38.410  29.629  27.484  1.00  0.00     0.010 A 
ATOM     26  C   UNL A   1      37.733  29.070  29.747  1.00  0.00     0.010 A 
ATOM     27  C   UNL A   1      38.731  29.147  28.759  1.00  0.00    -0.014 A 
BRANCH  27  28
ATOM     28  C   UNL A   1      40.123  28.751  29.064  1.00  0.00     0.031 A 
ATOM     29  C   UNL A   1      41.032  29.669  29.823  1.00  0.00     0.074 A 
ATOM     30  C   UNL A   1      40.559  27.545  28.660  1.00  0.00     0.049 A 
ATOM     31  N   UNL A   1      42.293  29.508  30.136  1.00  0.00    -0.248 NA
ATOM     32  C   UNL A   1      40.449  30.933  30.294  1.00  0.00     0.031 C 
ATOM     33  C   UNL A   1      39.751  26.554  27.949  1.00  0.00     0.029 A 
ATOM     34  N   UNL A   1      41.787  26.950  28.788  1.00  0.00    -0.354 N 
ATOM     35  C   UNL A   1      42.659  30.652  30.832  1.00  0.00     0.074 A 
ATOM     36  C   UNL A   1      41.491  31.508  30.880  1.00  0.00     0.031 C 
ATOM     37  C   UNL A   1      40.503  25.467  27.713  1.00  0.00     0.029 A 
ATOM     38  C   UNL A   1      41.852  25.705  28.216  1.00  0.00     0.049 A 
ATOM     39  H   UNL A   1      42.547  27.374  29.248  1.00  0.00     0.167 HD
ATOM     40  C   UNL A   1      43.860  30.955  31.381  1.00  0.00     0.037 A 
ATOM     41  C   UNL A   1      42.891  24.860  28.090  1.00  0.00     0.037 A 
ATOM     42  C   UNL A   1      45.019  30.101  31.328  1.00  0.00     0.049 A 
ATOM     43  C   UNL A   1      44.231  25.254  28.638  1.00  0.00     0.074 A 
ATOM     44  C   UNL A   1      46.277  30.315  31.868  1.00  0.00     0.029 A 
ATOM     45  N   UNL A   1      45.066  28.872  30.687  1.00  0.00    -0.354 N 
ATOM     46  N   UNL A   1      44.567  26.338  29.296  1.00  0.00    -0.248 NA
ATOM     47  C   UNL A   1      45.337  24.314  28.417  1.00  0.00     0.031 C 
ATOM     48  C   UNL A   1      47.093  29.232  31.521  1.00  0.00     0.029 A 
ATOM     49  C   UNL A   1      46.334  28.326  30.797  1.00  0.00     0.049 A 
ATOM     50  H   UNL A   1      44.307  28.449  30.223  1.00  0.00     0.167 HD
ATOM     51  C   UNL A   1      45.919  26.203  29.581  1.00  0.00     0.074 A 
ATOM     52  C   UNL A   1      46.337  24.929  29.034  1.00  0.00     0.031 C 
ATOM     53  C   UNL A   1      46.738  27.060  30.240  1.00  0.00     0.037 A 
BRANCH  40  54
ATOM     54  C   UNL A   1      43.983  32.284  32.066  1.00  0.00     0.057 A 
ATOM     55  C   UNL A   1      44.380  33.438  31.377  1.00  0.00     0.134 A 
ATOM     56  C   UNL A   1      43.684  32.415  33.428  1.00  0.00     0.134 A 
ATOM     57  F   UNL A   1      44.693  33.377  30.074  1.00  0.00    -0.206 F 
ATOM     58  C   UNL A   1      44.498  34.669  32.024  1.00  0.00     0.040 A 
ATOM     59  C   UNL A   1      43.778  33.644  34.081  1.00  0.00     0.040 A 
ATOM     60  F   UNL A   1      43.293  31.350  34.144  1.00  0.00    -0.206 F 
ATOM     61  C   UNL A   1      44.192  34.775  33.380  1.00  0.00     0.006 A 
ENDBRANCH  40  54
BRANCH  41  62
ATOM     62  C   UNL A   1      42.696  23.557  27.412  1.00  0.00     0.057 A 
ATOM     63  C   UNL A   1      42.872  23.434  26.029  1.00  0.00     0.134 A 
ATOM     64  C   UNL A   1      42.356  22.405  28.129  1.00  0.00     0.134 A 
ATOM     65  F   UNL A   1      43.180  24.509  25.290  1.00  0.00    -0.206 F 
ATOM     66  C   UNL A   1      42.717  22.208  25.382  1.00  0.00     0.040 A 
ATOM     67  C   UNL A   1      42.218  21.169  27.498  1.00  0.00     0.040 A 
ATOM     68  F   UNL A   1      42.177  22.462  29.457  1.00  0.00    -0.206 F 
ATOM     69  C   UNL A   1      42.396  21.068  26.119  1.00  0.00     0.006 A 
ENDBRANCH  41  62
BRANCH  53  70
ATOM     70  C   UNL A   1      48.162  26.631  30.418  1.00  0.00     0.057 A 
ATOM     71  C   UNL A   1      49.158  26.987  29.499  1.00  0.00     0.134 A 
ATOM     72  C   UNL A   1      48.545  25.869  31.529  1.00  0.00     0.134 A 
ATOM     73  F   UNL A   1      48.851  27.700  28.406  1.00  0.00    -0.206 F 
ATOM     74  C   UNL A   1      50.483  26.582  29.670  1.00  0.00     0.040 A 
ATOM     75  C   UNL A   1      49.870  25.477  31.721  1.00  0.00     0.040 A 
ATOM     76  F   UNL A   1      47.639  25.499  32.447  1.00  0.00    -0.206 F 
ATOM     77  C   UNL A   1      50.842  25.829  30.787  1.00  0.00     0.006 A 
ENDBRANCH  53  70
ENDBRANCH  27  28
ENDBRANCH  20  22
ENDBRANCH  19  20
ENDBRANCH  18  19
ENDBRANCH   1  18
TORSDOF 14
ENDMDL
MODEL 3
REMARK VINA RESULT:      -9.4      5.041     11.225
REMARK SMILES Cc1occc1C(=O)N[C@@H](C)CC(=O)OCCOC(=O)c1ccc(-c2c3nc(c(-c4c(F)cccc4F)c4ccc([nH]4)c(-c4c(F)cccc4F)c4nc(c(-c5c(F)cccc5F)c5ccc2[nH]5)C=C4)C=C3)cc1
REMARK SMILES IDX 16 1 15 2 13 3 14 4 12 5 10 6 11 7 9 8 7 9 8 10 6 12 1 13
REMARK SMILES IDX 2 14 3 15 4 16 5 17 17 18 18 19 19 20 20 21 21 22 22 23
REMARK SMILES IDX 74 24 23 25 73 26 24 27 25 28 26 29 67 30 27 31 72 32 66 33
REMARK SMILES IDX 68 34 28 35 71 36 65 37 64 38 29 40 55 41 38 42 54 43 39 44
REMARK SMILES IDX 42 45 53 46 69 47 40 48 41 49 52 51 70 52 43 53 30 54 31 55
REMARK SMILES IDX 36 56 32 57 33 58 35 59 37 60 34 61 56 62 57 63 62 64 58 65
REMARK SMILES IDX 59 66 61 67 63 68 60 69 44 70 45 71 50 72 46 73 47 74 49 75
REMARK SMILES IDX 51 76 48 77
REMARK H PARENT 9 11 68 39 42 50
REMARK Flexibility Score: inf
ROOT
ATOM      1  C   UNL A   1      33.390  34.739  28.406  1.00  0.00     0.274 C 
ENDROOT
BRANCH   1   2
ATOM      2  O   UNL A   1      32.614  34.876  29.614  1.00  0.00    -0.462 OA
BRANCH   2   3
ATOM      3  C   UNL A   1      32.760  36.042  30.293  1.00  0.00     0.307 C 
ATOM      4  O   UNL A   1      33.106  37.107  29.793  1.00  0.00    -0.252 OA
BRANCH   3   5
ATOM      5  C   UNL A   1      32.531  35.879  31.773  1.00  0.00     0.147 C 
BRANCH   5   6
ATOM      6  C   UNL A   1      33.756  35.423  32.580  1.00  0.00     0.090 C 
ATOM      7  C   UNL A   1      34.174  36.573  33.505  1.00  0.00     0.031 C 
BRANCH   6   8
ATOM      8  N   UNL A   1      34.881  35.120  31.705  1.00  0.00    -0.349 N 
ATOM      9  C   UNL A   1      36.000  34.341  31.799  1.00  0.00     0.255 C 
ATOM     10  O   UNL A   1      36.668  34.285  30.760  1.00  0.00    -0.269 OA
ATOM     11  H   UNL A   1      34.821  35.589  30.842  1.00  0.00     0.164 HD
BRANCH   9  12
ATOM     12  C   UNL A   1      36.420  33.564  32.960  1.00  0.00     0.080 A 
ATOM     13  C   UNL A   1      36.275  30.929  32.539  1.00  0.00     0.088 C 
ATOM     14  C   UNL A   1      36.511  32.206  33.241  1.00  0.00     0.113 A 
ATOM     15  O   UNL A   1      36.919  32.012  34.534  1.00  0.00    -0.469 OA
ATOM     16  C   UNL A   1      37.071  33.225  35.108  1.00  0.00     0.196 A 
ATOM     17  C   UNL A   1      36.770  34.205  34.204  1.00  0.00     0.056 A 
ENDBRANCH   9  12
ENDBRANCH   6   8
ENDBRANCH   5   6
ENDBRANCH   3   5
ENDBRANCH   2   3
ENDBRANCH   1   2
BRANCH   1  18
ATOM     18  C   UNL A   1      33.559  33.280  27.964  1.00  0.00     0.275 C 
BRANCH  18  19
ATOM     19  O   UNL A   1      34.722  32.654  28.542  1.00  0.00    -0.458 OA
BRANCH  19  20
ATOM     20  C   UNL A   1      34.826  31.339  28.265  1.00  0.00     0.338 C 
ATOM     21  O   UNL A   1      33.990  30.652  27.698  1.00  0.00    -0.246 OA
BRANCH  20  22
ATOM     22  C   UNL A   1      36.140  30.793  28.609  1.00  0.00     0.060 A 
ATOM     23  C   UNL A   1      36.189  29.507  29.158  1.00  0.00     0.016 A 
ATOM     24  C   UNL A   1      37.289  31.579  28.528  1.00  0.00     0.016 A 
ATOM     25  C   UNL A   1      37.394  28.998  29.631  1.00  0.00     0.010 A 
ATOM     26  C   UNL A   1      38.502  31.062  28.994  1.00  0.00     0.010 A 
ATOM     27  C   UNL A   1      38.559  29.773  29.552  1.00  0.00    -0.014 A 
BRANCH  27  28
ATOM     28  C   UNL A   1      39.844  29.215  30.028  1.00  0.00     0.031 A 
ATOM     29  C   UNL A   1      40.496  29.745  31.268  1.00  0.00     0.074 A 
ATOM     30  C   UNL A   1      40.412  28.212  29.336  1.00  0.00     0.049 A 
ATOM     31  N   UNL A   1      41.642  29.410  31.804  1.00  0.00    -0.248 NA
ATOM     32  C   UNL A   1      39.766  30.786  32.004  1.00  0.00     0.031 C 
ATOM     33  C   UNL A   1      39.848  27.591  28.138  1.00  0.00     0.029 A 
ATOM     34  N   UNL A   1      41.590  27.541  29.541  1.00  0.00    -0.354 N 
ATOM     35  C   UNL A   1      41.778  30.203  32.935  1.00  0.00     0.074 A 
ATOM     36  C   UNL A   1      40.604  31.050  32.998  1.00  0.00     0.031 C 
ATOM     37  C   UNL A   1      40.676  26.620  27.719  1.00  0.00     0.029 A 
ATOM     38  C   UNL A   1      41.845  26.584  28.592  1.00  0.00     0.049 A 
ATOM     39  H   UNL A   1      42.193  27.727  30.297  1.00  0.00     0.167 HD
ATOM     40  C   UNL A   1      42.789  30.220  33.837  1.00  0.00     0.037 A 
ATOM     41  C   UNL A   1      42.913  25.782  28.431  1.00  0.00     0.037 A 
ATOM     42  C   UNL A   1      43.955  29.377  33.767  1.00  0.00     0.049 A 
ATOM     43  C   UNL A   1      44.055  25.876  29.400  1.00  0.00     0.074 A 
ATOM     44  C   UNL A   1      45.027  29.309  34.643  1.00  0.00     0.029 A 
ATOM     45  N   UNL A   1      44.208  28.460  32.758  1.00  0.00    -0.354 N 
ATOM     46  N   UNL A   1      44.173  26.629  30.466  1.00  0.00    -0.248 NA
ATOM     47  C   UNL A   1      45.216  25.016  29.135  1.00  0.00     0.031 C 
ATOM     48  C   UNL A   1      45.945  28.379  34.142  1.00  0.00     0.029 A 
ATOM     49  C   UNL A   1      45.428  27.840  32.974  1.00  0.00     0.049 A 
ATOM     50  H   UNL A   1      43.608  28.276  31.999  1.00  0.00     0.167 HD
ATOM     51  C   UNL A   1      45.413  26.323  31.009  1.00  0.00     0.074 A 
ATOM     52  C   UNL A   1      46.004  25.309  30.160  1.00  0.00     0.031 C 
ATOM     53  C   UNL A   1      46.006  26.837  32.115  1.00  0.00     0.037 A 
BRANCH  40  54
ATOM     54  C   UNL A   1      42.685  31.204  34.964  1.00  0.00     0.057 A 
ATOM     55  C   UNL A   1      42.102  30.865  36.191  1.00  0.00     0.134 A 
ATOM     56  C   UNL A   1      43.191  32.502  34.825  1.00  0.00     0.134 A 
ATOM     57  F   UNL A   1      41.588  29.641  36.383  1.00  0.00    -0.206 F 
ATOM     58  C   UNL A   1      42.005  31.789  37.233  1.00  0.00     0.040 A 
ATOM     59  C   UNL A   1      43.118  33.429  35.866  1.00  0.00     0.040 A 
ATOM     60  F   UNL A   1      43.766  32.890  33.677  1.00  0.00    -0.206 F 
ATOM     61  C   UNL A   1      42.517  33.075  37.072  1.00  0.00     0.006 A 
ENDBRANCH  40  54
BRANCH  41  62
ATOM     62  C   UNL A   1      42.944  24.824  27.301  1.00  0.00     0.057 A 
ATOM     63  C   UNL A   1      42.342  23.567  27.409  1.00  0.00     0.134 A 
ATOM     64  C   UNL A   1      43.551  25.153  26.083  1.00  0.00     0.134 A 
ATOM     65  F   UNL A   1      41.762  23.192  28.559  1.00  0.00    -0.206 F 
ATOM     66  C   UNL A   1      42.343  22.666  26.344  1.00  0.00     0.040 A 
ATOM     67  C   UNL A   1      43.541  24.269  25.004  1.00  0.00     0.040 A 
ATOM     68  F   UNL A   1      44.141  26.346  25.920  1.00  0.00    -0.206 F 
ATOM     69  C   UNL A   1      42.937  23.020  25.133  1.00  0.00     0.006 A 
ENDBRANCH  41  62
BRANCH  53  70
ATOM     70  C   UNL A   1      47.355  26.292  32.474  1.00  0.00     0.057 A 
ATOM     71  C   UNL A   1      47.502  25.207  33.349  1.00  0.00     0.134 A 
ATOM     72  C   UNL A   1      48.518  26.845  31.924  1.00  0.00     0.134 A 
ATOM     73  F   UNL A   1      46.427  24.646  33.921  1.00  0.00    -0.206 F 
ATOM     74  C   UNL A   1      48.762  24.705  33.680  1.00  0.00     0.040 A 
ATOM     75  C   UNL A   1      49.781  26.338  32.232  1.00  0.00     0.040 A 
ATOM     76  F   UNL A   1      48.445  27.883  31.077  1.00  0.00    -0.206 F 
ATOM     77  C   UNL A   1      49.905  25.268  33.116  1.00  0.00     0.006 A 
ENDBRANCH  53  70
ENDBRANCH  27  28
ENDBRANCH  20  22
ENDBRANCH  19  20
ENDBRANCH  18  19
ENDBRANCH   1  18
TORSDOF 14
ENDMDL
