MODEL 1
REMARK VINA RESULT:     -15.1      0.000      0.000
REMARK SMILES Cc1cccc(OC2(C(=O)OCCOC(=O)c3ccc(-c4c5nc(c(-c6c(F)cccc6F)c6ccc([nH]6)c(-c6c(F)cccc6F)c6nc(c(-c7c(F)cccc7F)c7ccc4[nH]7)C=C6)C=C5)cc3)CCN(C(=O)c3cnc[nH]c3=O)CC2)c1
REMARK SMILES IDX 12 1 11 2 9 3 10 4 8 5 71 6 84 7 72 8 83 9 73 10 74 11 75 12
REMARK SMILES IDX 7 13 6 14 1 15 2 16 3 17 85 18 4 19 5 20 76 21 77 22 81 23
REMARK SMILES IDX 78 24 80 25 82 26 79 27 13 29 14 30 15 31 16 32 17 33 18 34
REMARK SMILES IDX 70 35 19 36 69 37 20 38 21 39 22 40 63 41 23 42 68 43 62 44
REMARK SMILES IDX 64 45 24 46 67 47 61 48 60 49 25 51 51 52 34 53 50 54 35 55
REMARK SMILES IDX 38 56 49 57 65 58 36 59 37 60 48 62 66 63 39 64 26 65 27 66
REMARK SMILES IDX 32 67 28 68 29 69 31 70 33 71 30 72 52 73 53 74 58 75 54 76
REMARK SMILES IDX 55 77 57 78 59 79 56 80 40 81 41 82 46 83 42 84 43 85 45 86
REMARK SMILES IDX 47 87 44 88
REMARK H PARENT 80 28 64 50 38 61
REMARK Flexibility Score: inf
ROOT
ATOM      1  C   UNL A   1      37.930  21.146  25.165  1.00  0.00     0.274 C 
ENDROOT
BRANCH   1   2
ATOM      2  O   UNL A   1      36.886  21.936  25.745  1.00  0.00    -0.459 OA
BRANCH   2   3
ATOM      3  C   UNL A   1      36.318  22.894  25.009  1.00  0.00     0.350 C 
ATOM      4  O   UNL A   1      37.039  23.808  24.610  1.00  0.00    -0.247 OA
BRANCH   3   5
ATOM      5  C   UNL A   1      34.622  22.867  24.782  1.00  0.00     0.209 C 
ATOM      6  C   UNL A   1      34.467  24.167  26.109  1.00  0.00     0.082 C 
ATOM      7  C   UNL A   1      34.335  24.242  23.605  1.00  0.00     0.082 C 
ATOM      8  C   UNL A   1      33.316  25.180  26.214  1.00  0.00     0.124 C 
ATOM      9  C   UNL A   1      33.079  25.172  23.754  1.00  0.00     0.124 C 
ATOM     10  N   UNL A   1      33.143  25.928  24.986  1.00  0.00    -0.338 N 
ATOM     11  C   UNL A   1      33.189  27.309  25.026  1.00  0.00     0.261 C 
ATOM     12  O   UNL A   1      33.867  27.940  25.831  1.00  0.00    -0.269 OA
BRANCH   5  13
ATOM     13  O   UNL A   1      33.443  21.180  24.697  1.00  0.00    -0.475 OA
BRANCH  13  14
ATOM     14  C   UNL A   1      33.416  19.630  24.122  1.00  0.00     0.121 A 
ATOM     15  C   UNL A   1      34.985  16.210  24.987  1.00  0.00     0.044 C 
ATOM     16  C   UNL A   1      34.112  17.199  24.260  1.00  0.00    -0.047 A 
ATOM     17  C   UNL A   1      33.271  16.905  23.210  1.00  0.00     0.003 A 
ATOM     18  C   UNL A   1      34.167  18.529  24.671  1.00  0.00     0.050 A 
ATOM     19  C   UNL A   1      32.452  17.925  22.683  1.00  0.00     0.004 A 
ATOM     20  C   UNL A   1      32.493  19.272  23.154  1.00  0.00     0.046 A 
ENDBRANCH  13  14
ENDBRANCH   5  13
BRANCH  11  21
ATOM     21  C   UNL A   1      32.283  28.018  24.103  1.00  0.00     0.123 A 
ATOM     22  C   UNL A   1      30.952  27.948  24.244  1.00  0.00     0.132 A 
ATOM     23  C   UNL A   1      32.804  28.761  22.940  1.00  0.00     0.263 A 
ATOM     24  N   UNL A   1      30.038  28.547  23.409  1.00  0.00    -0.246 NA
ATOM     25  N   UNL A   1      31.848  29.296  22.121  1.00  0.00    -0.312 N 
ATOM     26  O   UNL A   1      33.999  28.909  22.713  1.00  0.00    -0.269 OA
ATOM     27  C   UNL A   1      30.516  29.176  22.388  1.00  0.00     0.199 A 
ATOM     28  H   UNL A   1      32.130  29.783  21.313  1.00  0.00     0.171 HD
ENDBRANCH  11  21
ENDBRANCH   3   5
ENDBRANCH   2   3
ENDBRANCH   1   2
BRANCH   1  29
ATOM     29  C   UNL A   1      39.353  21.164  25.831  1.00  0.00     0.275 C 
BRANCH  29  30
ATOM     30  O   UNL A   1      40.069  19.939  26.294  1.00  0.00    -0.458 OA
BRANCH  30  31
ATOM     31  C   UNL A   1      41.388  19.570  26.053  1.00  0.00     0.338 C 
ATOM     32  O   UNL A   1      41.743  18.423  25.853  1.00  0.00    -0.246 OA
BRANCH  31  33
ATOM     33  C   UNL A   1      42.333  20.723  26.226  1.00  0.00     0.060 A 
ATOM     34  C   UNL A   1      43.610  21.683  25.193  1.00  0.00     0.016 A 
ATOM     35  C   UNL A   1      41.988  21.263  27.848  1.00  0.00     0.016 A 
ATOM     36  C   UNL A   1      44.252  23.275  25.948  1.00  0.00     0.010 A 
ATOM     37  C   UNL A   1      42.505  22.765  28.395  1.00  0.00     0.010 A 
ATOM     38  C   UNL A   1      43.505  23.858  27.491  1.00  0.00    -0.014 A 
BRANCH  38  39
ATOM     39  C   UNL A   1      43.117  25.282  28.060  1.00  0.00     0.031 A 
ATOM     40  C   UNL A   1      41.809  26.055  27.959  1.00  0.00     0.074 A 
ATOM     41  C   UNL A   1      43.803  25.735  29.158  1.00  0.00     0.049 A 
ATOM     42  N   UNL A   1      41.697  27.349  27.796  1.00  0.00    -0.248 NA
ATOM     43  C   UNL A   1      40.508  25.455  28.245  1.00  0.00     0.031 C 
ATOM     44  C   UNL A   1      43.392  26.687  30.199  1.00  0.00     0.029 A 
ATOM     45  N   UNL A   1      45.064  25.370  29.611  1.00  0.00    -0.354 N 
ATOM     46  C   UNL A   1      40.377  27.699  28.120  1.00  0.00     0.074 A 
ATOM     47  C   UNL A   1      39.644  26.467  28.178  1.00  0.00     0.031 C 
ATOM     48  C   UNL A   1      44.448  26.994  30.978  1.00  0.00     0.029 A 
ATOM     49  C   UNL A   1      45.620  26.365  30.402  1.00  0.00     0.049 A 
ATOM     50  H   UNL A   1      45.504  24.516  29.399  1.00  0.00     0.167 HD
ATOM     51  C   UNL A   1      39.999  28.879  28.709  1.00  0.00     0.037 A 
ATOM     52  C   UNL A   1      46.828  26.934  30.106  1.00  0.00     0.037 A 
ATOM     53  C   UNL A   1      41.140  29.532  29.318  1.00  0.00     0.049 A 
ATOM     54  C   UNL A   1      46.642  28.377  29.720  1.00  0.00     0.074 A 
ATOM     55  C   UNL A   1      41.529  29.628  30.644  1.00  0.00     0.029 A 
ATOM     56  N   UNL A   1      42.195  29.983  28.552  1.00  0.00    -0.354 N 
ATOM     57  N   UNL A   1      45.466  28.911  29.578  1.00  0.00    -0.248 NA
ATOM     58  C   UNL A   1      47.713  29.313  29.401  1.00  0.00     0.031 C 
ATOM     59  C   UNL A   1      42.839  30.145  30.675  1.00  0.00     0.029 A 
ATOM     60  C   UNL A   1      43.240  30.362  29.368  1.00  0.00     0.049 A 
ATOM     61  H   UNL A   1      42.202  30.027  27.569  1.00  0.00     0.167 HD
ATOM     62  C   UNL A   1      45.582  30.183  29.110  1.00  0.00     0.074 A 
ATOM     63  C   UNL A   1      47.011  30.404  29.042  1.00  0.00     0.031 C 
ATOM     64  C   UNL A   1      44.465  30.901  28.808  1.00  0.00     0.037 A 
BRANCH  51  65
ATOM     65  C   UNL A   1      38.566  29.294  29.067  1.00  0.00     0.057 A 
ATOM     66  C   UNL A   1      37.688  29.868  28.116  1.00  0.00     0.134 A 
ATOM     67  C   UNL A   1      37.961  29.049  30.315  1.00  0.00     0.134 A 
ATOM     68  F   UNL A   1      38.052  30.071  26.843  1.00  0.00    -0.206 F 
ATOM     69  C   UNL A   1      36.365  30.239  28.401  1.00  0.00     0.040 A 
ATOM     70  C   UNL A   1      36.642  29.437  30.622  1.00  0.00     0.040 A 
ATOM     71  F   UNL A   1      38.608  28.382  31.281  1.00  0.00    -0.206 F 
ATOM     72  C   UNL A   1      35.839  30.041  29.665  1.00  0.00     0.006 A 
ENDBRANCH  51  65
BRANCH  52  73
ATOM     73  C   UNL A   1      47.743  25.983  29.398  1.00  0.00     0.057 A 
ATOM     74  C   UNL A   1      47.857  26.147  28.003  1.00  0.00     0.134 A 
ATOM     75  C   UNL A   1      48.869  25.529  30.094  1.00  0.00     0.134 A 
ATOM     76  F   UNL A   1      46.793  26.529  27.282  1.00  0.00    -0.206 F 
ATOM     77  C   UNL A   1      49.101  26.131  27.372  1.00  0.00     0.040 A 
ATOM     78  C   UNL A   1      50.118  25.539  29.474  1.00  0.00     0.040 A 
ATOM     79  F   UNL A   1      48.845  25.391  31.428  1.00  0.00    -0.206 F 
ATOM     80  C   UNL A   1      50.244  25.898  28.127  1.00  0.00     0.006 A 
ENDBRANCH  52  73
BRANCH  64  81
ATOM     81  C   UNL A   1      44.424  32.202  28.064  1.00  0.00     0.057 A 
ATOM     82  C   UNL A   1      44.851  32.354  26.740  1.00  0.00     0.134 A 
ATOM     83  C   UNL A   1      43.817  33.340  28.640  1.00  0.00     0.134 A 
ATOM     84  F   UNL A   1      45.309  31.319  26.024  1.00  0.00    -0.206 F 
ATOM     85  C   UNL A   1      44.773  33.579  26.069  1.00  0.00     0.040 A 
ATOM     86  C   UNL A   1      43.676  34.548  27.958  1.00  0.00     0.040 A 
ATOM     87  F   UNL A   1      43.312  33.325  29.884  1.00  0.00    -0.206 F 
ATOM     88  C   UNL A   1      44.180  34.679  26.675  1.00  0.00     0.006 A 
ENDBRANCH  64  81
ENDBRANCH  38  39
ENDBRANCH  31  33
ENDBRANCH  30  31
ENDBRANCH  29  30
ENDBRANCH   1  29
TORSDOF 14
ENDMDL
MODEL 2
REMARK VINA RESULT:     -14.6      3.897      9.721
REMARK SMILES Cc1cccc(OC2(C(=O)OCCOC(=O)c3ccc(-c4c5nc(c(-c6c(F)cccc6F)c6ccc([nH]6)c(-c6c(F)cccc6F)c6nc(c(-c7c(F)cccc7F)c7ccc4[nH]7)C=C6)C=C5)cc3)CCN(C(=O)c3cnc[nH]c3=O)CC2)c1
REMARK SMILES IDX 12 1 11 2 9 3 10 4 8 5 71 6 84 7 72 8 83 9 73 10 74 11 75 12
REMARK SMILES IDX 7 13 6 14 1 15 2 16 3 17 85 18 4 19 5 20 76 21 77 22 81 23
REMARK SMILES IDX 78 24 80 25 82 26 79 27 13 29 14 30 15 31 16 32 17 33 18 34
REMARK SMILES IDX 70 35 19 36 69 37 20 38 21 39 22 40 63 41 23 42 68 43 62 44
REMARK SMILES IDX 64 45 24 46 67 47 61 48 60 49 25 51 51 52 34 53 50 54 35 55
REMARK SMILES IDX 38 56 49 57 65 58 36 59 37 60 48 62 66 63 39 64 26 65 27 66
REMARK SMILES IDX 32 67 28 68 29 69 31 70 33 71 30 72 52 73 53 74 58 75 54 76
REMARK SMILES IDX 55 77 57 78 59 79 56 80 40 81 41 82 46 83 42 84 43 85 45 86
REMARK SMILES IDX 47 87 44 88
REMARK H PARENT 80 28 64 50 38 61
REMARK Flexibility Score: inf
ROOT
ATOM      1  C   UNL A   1      32.589  30.832  26.847  1.00  0.00     0.274 C 
ENDROOT
BRANCH   1   2
ATOM      2  O   UNL A   1      33.060  29.795  25.978  1.00  0.00    -0.459 OA
BRANCH   2   3
ATOM      3  C   UNL A   1      32.876  28.522  26.334  1.00  0.00     0.350 C 
ATOM      4  O   UNL A   1      33.291  28.175  27.440  1.00  0.00    -0.247 OA
BRANCH   3   5
ATOM      5  C   UNL A   1      32.206  27.433  25.197  1.00  0.00     0.209 C 
ATOM      6  C   UNL A   1      33.936  26.885  24.768  1.00  0.00     0.082 C 
ATOM      7  C   UNL A   1      32.098  25.862  26.134  1.00  0.00     0.082 C 
ATOM      8  C   UNL A   1      34.303  25.505  24.202  1.00  0.00     0.124 C 
ATOM      9  C   UNL A   1      32.417  24.492  25.437  1.00  0.00     0.124 C 
ATOM     10  N   UNL A   1      33.806  24.431  25.038  1.00  0.00    -0.338 N 
ATOM     11  C   UNL A   1      34.694  23.489  25.525  1.00  0.00     0.261 C 
ATOM     12  O   UNL A   1      35.868  23.737  25.783  1.00  0.00    -0.269 OA
BRANCH   5  13
ATOM     13  O   UNL A   1      30.773  27.889  23.789  1.00  0.00    -0.475 OA
BRANCH  13  14
ATOM     14  C   UNL A   1      29.487  28.889  23.507  1.00  0.00     0.121 A 
ATOM     15  C   UNL A   1      28.808  32.671  23.127  1.00  0.00     0.044 C 
ATOM     16  C   UNL A   1      28.507  31.195  23.140  1.00  0.00    -0.047 A 
ATOM     17  C   UNL A   1      27.278  30.626  22.886  1.00  0.00     0.003 A 
ATOM     18  C   UNL A   1      29.552  30.328  23.447  1.00  0.00     0.050 A 
ATOM     19  C   UNL A   1      27.170  29.220  22.853  1.00  0.00     0.004 A 
ATOM     20  C   UNL A   1      28.270  28.351  23.126  1.00  0.00     0.046 A 
ENDBRANCH  13  14
ENDBRANCH   5  13
BRANCH  11  21
ATOM     21  C   UNL A   1      34.188  22.108  25.627  1.00  0.00     0.123 A 
ATOM     22  C   UNL A   1      33.976  21.362  24.535  1.00  0.00     0.132 A 
ATOM     23  C   UNL A   1      33.815  21.524  26.930  1.00  0.00     0.263 A 
ATOM     24  N   UNL A   1      33.473  20.082  24.539  1.00  0.00    -0.246 NA
ATOM     25  N   UNL A   1      33.279  20.267  26.868  1.00  0.00    -0.312 N 
ATOM     26  O   UNL A   1      33.976  22.102  27.999  1.00  0.00    -0.269 OA
ATOM     27  C   UNL A   1      33.137  19.599  25.688  1.00  0.00     0.199 A 
ATOM     28  H   UNL A   1      32.986  19.832  27.701  1.00  0.00     0.171 HD
ENDBRANCH  11  21
ENDBRANCH   3   5
ENDBRANCH   2   3
ENDBRANCH   1   2
BRANCH   1  29
ATOM     29  C   UNL A   1      33.632  31.633  27.707  1.00  0.00     0.275 C 
BRANCH  29  30
ATOM     30  O   UNL A   1      33.733  33.122  27.715  1.00  0.00    -0.458 OA
BRANCH  30  31
ATOM     31  C   UNL A   1      33.669  33.982  28.805  1.00  0.00     0.338 C 
ATOM     32  O   UNL A   1      33.058  35.036  28.799  1.00  0.00    -0.246 OA
BRANCH  31  33
ATOM     33  C   UNL A   1      34.565  33.538  29.924  1.00  0.00     0.060 A 
ATOM     34  C   UNL A   1      34.403  32.753  31.649  1.00  0.00     0.016 A 
ATOM     35  C   UNL A   1      36.158  33.819  29.274  1.00  0.00     0.016 A 
ATOM     36  C   UNL A   1      35.996  32.152  32.433  1.00  0.00     0.010 A 
ATOM     37  C   UNL A   1      37.520  33.133  29.981  1.00  0.00     0.010 A 
ATOM     38  C   UNL A   1      37.515  32.206  31.448  1.00  0.00    -0.014 A 
BRANCH  38  39
ATOM     39  C   UNL A   1      38.766  31.250  31.294  1.00  0.00     0.031 A 
ATOM     40  C   UNL A   1      39.010  30.104  30.322  1.00  0.00     0.074 A 
ATOM     41  C   UNL A   1      39.981  31.722  31.721  1.00  0.00     0.049 A 
ATOM     42  N   UNL A   1      39.619  28.980  30.604  1.00  0.00    -0.248 NA
ATOM     43  C   UNL A   1      38.770  30.217  28.886  1.00  0.00     0.031 C 
ATOM     44  C   UNL A   1      41.337  31.362  31.284  1.00  0.00     0.029 A 
ATOM     45  N   UNL A   1      40.254  32.716  32.652  1.00  0.00    -0.354 N 
ATOM     46  C   UNL A   1      39.960  28.372  29.386  1.00  0.00     0.074 A 
ATOM     47  C   UNL A   1      39.223  29.073  28.373  1.00  0.00     0.031 C 
ATOM     48  C   UNL A   1      42.245  31.925  32.106  1.00  0.00     0.029 A 
ATOM     49  C   UNL A   1      41.523  32.563  33.190  1.00  0.00     0.049 A 
ATOM     50  H   UNL A   1      39.627  33.434  32.897  1.00  0.00     0.167 HD
ATOM     51  C   UNL A   1      41.086  27.619  29.172  1.00  0.00     0.037 A 
ATOM     52  C   UNL A   1      41.729  32.433  34.536  1.00  0.00     0.037 A 
ATOM     53  C   UNL A   1      42.065  27.861  30.212  1.00  0.00     0.049 A 
ATOM     54  C   UNL A   1      42.238  31.054  34.853  1.00  0.00     0.074 A 
ATOM     55  C   UNL A   1      43.230  28.611  30.205  1.00  0.00     0.029 A 
ATOM     56  N   UNL A   1      41.807  27.524  31.525  1.00  0.00    -0.354 N 
ATOM     57  N   UNL A   1      42.323  30.121  33.953  1.00  0.00    -0.248 NA
ATOM     58  C   UNL A   1      42.624  30.577  36.176  1.00  0.00     0.031 C 
ATOM     59  C   UNL A   1      43.679  28.727  31.536  1.00  0.00     0.029 A 
ATOM     60  C   UNL A   1      42.786  28.046  32.344  1.00  0.00     0.049 A 
ATOM     61  H   UNL A   1      41.039  26.991  31.832  1.00  0.00     0.167 HD
ATOM     62  C   UNL A   1      42.694  28.946  34.527  1.00  0.00     0.074 A 
ATOM     63  C   UNL A   1      42.902  29.285  35.920  1.00  0.00     0.031 C 
ATOM     64  C   UNL A   1      42.761  27.812  33.776  1.00  0.00     0.037 A 
BRANCH  51  65
ATOM     65  C   UNL A   1      41.482  26.935  27.857  1.00  0.00     0.057 A 
ATOM     66  C   UNL A   1      41.977  27.663  26.748  1.00  0.00     0.134 A 
ATOM     67  C   UNL A   1      41.499  25.539  27.666  1.00  0.00     0.134 A 
ATOM     68  F   UNL A   1      42.141  28.992  26.786  1.00  0.00    -0.206 F 
ATOM     69  C   UNL A   1      42.370  27.069  25.538  1.00  0.00     0.040 A 
ATOM     70  C   UNL A   1      41.869  24.931  26.450  1.00  0.00     0.040 A 
ATOM     71  F   UNL A   1      41.198  24.698  28.666  1.00  0.00    -0.206 F 
ATOM     72  C   UNL A   1      42.301  25.697  25.377  1.00  0.00     0.006 A 
ENDBRANCH  51  65
BRANCH  52  73
ATOM     73  C   UNL A   1      40.690  33.155  35.338  1.00  0.00     0.057 A 
ATOM     74  C   UNL A   1      39.627  32.372  35.831  1.00  0.00     0.134 A 
ATOM     75  C   UNL A   1      41.110  34.244  36.111  1.00  0.00     0.134 A 
ATOM     76  F   UNL A   1      39.152  31.350  35.106  1.00  0.00    -0.206 F 
ATOM     77  C   UNL A   1      39.190  32.495  37.151  1.00  0.00     0.040 A 
ATOM     78  C   UNL A   1      40.696  34.352  37.438  1.00  0.00     0.040 A 
ATOM     79  F   UNL A   1      42.143  35.005  35.723  1.00  0.00    -0.206 F 
ATOM     80  C   UNL A   1      39.781  33.442  37.978  1.00  0.00     0.006 A 
ENDBRANCH  52  73
BRANCH  64  81
ATOM     81  C   UNL A   1      42.912  26.413  34.295  1.00  0.00     0.057 A 
ATOM     82  C   UNL A   1      41.943  25.762  35.066  1.00  0.00     0.134 A 
ATOM     83  C   UNL A   1      44.018  25.621  33.914  1.00  0.00     0.134 A 
ATOM     84  F   UNL A   1      40.777  26.347  35.373  1.00  0.00    -0.206 F 
ATOM     85  C   UNL A   1      42.106  24.446  35.511  1.00  0.00     0.040 A 
ATOM     86  C   UNL A   1      44.160  24.288  34.299  1.00  0.00     0.040 A 
ATOM     87  F   UNL A   1      44.998  26.097  33.131  1.00  0.00    -0.206 F 
ATOM     88  C   UNL A   1      43.214  23.704  35.124  1.00  0.00     0.006 A 
ENDBRANCH  64  81
ENDBRANCH  38  39
ENDBRANCH  31  33
ENDBRANCH  30  31
ENDBRANCH  29  30
ENDBRANCH   1  29
TORSDOF 14
ENDMDL
MODEL 3
REMARK VINA RESULT:     -14.1      3.712      7.923
REMARK SMILES Cc1cccc(OC2(C(=O)OCCOC(=O)c3ccc(-c4c5nc(c(-c6c(F)cccc6F)c6ccc([nH]6)c(-c6c(F)cccc6F)c6nc(c(-c7c(F)cccc7F)c7ccc4[nH]7)C=C6)C=C5)cc3)CCN(C(=O)c3cnc[nH]c3=O)CC2)c1
REMARK SMILES IDX 12 1 11 2 9 3 10 4 8 5 71 6 84 7 72 8 83 9 73 10 74 11 75 12
REMARK SMILES IDX 7 13 6 14 1 15 2 16 3 17 85 18 4 19 5 20 76 21 77 22 81 23
REMARK SMILES IDX 78 24 80 25 82 26 79 27 13 29 14 30 15 31 16 32 17 33 18 34
REMARK SMILES IDX 70 35 19 36 69 37 20 38 21 39 22 40 63 41 23 42 68 43 62 44
REMARK SMILES IDX 64 45 24 46 67 47 61 48 60 49 25 51 51 52 34 53 50 54 35 55
REMARK SMILES IDX 38 56 49 57 65 58 36 59 37 60 48 62 66 63 39 64 26 65 27 66
REMARK SMILES IDX 32 67 28 68 29 69 31 70 33 71 30 72 52 73 53 74 58 75 54 76
REMARK SMILES IDX 55 77 57 78 59 79 56 80 40 81 41 82 46 83 42 84 43 85 45 86
REMARK SMILES IDX 47 87 44 88
REMARK H PARENT 80 28 64 50 38 61
REMARK Flexibility Score: inf
ROOT
ATOM      1  C   UNL A   1      37.897  21.438  25.742  1.00  0.00     0.274 C 
ENDROOT
BRANCH   1   2
ATOM      2  O   UNL A   1      36.934  22.487  25.894  1.00  0.00    -0.459 OA
BRANCH   2   3
ATOM      3  C   UNL A   1      36.353  22.992  24.803  1.00  0.00     0.350 C 
ATOM      4  O   UNL A   1      37.074  23.572  23.991  1.00  0.00    -0.247 OA
BRANCH   3   5
ATOM      5  C   UNL A   1      34.648  22.923  24.666  1.00  0.00     0.209 C 
ATOM      6  C   UNL A   1      34.533  24.245  25.975  1.00  0.00     0.082 C 
ATOM      7  C   UNL A   1      34.269  24.268  23.481  1.00  0.00     0.082 C 
ATOM      8  C   UNL A   1      33.366  25.233  26.123  1.00  0.00     0.124 C 
ATOM      9  C   UNL A   1      33.001  25.173  23.679  1.00  0.00     0.124 C 
ATOM     10  N   UNL A   1      33.112  25.953  24.892  1.00  0.00    -0.338 N 
ATOM     11  C   UNL A   1      33.127  27.336  24.904  1.00  0.00     0.261 C 
ATOM     12  O   UNL A   1      33.832  27.997  25.661  1.00  0.00    -0.269 OA
BRANCH   5  13
ATOM     13  O   UNL A   1      33.506  21.209  24.673  1.00  0.00    -0.475 OA
BRANCH  13  14
ATOM     14  C   UNL A   1      33.461  19.664  24.086  1.00  0.00     0.121 A 
ATOM     15  C   UNL A   1      34.994  16.220  24.918  1.00  0.00     0.044 C 
ATOM     16  C   UNL A   1      34.131  17.224  24.201  1.00  0.00    -0.047 A 
ATOM     17  C   UNL A   1      33.284  16.948  23.151  1.00  0.00     0.003 A 
ATOM     18  C   UNL A   1      34.201  18.550  24.623  1.00  0.00     0.050 A 
ATOM     19  C   UNL A   1      32.475  17.982  22.635  1.00  0.00     0.004 A 
ATOM     20  C   UNL A   1      32.532  19.325  23.117  1.00  0.00     0.046 A 
ENDBRANCH  13  14
ENDBRANCH   5  13
BRANCH  11  21
ATOM     21  C   UNL A   1      32.159  28.006  24.018  1.00  0.00     0.123 A 
ATOM     22  C   UNL A   1      30.839  27.911  24.230  1.00  0.00     0.132 A 
ATOM     23  C   UNL A   1      32.600  28.737  22.815  1.00  0.00     0.263 A 
ATOM     24  N   UNL A   1      29.869  28.473  23.434  1.00  0.00    -0.246 NA
ATOM     25  N   UNL A   1      31.591  29.235  22.037  1.00  0.00    -0.312 N 
ATOM     26  O   UNL A   1      33.779  28.905  22.522  1.00  0.00    -0.269 OA
ATOM     27  C   UNL A   1      30.279  29.092  22.378  1.00  0.00     0.199 A 
ATOM     28  H   UNL A   1      31.820  29.711  21.206  1.00  0.00     0.171 HD
ENDBRANCH  11  21
ENDBRANCH   3   5
ENDBRANCH   2   3
ENDBRANCH   1   2
BRANCH   1  29
ATOM     29  C   UNL A   1      39.381  21.702  26.189  1.00  0.00     0.275 C 
BRANCH  29  30
ATOM     30  O   UNL A   1      40.467  20.681  26.104  1.00  0.00    -0.458 OA
BRANCH  30  31
ATOM     31  C   UNL A   1      41.672  20.648  26.796  1.00  0.00     0.338 C 
ATOM     32  O   UNL A   1      42.231  19.620  27.131  1.00  0.00    -0.246 OA
BRANCH  31  33
ATOM     33  C   UNL A   1      42.117  22.019  27.214  1.00  0.00     0.060 A 
ATOM     34  C   UNL A   1      41.585  23.376  28.437  1.00  0.00     0.016 A 
ATOM     35  C   UNL A   1      43.574  22.250  26.284  1.00  0.00     0.016 A 
ATOM     36  C   UNL A   1      42.802  24.780  28.689  1.00  0.00     0.010 A 
ATOM     37  C   UNL A   1      44.668  23.467  26.666  1.00  0.00     0.010 A 
ATOM     38  C   UNL A   1      44.428  24.663  27.900  1.00  0.00    -0.014 A 
BRANCH  38  39
ATOM     39  C   UNL A   1      45.897  25.055  28.336  1.00  0.00     0.031 A 
ATOM     40  C   UNL A   1      47.185  25.084  27.525  1.00  0.00     0.074 A 
ATOM     41  C   UNL A   1      46.037  25.908  29.401  1.00  0.00     0.049 A 
ATOM     42  N   UNL A   1      48.369  24.735  27.959  1.00  0.00    -0.248 NA
ATOM     43  C   UNL A   1      47.280  25.712  26.210  1.00  0.00     0.031 C 
ATOM     44  C   UNL A   1      47.127  26.838  29.725  1.00  0.00     0.029 A 
ATOM     45  N   UNL A   1      45.150  26.161  30.439  1.00  0.00    -0.354 N 
ATOM     46  C   UNL A   1      49.314  25.247  27.057  1.00  0.00     0.074 A 
ATOM     47  C   UNL A   1      48.574  25.649  25.895  1.00  0.00     0.031 C 
ATOM     48  C   UNL A   1      46.947  27.336  30.966  1.00  0.00     0.029 A 
ATOM     49  C   UNL A   1      45.812  26.654  31.555  1.00  0.00     0.049 A 
ATOM     50  H   UNL A   1      44.179  26.011  30.389  1.00  0.00     0.167 HD
ATOM     51  C   UNL A   1      50.564  25.696  27.398  1.00  0.00     0.037 A 
ATOM     52  C   UNL A   1      45.732  26.039  32.774  1.00  0.00     0.037 A 
ATOM     53  C   UNL A   1      50.641  25.955  28.822  1.00  0.00     0.049 A 
ATOM     54  C   UNL A   1      47.070  25.465  33.155  1.00  0.00     0.074 A 
ATOM     55  C   UNL A   1      50.618  27.146  29.529  1.00  0.00     0.029 A 
ATOM     56  N   UNL A   1      50.502  24.935  29.740  1.00  0.00    -0.354 N 
ATOM     57  N   UNL A   1      48.084  25.468  32.342  1.00  0.00    -0.248 NA
ATOM     58  C   UNL A   1      47.376  24.794  34.412  1.00  0.00     0.031 C 
ATOM     59  C   UNL A   1      50.463  26.836  30.895  1.00  0.00     0.029 A 
ATOM     60  C   UNL A   1      50.394  25.458  31.011  1.00  0.00     0.049 A 
ATOM     61  H   UNL A   1      50.483  23.976  29.521  1.00  0.00     0.167 HD
ATOM     62  C   UNL A   1      49.125  24.784  32.886  1.00  0.00     0.074 A 
ATOM     63  C   UNL A   1      48.647  24.403  34.200  1.00  0.00     0.031 C 
ATOM     64  C   UNL A   1      50.264  24.590  32.166  1.00  0.00     0.037 A 
BRANCH  51  65
ATOM     65  C   UNL A   1      51.622  26.252  26.435  1.00  0.00     0.057 A 
ATOM     66  C   UNL A   1      52.520  25.411  25.734  1.00  0.00     0.134 A 
ATOM     67  C   UNL A   1      51.727  27.610  26.077  1.00  0.00     0.134 A 
ATOM     68  F   UNL A   1      52.491  24.078  25.861  1.00  0.00    -0.206 F 
ATOM     69  C   UNL A   1      53.484  25.883  24.830  1.00  0.00     0.040 A 
ATOM     70  C   UNL A   1      52.704  28.100  25.188  1.00  0.00     0.040 A 
ATOM     71  F   UNL A   1      50.857  28.520  26.539  1.00  0.00    -0.206 F 
ATOM     72  C   UNL A   1      53.592  27.235  24.564  1.00  0.00     0.006 A 
ENDBRANCH  51  65
BRANCH  52  73
ATOM     73  C   UNL A   1      44.425  25.333  32.966  1.00  0.00     0.057 A 
ATOM     74  C   UNL A   1      44.404  23.961  32.647  1.00  0.00     0.134 A 
ATOM     75  C   UNL A   1      43.600  25.772  34.009  1.00  0.00     0.134 A 
ATOM     76  F   UNL A   1      45.135  23.497  31.624  1.00  0.00    -0.206 F 
ATOM     77  C   UNL A   1      43.807  23.029  33.497  1.00  0.00     0.040 A 
ATOM     78  C   UNL A   1      43.026  24.844  34.876  1.00  0.00     0.040 A 
ATOM     79  F   UNL A   1      43.603  27.056  34.394  1.00  0.00    -0.206 F 
ATOM     80  C   UNL A   1      43.179  23.470  34.656  1.00  0.00     0.006 A 
ENDBRANCH  52  73
BRANCH  64  81
ATOM     81  C   UNL A   1      51.389  23.664  32.520  1.00  0.00     0.057 A 
ATOM     82  C   UNL A   1      52.737  24.039  32.509  1.00  0.00     0.134 A 
ATOM     83  C   UNL A   1      51.123  22.368  33.016  1.00  0.00     0.134 A 
ATOM     84  F   UNL A   1      53.118  25.287  32.203  1.00  0.00    -0.206 F 
ATOM     85  C   UNL A   1      53.758  23.156  32.871  1.00  0.00     0.040 A 
ATOM     86  C   UNL A   1      52.130  21.502  33.440  1.00  0.00     0.040 A 
ATOM     87  F   UNL A   1      49.874  21.893  33.134  1.00  0.00    -0.206 F 
ATOM     88  C   UNL A   1      53.457  21.884  33.342  1.00  0.00     0.006 A 
ENDBRANCH  64  81
ENDBRANCH  38  39
ENDBRANCH  31  33
ENDBRANCH  30  31
ENDBRANCH  29  30
ENDBRANCH   1  29
TORSDOF 14
ENDMDL
