MODEL 1
REMARK VINA RESULT:     -12.2      0.000      0.000
REMARK SMILES CC[C@@H](C)N1C(=O)/C(=C/Nc2cccc(C(=O)OCCOC(=O)c3ccc(-c4c5nc(c(-c6c(F)cccc6F)c6ccc([nH]6)c(-c6c(F)cccc6F)c6nc(c(-c7c(F)cccc7F)c7ccc4[nH]7)C=C6)C=C5)cc3)c2)C(=O)NC1=S
REMARK SMILES IDX 19 1 18 2 16 3 17 4 15 5 11 6 12 7 78 8 13 9 14 10 10 11
REMARK SMILES IDX 9 13 5 14 6 15 82 16 7 17 8 18 81 19 83 20 79 21 80 23 3 24
REMARK SMILES IDX 4 25 2 26 1 27 20 28 21 29 22 30 23 31 24 32 25 33 77 34
REMARK SMILES IDX 26 35 76 36 27 37 28 38 29 39 70 40 30 41 75 42 69 43 71 44
REMARK SMILES IDX 31 45 74 46 68 47 67 48 32 50 58 51 41 52 57 53 42 54 45 55
REMARK SMILES IDX 56 56 72 57 43 58 44 59 55 61 73 62 46 63 33 64 34 65 39 66
REMARK SMILES IDX 35 67 36 68 38 69 40 70 37 71 59 72 60 73 65 74 61 75 62 76
REMARK SMILES IDX 64 77 66 78 63 79 47 80 48 81 53 82 49 83 50 84 52 85 54 86
REMARK SMILES IDX 51 87
REMARK H PARENT 10 12 81 22 71 49 45 60
REMARK Flexibility Score: inf
ROOT
ATOM      1  C   UNL A   1      42.903  21.170  25.922  1.00  0.00     0.275 C 
ENDROOT
BRANCH   1   2
ATOM      2  O   UNL A   1      41.537  21.462  25.566  1.00  0.00    -0.458 OA
BRANCH   2   3
ATOM      3  C   UNL A   1      40.594  21.188  26.509  1.00  0.00     0.338 C 
ATOM      4  O   UNL A   1      40.739  20.490  27.494  1.00  0.00    -0.246 OA
BRANCH   3   5
ATOM      5  C   UNL A   1      39.359  21.968  26.242  1.00  0.00     0.062 A 
ATOM      6  C   UNL A   1      37.165  22.219  25.219  1.00  0.00     0.039 A 
ATOM      7  C   UNL A   1      37.130  23.547  25.658  1.00  0.00     0.026 A 
ATOM      8  C   UNL A   1      38.301  21.443  25.499  1.00  0.00     0.041 A 
ATOM      9  C   UNL A   1      38.168  24.072  26.430  1.00  0.00     0.003 A 
ATOM     10  C   UNL A   1      39.258  23.268  26.755  1.00  0.00     0.016 A 
BRANCH   6  11
ATOM     11  N   UNL A   1      36.021  21.670  24.626  1.00  0.00    -0.361 N 
ATOM     12  H   UNL A   1      36.000  20.690  24.517  1.00  0.00     0.166 HD
BRANCH  11  13
ATOM     13  C   UNL A   1      34.927  22.369  24.183  1.00  0.00     0.102 C 
ATOM     14  N   UNL A   1      31.734  23.690  24.878  1.00  0.00    -0.282 N 
ATOM     15  C   UNL A   1      32.669  23.186  23.969  1.00  0.00     0.267 C 
ATOM     16  C   UNL A   1      31.260  22.822  25.871  1.00  0.00     0.183 C 
ATOM     17  O   UNL A   1      32.712  23.429  22.766  1.00  0.00    -0.268 OA
ATOM     18  C   UNL A   1      33.644  22.250  24.552  1.00  0.00     0.121 C 
ATOM     19  N   UNL A   1      31.968  21.655  26.073  1.00  0.00    -0.298 N 
ATOM     20  S   UNL A   1      29.929  22.953  26.876  1.00  0.00    -0.040 S 
ATOM     21  C   UNL A   1      33.194  21.320  25.575  1.00  0.00     0.264 C 
ATOM     22  H   UNL A   1      31.536  20.981  26.647  1.00  0.00     0.172 HD
ATOM     23  O   UNL A   1      33.849  20.370  25.986  1.00  0.00    -0.269 OA
BRANCH  14  24
ATOM     24  C   UNL A   1      31.468  25.193  24.795  1.00  0.00     0.090 C 
ATOM     25  C   UNL A   1      30.333  25.650  23.873  1.00  0.00     0.031 C 
BRANCH  24  26
ATOM     26  C   UNL A   1      32.730  26.077  24.535  1.00  0.00     0.022 C 
ATOM     27  C   UNL A   1      33.638  26.332  25.734  1.00  0.00     0.006 C 
ENDBRANCH  24  26
ENDBRANCH  14  24
ENDBRANCH  11  13
ENDBRANCH   6  11
ENDBRANCH   3   5
ENDBRANCH   2   3
ENDBRANCH   1   2
BRANCH   1  28
ATOM     28  C   UNL A   1      43.880  21.926  25.020  1.00  0.00     0.275 C 
BRANCH  28  29
ATOM     29  O   UNL A   1      43.321  23.202  24.661  1.00  0.00    -0.458 OA
BRANCH  29  30
ATOM     30  C   UNL A   1      44.043  24.284  25.025  1.00  0.00     0.338 C 
ATOM     31  O   UNL A   1      45.145  24.620  24.629  1.00  0.00    -0.246 OA
BRANCH  30  32
ATOM     32  C   UNL A   1      43.251  25.101  25.955  1.00  0.00     0.060 A 
ATOM     33  C   UNL A   1      43.379  26.484  25.875  1.00  0.00     0.016 A 
ATOM     34  C   UNL A   1      42.520  24.523  26.989  1.00  0.00     0.016 A 
ATOM     35  C   UNL A   1      42.840  27.304  26.861  1.00  0.00     0.010 A 
ATOM     36  C   UNL A   1      41.923  25.350  27.950  1.00  0.00     0.010 A 
ATOM     37  C   UNL A   1      42.115  26.746  27.921  1.00  0.00    -0.014 A 
BRANCH  37  38
ATOM     38  C   UNL A   1      41.667  27.610  29.049  1.00  0.00     0.031 A 
ATOM     39  C   UNL A   1      42.457  27.628  30.333  1.00  0.00     0.074 A 
ATOM     40  C   UNL A   1      40.600  28.422  28.922  1.00  0.00     0.049 A 
ATOM     41  N   UNL A   1      42.171  28.196  31.478  1.00  0.00    -0.248 NA
ATOM     42  C   UNL A   1      43.737  26.901  30.328  1.00  0.00     0.031 C 
ATOM     43  C   UNL A   1      39.779  28.565  27.720  1.00  0.00     0.029 A 
ATOM     44  N   UNL A   1      40.029  29.294  29.819  1.00  0.00    -0.354 N 
ATOM     45  C   UNL A   1      43.202  27.845  32.343  1.00  0.00     0.074 A 
ATOM     46  C   UNL A   1      44.117  27.014  31.592  1.00  0.00     0.031 C 
ATOM     47  C   UNL A   1      38.835  29.495  27.940  1.00  0.00     0.029 A 
ATOM     48  C   UNL A   1      38.936  29.960  29.320  1.00  0.00     0.049 A 
ATOM     49  H   UNL A   1      40.372  29.429  30.731  1.00  0.00     0.167 HD
ATOM     50  C   UNL A   1      43.372  28.187  33.642  1.00  0.00     0.037 A 
ATOM     51  C   UNL A   1      38.091  30.825  29.914  1.00  0.00     0.037 A 
ATOM     52  C   UNL A   1      42.496  29.064  34.375  1.00  0.00     0.049 A 
ATOM     53  C   UNL A   1      38.288  31.175  31.363  1.00  0.00     0.074 A 
ATOM     54  C   UNL A   1      42.581  29.463  35.697  1.00  0.00     0.029 A 
ATOM     55  N   UNL A   1      41.387  29.698  33.837  1.00  0.00    -0.354 N 
ATOM     56  N   UNL A   1      39.224  30.779  32.190  1.00  0.00    -0.248 NA
ATOM     57  C   UNL A   1      37.301  32.083  31.964  1.00  0.00     0.031 C 
ATOM     58  C   UNL A   1      41.510  30.322  35.967  1.00  0.00     0.029 A 
ATOM     59  C   UNL A   1      40.780  30.487  34.801  1.00  0.00     0.049 A 
ATOM     60  H   UNL A   1      41.077  29.602  32.907  1.00  0.00     0.167 HD
ATOM     61  C   UNL A   1      38.951  31.402  33.401  1.00  0.00     0.074 A 
ATOM     62  C   UNL A   1      37.771  32.216  33.197  1.00  0.00     0.031 C 
ATOM     63  C   UNL A   1      39.615  31.304  34.578  1.00  0.00     0.037 A 
BRANCH  50  64
ATOM     64  C   UNL A   1      44.537  27.578  34.366  1.00  0.00     0.057 A 
ATOM     65  C   UNL A   1      44.448  26.343  35.020  1.00  0.00     0.134 A 
ATOM     66  C   UNL A   1      45.774  28.237  34.396  1.00  0.00     0.134 A 
ATOM     67  F   UNL A   1      43.288  25.670  35.045  1.00  0.00    -0.206 F 
ATOM     68  C   UNL A   1      45.538  25.798  35.701  1.00  0.00     0.040 A 
ATOM     69  C   UNL A   1      46.878  27.690  35.051  1.00  0.00     0.040 A 
ATOM     70  F   UNL A   1      45.929  29.421  33.785  1.00  0.00    -0.206 F 
ATOM     71  C   UNL A   1      46.760  26.470  35.713  1.00  0.00     0.006 A 
ENDBRANCH  50  64
BRANCH  51  72
ATOM     72  C   UNL A   1      36.962  31.407  29.146  1.00  0.00     0.057 A 
ATOM     73  C   UNL A   1      36.995  32.734  28.703  1.00  0.00     0.134 A 
ATOM     74  C   UNL A   1      35.818  30.655  28.849  1.00  0.00     0.134 A 
ATOM     75  F   UNL A   1      38.051  33.512  28.980  1.00  0.00    -0.206 F 
ATOM     76  C   UNL A   1      35.928  33.297  28.001  1.00  0.00     0.040 A 
ATOM     77  C   UNL A   1      34.755  31.198  28.124  1.00  0.00     0.040 A 
ATOM     78  F   UNL A   1      35.723  29.378  29.247  1.00  0.00    -0.206 F 
ATOM     79  C   UNL A   1      34.806  32.524  27.704  1.00  0.00     0.006 A 
ENDBRANCH  51  72
BRANCH  63  80
ATOM     80  C   UNL A   1      39.108  32.134  35.719  1.00  0.00     0.057 A 
ATOM     81  C   UNL A   1      39.502  33.467  35.897  1.00  0.00     0.134 A 
ATOM     82  C   UNL A   1      38.200  31.598  36.640  1.00  0.00     0.134 A 
ATOM     83  F   UNL A   1      40.380  34.034  35.058  1.00  0.00    -0.206 F 
ATOM     84  C   UNL A   1      39.027  34.229  36.966  1.00  0.00     0.040 A 
ATOM     85  C   UNL A   1      37.701  32.357  37.699  1.00  0.00     0.040 A 
ATOM     86  F   UNL A   1      37.778  30.329  36.520  1.00  0.00    -0.206 F 
ATOM     87  C   UNL A   1      38.121  33.675  37.868  1.00  0.00     0.006 A 
ENDBRANCH  63  80
ENDBRANCH  37  38
ENDBRANCH  30  32
ENDBRANCH  29  30
ENDBRANCH  28  29
ENDBRANCH   1  28
TORSDOF 15
ENDMDL
MODEL 2
REMARK VINA RESULT:     -11.9      4.049      8.936
REMARK SMILES CC[C@@H](C)N1C(=O)/C(=C/Nc2cccc(C(=O)OCCOC(=O)c3ccc(-c4c5nc(c(-c6c(F)cccc6F)c6ccc([nH]6)c(-c6c(F)cccc6F)c6nc(c(-c7c(F)cccc7F)c7ccc4[nH]7)C=C6)C=C5)cc3)c2)C(=O)NC1=S
REMARK SMILES IDX 19 1 18 2 16 3 17 4 15 5 11 6 12 7 78 8 13 9 14 10 10 11
REMARK SMILES IDX 9 13 5 14 6 15 82 16 7 17 8 18 81 19 83 20 79 21 80 23 3 24
REMARK SMILES IDX 4 25 2 26 1 27 20 28 21 29 22 30 23 31 24 32 25 33 77 34
REMARK SMILES IDX 26 35 76 36 27 37 28 38 29 39 70 40 30 41 75 42 69 43 71 44
REMARK SMILES IDX 31 45 74 46 68 47 67 48 32 50 58 51 41 52 57 53 42 54 45 55
REMARK SMILES IDX 56 56 72 57 43 58 44 59 55 61 73 62 46 63 33 64 34 65 39 66
REMARK SMILES IDX 35 67 36 68 38 69 40 70 37 71 59 72 60 73 65 74 61 75 62 76
REMARK SMILES IDX 64 77 66 78 63 79 47 80 48 81 53 82 49 83 50 84 52 85 54 86
REMARK SMILES IDX 51 87
REMARK H PARENT 10 12 81 22 71 49 45 60
REMARK Flexibility Score: inf
ROOT
ATOM      1  C   UNL A   1      34.058  35.574  28.468  1.00  0.00     0.275 C 
ENDROOT
BRANCH   1   2
ATOM      2  O   UNL A   1      34.048  34.133  28.493  1.00  0.00    -0.458 OA
BRANCH   2   3
ATOM      3  C   UNL A   1      35.264  33.520  28.508  1.00  0.00     0.338 C 
ATOM      4  O   UNL A   1      36.315  34.008  28.877  1.00  0.00    -0.246 OA
BRANCH   3   5
ATOM      5  C   UNL A   1      35.125  32.094  28.116  1.00  0.00     0.062 A 
ATOM      6  C   UNL A   1      33.779  30.108  27.706  1.00  0.00     0.039 A 
ATOM      7  C   UNL A   1      34.953  29.371  27.517  1.00  0.00     0.026 A 
ATOM      8  C   UNL A   1      33.880  31.470  28.030  1.00  0.00     0.041 A 
ATOM      9  C   UNL A   1      36.202  29.992  27.568  1.00  0.00     0.003 A 
ATOM     10  C   UNL A   1      36.282  31.359  27.825  1.00  0.00     0.016 A 
BRANCH   6  11
ATOM     11  N   UNL A   1      32.545  29.498  27.446  1.00  0.00    -0.361 N 
ATOM     12  H   UNL A   1      31.744  30.070  27.498  1.00  0.00     0.166 HD
BRANCH  11  13
ATOM     13  C   UNL A   1      32.349  28.178  27.126  1.00  0.00     0.102 C 
ATOM     14  N   UNL A   1      32.199  25.692  24.632  1.00  0.00    -0.282 N 
ATOM     15  C   UNL A   1      31.815  26.183  25.884  1.00  0.00     0.267 C 
ATOM     16  C   UNL A   1      31.813  26.425  23.501  1.00  0.00     0.183 C 
ATOM     17  O   UNL A   1      31.436  25.510  26.839  1.00  0.00    -0.268 OA
ATOM     18  C   UNL A   1      31.848  27.649  26.001  1.00  0.00     0.121 C 
ATOM     19  N   UNL A   1      31.366  27.713  23.712  1.00  0.00    -0.298 N 
ATOM     20  S   UNL A   1      31.782  25.986  21.887  1.00  0.00    -0.040 S 
ATOM     21  C   UNL A   1      31.441  28.452  24.858  1.00  0.00     0.264 C 
ATOM     22  H   UNL A   1      30.941  28.155  22.941  1.00  0.00     0.172 HD
ATOM     23  O   UNL A   1      31.233  29.658  24.895  1.00  0.00    -0.269 OA
BRANCH  14  24
ATOM     24  C   UNL A   1      33.157  24.501  24.648  1.00  0.00     0.090 C 
ATOM     25  C   UNL A   1      32.533  23.108  24.783  1.00  0.00     0.031 C 
BRANCH  24  26
ATOM     26  C   UNL A   1      34.355  24.627  25.642  1.00  0.00     0.022 C 
ATOM     27  C   UNL A   1      34.666  23.396  26.489  1.00  0.00     0.006 C 
ENDBRANCH  24  26
ENDBRANCH  14  24
ENDBRANCH  11  13
ENDBRANCH   6  11
ENDBRANCH   3   5
ENDBRANCH   2   3
ENDBRANCH   1   2
BRANCH   1  28
ATOM     28  C   UNL A   1      32.940  36.147  29.341  1.00  0.00     0.275 C 
BRANCH  28  29
ATOM     29  O   UNL A   1      32.605  35.207  30.378  1.00  0.00    -0.458 OA
BRANCH  29  30
ATOM     30  C   UNL A   1      32.677  35.676  31.643  1.00  0.00     0.338 C 
ATOM     31  O   UNL A   1      31.929  36.462  32.197  1.00  0.00    -0.246 OA
BRANCH  30  32
ATOM     32  C   UNL A   1      33.791  35.016  32.338  1.00  0.00     0.060 A 
ATOM     33  C   UNL A   1      35.052  35.595  32.240  1.00  0.00     0.016 A 
ATOM     34  C   UNL A   1      33.636  33.771  32.941  1.00  0.00     0.016 A 
ATOM     35  C   UNL A   1      36.182  34.911  32.677  1.00  0.00     0.010 A 
ATOM     36  C   UNL A   1      34.765  33.107  33.439  1.00  0.00     0.010 A 
ATOM     37  C   UNL A   1      36.055  33.650  33.272  1.00  0.00    -0.014 A 
BRANCH  37  38
ATOM     38  C   UNL A   1      37.274  32.861  33.604  1.00  0.00     0.031 A 
ATOM     39  C   UNL A   1      37.964  33.079  34.927  1.00  0.00     0.074 A 
ATOM     40  C   UNL A   1      37.738  31.912  32.769  1.00  0.00     0.049 A 
ATOM     41  N   UNL A   1      39.106  32.604  35.357  1.00  0.00    -0.248 NA
ATOM     42  C   UNL A   1      37.280  33.957  35.890  1.00  0.00     0.031 C 
ATOM     43  C   UNL A   1      37.137  31.540  31.488  1.00  0.00     0.029 A 
ATOM     44  N   UNL A   1      38.822  31.075  32.882  1.00  0.00    -0.354 N 
ATOM     45  C   UNL A   1      39.305  33.171  36.611  1.00  0.00     0.074 A 
ATOM     46  C   UNL A   1      38.168  34.027  36.871  1.00  0.00     0.031 C 
ATOM     47  C   UNL A   1      37.838  30.528  30.951  1.00  0.00     0.029 A 
ATOM     48  C   UNL A   1      38.978  30.228  31.811  1.00  0.00     0.049 A 
ATOM     49  H   UNL A   1      39.429  31.082  33.656  1.00  0.00     0.167 HD
ATOM     50  C   UNL A   1      40.337  32.994  37.469  1.00  0.00     0.037 A 
ATOM     51  C   UNL A   1      39.945  29.331  31.537  1.00  0.00     0.037 A 
ATOM     52  C   UNL A   1      41.440  32.095  37.241  1.00  0.00     0.049 A 
ATOM     53  C   UNL A   1      41.092  29.165  32.495  1.00  0.00     0.074 A 
ATOM     54  C   UNL A   1      42.538  31.852  38.048  1.00  0.00     0.029 A 
ATOM     55  N   UNL A   1      41.569  31.273  36.133  1.00  0.00    -0.354 N 
ATOM     56  N   UNL A   1      41.306  29.761  33.643  1.00  0.00    -0.248 NA
ATOM     57  C   UNL A   1      42.140  28.208  32.111  1.00  0.00     0.031 C 
ATOM     58  C   UNL A   1      43.344  30.899  37.417  1.00  0.00     0.029 A 
ATOM     59  C   UNL A   1      42.728  30.521  36.235  1.00  0.00     0.049 A 
ATOM     60  H   UNL A   1      40.932  31.231  35.383  1.00  0.00     0.167 HD
ATOM     61  C   UNL A   1      42.499  29.240  34.126  1.00  0.00     0.074 A 
ATOM     62  C   UNL A   1      42.955  28.267  33.156  1.00  0.00     0.031 C 
ATOM     63  C   UNL A   1      43.160  29.545  35.269  1.00  0.00     0.037 A 
BRANCH  50  64
ATOM     64  C   UNL A   1      40.339  33.818  38.723  1.00  0.00     0.057 A 
ATOM     65  C   UNL A   1      39.682  33.405  39.889  1.00  0.00     0.134 A 
ATOM     66  C   UNL A   1      41.023  35.040  38.765  1.00  0.00     0.134 A 
ATOM     67  F   UNL A   1      38.993  32.255  39.910  1.00  0.00    -0.206 F 
ATOM     68  C   UNL A   1      39.682  34.192  41.043  1.00  0.00     0.040 A 
ATOM     69  C   UNL A   1      41.052  35.822  39.920  1.00  0.00     0.040 A 
ATOM     70  F   UNL A   1      41.678  35.491  37.685  1.00  0.00    -0.206 F 
ATOM     71  C   UNL A   1      40.374  35.402  41.062  1.00  0.00     0.006 A 
ENDBRANCH  50  64
BRANCH  51  72
ATOM     72  C   UNL A   1      39.887  28.534  30.287  1.00  0.00     0.057 A 
ATOM     73  C   UNL A   1      40.491  28.987  29.109  1.00  0.00     0.134 A 
ATOM     74  C   UNL A   1      39.214  27.306  30.236  1.00  0.00     0.134 A 
ATOM     75  F   UNL A   1      41.126  30.168  29.088  1.00  0.00    -0.206 F 
ATOM     76  C   UNL A   1      40.420  28.256  27.923  1.00  0.00     0.040 A 
ATOM     77  C   UNL A   1      39.158  26.552  29.063  1.00  0.00     0.040 A 
ATOM     78  F   UNL A   1      38.612  26.817  31.330  1.00  0.00    -0.206 F 
ATOM     79  C   UNL A   1      39.758  27.029  27.900  1.00  0.00     0.006 A 
ENDBRANCH  51  72
BRANCH  63  80
ATOM     80  C   UNL A   1      44.420  28.783  35.553  1.00  0.00     0.057 A 
ATOM     81  C   UNL A   1      45.665  29.204  35.069  1.00  0.00     0.134 A 
ATOM     82  C   UNL A   1      44.388  27.623  36.337  1.00  0.00     0.134 A 
ATOM     83  F   UNL A   1      45.761  30.299  34.301  1.00  0.00    -0.206 F 
ATOM     84  C   UNL A   1      46.831  28.485  35.336  1.00  0.00     0.040 A 
ATOM     85  C   UNL A   1      45.550  26.907  36.629  1.00  0.00     0.040 A 
ATOM     86  F   UNL A   1      43.227  27.170  36.836  1.00  0.00    -0.206 F 
ATOM     87  C   UNL A   1      46.776  27.334  36.121  1.00  0.00     0.006 A 
ENDBRANCH  63  80
ENDBRANCH  37  38
ENDBRANCH  30  32
ENDBRANCH  29  30
ENDBRANCH  28  29
ENDBRANCH   1  28
TORSDOF 15
ENDMDL
MODEL 3
REMARK VINA RESULT:     -11.9      4.848      9.811
REMARK SMILES CC[C@@H](C)N1C(=O)/C(=C/Nc2cccc(C(=O)OCCOC(=O)c3ccc(-c4c5nc(c(-c6c(F)cccc6F)c6ccc([nH]6)c(-c6c(F)cccc6F)c6nc(c(-c7c(F)cccc7F)c7ccc4[nH]7)C=C6)C=C5)cc3)c2)C(=O)NC1=S
REMARK SMILES IDX 19 1 18 2 16 3 17 4 15 5 11 6 12 7 78 8 13 9 14 10 10 11
REMARK SMILES IDX 9 13 5 14 6 15 82 16 7 17 8 18 81 19 83 20 79 21 80 23 3 24
REMARK SMILES IDX 4 25 2 26 1 27 20 28 21 29 22 30 23 31 24 32 25 33 77 34
REMARK SMILES IDX 26 35 76 36 27 37 28 38 29 39 70 40 30 41 75 42 69 43 71 44
REMARK SMILES IDX 31 45 74 46 68 47 67 48 32 50 58 51 41 52 57 53 42 54 45 55
REMARK SMILES IDX 56 56 72 57 43 58 44 59 55 61 73 62 46 63 33 64 34 65 39 66
REMARK SMILES IDX 35 67 36 68 38 69 40 70 37 71 59 72 60 73 65 74 61 75 62 76
REMARK SMILES IDX 64 77 66 78 63 79 47 80 48 81 53 82 49 83 50 84 52 85 54 86
REMARK SMILES IDX 51 87
REMARK H PARENT 10 12 81 22 71 49 45 60
REMARK Flexibility Score: inf
ROOT
ATOM      1  C   UNL A   1      34.476  34.134  30.418  1.00  0.00     0.275 C 
ENDROOT
BRANCH   1   2
ATOM      2  O   UNL A   1      33.989  33.031  29.627  1.00  0.00    -0.458 OA
BRANCH   2   3
ATOM      3  C   UNL A   1      34.433  32.966  28.341  1.00  0.00     0.338 C 
ATOM      4  O   UNL A   1      34.945  33.869  27.707  1.00  0.00    -0.246 OA
BRANCH   3   5
ATOM      5  C   UNL A   1      34.322  31.576  27.828  1.00  0.00     0.062 A 
ATOM      6  C   UNL A   1      33.018  29.712  26.964  1.00  0.00     0.039 A 
ATOM      7  C   UNL A   1      34.163  28.909  27.015  1.00  0.00     0.026 A 
ATOM      8  C   UNL A   1      33.106  31.045  27.398  1.00  0.00     0.041 A 
ATOM      9  C   UNL A   1      35.391  29.440  27.413  1.00  0.00     0.003 A 
ATOM     10  C   UNL A   1      35.475  30.782  27.777  1.00  0.00     0.016 A 
BRANCH   6  11
ATOM     11  N   UNL A   1      31.857  29.202  26.370  1.00  0.00    -0.361 N 
ATOM     12  H   UNL A   1      31.292  29.839  25.873  1.00  0.00     0.166 HD
BRANCH  11  13
ATOM     13  C   UNL A   1      31.433  27.898  26.415  1.00  0.00     0.102 C 
ATOM     14  N   UNL A   1      31.706  24.616  25.161  1.00  0.00    -0.282 N 
ATOM     15  C   UNL A   1      30.953  25.627  25.766  1.00  0.00     0.267 C 
ATOM     16  C   UNL A   1      32.149  24.831  23.849  1.00  0.00     0.183 C 
ATOM     17  O   UNL A   1      29.981  25.465  26.498  1.00  0.00    -0.268 OA
ATOM     18  C   UNL A   1      31.384  26.993  25.428  1.00  0.00     0.121 C 
ATOM     19  N   UNL A   1      32.085  26.124  23.371  1.00  0.00    -0.298 N 
ATOM     20  S   UNL A   1      32.746  23.753  22.718  1.00  0.00    -0.040 S 
ATOM     21  C   UNL A   1      31.837  27.268  24.073  1.00  0.00     0.264 C 
ATOM     22  H   UNL A   1      32.235  26.236  22.404  1.00  0.00     0.172 HD
ATOM     23  O   UNL A   1      32.025  28.390  23.619  1.00  0.00    -0.269 OA
BRANCH  14  24
ATOM     24  C   UNL A   1      32.116  23.457  26.070  1.00  0.00     0.090 C 
ATOM     25  C   UNL A   1      33.611  23.307  26.375  1.00  0.00     0.031 C 
BRANCH  24  26
ATOM     26  C   UNL A   1      31.531  22.064  25.674  1.00  0.00     0.022 C 
ATOM     27  C   UNL A   1      32.543  20.960  25.385  1.00  0.00     0.006 C 
ENDBRANCH  24  26
ENDBRANCH  14  24
ENDBRANCH  11  13
ENDBRANCH   6  11
ENDBRANCH   3   5
ENDBRANCH   2   3
ENDBRANCH   1   2
BRANCH   1  28
ATOM     28  C   UNL A   1      34.456  33.791  31.908  1.00  0.00     0.275 C 
BRANCH  28  29
ATOM     29  O   UNL A   1      34.819  32.411  32.094  1.00  0.00    -0.458 OA
BRANCH  29  30
ATOM     30  C   UNL A   1      35.955  32.191  32.791  1.00  0.00     0.338 C 
ATOM     31  O   UNL A   1      36.183  32.452  33.959  1.00  0.00    -0.246 OA
BRANCH  30  32
ATOM     32  C   UNL A   1      36.914  31.476  31.936  1.00  0.00     0.060 A 
ATOM     33  C   UNL A   1      37.662  30.455  32.512  1.00  0.00     0.016 A 
ATOM     34  C   UNL A   1      37.190  31.903  30.640  1.00  0.00     0.016 A 
ATOM     35  C   UNL A   1      38.738  29.893  31.831  1.00  0.00     0.010 A 
ATOM     36  C   UNL A   1      38.234  31.297  29.929  1.00  0.00     0.010 A 
ATOM     37  C   UNL A   1      39.047  30.317  30.533  1.00  0.00    -0.014 A 
BRANCH  37  38
ATOM     38  C   UNL A   1      40.283  29.821  29.866  1.00  0.00     0.031 A 
ATOM     39  C   UNL A   1      41.479  30.731  29.744  1.00  0.00     0.074 A 
ATOM     40  C   UNL A   1      40.373  28.553  29.421  1.00  0.00     0.049 A 
ATOM     41  N   UNL A   1      42.597  30.551  29.085  1.00  0.00    -0.248 NA
ATOM     42  C   UNL A   1      41.402  32.018  30.452  1.00  0.00     0.031 C 
ATOM     43  C   UNL A   1      39.325  27.538  29.531  1.00  0.00     0.029 A 
ATOM     44  N   UNL A   1      41.406  27.897  28.795  1.00  0.00    -0.354 N 
ATOM     45  C   UNL A   1      43.327  31.723  29.250  1.00  0.00     0.074 A 
ATOM     46  C   UNL A   1      42.524  32.607  30.068  1.00  0.00     0.031 C 
ATOM     47  C   UNL A   1      39.780  26.380  29.024  1.00  0.00     0.029 A 
ATOM     48  C   UNL A   1      41.121  26.588  28.488  1.00  0.00     0.049 A 
ATOM     49  H   UNL A   1      42.267  28.324  28.587  1.00  0.00     0.167 HD
ATOM     50  C   UNL A   1      44.553  32.034  28.768  1.00  0.00     0.037 A 
ATOM     51  C   UNL A   1      41.846  25.668  27.823  1.00  0.00     0.037 A 
ATOM     52  C   UNL A   1      45.380  31.134  28.007  1.00  0.00     0.049 A 
ATOM     53  C   UNL A   1      43.197  26.041  27.280  1.00  0.00     0.074 A 
ATOM     54  C   UNL A   1      46.635  31.360  27.468  1.00  0.00     0.029 A 
ATOM     55  N   UNL A   1      45.044  29.825  27.699  1.00  0.00    -0.354 N 
ATOM     56  N   UNL A   1      43.845  27.176  27.379  1.00  0.00    -0.248 NA
ATOM     57  C   UNL A   1      43.913  25.005  26.519  1.00  0.00     0.031 C 
ATOM     58  C   UNL A   1      47.048  30.194  26.813  1.00  0.00     0.029 A 
ATOM     59  C   UNL A   1      46.067  29.230  26.978  1.00  0.00     0.049 A 
ATOM     60  H   UNL A   1      44.201  29.383  27.954  1.00  0.00     0.167 HD
ATOM     61  C   UNL A   1      45.049  26.987  26.712  1.00  0.00     0.074 A 
ATOM     62  C   UNL A   1      45.050  25.623  26.227  1.00  0.00     0.031 C 
ATOM     63  C   UNL A   1      46.060  27.867  26.515  1.00  0.00     0.037 A 
BRANCH  50  64
ATOM     64  C   UNL A   1      45.060  33.423  29.022  1.00  0.00     0.057 A 
ATOM     65  C   UNL A   1      45.852  33.738  30.134  1.00  0.00     0.134 A 
ATOM     66  C   UNL A   1      44.761  34.460  28.128  1.00  0.00     0.134 A 
ATOM     67  F   UNL A   1      46.160  32.795  31.037  1.00  0.00    -0.206 F 
ATOM     68  C   UNL A   1      46.303  35.039  30.362  1.00  0.00     0.040 A 
ATOM     69  C   UNL A   1      45.228  35.759  28.332  1.00  0.00     0.040 A 
ATOM     70  F   UNL A   1      44.012  34.225  27.040  1.00  0.00    -0.206 F 
ATOM     71  C   UNL A   1      45.996  36.054  29.456  1.00  0.00     0.006 A 
ENDBRANCH  50  64
BRANCH  51  72
ATOM     72  C   UNL A   1      41.300  24.304  27.611  1.00  0.00     0.057 A 
ATOM     73  C   UNL A   1      40.294  24.064  26.668  1.00  0.00     0.134 A 
ATOM     74  C   UNL A   1      41.760  23.210  28.356  1.00  0.00     0.134 A 
ATOM     75  F   UNL A   1      39.793  25.076  25.944  1.00  0.00    -0.206 F 
ATOM     76  C   UNL A   1      39.758  22.790  26.479  1.00  0.00     0.040 A 
ATOM     77  C   UNL A   1      41.251  21.925  28.157  1.00  0.00     0.040 A 
ATOM     78  F   UNL A   1      42.721  23.373  29.277  1.00  0.00    -0.206 F 
ATOM     79  C   UNL A   1      40.242  21.714  27.221  1.00  0.00     0.006 A 
ENDBRANCH  51  72
BRANCH  63  80
ATOM     80  C   UNL A   1      47.270  27.365  25.785  1.00  0.00     0.057 A 
ATOM     81  C   UNL A   1      48.328  26.735  26.451  1.00  0.00     0.134 A 
ATOM     82  C   UNL A   1      47.365  27.496  24.394  1.00  0.00     0.134 A 
ATOM     83  F   UNL A   1      48.303  26.591  27.784  1.00  0.00    -0.206 F 
ATOM     84  C   UNL A   1      49.452  26.275  25.762  1.00  0.00     0.040 A 
ATOM     85  C   UNL A   1      48.473  27.021  23.691  1.00  0.00     0.040 A 
ATOM     86  F   UNL A   1      46.381  28.084  23.696  1.00  0.00    -0.206 F 
ATOM     87  C   UNL A   1      49.524  26.415  24.377  1.00  0.00     0.006 A 
ENDBRANCH  63  80
ENDBRANCH  37  38
ENDBRANCH  30  32
ENDBRANCH  29  30
ENDBRANCH  28  29
ENDBRANCH   1  28
TORSDOF 15
ENDMDL
