MODEL 1
REMARK VINA RESULT:     -11.3      0.000      0.000
REMARK SMILES CCN(C(=O)Cc1c(C(=O)OCCOC(=O)c2ccc(-c3c4nc(c(-c5c(F)cccc5F)c5ccc([nH]5)c(-c5c(F)cccc5F)c5nc(c(-c6c(F)cccc6F)c6ccc3[nH]6)C=C5)C=C4)cc2)[nH]c2ccccc12)c1cccc(C)c1
REMARK SMILES IDX 12 1 11 2 9 3 10 4 8 5 7 6 77 7 71 8 72 9 76 10 73 12 75 13
REMARK SMILES IDX 74 14 6 15 4 16 5 17 3 18 2 19 1 20 78 21 79 22 84 23 80 24
REMARK SMILES IDX 82 25 81 26 83 27 13 28 14 29 15 30 16 31 17 32 18 33 70 34
REMARK SMILES IDX 19 35 69 36 20 37 21 38 22 39 63 40 23 41 68 42 62 43 64 44
REMARK SMILES IDX 24 45 67 46 61 47 60 48 25 50 51 51 34 52 50 53 35 54 38 55
REMARK SMILES IDX 49 56 65 57 36 58 37 59 48 61 66 62 39 63 26 64 27 65 32 66
REMARK SMILES IDX 28 67 29 68 31 69 33 70 30 71 52 72 53 73 58 74 54 75 55 76
REMARK SMILES IDX 57 77 59 78 56 79 40 80 41 81 46 82 42 83 43 84 45 85 47 86
REMARK SMILES IDX 44 87
REMARK H PARENT 71 11 64 49 38 60
REMARK Flexibility Score: inf
ROOT
ATOM      1  C   UNL A   1      33.560  29.669  26.226  1.00  0.00     0.275 C 
ENDROOT
BRANCH   1   2
ATOM      2  O   UNL A   1      34.137  28.337  26.200  1.00  0.00    -0.457 OA
BRANCH   2   3
ATOM      3  C   UNL A   1      33.975  27.628  25.048  1.00  0.00     0.355 C 
ATOM      4  O   UNL A   1      34.026  28.110  23.917  1.00  0.00    -0.244 OA
BRANCH   3   5
ATOM      5  C   UNL A   1      33.881  26.204  25.311  1.00  0.00     0.129 A 
ATOM      6  C   UNL A   1      32.872  25.519  25.996  1.00  0.00     0.002 A 
ATOM      7  C   UNL A   1      33.389  24.241  26.340  1.00  0.00     0.004 A 
ATOM      8  N   UNL A   1      34.817  25.256  24.959  1.00  0.00    -0.349 N 
ATOM      9  C   UNL A   1      34.572  24.073  25.627  1.00  0.00     0.046 A 
ATOM     10  C   UNL A   1      32.955  23.221  27.210  1.00  0.00     0.010 A 
ATOM     11  H   UNL A   1      35.555  25.401  24.325  1.00  0.00     0.167 HD
ATOM     12  C   UNL A   1      35.305  22.881  25.676  1.00  0.00     0.027 A 
ATOM     13  C   UNL A   1      33.712  22.054  27.321  1.00  0.00     0.001 A 
ATOM     14  C   UNL A   1      34.854  21.878  26.545  1.00  0.00     0.002 A 
BRANCH   6  15
ATOM     15  C   UNL A   1      31.562  26.074  26.435  1.00  0.00     0.139 C 
BRANCH  15  16
ATOM     16  C   UNL A   1      30.285  25.534  25.767  1.00  0.00     0.231 C 
ATOM     17  O   UNL A   1      29.340  25.211  26.500  1.00  0.00    -0.274 OA
BRANCH  16  18
ATOM     18  N   UNL A   1      30.184  25.532  24.364  1.00  0.00    -0.312 N 
BRANCH  18  19
ATOM     19  C   UNL A   1      29.102  26.190  23.632  1.00  0.00     0.122 C 
ATOM     20  C   UNL A   1      29.265  27.687  23.440  1.00  0.00     0.028 C 
ENDBRANCH  18  19
BRANCH  18  21
ATOM     21  C   UNL A   1      30.988  24.674  23.545  1.00  0.00     0.044 A 
ATOM     22  C   UNL A   1      31.828  25.200  22.567  1.00  0.00     0.026 A 
ATOM     23  C   UNL A   1      31.127  23.320  23.867  1.00  0.00     0.029 A 
ATOM     24  C   UNL A   1      32.797  24.409  21.944  1.00  0.00     0.002 A 
ATOM     25  C   UNL A   1      32.132  22.528  23.303  1.00  0.00    -0.049 A 
ATOM     26  C   UNL A   1      32.957  23.077  22.321  1.00  0.00     0.003 A 
ATOM     27  C   UNL A   1      32.300  21.113  23.766  1.00  0.00     0.044 C 
ENDBRANCH  18  21
ENDBRANCH  16  18
ENDBRANCH  15  16
ENDBRANCH   6  15
ENDBRANCH   3   5
ENDBRANCH   2   3
ENDBRANCH   1   2
BRANCH   1  28
ATOM     28  C   UNL A   1      33.756  30.368  27.585  1.00  0.00     0.275 C 
BRANCH  28  29
ATOM     29  O   UNL A   1      35.047  30.998  27.725  1.00  0.00    -0.458 OA
BRANCH  29  30
ATOM     30  C   UNL A   1      35.558  31.084  28.974  1.00  0.00     0.338 C 
ATOM     31  O   UNL A   1      35.132  31.767  29.889  1.00  0.00    -0.246 OA
BRANCH  30  32
ATOM     32  C   UNL A   1      36.849  30.362  28.991  1.00  0.00     0.060 A 
ATOM     33  C   UNL A   1      37.536  30.289  27.786  1.00  0.00     0.016 A 
ATOM     34  C   UNL A   1      37.389  29.757  30.129  1.00  0.00     0.016 A 
ATOM     35  C   UNL A   1      38.710  29.539  27.696  1.00  0.00     0.010 A 
ATOM     36  C   UNL A   1      38.662  29.139  30.064  1.00  0.00     0.010 A 
ATOM     37  C   UNL A   1      39.354  29.045  28.845  1.00  0.00    -0.014 A 
BRANCH  37  38
ATOM     38  C   UNL A   1      40.808  28.675  28.744  1.00  0.00     0.031 A 
ATOM     39  C   UNL A   1      41.953  29.627  28.991  1.00  0.00     0.074 A 
ATOM     40  C   UNL A   1      41.108  27.396  28.428  1.00  0.00     0.049 A 
ATOM     41  N   UNL A   1      43.228  29.483  28.714  1.00  0.00    -0.248 NA
ATOM     42  C   UNL A   1      41.636  30.904  29.628  1.00  0.00     0.031 C 
ATOM     43  C   UNL A   1      40.125  26.335  28.184  1.00  0.00     0.029 A 
ATOM     44  N   UNL A   1      42.313  26.753  28.291  1.00  0.00    -0.354 N 
ATOM     45  C   UNL A   1      43.846  30.678  29.081  1.00  0.00     0.074 A 
ATOM     46  C   UNL A   1      42.804  31.536  29.603  1.00  0.00     0.031 C 
ATOM     47  C   UNL A   1      40.754  25.168  28.034  1.00  0.00     0.029 A 
ATOM     48  C   UNL A   1      42.185  25.417  27.992  1.00  0.00     0.049 A 
ATOM     49  H   UNL A   1      43.182  27.203  28.396  1.00  0.00     0.167 HD
ATOM     50  C   UNL A   1      45.158  31.017  29.004  1.00  0.00     0.037 A 
ATOM     51  C   UNL A   1      43.095  24.492  27.638  1.00  0.00     0.037 A 
ATOM     52  C   UNL A   1      46.210  30.114  28.596  1.00  0.00     0.049 A 
ATOM     53  C   UNL A   1      44.528  24.896  27.515  1.00  0.00     0.074 A 
ATOM     54  C   UNL A   1      47.571  30.355  28.510  1.00  0.00     0.029 A 
ATOM     55  N   UNL A   1      46.020  28.786  28.243  1.00  0.00    -0.354 N 
ATOM     56  N   UNL A   1      45.076  26.061  27.751  1.00  0.00    -0.248 NA
ATOM     57  C   UNL A   1      45.462  23.868  27.046  1.00  0.00     0.031 C 
ATOM     58  C   UNL A   1      48.200  29.187  28.067  1.00  0.00     0.029 A 
ATOM     59  C   UNL A   1      47.237  28.202  27.924  1.00  0.00     0.049 A 
ATOM     60  H   UNL A   1      45.149  28.326  28.221  1.00  0.00     0.167 HD
ATOM     61  C   UNL A   1      46.423  25.907  27.464  1.00  0.00     0.074 A 
ATOM     62  C   UNL A   1      46.610  24.528  27.059  1.00  0.00     0.031 C 
ATOM     63  C   UNL A   1      47.412  26.830  27.523  1.00  0.00     0.037 A 
BRANCH  50  64
ATOM     64  C   UNL A   1      45.556  32.431  29.341  1.00  0.00     0.057 A 
ATOM     65  C   UNL A   1      45.548  33.466  28.397  1.00  0.00     0.134 A 
ATOM     66  C   UNL A   1      45.867  32.776  30.665  1.00  0.00     0.134 A 
ATOM     67  F   UNL A   1      45.255  33.213  27.113  1.00  0.00    -0.206 F 
ATOM     68  C   UNL A   1      45.856  34.783  28.753  1.00  0.00     0.040 A 
ATOM     69  C   UNL A   1      46.148  34.093  31.038  1.00  0.00     0.040 A 
ATOM     70  F   UNL A   1      45.873  31.842  31.628  1.00  0.00    -0.206 F 
ATOM     71  C   UNL A   1      46.148  35.101  30.079  1.00  0.00     0.006 A 
ENDBRANCH  50  64
BRANCH  51  72
ATOM     72  C   UNL A   1      42.638  23.124  27.291  1.00  0.00     0.057 A 
ATOM     73  C   UNL A   1      42.424  22.156  28.277  1.00  0.00     0.134 A 
ATOM     74  C   UNL A   1      42.346  22.771  25.965  1.00  0.00     0.134 A 
ATOM     75  F   UNL A   1      42.704  22.426  29.561  1.00  0.00    -0.206 F 
ATOM     76  C   UNL A   1      41.932  20.889  27.958  1.00  0.00     0.040 A 
ATOM     77  C   UNL A   1      41.818  21.525  25.638  1.00  0.00     0.040 A 
ATOM     78  F   UNL A   1      42.522  23.659  24.975  1.00  0.00    -0.206 F 
ATOM     79  C   UNL A   1      41.615  20.577  26.637  1.00  0.00     0.006 A 
ENDBRANCH  51  72
BRANCH  63  80
ATOM     80  C   UNL A   1      48.791  26.359  27.175  1.00  0.00     0.057 A 
ATOM     81  C   UNL A   1      49.297  26.460  25.873  1.00  0.00     0.134 A 
ATOM     82  C   UNL A   1      49.621  25.801  28.153  1.00  0.00     0.134 A 
ATOM     83  F   UNL A   1      48.542  26.966  24.886  1.00  0.00    -0.206 F 
ATOM     84  C   UNL A   1      50.573  25.996  25.551  1.00  0.00     0.040 A 
ATOM     85  C   UNL A   1      50.908  25.357  27.850  1.00  0.00     0.040 A 
ATOM     86  F   UNL A   1      49.196  25.680  29.421  1.00  0.00    -0.206 F 
ATOM     87  C   UNL A   1      51.384  25.448  26.543  1.00  0.00     0.006 A 
ENDBRANCH  63  80
ENDBRANCH  37  38
ENDBRANCH  30  32
ENDBRANCH  29  30
ENDBRANCH  28  29
ENDBRANCH   1  28
TORSDOF 16
ENDMDL
MODEL 2
REMARK VINA RESULT:     -11.2      1.175      3.077
REMARK SMILES CCN(C(=O)Cc1c(C(=O)OCCOC(=O)c2ccc(-c3c4nc(c(-c5c(F)cccc5F)c5ccc([nH]5)c(-c5c(F)cccc5F)c5nc(c(-c6c(F)cccc6F)c6ccc3[nH]6)C=C5)C=C4)cc2)[nH]c2ccccc12)c1cccc(C)c1
REMARK SMILES IDX 12 1 11 2 9 3 10 4 8 5 7 6 77 7 71 8 72 9 76 10 73 12 75 13
REMARK SMILES IDX 74 14 6 15 4 16 5 17 3 18 2 19 1 20 78 21 79 22 84 23 80 24
REMARK SMILES IDX 82 25 81 26 83 27 13 28 14 29 15 30 16 31 17 32 18 33 70 34
REMARK SMILES IDX 19 35 69 36 20 37 21 38 22 39 63 40 23 41 68 42 62 43 64 44
REMARK SMILES IDX 24 45 67 46 61 47 60 48 25 50 51 51 34 52 50 53 35 54 38 55
REMARK SMILES IDX 49 56 65 57 36 58 37 59 48 61 66 62 39 63 26 64 27 65 32 66
REMARK SMILES IDX 28 67 29 68 31 69 33 70 30 71 52 72 53 73 58 74 54 75 55 76
REMARK SMILES IDX 57 77 59 78 56 79 40 80 41 81 46 82 42 83 43 84 45 85 47 86
REMARK SMILES IDX 44 87
REMARK H PARENT 71 11 64 49 38 60
REMARK Flexibility Score: inf
ROOT
ATOM      1  C   UNL A   1      33.989  28.103  26.360  1.00  0.00     0.275 C 
ENDROOT
BRANCH   1   2
ATOM      2  O   UNL A   1      33.981  28.709  25.041  1.00  0.00    -0.457 OA
BRANCH   2   3
ATOM      3  C   UNL A   1      33.326  28.024  24.062  1.00  0.00     0.355 C 
ATOM      4  O   UNL A   1      33.825  27.126  23.384  1.00  0.00    -0.244 OA
BRANCH   3   5
ATOM      5  C   UNL A   1      31.921  28.381  24.014  1.00  0.00     0.129 A 
ATOM      6  C   UNL A   1      30.814  27.525  24.008  1.00  0.00     0.002 A 
ATOM      7  C   UNL A   1      29.697  28.284  23.565  1.00  0.00     0.004 A 
ATOM      8  N   UNL A   1      31.417  29.660  23.919  1.00  0.00    -0.349 N 
ATOM      9  C   UNL A   1      30.079  29.622  23.582  1.00  0.00     0.046 A 
ATOM     10  C   UNL A   1      28.400  27.940  23.137  1.00  0.00     0.010 A 
ATOM     11  H   UNL A   1      31.937  30.482  24.069  1.00  0.00     0.167 HD
ATOM     12  C   UNL A   1      29.184  30.652  23.271  1.00  0.00     0.027 A 
ATOM     13  C   UNL A   1      27.517  28.953  22.759  1.00  0.00     0.001 A 
ATOM     14  C   UNL A   1      27.898  30.289  22.851  1.00  0.00     0.002 A 
BRANCH   6  15
ATOM     15  C   UNL A   1      30.825  26.057  24.256  1.00  0.00     0.139 C 
BRANCH  15  16
ATOM     16  C   UNL A   1      31.211  25.560  25.661  1.00  0.00     0.231 C 
ATOM     17  O   UNL A   1      30.937  26.285  26.627  1.00  0.00    -0.274 OA
BRANCH  16  18
ATOM     18  N   UNL A   1      31.749  24.269  25.817  1.00  0.00    -0.312 N 
BRANCH  18  19
ATOM     19  C   UNL A   1      31.348  23.352  26.883  1.00  0.00     0.122 C 
ATOM     20  C   UNL A   1      29.888  22.937  26.866  1.00  0.00     0.028 C 
ENDBRANCH  18  19
BRANCH  18  21
ATOM     21  C   UNL A   1      32.915  23.841  25.102  1.00  0.00     0.044 A 
ATOM     22  C   UNL A   1      32.857  23.574  23.736  1.00  0.00     0.026 A 
ATOM     23  C   UNL A   1      34.175  23.911  25.702  1.00  0.00     0.029 A 
ATOM     24  C   UNL A   1      34.022  23.407  22.982  1.00  0.00     0.002 A 
ATOM     25  C   UNL A   1      35.354  23.812  24.955  1.00  0.00    -0.049 A 
ATOM     26  C   UNL A   1      35.269  23.538  23.589  1.00  0.00     0.003 A 
ATOM     27  C   UNL A   1      36.674  24.001  25.635  1.00  0.00     0.044 C 
ENDBRANCH  18  21
ENDBRANCH  16  18
ENDBRANCH  15  16
ENDBRANCH   6  15
ENDBRANCH   3   5
ENDBRANCH   2   3
ENDBRANCH   1   2
BRANCH   1  28
ATOM     28  C   UNL A   1      33.753  29.132  27.482  1.00  0.00     0.275 C 
BRANCH  28  29
ATOM     29  O   UNL A   1      34.548  30.329  27.339  1.00  0.00    -0.458 OA
BRANCH  29  30
ATOM     30  C   UNL A   1      35.205  30.766  28.438  1.00  0.00     0.338 C 
ATOM     31  O   UNL A   1      34.883  31.696  29.156  1.00  0.00    -0.246 OA
BRANCH  30  32
ATOM     32  C   UNL A   1      36.499  30.054  28.510  1.00  0.00     0.060 A 
ATOM     33  C   UNL A   1      37.286  30.075  27.366  1.00  0.00     0.016 A 
ATOM     34  C   UNL A   1      36.951  29.370  29.643  1.00  0.00     0.016 A 
ATOM     35  C   UNL A   1      38.473  29.341  27.320  1.00  0.00     0.010 A 
ATOM     36  C   UNL A   1      38.232  28.767  29.640  1.00  0.00     0.010 A 
ATOM     37  C   UNL A   1      39.025  28.769  28.481  1.00  0.00    -0.014 A 
BRANCH  37  38
ATOM     38  C   UNL A   1      40.488  28.417  28.476  1.00  0.00     0.031 A 
ATOM     39  C   UNL A   1      41.600  29.379  28.812  1.00  0.00     0.074 A 
ATOM     40  C   UNL A   1      40.824  27.145  28.166  1.00  0.00     0.049 A 
ATOM     41  N   UNL A   1      42.893  29.254  28.621  1.00  0.00    -0.248 NA
ATOM     42  C   UNL A   1      41.224  30.644  29.440  1.00  0.00     0.031 C 
ATOM     43  C   UNL A   1      39.874  26.076  27.843  1.00  0.00     0.029 A 
ATOM     44  N   UNL A   1      42.044  26.518  28.105  1.00  0.00    -0.354 N 
ATOM     45  C   UNL A   1      43.469  30.451  29.044  1.00  0.00     0.074 A 
ATOM     46  C   UNL A   1      42.383  31.290  29.503  1.00  0.00     0.031 C 
ATOM     47  C   UNL A   1      40.527  24.918  27.724  1.00  0.00     0.029 A 
ATOM     48  C   UNL A   1      41.954  25.185  27.783  1.00  0.00     0.049 A 
ATOM     49  H   UNL A   1      42.898  26.977  28.275  1.00  0.00     0.167 HD
ATOM     50  C   UNL A   1      44.779  30.807  29.062  1.00  0.00     0.037 A 
ATOM     51  C   UNL A   1      42.897  24.275  27.483  1.00  0.00     0.037 A 
ATOM     52  C   UNL A   1      45.868  29.921  28.716  1.00  0.00     0.049 A 
ATOM     53  C   UNL A   1      44.330  24.697  27.463  1.00  0.00     0.074 A 
ATOM     54  C   UNL A   1      47.229  30.179  28.727  1.00  0.00     0.029 A 
ATOM     55  N   UNL A   1      45.719  28.595  28.336  1.00  0.00    -0.354 N 
ATOM     56  N   UNL A   1      44.846  25.866  27.750  1.00  0.00    -0.248 NA
ATOM     57  C   UNL A   1      45.307  23.685  27.048  1.00  0.00     0.031 C 
ATOM     58  C   UNL A   1      47.901  29.023  28.316  1.00  0.00     0.029 A 
ATOM     59  C   UNL A   1      46.963  28.029  28.096  1.00  0.00     0.049 A 
ATOM     60  H   UNL A   1      44.858  28.126  28.249  1.00  0.00     0.167 HD
ATOM     61  C   UNL A   1      46.211  25.731  27.554  1.00  0.00     0.074 A 
ATOM     62  C   UNL A   1      46.444  24.359  27.148  1.00  0.00     0.031 C 
ATOM     63  C   UNL A   1      47.182  26.665  27.692  1.00  0.00     0.037 A 
BRANCH  50  64
ATOM     64  C   UNL A   1      45.135  32.221  29.441  1.00  0.00     0.057 A 
ATOM     65  C   UNL A   1      45.159  33.271  28.515  1.00  0.00     0.134 A 
ATOM     66  C   UNL A   1      45.370  32.549  30.785  1.00  0.00     0.134 A 
ATOM     67  F   UNL A   1      44.939  33.035  27.213  1.00  0.00    -0.206 F 
ATOM     68  C   UNL A   1      45.426  34.587  28.907  1.00  0.00     0.040 A 
ATOM     69  C   UNL A   1      45.609  33.864  31.193  1.00  0.00     0.040 A 
ATOM     70  F   UNL A   1      45.340  31.600  31.733  1.00  0.00    -0.206 F 
ATOM     71  C   UNL A   1      45.642  34.887  30.251  1.00  0.00     0.006 A 
ENDBRANCH  50  64
BRANCH  51  72
ATOM     72  C   UNL A   1      42.483  22.905  27.089  1.00  0.00     0.057 A 
ATOM     73  C   UNL A   1      42.429  22.519  25.747  1.00  0.00     0.134 A 
ATOM     74  C   UNL A   1      42.189  21.931  28.054  1.00  0.00     0.134 A 
ATOM     75  F   UNL A   1      42.680  23.411  24.776  1.00  0.00    -0.206 F 
ATOM     76  C   UNL A   1      42.102  21.213  25.378  1.00  0.00     0.040 A 
ATOM     77  C   UNL A   1      41.899  20.615  27.702  1.00  0.00     0.040 A 
ATOM     78  F   UNL A   1      42.231  22.238  29.360  1.00  0.00    -0.206 F 
ATOM     79  C   UNL A   1      41.851  20.254  26.359  1.00  0.00     0.006 A 
ENDBRANCH  51  72
BRANCH  63  80
ATOM     80  C   UNL A   1      48.587  26.215  27.434  1.00  0.00     0.057 A 
ATOM     81  C   UNL A   1      49.181  26.338  26.172  1.00  0.00     0.134 A 
ATOM     82  C   UNL A   1      49.355  25.653  28.461  1.00  0.00     0.134 A 
ATOM     83  F   UNL A   1      48.490  26.850  25.142  1.00  0.00    -0.206 F 
ATOM     84  C   UNL A   1      50.482  25.894  25.933  1.00  0.00     0.040 A 
ATOM     85  C   UNL A   1      50.665  25.228  28.242  1.00  0.00     0.040 A 
ATOM     86  F   UNL A   1      48.845  25.510  29.694  1.00  0.00    -0.206 F 
ATOM     87  C   UNL A   1      51.229  25.341  26.972  1.00  0.00     0.006 A 
ENDBRANCH  63  80
ENDBRANCH  37  38
ENDBRANCH  30  32
ENDBRANCH  29  30
ENDBRANCH  28  29
ENDBRANCH   1  28
TORSDOF 16
ENDMDL
MODEL 3
REMARK VINA RESULT:     -11.2      2.742      6.632
REMARK SMILES CCN(C(=O)Cc1c(C(=O)OCCOC(=O)c2ccc(-c3c4nc(c(-c5c(F)cccc5F)c5ccc([nH]5)c(-c5c(F)cccc5F)c5nc(c(-c6c(F)cccc6F)c6ccc3[nH]6)C=C5)C=C4)cc2)[nH]c2ccccc12)c1cccc(C)c1
REMARK SMILES IDX 12 1 11 2 9 3 10 4 8 5 7 6 77 7 71 8 72 9 76 10 73 12 75 13
REMARK SMILES IDX 74 14 6 15 4 16 5 17 3 18 2 19 1 20 78 21 79 22 84 23 80 24
REMARK SMILES IDX 82 25 81 26 83 27 13 28 14 29 15 30 16 31 17 32 18 33 70 34
REMARK SMILES IDX 19 35 69 36 20 37 21 38 22 39 63 40 23 41 68 42 62 43 64 44
REMARK SMILES IDX 24 45 67 46 61 47 60 48 25 50 51 51 34 52 50 53 35 54 38 55
REMARK SMILES IDX 49 56 65 57 36 58 37 59 48 61 66 62 39 63 26 64 27 65 32 66
REMARK SMILES IDX 28 67 29 68 31 69 33 70 30 71 52 72 53 73 58 74 54 75 55 76
REMARK SMILES IDX 57 77 59 78 56 79 40 80 41 81 46 82 42 83 43 84 45 85 47 86
REMARK SMILES IDX 44 87
REMARK H PARENT 71 11 64 49 38 60
REMARK Flexibility Score: inf
ROOT
ATOM      1  C   UNL A   1      36.405  22.538  23.876  1.00  0.00     0.275 C 
ENDROOT
BRANCH   1   2
ATOM      2  O   UNL A   1      34.984  22.354  23.638  1.00  0.00    -0.457 OA
BRANCH   2   3
ATOM      3  C   UNL A   1      34.310  23.423  23.128  1.00  0.00     0.355 C 
ATOM      4  O   UNL A   1      34.067  23.591  21.934  1.00  0.00    -0.244 OA
BRANCH   3   5
ATOM      5  C   UNL A   1      33.785  24.269  24.183  1.00  0.00     0.129 A 
ATOM      6  C   UNL A   1      32.512  24.234  24.762  1.00  0.00     0.002 A 
ATOM      7  C   UNL A   1      32.326  25.465  25.447  1.00  0.00     0.004 A 
ATOM      8  N   UNL A   1      34.451  25.313  24.786  1.00  0.00    -0.349 N 
ATOM      9  C   UNL A   1      33.567  26.090  25.507  1.00  0.00     0.046 A 
ATOM     10  C   UNL A   1      31.201  26.104  26.006  1.00  0.00     0.010 A 
ATOM     11  H   UNL A   1      35.418  25.481  24.713  1.00  0.00     0.167 HD
ATOM     12  C   UNL A   1      33.756  27.300  26.187  1.00  0.00     0.027 A 
ATOM     13  C   UNL A   1      31.362  27.343  26.628  1.00  0.00     0.001 A 
ATOM     14  C   UNL A   1      32.625  27.917  26.738  1.00  0.00     0.002 A 
BRANCH   6  15
ATOM     15  C   UNL A   1      31.475  23.183  24.565  1.00  0.00     0.139 C 
BRANCH  15  16
ATOM     16  C   UNL A   1      31.339  22.087  25.638  1.00  0.00     0.231 C 
ATOM     17  O   UNL A   1      30.284  22.036  26.284  1.00  0.00    -0.274 OA
BRANCH  16  18
ATOM     18  N   UNL A   1      32.352  21.120  25.773  1.00  0.00    -0.312 N 
BRANCH  18  19
ATOM     19  C   UNL A   1      33.589  21.345  26.520  1.00  0.00     0.122 C 
ATOM     20  C   UNL A   1      33.467  22.284  27.706  1.00  0.00     0.028 C 
ENDBRANCH  18  19
BRANCH  18  21
ATOM     21  C   UNL A   1      32.373  19.926  24.979  1.00  0.00     0.044 A 
ATOM     22  C   UNL A   1      32.291  19.990  23.590  1.00  0.00     0.026 A 
ATOM     23  C   UNL A   1      32.715  18.701  25.558  1.00  0.00     0.029 A 
ATOM     24  C   UNL A   1      32.565  18.873  22.798  1.00  0.00     0.002 A 
ATOM     25  C   UNL A   1      33.056  17.588  24.782  1.00  0.00    -0.049 A 
ATOM     26  C   UNL A   1      32.959  17.676  23.393  1.00  0.00     0.003 A 
ATOM     27  C   UNL A   1      33.516  16.333  25.457  1.00  0.00     0.044 C 
ENDBRANCH  18  21
ENDBRANCH  16  18
ENDBRANCH  15  16
ENDBRANCH   6  15
ENDBRANCH   3   5
ENDBRANCH   2   3
ENDBRANCH   1   2
BRANCH   1  28
ATOM     28  C   UNL A   1      37.072  21.277  24.456  1.00  0.00     0.275 C 
BRANCH  28  29
ATOM     29  O   UNL A   1      37.555  21.452  25.805  1.00  0.00    -0.458 OA
BRANCH  29  30
ATOM     30  C   UNL A   1      38.893  21.390  25.994  1.00  0.00     0.338 C 
ATOM     31  O   UNL A   1      39.596  20.400  25.898  1.00  0.00    -0.246 OA
BRANCH  30  32
ATOM     32  C   UNL A   1      39.339  22.691  26.538  1.00  0.00     0.060 A 
ATOM     33  C   UNL A   1      40.434  22.666  27.391  1.00  0.00     0.016 A 
ATOM     34  C   UNL A   1      38.719  23.911  26.250  1.00  0.00     0.016 A 
ATOM     35  C   UNL A   1      40.853  23.837  28.026  1.00  0.00     0.010 A 
ATOM     36  C   UNL A   1      39.254  25.115  26.769  1.00  0.00     0.010 A 
ATOM     37  C   UNL A   1      40.351  25.095  27.647  1.00  0.00    -0.014 A 
BRANCH  37  38
ATOM     38  C   UNL A   1      41.149  26.319  28.005  1.00  0.00     0.031 A 
ATOM     39  C   UNL A   1      40.634  27.461  28.846  1.00  0.00     0.074 A 
ATOM     40  C   UNL A   1      42.422  26.389  27.556  1.00  0.00     0.049 A 
ATOM     41  N   UNL A   1      41.145  28.657  29.027  1.00  0.00    -0.248 NA
ATOM     42  C   UNL A   1      39.388  27.243  29.579  1.00  0.00     0.031 C 
ATOM     43  C   UNL A   1      43.091  25.360  26.753  1.00  0.00     0.029 A 
ATOM     44  N   UNL A   1      43.396  27.341  27.733  1.00  0.00    -0.354 N 
ATOM     45  C   UNL A   1      40.246  29.349  29.837  1.00  0.00     0.074 A 
ATOM     46  C   UNL A   1      39.157  28.436  30.114  1.00  0.00     0.031 C 
ATOM     47  C   UNL A   1      44.377  25.679  26.599  1.00  0.00     0.029 A 
ATOM     48  C   UNL A   1      44.589  27.015  27.133  1.00  0.00     0.049 A 
ATOM     49  H   UNL A   1      43.254  28.172  28.240  1.00  0.00     0.167 HD
ATOM     50  C   UNL A   1      40.332  30.616  30.316  1.00  0.00     0.037 A 
ATOM     51  C   UNL A   1      45.716  27.724  26.947  1.00  0.00     0.037 A 
ATOM     52  C   UNL A   1      41.477  31.478  30.136  1.00  0.00     0.049 A 
ATOM     53  C   UNL A   1      45.774  29.132  27.441  1.00  0.00     0.074 A 
ATOM     54  C   UNL A   1      41.670  32.768  30.603  1.00  0.00     0.029 A 
ATOM     55  N   UNL A   1      42.638  31.122  29.466  1.00  0.00    -0.354 N 
ATOM     56  N   UNL A   1      44.869  29.810  28.101  1.00  0.00    -0.248 NA
ATOM     57  C   UNL A   1      46.995  29.885  27.137  1.00  0.00     0.031 C 
ATOM     58  C   UNL A   1      42.930  33.206  30.183  1.00  0.00     0.029 A 
ATOM     59  C   UNL A   1      43.544  32.173  29.495  1.00  0.00     0.049 A 
ATOM     60  H   UNL A   1      42.796  30.252  29.033  1.00  0.00     0.167 HD
ATOM     61  C   UNL A   1      45.411  31.070  28.296  1.00  0.00     0.074 A 
ATOM     62  C   UNL A   1      46.734  31.053  27.705  1.00  0.00     0.031 C 
ATOM     63  C   UNL A   1      44.856  32.145  28.904  1.00  0.00     0.037 A 
BRANCH  50  64
ATOM     64  C   UNL A   1      39.153  31.183  31.065  1.00  0.00     0.057 A 
ATOM     65  C   UNL A   1      39.045  31.130  32.460  1.00  0.00     0.134 A 
ATOM     66  C   UNL A   1      38.149  31.876  30.371  1.00  0.00     0.134 A 
ATOM     67  F   UNL A   1      39.969  30.490  33.190  1.00  0.00    -0.206 F 
ATOM     68  C   UNL A   1      37.973  31.725  33.133  1.00  0.00     0.040 A 
ATOM     69  C   UNL A   1      37.088  32.498  31.035  1.00  0.00     0.040 A 
ATOM     70  F   UNL A   1      38.197  31.987  29.035  1.00  0.00    -0.206 F 
ATOM     71  C   UNL A   1      36.996  32.419  32.421  1.00  0.00     0.006 A 
ENDBRANCH  50  64
BRANCH  51  72
ATOM     72  C   UNL A   1      46.831  27.121  26.176  1.00  0.00     0.057 A 
ATOM     73  C   UNL A   1      46.936  27.293  24.793  1.00  0.00     0.134 A 
ATOM     74  C   UNL A   1      47.854  26.409  26.818  1.00  0.00     0.134 A 
ATOM     75  F   UNL A   1      45.979  27.948  24.119  1.00  0.00    -0.206 F 
ATOM     76  C   UNL A   1      48.020  26.782  24.077  1.00  0.00     0.040 A 
ATOM     77  C   UNL A   1      48.961  25.927  26.122  1.00  0.00     0.040 A 
ATOM     78  F   UNL A   1      47.816  26.218  28.146  1.00  0.00    -0.206 F 
ATOM     79  C   UNL A   1      49.042  26.109  24.744  1.00  0.00     0.006 A 
ENDBRANCH  51  72
BRANCH  63  80
ATOM     80  C   UNL A   1      45.702  33.378  28.989  1.00  0.00     0.057 A 
ATOM     81  C   UNL A   1      45.648  34.378  28.011  1.00  0.00     0.134 A 
ATOM     82  C   UNL A   1      46.579  33.568  30.064  1.00  0.00     0.134 A 
ATOM     83  F   UNL A   1      44.843  34.245  26.945  1.00  0.00    -0.206 F 
ATOM     84  C   UNL A   1      46.458  35.513  28.084  1.00  0.00     0.040 A 
ATOM     85  C   UNL A   1      47.376  34.709  30.161  1.00  0.00     0.040 A 
ATOM     86  F   UNL A   1      46.676  32.648  31.036  1.00  0.00    -0.206 F 
ATOM     87  C   UNL A   1      47.321  35.682  29.165  1.00  0.00     0.006 A 
ENDBRANCH  63  80
ENDBRANCH  37  38
ENDBRANCH  30  32
ENDBRANCH  29  30
ENDBRANCH  28  29
ENDBRANCH   1  28
TORSDOF 16
ENDMDL
