MODEL 1
REMARK VINA RESULT:     -13.1      0.000      0.000
REMARK SMILES Cc1cccc(C(=O)Nc2cnc(N3CCN(c4cccc(C)c4)[C@H](C)C3)c(C(=O)OCCOC(=O)c3ccc(-c4c5nc(c(-c6c(F)cccc6F)c6ccc([nH]6)c(-c6c(F)cccc6F)c6nc(c(-c7c(F)cccc7F)c7ccc4[nH]7)C=C6)C=C5)cc3)c2)c1
REMARK SMILES IDX 32 1 31 2 29 3 30 4 28 5 10 6 11 7 91 8 12 9 13 10 9 11 7 12
REMARK SMILES IDX 8 13 6 15 1 16 2 17 3 18 92 19 4 20 5 21 14 22 15 23 27 24
REMARK SMILES IDX 16 25 25 26 17 27 26 28 18 29 19 30 24 31 20 32 22 33 21 34
REMARK SMILES IDX 23 35 33 36 34 37 35 38 36 39 37 40 38 41 90 42 39 43 89 44
REMARK SMILES IDX 40 45 41 46 42 47 83 48 43 49 88 50 82 51 84 52 44 53 87 54
REMARK SMILES IDX 81 55 80 56 45 58 71 59 54 60 70 61 55 62 58 63 69 64 85 65
REMARK SMILES IDX 56 66 57 67 68 69 86 70 59 71 46 72 47 73 52 74 48 75 49 76
REMARK SMILES IDX 51 77 53 78 50 79 72 80 73 81 78 82 74 83 75 84 77 85 79 86
REMARK SMILES IDX 76 87 60 88 61 89 66 90 62 91 63 92 65 93 67 94 64 95
REMARK H PARENT 9 14 84 57 58 68
REMARK Flexibility Score: inf
ROOT
ATOM      1  C   UNL A   1      33.508  29.192  25.291  1.00  0.00     0.275 C 
ENDROOT
BRANCH   1   2
ATOM      2  O   UNL A   1      32.927  29.277  23.950  1.00  0.00    -0.458 OA
BRANCH   2   3
ATOM      3  C   UNL A   1      32.299  28.129  23.569  1.00  0.00     0.342 C 
ATOM      4  O   UNL A   1      32.170  27.827  22.383  1.00  0.00    -0.246 OA
BRANCH   3   5
ATOM      5  C   UNL A   1      31.403  27.398  24.495  1.00  0.00     0.104 A 
ATOM      6  C   UNL A   1      29.005  27.145  24.139  1.00  0.00     0.061 A 
ATOM      7  C   UNL A   1      29.135  25.955  24.835  1.00  0.00     0.139 A 
ATOM      8  C   UNL A   1      30.120  27.936  24.139  1.00  0.00     0.047 A 
ATOM      9  N   UNL A   1      30.314  25.441  25.297  1.00  0.00    -0.236 NA
ATOM     10  C   UNL A   1      31.499  26.067  25.042  1.00  0.00     0.143 A 
BRANCH   6  11
ATOM     11  N   UNL A   1      27.800  27.480  23.502  1.00  0.00    -0.321 N 
ATOM     12  C   UNL A   1      27.155  28.646  23.122  1.00  0.00     0.255 C 
ATOM     13  O   UNL A   1      25.938  28.522  22.933  1.00  0.00    -0.269 OA
ATOM     14  H   UNL A   1      27.278  26.680  23.263  1.00  0.00     0.170 HD
BRANCH  12  15
ATOM     15  C   UNL A   1      27.758  29.986  22.766  1.00  0.00     0.040 A 
ATOM     16  C   UNL A   1      28.391  32.559  19.999  1.00  0.00     0.044 C 
ATOM     17  C   UNL A   1      28.282  31.911  21.343  1.00  0.00    -0.050 A 
ATOM     18  C   UNL A   1      28.772  32.630  22.429  1.00  0.00     0.003 A 
ATOM     19  C   UNL A   1      27.723  30.616  21.522  1.00  0.00     0.017 A 
ATOM     20  C   UNL A   1      28.768  32.048  23.682  1.00  0.00     0.001 A 
ATOM     21  C   UNL A   1      28.290  30.739  23.839  1.00  0.00     0.014 A 
ENDBRANCH  12  15
ENDBRANCH   6  11
BRANCH  10  22
ATOM     22  N   UNL A   1      32.618  25.223  25.207  1.00  0.00    -0.352 N 
ATOM     23  C   UNL A   1      33.522  25.037  24.011  1.00  0.00     0.139 C 
ATOM     24  C   UNL A   1      32.611  23.962  26.002  1.00  0.00     0.142 C 
ATOM     25  C   UNL A   1      34.963  24.447  24.300  1.00  0.00     0.138 C 
ATOM     26  C   UNL A   1      34.081  23.624  26.504  1.00  0.00     0.098 C 
ATOM     27  N   UNL A   1      35.049  23.388  25.351  1.00  0.00    -0.365 N 
ATOM     28  C   UNL A   1      34.081  22.575  27.616  1.00  0.00     0.033 C 
BRANCH  27  29
ATOM     29  C   UNL A   1      36.301  22.776  25.633  1.00  0.00     0.037 A 
ATOM     30  C   UNL A   1      37.364  23.572  26.091  1.00  0.00     0.026 A 
ATOM     31  C   UNL A   1      36.641  21.415  25.431  1.00  0.00     0.029 A 
ATOM     32  C   UNL A   1      38.697  23.132  26.129  1.00  0.00     0.002 A 
ATOM     33  C   UNL A   1      37.993  20.949  25.430  1.00  0.00    -0.049 A 
ATOM     34  C   UNL A   1      39.016  21.838  25.752  1.00  0.00     0.003 A 
ATOM     35  C   UNL A   1      38.413  19.566  24.995  1.00  0.00     0.044 C 
ENDBRANCH  27  29
ENDBRANCH  10  22
ENDBRANCH   3   5
ENDBRANCH   2   3
ENDBRANCH   1   2
BRANCH   1  36
ATOM     36  C   UNL A   1      33.174  30.368  26.233  1.00  0.00     0.275 C 
BRANCH  36  37
ATOM     37  O   UNL A   1      33.699  30.345  27.573  1.00  0.00    -0.458 OA
BRANCH  37  38
ATOM     38  C   UNL A   1      34.632  31.268  27.841  1.00  0.00     0.338 C 
ATOM     39  O   UNL A   1      34.413  32.473  27.891  1.00  0.00    -0.246 OA
BRANCH  38  40
ATOM     40  C   UNL A   1      35.896  30.621  28.238  1.00  0.00     0.060 A 
ATOM     41  C   UNL A   1      36.050  30.186  29.563  1.00  0.00     0.016 A 
ATOM     42  C   UNL A   1      36.824  30.250  27.287  1.00  0.00     0.016 A 
ATOM     43  C   UNL A   1      37.100  29.396  30.000  1.00  0.00     0.010 A 
ATOM     44  C   UNL A   1      37.854  29.440  27.687  1.00  0.00     0.010 A 
ATOM     45  C   UNL A   1      38.038  29.092  29.054  1.00  0.00    -0.014 A 
BRANCH  45  46
ATOM     46  C   UNL A   1      39.355  28.589  29.373  1.00  0.00     0.031 A 
ATOM     47  C   UNL A   1      39.776  27.198  29.150  1.00  0.00     0.074 A 
ATOM     48  C   UNL A   1      40.210  29.634  29.468  1.00  0.00     0.049 A 
ATOM     49  N   UNL A   1      40.985  26.985  28.799  1.00  0.00    -0.248 NA
ATOM     50  C   UNL A   1      38.990  25.960  29.162  1.00  0.00     0.031 C 
ATOM     51  C   UNL A   1      41.621  29.752  29.191  1.00  0.00     0.029 A 
ATOM     52  N   UNL A   1      39.895  30.895  29.982  1.00  0.00    -0.354 N 
ATOM     53  C   UNL A   1      41.129  25.695  28.380  1.00  0.00     0.074 A 
ATOM     54  C   UNL A   1      39.830  25.099  28.546  1.00  0.00     0.031 C 
ATOM     55  C   UNL A   1      42.115  30.802  29.873  1.00  0.00     0.029 A 
ATOM     56  C   UNL A   1      41.034  31.333  30.680  1.00  0.00     0.049 A 
ATOM     57  H   UNL A   1      39.046  31.381  29.876  1.00  0.00     0.167 HD
ATOM     58  C   UNL A   1      42.367  25.429  27.892  1.00  0.00     0.037 A 
ATOM     59  C   UNL A   1      40.958  31.294  32.047  1.00  0.00     0.037 A 
ATOM     60  C   UNL A   1      43.317  26.250  28.644  1.00  0.00     0.049 A 
ATOM     61  C   UNL A   1      41.716  30.120  32.623  1.00  0.00     0.074 A 
ATOM     62  C   UNL A   1      44.014  27.421  28.415  1.00  0.00     0.029 A 
ATOM     63  N   UNL A   1      43.302  26.064  30.020  1.00  0.00    -0.354 N 
ATOM     64  N   UNL A   1      42.161  29.126  31.906  1.00  0.00    -0.248 NA
ATOM     65  C   UNL A   1      42.100  30.003  34.023  1.00  0.00     0.031 C 
ATOM     66  C   UNL A   1      44.262  28.016  29.695  1.00  0.00     0.029 A 
ATOM     67  C   UNL A   1      43.728  27.195  30.678  1.00  0.00     0.049 A 
ATOM     68  H   UNL A   1      43.024  25.231  30.465  1.00  0.00     0.167 HD
ATOM     69  C   UNL A   1      42.947  28.311  32.665  1.00  0.00     0.074 A 
ATOM     70  C   UNL A   1      42.871  28.902  33.990  1.00  0.00     0.031 C 
ATOM     71  C   UNL A   1      43.618  27.243  32.134  1.00  0.00     0.037 A 
BRANCH  58  72
ATOM     72  C   UNL A   1      42.740  24.591  26.713  1.00  0.00     0.057 A 
ATOM     73  C   UNL A   1      42.529  23.196  26.770  1.00  0.00     0.134 A 
ATOM     74  C   UNL A   1      43.475  25.036  25.604  1.00  0.00     0.134 A 
ATOM     75  F   UNL A   1      41.854  22.626  27.779  1.00  0.00    -0.206 F 
ATOM     76  C   UNL A   1      43.035  22.306  25.819  1.00  0.00     0.040 A 
ATOM     77  C   UNL A   1      43.968  24.153  24.626  1.00  0.00     0.040 A 
ATOM     78  F   UNL A   1      43.781  26.329  25.439  1.00  0.00    -0.206 F 
ATOM     79  C   UNL A   1      43.759  22.783  24.739  1.00  0.00     0.006 A 
ENDBRANCH  58  72
BRANCH  59  80
ATOM     80  C   UNL A   1      39.609  31.796  32.459  1.00  0.00     0.057 A 
ATOM     81  C   UNL A   1      38.778  30.846  33.107  1.00  0.00     0.134 A 
ATOM     82  C   UNL A   1      39.484  33.117  32.866  1.00  0.00     0.134 A 
ATOM     83  F   UNL A   1      38.817  29.561  32.721  1.00  0.00    -0.206 F 
ATOM     84  C   UNL A   1      38.041  31.149  34.254  1.00  0.00     0.040 A 
ATOM     85  C   UNL A   1      38.768  33.403  34.026  1.00  0.00     0.040 A 
ATOM     86  F   UNL A   1      40.183  34.107  32.291  1.00  0.00    -0.206 F 
ATOM     87  C   UNL A   1      38.085  32.431  34.755  1.00  0.00     0.006 A 
ENDBRANCH  59  80
BRANCH  71  88
ATOM     88  C   UNL A   1      44.292  26.159  32.938  1.00  0.00     0.057 A 
ATOM     89  C   UNL A   1      45.642  25.808  32.812  1.00  0.00     0.134 A 
ATOM     90  C   UNL A   1      43.605  25.504  33.988  1.00  0.00     0.134 A 
ATOM     91  F   UNL A   1      46.473  26.476  32.002  1.00  0.00    -0.206 F 
ATOM     92  C   UNL A   1      46.225  24.788  33.570  1.00  0.00     0.040 A 
ATOM     93  C   UNL A   1      44.204  24.557  34.817  1.00  0.00     0.040 A 
ATOM     94  F   UNL A   1      42.325  25.774  34.286  1.00  0.00    -0.206 F 
ATOM     95  C   UNL A   1      45.508  24.162  34.580  1.00  0.00     0.006 A 
ENDBRANCH  71  88
ENDBRANCH  45  46
ENDBRANCH  38  40
ENDBRANCH  37  38
ENDBRANCH  36  37
ENDBRANCH   1  36
TORSDOF 15
ENDMDL
MODEL 2
REMARK VINA RESULT:     -12.6      1.965      6.481
REMARK SMILES Cc1cccc(C(=O)Nc2cnc(N3CCN(c4cccc(C)c4)[C@H](C)C3)c(C(=O)OCCOC(=O)c3ccc(-c4c5nc(c(-c6c(F)cccc6F)c6ccc([nH]6)c(-c6c(F)cccc6F)c6nc(c(-c7c(F)cccc7F)c7ccc4[nH]7)C=C6)C=C5)cc3)c2)c1
REMARK SMILES IDX 32 1 31 2 29 3 30 4 28 5 10 6 11 7 91 8 12 9 13 10 9 11 7 12
REMARK SMILES IDX 8 13 6 15 1 16 2 17 3 18 92 19 4 20 5 21 14 22 15 23 27 24
REMARK SMILES IDX 16 25 25 26 17 27 26 28 18 29 19 30 24 31 20 32 22 33 21 34
REMARK SMILES IDX 23 35 33 36 34 37 35 38 36 39 37 40 38 41 90 42 39 43 89 44
REMARK SMILES IDX 40 45 41 46 42 47 83 48 43 49 88 50 82 51 84 52 44 53 87 54
REMARK SMILES IDX 81 55 80 56 45 58 71 59 54 60 70 61 55 62 58 63 69 64 85 65
REMARK SMILES IDX 56 66 57 67 68 69 86 70 59 71 46 72 47 73 52 74 48 75 49 76
REMARK SMILES IDX 51 77 53 78 50 79 72 80 73 81 78 82 74 83 75 84 77 85 79 86
REMARK SMILES IDX 76 87 60 88 61 89 66 90 62 91 63 92 65 93 67 94 64 95
REMARK H PARENT 9 14 84 57 58 68
REMARK Flexibility Score: inf
ROOT
ATOM      1  C   UNL A   1      31.449  27.559  26.633  1.00  0.00     0.275 C 
ENDROOT
BRANCH   1   2
ATOM      2  O   UNL A   1      32.074  26.340  27.150  1.00  0.00    -0.458 OA
BRANCH   2   3
ATOM      3  C   UNL A   1      31.531  25.203  26.631  1.00  0.00     0.342 C 
ATOM      4  O   UNL A   1      30.953  24.382  27.343  1.00  0.00    -0.246 OA
BRANCH   3   5
ATOM      5  C   UNL A   1      31.937  24.694  25.301  1.00  0.00     0.104 A 
ATOM      6  C   UNL A   1      31.921  22.333  24.694  1.00  0.00     0.061 A 
ATOM      7  C   UNL A   1      31.689  22.775  23.404  1.00  0.00     0.139 A 
ATOM      8  C   UNL A   1      32.222  23.318  25.594  1.00  0.00     0.047 A 
ATOM      9  N   UNL A   1      31.517  24.082  23.041  1.00  0.00    -0.236 NA
ATOM     10  C   UNL A   1      31.509  25.074  23.977  1.00  0.00     0.143 A 
BRANCH   6  11
ATOM     11  N   UNL A   1      31.852  20.967  25.012  1.00  0.00    -0.321 N 
ATOM     12  C   UNL A   1      32.672  19.860  24.869  1.00  0.00     0.255 C 
ATOM     13  O   UNL A   1      32.083  18.773  24.933  1.00  0.00    -0.269 OA
ATOM     14  H   UNL A   1      31.001  20.737  25.450  1.00  0.00     0.170 HD
BRANCH  12  15
ATOM     15  C   UNL A   1      34.181  19.804  24.801  1.00  0.00     0.040 A 
ATOM     16  C   UNL A   1      37.454  21.783  25.017  1.00  0.00     0.044 C 
ATOM     17  C   UNL A   1      36.474  20.654  24.958  1.00  0.00    -0.050 A 
ATOM     18  C   UNL A   1      37.000  19.370  24.853  1.00  0.00     0.003 A 
ATOM     19  C   UNL A   1      35.068  20.863  24.991  1.00  0.00     0.017 A 
ATOM     20  C   UNL A   1      36.139  18.298  24.716  1.00  0.00     0.001 A 
ATOM     21  C   UNL A   1      34.756  18.518  24.669  1.00  0.00     0.014 A 
ENDBRANCH  12  15
ENDBRANCH   6  11
BRANCH  10  22
ATOM     22  N   UNL A   1      30.915  26.268  23.514  1.00  0.00    -0.352 N 
ATOM     23  C   UNL A   1      29.406  26.312  23.461  1.00  0.00     0.139 C 
ATOM     24  C   UNL A   1      31.457  27.100  22.402  1.00  0.00     0.142 C 
ATOM     25  C   UNL A   1      28.745  27.745  23.347  1.00  0.00     0.138 C 
ATOM     26  C   UNL A   1      30.971  28.606  22.560  1.00  0.00     0.098 C 
ATOM     27  N   UNL A   1      29.454  28.738  22.483  1.00  0.00    -0.365 N 
ATOM     28  C   UNL A   1      31.780  29.565  21.688  1.00  0.00     0.033 C 
BRANCH  27  29
ATOM     29  C   UNL A   1      28.896  30.031  22.292  1.00  0.00     0.037 A 
ATOM     30  C   UNL A   1      28.138  30.285  21.136  1.00  0.00     0.026 A 
ATOM     31  C   UNL A   1      29.078  31.163  23.126  1.00  0.00     0.029 A 
ATOM     32  C   UNL A   1      27.786  31.577  20.714  1.00  0.00     0.002 A 
ATOM     33  C   UNL A   1      28.760  32.492  22.704  1.00  0.00    -0.049 A 
ATOM     34  C   UNL A   1      28.139  32.680  21.472  1.00  0.00     0.003 A 
ATOM     35  C   UNL A   1      29.148  33.738  23.463  1.00  0.00     0.044 C 
ENDBRANCH  27  29
ENDBRANCH  10  22
ENDBRANCH   3   5
ENDBRANCH   2   3
ENDBRANCH   1   2
BRANCH   1  36
ATOM     36  C   UNL A   1      32.333  28.823  26.667  1.00  0.00     0.275 C 
BRANCH  36  37
ATOM     37  O   UNL A   1      33.422  28.874  27.607  1.00  0.00    -0.458 OA
BRANCH  37  38
ATOM     38  C   UNL A   1      34.152  29.997  27.581  1.00  0.00     0.338 C 
ATOM     39  O   UNL A   1      33.696  31.108  27.335  1.00  0.00    -0.246 OA
BRANCH  38  40
ATOM     40  C   UNL A   1      35.521  29.733  28.062  1.00  0.00     0.060 A 
ATOM     41  C   UNL A   1      36.583  29.775  27.147  1.00  0.00     0.016 A 
ATOM     42  C   UNL A   1      35.788  29.663  29.413  1.00  0.00     0.016 A 
ATOM     43  C   UNL A   1      37.919  29.742  27.510  1.00  0.00     0.010 A 
ATOM     44  C   UNL A   1      37.103  29.663  29.801  1.00  0.00     0.010 A 
ATOM     45  C   UNL A   1      38.158  29.611  28.849  1.00  0.00    -0.014 A 
BRANCH  45  46
ATOM     46  C   UNL A   1      39.437  29.215  29.393  1.00  0.00     0.031 A 
ATOM     47  C   UNL A   1      39.992  27.859  29.274  1.00  0.00     0.074 A 
ATOM     48  C   UNL A   1      40.184  30.324  29.605  1.00  0.00     0.049 A 
ATOM     49  N   UNL A   1      41.256  27.736  29.133  1.00  0.00    -0.248 NA
ATOM     50  C   UNL A   1      39.310  26.564  29.184  1.00  0.00     0.031 C 
ATOM     51  C   UNL A   1      41.609  30.548  29.563  1.00  0.00     0.029 A 
ATOM     52  N   UNL A   1      39.695  31.561  30.031  1.00  0.00    -0.354 N 
ATOM     53  C   UNL A   1      41.564  26.458  28.773  1.00  0.00     0.074 A 
ATOM     54  C   UNL A   1      40.304  25.764  28.734  1.00  0.00     0.031 C 
ATOM     55  C   UNL A   1      41.902  31.640  30.294  1.00  0.00     0.029 A 
ATOM     56  C   UNL A   1      40.665  32.093  30.898  1.00  0.00     0.049 A 
ATOM     57  H   UNL A   1      38.841  31.979  29.775  1.00  0.00     0.167 HD
ATOM     58  C   UNL A   1      42.882  26.283  28.502  1.00  0.00     0.037 A 
ATOM     59  C   UNL A   1      40.365  32.061  32.234  1.00  0.00     0.037 A 
ATOM     60  C   UNL A   1      43.629  27.182  29.383  1.00  0.00     0.049 A 
ATOM     61  C   UNL A   1      41.101  30.956  32.954  1.00  0.00     0.074 A 
ATOM     62  C   UNL A   1      44.265  28.402  29.246  1.00  0.00     0.029 A 
ATOM     63  N   UNL A   1      43.399  27.009  30.741  1.00  0.00    -0.354 N 
ATOM     64  N   UNL A   1      41.734  29.992  32.343  1.00  0.00    -0.248 NA
ATOM     65  C   UNL A   1      41.254  30.882  34.401  1.00  0.00     0.031 C 
ATOM     66  C   UNL A   1      44.251  29.026  30.536  1.00  0.00     0.029 A 
ATOM     67  C   UNL A   1      43.623  28.176  31.435  1.00  0.00     0.049 A 
ATOM     68  H   UNL A   1      43.113  26.162  31.153  1.00  0.00     0.167 HD
ATOM     69  C   UNL A   1      42.441  29.247  33.240  1.00  0.00     0.074 A 
ATOM     70  C   UNL A   1      42.100  29.843  34.520  1.00  0.00     0.031 C 
ATOM     71  C   UNL A   1      43.268  28.230  32.852  1.00  0.00     0.037 A 
BRANCH  58  72
ATOM     72  C   UNL A   1      43.509  25.466  27.421  1.00  0.00     0.057 A 
ATOM     73  C   UNL A   1      43.137  25.704  26.079  1.00  0.00     0.134 A 
ATOM     74  C   UNL A   1      44.303  24.328  27.623  1.00  0.00     0.134 A 
ATOM     75  F   UNL A   1      42.368  26.748  25.737  1.00  0.00    -0.206 F 
ATOM     76  C   UNL A   1      43.497  24.862  25.024  1.00  0.00     0.040 A 
ATOM     77  C   UNL A   1      44.694  23.486  26.566  1.00  0.00     0.040 A 
ATOM     78  F   UNL A   1      44.701  23.960  28.848  1.00  0.00    -0.206 F 
ATOM     79  C   UNL A   1      44.280  23.746  25.264  1.00  0.00     0.006 A 
ENDBRANCH  58  72
BRANCH  59  80
ATOM     80  C   UNL A   1      38.933  32.461  32.406  1.00  0.00     0.057 A 
ATOM     81  C   UNL A   1      38.092  31.480  32.992  1.00  0.00     0.134 A 
ATOM     82  C   UNL A   1      38.640  33.787  32.693  1.00  0.00     0.134 A 
ATOM     83  F   UNL A   1      38.295  30.183  32.710  1.00  0.00    -0.206 F 
ATOM     84  C   UNL A   1      37.166  31.781  33.993  1.00  0.00     0.040 A 
ATOM     85  C   UNL A   1      37.733  34.076  33.711  1.00  0.00     0.040 A 
ATOM     86  F   UNL A   1      39.335  34.801  32.157  1.00  0.00    -0.206 F 
ATOM     87  C   UNL A   1      37.028  33.090  34.400  1.00  0.00     0.006 A 
ENDBRANCH  59  80
BRANCH  71  88
ATOM     88  C   UNL A   1      43.878  27.208  33.780  1.00  0.00     0.057 A 
ATOM     89  C   UNL A   1      43.137  26.322  34.571  1.00  0.00     0.134 A 
ATOM     90  C   UNL A   1      45.278  26.999  33.805  1.00  0.00     0.134 A 
ATOM     91  F   UNL A   1      41.802  26.261  34.505  1.00  0.00    -0.206 F 
ATOM     92  C   UNL A   1      43.743  25.397  35.428  1.00  0.00     0.040 A 
ATOM     93  C   UNL A   1      45.887  26.013  34.580  1.00  0.00     0.040 A 
ATOM     94  F   UNL A   1      46.125  27.719  33.054  1.00  0.00    -0.206 F 
ATOM     95  C   UNL A   1      45.122  25.236  35.431  1.00  0.00     0.006 A 
ENDBRANCH  71  88
ENDBRANCH  45  46
ENDBRANCH  38  40
ENDBRANCH  37  38
ENDBRANCH  36  37
ENDBRANCH   1  36
TORSDOF 15
ENDMDL
MODEL 3
REMARK VINA RESULT:     -12.6      3.614      9.236
REMARK SMILES Cc1cccc(C(=O)Nc2cnc(N3CCN(c4cccc(C)c4)[C@H](C)C3)c(C(=O)OCCOC(=O)c3ccc(-c4c5nc(c(-c6c(F)cccc6F)c6ccc([nH]6)c(-c6c(F)cccc6F)c6nc(c(-c7c(F)cccc7F)c7ccc4[nH]7)C=C6)C=C5)cc3)c2)c1
REMARK SMILES IDX 32 1 31 2 29 3 30 4 28 5 10 6 11 7 91 8 12 9 13 10 9 11 7 12
REMARK SMILES IDX 8 13 6 15 1 16 2 17 3 18 92 19 4 20 5 21 14 22 15 23 27 24
REMARK SMILES IDX 16 25 25 26 17 27 26 28 18 29 19 30 24 31 20 32 22 33 21 34
REMARK SMILES IDX 23 35 33 36 34 37 35 38 36 39 37 40 38 41 90 42 39 43 89 44
REMARK SMILES IDX 40 45 41 46 42 47 83 48 43 49 88 50 82 51 84 52 44 53 87 54
REMARK SMILES IDX 81 55 80 56 45 58 71 59 54 60 70 61 55 62 58 63 69 64 85 65
REMARK SMILES IDX 56 66 57 67 68 69 86 70 59 71 46 72 47 73 52 74 48 75 49 76
REMARK SMILES IDX 51 77 53 78 50 79 72 80 73 81 78 82 74 83 75 84 77 85 79 86
REMARK SMILES IDX 76 87 60 88 61 89 66 90 62 91 63 92 65 93 67 94 64 95
REMARK H PARENT 9 14 84 57 58 68
REMARK Flexibility Score: inf
ROOT
ATOM      1  C   UNL A   1      36.115  22.401  25.711  1.00  0.00     0.275 C 
ENDROOT
BRANCH   1   2
ATOM      2  O   UNL A   1      35.015  21.825  26.487  1.00  0.00    -0.458 OA
BRANCH   2   3
ATOM      3  C   UNL A   1      33.820  21.874  25.834  1.00  0.00     0.342 C 
ATOM      4  O   UNL A   1      32.833  21.267  26.249  1.00  0.00    -0.246 OA
BRANCH   3   5
ATOM      5  C   UNL A   1      33.733  22.304  24.419  1.00  0.00     0.104 A 
ATOM      6  C   UNL A   1      32.634  21.006  22.674  1.00  0.00     0.061 A 
ATOM      7  C   UNL A   1      32.378  22.226  22.074  1.00  0.00     0.139 A 
ATOM      8  C   UNL A   1      33.471  21.060  23.755  1.00  0.00     0.047 A 
ATOM      9  N   UNL A   1      32.701  23.444  22.604  1.00  0.00    -0.236 NA
ATOM     10  C   UNL A   1      33.271  23.542  23.839  1.00  0.00     0.143 A 
BRANCH   6  11
ATOM     11  N   UNL A   1      32.064  19.823  22.176  1.00  0.00    -0.321 N 
ATOM     12  C   UNL A   1      32.266  18.463  22.344  1.00  0.00     0.255 C 
ATOM     13  O   UNL A   1      31.809  17.760  21.434  1.00  0.00    -0.269 OA
ATOM     14  H   UNL A   1      31.332  20.009  21.544  1.00  0.00     0.170 HD
BRANCH  12  15
ATOM     15  C   UNL A   1      32.823  17.731  23.544  1.00  0.00     0.040 A 
ATOM     16  C   UNL A   1      35.643  15.520  24.898  1.00  0.00     0.044 C 
ATOM     17  C   UNL A   1      34.448  16.418  24.824  1.00  0.00    -0.050 A 
ATOM     18  C   UNL A   1      33.757  16.644  26.010  1.00  0.00     0.003 A 
ATOM     19  C   UNL A   1      34.014  17.008  23.606  1.00  0.00     0.017 A 
ATOM     20  C   UNL A   1      32.602  17.401  25.984  1.00  0.00     0.001 A 
ATOM     21  C   UNL A   1      32.134  17.915  24.766  1.00  0.00     0.014 A 
ENDBRANCH  12  15
ENDBRANCH   6  11
BRANCH  10  22
ATOM     22  N   UNL A   1      33.153  24.830  24.404  1.00  0.00    -0.352 N 
ATOM     23  C   UNL A   1      32.224  24.981  25.586  1.00  0.00     0.139 C 
ATOM     24  C   UNL A   1      33.134  26.095  23.616  1.00  0.00     0.142 C 
ATOM     25  C   UNL A   1      32.402  26.289  26.460  1.00  0.00     0.138 C 
ATOM     26  C   UNL A   1      33.627  27.308  24.517  1.00  0.00     0.098 C 
ATOM     27  N   UNL A   1      32.718  27.547  25.718  1.00  0.00    -0.365 N 
ATOM     28  C   UNL A   1      33.984  28.537  23.682  1.00  0.00     0.033 C 
BRANCH  27  29
ATOM     29  C   UNL A   1      32.844  28.772  26.429  1.00  0.00     0.037 A 
ATOM     30  C   UNL A   1      31.814  29.724  26.339  1.00  0.00     0.026 A 
ATOM     31  C   UNL A   1      33.960  29.196  27.192  1.00  0.00     0.029 A 
ATOM     32  C   UNL A   1      31.956  31.055  26.760  1.00  0.00     0.002 A 
ATOM     33  C   UNL A   1      34.144  30.554  27.602  1.00  0.00    -0.049 A 
ATOM     34  C   UNL A   1      33.137  31.481  27.345  1.00  0.00     0.003 A 
ATOM     35  C   UNL A   1      35.417  31.091  28.210  1.00  0.00     0.044 C 
ENDBRANCH  27  29
ENDBRANCH  10  22
ENDBRANCH   3   5
ENDBRANCH   2   3
ENDBRANCH   1   2
BRANCH   1  36
ATOM     36  C   UNL A   1      37.387  21.532  25.620  1.00  0.00     0.275 C 
BRANCH  36  37
ATOM     37  O   UNL A   1      38.658  22.191  25.466  1.00  0.00    -0.458 OA
BRANCH  37  38
ATOM     38  C   UNL A   1      39.503  22.057  26.498  1.00  0.00     0.338 C 
ATOM     39  O   UNL A   1      39.956  20.985  26.880  1.00  0.00    -0.246 OA
BRANCH  38  40
ATOM     40  C   UNL A   1      39.940  23.380  26.980  1.00  0.00     0.060 A 
ATOM     41  C   UNL A   1      41.162  23.898  26.527  1.00  0.00     0.016 A 
ATOM     42  C   UNL A   1      39.076  24.191  27.685  1.00  0.00     0.016 A 
ATOM     43  C   UNL A   1      41.580  25.199  26.749  1.00  0.00     0.010 A 
ATOM     44  C   UNL A   1      39.451  25.493  27.890  1.00  0.00     0.010 A 
ATOM     45  C   UNL A   1      40.735  25.966  27.501  1.00  0.00    -0.014 A 
BRANCH  45  46
ATOM     46  C   UNL A   1      41.132  27.206  28.128  1.00  0.00     0.031 A 
ATOM     47  C   UNL A   1      40.317  28.429  28.113  1.00  0.00     0.074 A 
ATOM     48  C   UNL A   1      42.087  26.942  29.052  1.00  0.00     0.049 A 
ATOM     49  N   UNL A   1      40.339  29.180  29.146  1.00  0.00    -0.248 NA
ATOM     50  C   UNL A   1      39.357  28.911  27.115  1.00  0.00     0.031 C 
ATOM     51  C   UNL A   1      42.421  27.583  30.301  1.00  0.00     0.029 A 
ATOM     52  N   UNL A   1      43.083  25.970  28.934  1.00  0.00    -0.354 N 
ATOM     53  C   UNL A   1      39.340  30.105  29.073  1.00  0.00     0.074 A 
ATOM     54  C   UNL A   1      38.688  29.855  27.815  1.00  0.00     0.031 C 
ATOM     55  C   UNL A   1      43.696  27.289  30.615  1.00  0.00     0.029 A 
ATOM     56  C   UNL A   1      44.239  26.515  29.517  1.00  0.00     0.049 A 
ATOM     57  H   UNL A   1      42.993  25.079  28.524  1.00  0.00     0.167 HD
ATOM     58  C   UNL A   1      39.239  30.869  30.189  1.00  0.00     0.037 A 
ATOM     59  C   UNL A   1      45.217  26.926  28.650  1.00  0.00     0.037 A 
ATOM     60  C   UNL A   1      40.591  31.034  30.726  1.00  0.00     0.049 A 
ATOM     61  C   UNL A   1      45.238  28.429  28.492  1.00  0.00     0.074 A 
ATOM     62  C   UNL A   1      41.320  30.482  31.764  1.00  0.00     0.029 A 
ATOM     63  N   UNL A   1      41.512  31.594  29.853  1.00  0.00    -0.354 N 
ATOM     64  N   UNL A   1      44.284  29.213  28.914  1.00  0.00    -0.248 NA
ATOM     65  C   UNL A   1      46.352  29.175  27.922  1.00  0.00     0.031 C 
ATOM     66  C   UNL A   1      42.702  30.576  31.397  1.00  0.00     0.029 A 
ATOM     67  C   UNL A   1      42.793  31.193  30.157  1.00  0.00     0.049 A 
ATOM     68  H   UNL A   1      41.280  32.200  29.112  1.00  0.00     0.167 HD
ATOM     69  C   UNL A   1      44.655  30.519  28.787  1.00  0.00     0.074 A 
ATOM     70  C   UNL A   1      45.960  30.442  28.152  1.00  0.00     0.031 C 
ATOM     71  C   UNL A   1      43.876  31.546  29.243  1.00  0.00     0.037 A 
BRANCH  58  72
ATOM     72  C   UNL A   1      38.004  31.350  30.878  1.00  0.00     0.057 A 
ATOM     73  C   UNL A   1      37.754  32.738  30.946  1.00  0.00     0.134 A 
ATOM     74  C   UNL A   1      37.147  30.553  31.651  1.00  0.00     0.134 A 
ATOM     75  F   UNL A   1      38.501  33.622  30.270  1.00  0.00    -0.206 F 
ATOM     76  C   UNL A   1      36.751  33.297  31.743  1.00  0.00     0.040 A 
ATOM     77  C   UNL A   1      36.118  31.101  32.438  1.00  0.00     0.040 A 
ATOM     78  F   UNL A   1      37.289  29.223  31.710  1.00  0.00    -0.206 F 
ATOM     79  C   UNL A   1      35.927  32.477  32.495  1.00  0.00     0.006 A 
ENDBRANCH  58  72
BRANCH  59  80
ATOM     80  C   UNL A   1      45.357  25.896  27.574  1.00  0.00     0.057 A 
ATOM     81  C   UNL A   1      45.038  26.337  26.264  1.00  0.00     0.134 A 
ATOM     82  C   UNL A   1      46.363  24.946  27.686  1.00  0.00     0.134 A 
ATOM     83  F   UNL A   1      44.040  27.217  26.087  1.00  0.00    -0.206 F 
ATOM     84  C   UNL A   1      45.829  26.035  25.153  1.00  0.00     0.040 A 
ATOM     85  C   UNL A   1      47.161  24.671  26.578  1.00  0.00     0.040 A 
ATOM     86  F   UNL A   1      46.716  24.420  28.868  1.00  0.00    -0.206 F 
ATOM     87  C   UNL A   1      46.941  25.239  25.324  1.00  0.00     0.006 A 
ENDBRANCH  59  80
BRANCH  71  88
ATOM     88  C   UNL A   1      44.091  33.004  28.918  1.00  0.00     0.057 A 
ATOM     89  C   UNL A   1      44.056  33.536  27.623  1.00  0.00     0.134 A 
ATOM     90  C   UNL A   1      44.214  33.964  29.952  1.00  0.00     0.134 A 
ATOM     91  F   UNL A   1      43.749  32.785  26.558  1.00  0.00    -0.206 F 
ATOM     92  C   UNL A   1      44.271  34.893  27.366  1.00  0.00     0.040 A 
ATOM     93  C   UNL A   1      44.328  35.332  29.711  1.00  0.00     0.040 A 
ATOM     94  F   UNL A   1      44.196  33.627  31.250  1.00  0.00    -0.206 F 
ATOM     95  C   UNL A   1      44.403  35.798  28.410  1.00  0.00     0.006 A 
ENDBRANCH  71  88
ENDBRANCH  45  46
ENDBRANCH  38  40
ENDBRANCH  37  38
ENDBRANCH  36  37
ENDBRANCH   1  36
TORSDOF 15
ENDMDL
