MODEL 1
REMARK VINA RESULT:     -11.8      0.000      0.000
REMARK SMILES COc1cc(/C=C2/SC(=S)N(c3ccc(C)cc3C)C2=O)ccc1O[C@@H](C)C(=O)OCCOC(=O)c1ccc(-c2c3nc(c(-c4c(F)cccc4F)c4ccc([nH]4)c(-c4c(F)cccc4F)c4nc(c(-c5c(F)cccc5F)c5ccc2[nH]5)C=C4)C=C3)cc1
REMARK SMILES IDX 31 1 30 2 28 3 29 4 26 5 27 6 25 7 24 8 3 9 4 10 5 11 23 12
REMARK SMILES IDX 22 13 2 14 1 15 6 16 7 17 8 18 20 19 9 20 11 21 21 22 10 23
REMARK SMILES IDX 12 24 13 25 18 26 14 27 17 28 19 29 15 30 16 31 32 32 33 33
REMARK SMILES IDX 34 34 35 35 36 36 37 37 89 38 38 39 88 40 39 41 40 42 41 43
REMARK SMILES IDX 82 44 42 45 87 46 81 47 83 48 43 49 86 50 80 51 79 52 44 54
REMARK SMILES IDX 70 55 53 56 69 57 54 58 57 59 68 60 84 61 55 62 56 63 67 65
REMARK SMILES IDX 85 66 58 67 45 68 46 69 51 70 47 71 48 72 50 73 52 74 49 75
REMARK SMILES IDX 71 76 72 77 77 78 73 79 74 80 76 81 78 82 75 83 59 84 60 85
REMARK SMILES IDX 65 86 61 87 62 88 64 89 66 90 63 91
REMARK H PARENT 83 53 57 64
REMARK Flexibility Score: inf
ROOT
ATOM      1  C   UNL A   1      42.621  22.050  26.371  1.00  0.00     0.274 C 
ENDROOT
BRANCH   1   2
ATOM      2  O   UNL A   1      41.528  21.345  25.751  1.00  0.00    -0.459 OA
BRANCH   2   3
ATOM      3  C   UNL A   1      40.419  21.129  26.510  1.00  0.00     0.347 C 
ATOM      4  O   UNL A   1      40.419  20.561  27.597  1.00  0.00    -0.248 OA
BRANCH   3   5
ATOM      5  C   UNL A   1      39.164  21.773  25.864  1.00  0.00     0.279 C 
ATOM      6  C   UNL A   1      38.805  23.117  26.507  1.00  0.00     0.066 C 
BRANCH   5   7
ATOM      7  O   UNL A   1      37.938  21.157  25.545  1.00  0.00    -0.475 OA
BRANCH   7   8
ATOM      8  C   UNL A   1      36.827  21.801  25.117  1.00  0.00     0.162 A 
ATOM      9  C   UNL A   1      35.593  21.988  25.740  1.00  0.00     0.161 A 
ATOM     10  C   UNL A   1      34.539  22.588  25.034  1.00  0.00     0.058 A 
ATOM     11  C   UNL A   1      34.722  23.037  23.722  1.00  0.00    -0.020 A 
ATOM     12  C   UNL A   1      37.022  22.335  23.834  1.00  0.00     0.051 A 
ATOM     13  C   UNL A   1      35.985  22.953  23.139  1.00  0.00     0.012 A 
BRANCH   9  14
ATOM     14  O   UNL A   1      35.260  21.444  26.948  1.00  0.00    -0.493 OA
ATOM     15  C   UNL A   1      34.004  21.877  27.452  1.00  0.00     0.278 C 
ENDBRANCH   9  14
BRANCH  11  16
ATOM     16  C   UNL A   1      33.572  23.479  22.931  1.00  0.00     0.029 C 
ATOM     17  C   UNL A   1      32.987  24.679  23.070  1.00  0.00     0.081 C 
ATOM     18  S   UNL A   1      31.623  25.159  22.132  1.00  0.00    -0.054 SA
ATOM     19  C   UNL A   1      33.361  25.774  24.019  1.00  0.00     0.270 C 
ATOM     20  C   UNL A   1      31.499  26.728  22.931  1.00  0.00     0.152 C 
ATOM     21  N   UNL A   1      32.422  26.800  23.961  1.00  0.00    -0.261 N 
ATOM     22  O   UNL A   1      34.357  25.743  24.728  1.00  0.00    -0.268 OA
ATOM     23  S   UNL A   1      30.450  27.900  22.359  1.00  0.00    -0.051 S 
BRANCH  21  24
ATOM     24  C   UNL A   1      32.502  27.876  24.894  1.00  0.00     0.054 A 
ATOM     25  C   UNL A   1      33.346  28.964  24.604  1.00  0.00     0.027 A 
ATOM     26  C   UNL A   1      31.822  27.853  26.129  1.00  0.00    -0.027 A 
ATOM     27  C   UNL A   1      33.469  30.038  25.488  1.00  0.00     0.005 A 
ATOM     28  C   UNL A   1      31.939  28.956  26.999  1.00  0.00     0.009 A 
ATOM     29  C   UNL A   1      31.023  26.679  26.629  1.00  0.00     0.046 C 
ATOM     30  C   UNL A   1      32.756  30.049  26.687  1.00  0.00    -0.051 A 
ATOM     31  C   UNL A   1      32.902  31.200  27.637  1.00  0.00     0.044 C 
ENDBRANCH  21  24
ENDBRANCH  11  16
ENDBRANCH   7   8
ENDBRANCH   5   7
ENDBRANCH   3   5
ENDBRANCH   2   3
ENDBRANCH   1   2
BRANCH   1  32
ATOM     32  C   UNL A   1      42.706  23.465  25.803  1.00  0.00     0.275 C 
BRANCH  32  33
ATOM     33  O   UNL A   1      42.059  24.377  26.707  1.00  0.00    -0.458 OA
BRANCH  33  34
ATOM     34  C   UNL A   1      41.748  25.572  26.162  1.00  0.00     0.338 C 
ATOM     35  O   UNL A   1      41.711  25.883  24.981  1.00  0.00    -0.246 OA
BRANCH  34  36
ATOM     36  C   UNL A   1      41.267  26.455  27.223  1.00  0.00     0.060 A 
ATOM     37  C   UNL A   1      41.804  27.741  27.293  1.00  0.00     0.016 A 
ATOM     38  C   UNL A   1      40.372  25.996  28.185  1.00  0.00     0.016 A 
ATOM     39  C   UNL A   1      41.490  28.572  28.356  1.00  0.00     0.010 A 
ATOM     40  C   UNL A   1      40.036  26.839  29.243  1.00  0.00     0.010 A 
ATOM     41  C   UNL A   1      40.614  28.118  29.346  1.00  0.00    -0.014 A 
BRANCH  41  42
ATOM     42  C   UNL A   1      40.368  28.953  30.538  1.00  0.00     0.031 A 
ATOM     43  C   UNL A   1      39.277  29.980  30.496  1.00  0.00     0.074 A 
ATOM     44  C   UNL A   1      41.109  28.773  31.645  1.00  0.00     0.049 A 
ATOM     45  N   UNL A   1      38.993  30.920  31.357  1.00  0.00    -0.248 NA
ATOM     46  C   UNL A   1      38.390  29.946  29.321  1.00  0.00     0.031 C 
ATOM     47  C   UNL A   1      42.146  27.753  31.811  1.00  0.00     0.029 A 
ATOM     48  N   UNL A   1      41.106  29.448  32.835  1.00  0.00    -0.354 N 
ATOM     49  C   UNL A   1      37.924  31.617  30.811  1.00  0.00     0.074 A 
ATOM     50  C   UNL A   1      37.610  30.993  29.544  1.00  0.00     0.031 C 
ATOM     51  C   UNL A   1      42.685  27.875  33.034  1.00  0.00     0.029 A 
ATOM     52  C   UNL A   1      42.074  29.016  33.708  1.00  0.00     0.049 A 
ATOM     53  H   UNL A   1      40.473  30.172  33.046  1.00  0.00     0.167 HD
ATOM     54  C   UNL A   1      37.270  32.684  31.326  1.00  0.00     0.037 A 
ATOM     55  C   UNL A   1      42.452  29.517  34.897  1.00  0.00     0.037 A 
ATOM     56  C   UNL A   1      37.583  33.272  32.601  1.00  0.00     0.049 A 
ATOM     57  C   UNL A   1      41.744  30.733  35.425  1.00  0.00     0.074 A 
ATOM     58  C   UNL A   1      36.985  34.352  33.226  1.00  0.00     0.029 A 
ATOM     59  N   UNL A   1      38.583  32.819  33.450  1.00  0.00    -0.354 N 
ATOM     60  N   UNL A   1      40.757  31.412  34.890  1.00  0.00    -0.248 NA
ATOM     61  C   UNL A   1      42.209  31.260  36.715  1.00  0.00     0.031 C 
ATOM     62  C   UNL A   1      37.648  34.574  34.438  1.00  0.00     0.029 A 
ATOM     63  C   UNL A   1      38.630  33.607  34.588  1.00  0.00     0.049 A 
ATOM     64  H   UNL A   1      39.172  32.050  33.270  1.00  0.00     0.167 HD
ATOM     65  C   UNL A   1      40.472  32.436  35.782  1.00  0.00     0.074 A 
ATOM     66  C   UNL A   1      41.381  32.279  36.900  1.00  0.00     0.031 C 
ATOM     67  C   UNL A   1      39.546  33.421  35.686  1.00  0.00     0.037 A 
BRANCH  54  68
ATOM     68  C   UNL A   1      36.191  33.302  30.489  1.00  0.00     0.057 A 
ATOM     69  C   UNL A   1      34.832  33.120  30.771  1.00  0.00     0.134 A 
ATOM     70  C   UNL A   1      36.521  34.097  29.385  1.00  0.00     0.134 A 
ATOM     71  F   UNL A   1      34.448  32.352  31.803  1.00  0.00    -0.206 F 
ATOM     72  C   UNL A   1      33.838  33.690  29.973  1.00  0.00     0.040 A 
ATOM     73  C   UNL A   1      35.537  34.692  28.591  1.00  0.00     0.040 A 
ATOM     74  F   UNL A   1      37.804  34.311  29.057  1.00  0.00    -0.206 F 
ATOM     75  C   UNL A   1      34.191  34.483  28.881  1.00  0.00     0.006 A 
ENDBRANCH  54  68
BRANCH  55  76
ATOM     76  C   UNL A   1      43.572  28.893  35.641  1.00  0.00     0.057 A 
ATOM     77  C   UNL A   1      43.349  27.861  36.557  1.00  0.00     0.134 A 
ATOM     78  C   UNL A   1      44.897  29.306  35.445  1.00  0.00     0.134 A 
ATOM     79  F   UNL A   1      42.101  27.435  36.803  1.00  0.00    -0.206 F 
ATOM     80  C   UNL A   1      44.399  27.266  37.258  1.00  0.00     0.040 A 
ATOM     81  C   UNL A   1      45.959  28.704  36.119  1.00  0.00     0.040 A 
ATOM     82  F   UNL A   1      45.178  30.289  34.577  1.00  0.00    -0.206 F 
ATOM     83  C   UNL A   1      45.711  27.683  37.034  1.00  0.00     0.006 A 
ENDBRANCH  55  76
BRANCH  67  84
ATOM     84  C   UNL A   1      39.455  34.380  36.834  1.00  0.00     0.057 A 
ATOM     85  C   UNL A   1      38.754  34.062  38.003  1.00  0.00     0.134 A 
ATOM     86  C   UNL A   1      40.106  35.618  36.779  1.00  0.00     0.134 A 
ATOM     87  F   UNL A   1      38.099  32.896  38.108  1.00  0.00    -0.206 F 
ATOM     88  C   UNL A   1      38.688  34.954  39.074  1.00  0.00     0.040 A 
ATOM     89  C   UNL A   1      40.066  36.508  37.852  1.00  0.00     0.040 A 
ATOM     90  F   UNL A   1      40.800  35.976  35.688  1.00  0.00    -0.206 F 
ATOM     91  C   UNL A   1      39.350  36.178  39.002  1.00  0.00     0.006 A 
ENDBRANCH  67  84
ENDBRANCH  41  42
ENDBRANCH  34  36
ENDBRANCH  33  34
ENDBRANCH  32  33
ENDBRANCH   1  32
TORSDOF 16
ENDMDL
MODEL 2
REMARK VINA RESULT:     -11.5      5.255     11.400
REMARK SMILES COc1cc(/C=C2/SC(=S)N(c3ccc(C)cc3C)C2=O)ccc1O[C@@H](C)C(=O)OCCOC(=O)c1ccc(-c2c3nc(c(-c4c(F)cccc4F)c4ccc([nH]4)c(-c4c(F)cccc4F)c4nc(c(-c5c(F)cccc5F)c5ccc2[nH]5)C=C4)C=C3)cc1
REMARK SMILES IDX 31 1 30 2 28 3 29 4 26 5 27 6 25 7 24 8 3 9 4 10 5 11 23 12
REMARK SMILES IDX 22 13 2 14 1 15 6 16 7 17 8 18 20 19 9 20 11 21 21 22 10 23
REMARK SMILES IDX 12 24 13 25 18 26 14 27 17 28 19 29 15 30 16 31 32 32 33 33
REMARK SMILES IDX 34 34 35 35 36 36 37 37 89 38 38 39 88 40 39 41 40 42 41 43
REMARK SMILES IDX 82 44 42 45 87 46 81 47 83 48 43 49 86 50 80 51 79 52 44 54
REMARK SMILES IDX 70 55 53 56 69 57 54 58 57 59 68 60 84 61 55 62 56 63 67 65
REMARK SMILES IDX 85 66 58 67 45 68 46 69 51 70 47 71 48 72 50 73 52 74 49 75
REMARK SMILES IDX 71 76 72 77 77 78 73 79 74 80 76 81 78 82 75 83 59 84 60 85
REMARK SMILES IDX 65 86 61 87 62 88 64 89 66 90 63 91
REMARK H PARENT 83 53 57 64
REMARK Flexibility Score: inf
ROOT
ATOM      1  C   UNL A   1      34.102  34.477  29.446  1.00  0.00     0.274 C 
ENDROOT
BRANCH   1   2
ATOM      2  O   UNL A   1      33.772  33.945  30.743  1.00  0.00    -0.459 OA
BRANCH   2   3
ATOM      3  C   UNL A   1      34.241  34.619  31.829  1.00  0.00     0.347 C 
ATOM      4  O   UNL A   1      34.062  35.815  32.036  1.00  0.00    -0.248 OA
BRANCH   3   5
ATOM      5  C   UNL A   1      34.957  33.661  32.816  1.00  0.00     0.279 C 
ATOM      6  C   UNL A   1      35.010  34.227  34.239  1.00  0.00     0.066 C 
BRANCH   5   7
ATOM      7  O   UNL A   1      36.170  32.969  32.631  1.00  0.00    -0.475 OA
BRANCH   7   8
ATOM      8  C   UNL A   1      37.259  33.457  31.991  1.00  0.00     0.162 A 
ATOM      9  C   UNL A   1      38.275  34.296  32.447  1.00  0.00     0.161 A 
ATOM     10  C   UNL A   1      39.242  34.773  31.548  1.00  0.00     0.058 A 
ATOM     11  C   UNL A   1      39.220  34.387  30.204  1.00  0.00    -0.020 A 
ATOM     12  C   UNL A   1      37.301  33.008  30.662  1.00  0.00     0.051 A 
ATOM     13  C   UNL A   1      38.273  33.460  29.773  1.00  0.00     0.012 A 
BRANCH   9  14
ATOM     14  O   UNL A   1      38.295  34.863  33.690  1.00  0.00    -0.493 OA
ATOM     15  C   UNL A   1      38.729  33.985  34.720  1.00  0.00     0.278 C 
ENDBRANCH   9  14
BRANCH  11  16
ATOM     16  C   UNL A   1      40.107  35.038  29.239  1.00  0.00     0.029 C 
ATOM     17  C   UNL A   1      41.405  34.730  29.090  1.00  0.00     0.081 C 
ATOM     18  S   UNL A   1      42.424  35.531  27.954  1.00  0.00    -0.054 SA
ATOM     19  C   UNL A   1      42.193  33.704  29.842  1.00  0.00     0.270 C 
ATOM     20  C   UNL A   1      43.848  34.599  28.423  1.00  0.00     0.152 C 
ATOM     21  N   UNL A   1      43.539  33.788  29.501  1.00  0.00    -0.261 N 
ATOM     22  O   UNL A   1      41.695  32.916  30.634  1.00  0.00    -0.268 OA
ATOM     23  S   UNL A   1      45.267  34.704  27.540  1.00  0.00    -0.051 S 
BRANCH  21  24
ATOM     24  C   UNL A   1      44.494  33.002  30.214  1.00  0.00     0.054 A 
ATOM     25  C   UNL A   1      45.312  33.632  31.168  1.00  0.00     0.027 A 
ATOM     26  C   UNL A   1      44.694  31.633  29.941  1.00  0.00    -0.027 A 
ATOM     27  C   UNL A   1      46.269  32.911  31.886  1.00  0.00     0.005 A 
ATOM     28  C   UNL A   1      45.648  30.916  30.692  1.00  0.00     0.009 A 
ATOM     29  C   UNL A   1      44.001  30.884  28.835  1.00  0.00     0.046 C 
ATOM     30  C   UNL A   1      46.436  31.544  31.662  1.00  0.00    -0.051 A 
ATOM     31  C   UNL A   1      47.474  30.778  32.429  1.00  0.00     0.044 C 
ENDBRANCH  21  24
ENDBRANCH  11  16
ENDBRANCH   7   8
ENDBRANCH   5   7
ENDBRANCH   3   5
ENDBRANCH   2   3
ENDBRANCH   1   2
BRANCH   1  32
ATOM     32  C   UNL A   1      33.768  33.447  28.368  1.00  0.00     0.275 C 
BRANCH  32  33
ATOM     33  O   UNL A   1      34.926  32.631  28.120  1.00  0.00    -0.458 OA
BRANCH  33  34
ATOM     34  C   UNL A   1      34.659  31.315  27.986  1.00  0.00     0.338 C 
ATOM     35  O   UNL A   1      33.665  30.784  27.511  1.00  0.00    -0.246 OA
BRANCH  34  36
ATOM     36  C   UNL A   1      35.856  30.558  28.349  1.00  0.00     0.060 A 
ATOM     37  C   UNL A   1      35.829  29.830  29.539  1.00  0.00     0.016 A 
ATOM     38  C   UNL A   1      37.013  30.639  27.580  1.00  0.00     0.016 A 
ATOM     39  C   UNL A   1      36.977  29.207  30.003  1.00  0.00     0.010 A 
ATOM     40  C   UNL A   1      38.163  29.995  28.033  1.00  0.00     0.010 A 
ATOM     41  C   UNL A   1      38.155  29.300  29.258  1.00  0.00    -0.014 A 
BRANCH  41  42
ATOM     42  C   UNL A   1      39.406  28.739  29.804  1.00  0.00     0.031 A 
ATOM     43  C   UNL A   1      40.004  29.353  31.034  1.00  0.00     0.074 A 
ATOM     44  C   UNL A   1      39.982  27.681  29.208  1.00  0.00     0.049 A 
ATOM     45  N   UNL A   1      41.166  29.130  31.589  1.00  0.00    -0.248 NA
ATOM     46  C   UNL A   1      39.184  30.361  31.728  1.00  0.00     0.031 C 
ATOM     47  C   UNL A   1      39.442  26.967  28.050  1.00  0.00     0.029 A 
ATOM     48  N   UNL A   1      41.151  27.029  29.491  1.00  0.00    -0.354 N 
ATOM     49  C   UNL A   1      41.236  29.997  32.671  1.00  0.00     0.074 A 
ATOM     50  C   UNL A   1      40.001  30.751  32.695  1.00  0.00     0.031 C 
ATOM     51  C   UNL A   1      40.285  25.977  27.716  1.00  0.00     0.029 A 
ATOM     52  C   UNL A   1      41.447  26.029  28.597  1.00  0.00     0.049 A 
ATOM     53  H   UNL A   1      41.725  27.255  30.259  1.00  0.00     0.167 HD
ATOM     54  C   UNL A   1      42.245  30.146  33.559  1.00  0.00     0.037 A 
ATOM     55  C   UNL A   1      42.553  25.274  28.480  1.00  0.00     0.037 A 
ATOM     56  C   UNL A   1      43.455  29.366  33.531  1.00  0.00     0.049 A 
ATOM     57  C   UNL A   1      43.682  25.493  29.446  1.00  0.00     0.074 A 
ATOM     58  C   UNL A   1      44.543  29.428  34.382  1.00  0.00     0.029 A 
ATOM     59  N   UNL A   1      43.727  28.374  32.600  1.00  0.00    -0.354 N 
ATOM     60  N   UNL A   1      43.761  26.338  30.447  1.00  0.00    -0.248 NA
ATOM     61  C   UNL A   1      44.880  24.664  29.263  1.00  0.00     0.031 C 
ATOM     62  C   UNL A   1      45.490  28.496  33.943  1.00  0.00     0.029 A 
ATOM     63  C   UNL A   1      44.974  27.825  32.845  1.00  0.00     0.049 A 
ATOM     64  H   UNL A   1      43.122  28.101  31.872  1.00  0.00     0.167 HD
ATOM     65  C   UNL A   1      45.007  26.134  31.022  1.00  0.00     0.074 A 
ATOM     66  C   UNL A   1      45.644  25.072  30.266  1.00  0.00     0.031 C 
ATOM     67  C   UNL A   1      45.578  26.766  32.075  1.00  0.00     0.037 A 
BRANCH  54  68
ATOM     68  C   UNL A   1      42.099  31.218  34.596  1.00  0.00     0.057 A 
ATOM     69  C   UNL A   1      42.566  32.522  34.393  1.00  0.00     0.134 A 
ATOM     70  C   UNL A   1      41.475  30.938  35.818  1.00  0.00     0.134 A 
ATOM     71  F   UNL A   1      43.191  32.851  33.251  1.00  0.00    -0.206 F 
ATOM     72  C   UNL A   1      42.436  33.505  35.375  1.00  0.00     0.040 A 
ATOM     73  C   UNL A   1      41.319  31.918  36.801  1.00  0.00     0.040 A 
ATOM     74  F   UNL A   1      41.007  29.709  36.080  1.00  0.00    -0.206 F 
ATOM     75  C   UNL A   1      41.806  33.205  36.583  1.00  0.00     0.006 A 
ENDBRANCH  54  68
BRANCH  55  76
ATOM     76  C   UNL A   1      42.655  24.277  27.387  1.00  0.00     0.057 A 
ATOM     77  C   UNL A   1      42.255  22.950  27.576  1.00  0.00     0.134 A 
ATOM     78  C   UNL A   1      43.145  24.629  26.123  1.00  0.00     0.134 A 
ATOM     79  F   UNL A   1      41.797  22.547  28.771  1.00  0.00    -0.206 F 
ATOM     80  C   UNL A   1      42.346  22.007  26.551  1.00  0.00     0.040 A 
ATOM     81  C   UNL A   1      43.217  23.703  25.082  1.00  0.00     0.040 A 
ATOM     82  F   UNL A   1      43.542  25.886  25.876  1.00  0.00    -0.206 F 
ATOM     83  C   UNL A   1      42.821  22.385  25.296  1.00  0.00     0.006 A 
ENDBRANCH  55  76
BRANCH  67  84
ATOM     84  C   UNL A   1      46.943  26.303  32.485  1.00  0.00     0.057 A 
ATOM     85  C   UNL A   1      48.104  26.886  31.963  1.00  0.00     0.134 A 
ATOM     86  C   UNL A   1      47.093  25.288  33.437  1.00  0.00     0.134 A 
ATOM     87  F   UNL A   1      48.024  27.853  31.037  1.00  0.00    -0.206 F 
ATOM     88  C   UNL A   1      49.371  26.459  32.363  1.00  0.00     0.040 A 
ATOM     89  C   UNL A   1      48.354  24.870  33.861  1.00  0.00     0.040 A 
ATOM     90  F   UNL A   1      46.017  24.697  33.980  1.00  0.00    -0.206 F 
ATOM     91  C   UNL A   1      49.498  25.453  33.319  1.00  0.00     0.006 A 
ENDBRANCH  67  84
ENDBRANCH  41  42
ENDBRANCH  34  36
ENDBRANCH  33  34
ENDBRANCH  32  33
ENDBRANCH   1  32
TORSDOF 16
ENDMDL
MODEL 3
REMARK VINA RESULT:     -10.9      5.213     11.206
REMARK SMILES COc1cc(/C=C2/SC(=S)N(c3ccc(C)cc3C)C2=O)ccc1O[C@@H](C)C(=O)OCCOC(=O)c1ccc(-c2c3nc(c(-c4c(F)cccc4F)c4ccc([nH]4)c(-c4c(F)cccc4F)c4nc(c(-c5c(F)cccc5F)c5ccc2[nH]5)C=C4)C=C3)cc1
REMARK SMILES IDX 31 1 30 2 28 3 29 4 26 5 27 6 25 7 24 8 3 9 4 10 5 11 23 12
REMARK SMILES IDX 22 13 2 14 1 15 6 16 7 17 8 18 20 19 9 20 11 21 21 22 10 23
REMARK SMILES IDX 12 24 13 25 18 26 14 27 17 28 19 29 15 30 16 31 32 32 33 33
REMARK SMILES IDX 34 34 35 35 36 36 37 37 89 38 38 39 88 40 39 41 40 42 41 43
REMARK SMILES IDX 82 44 42 45 87 46 81 47 83 48 43 49 86 50 80 51 79 52 44 54
REMARK SMILES IDX 70 55 53 56 69 57 54 58 57 59 68 60 84 61 55 62 56 63 67 65
REMARK SMILES IDX 85 66 58 67 45 68 46 69 51 70 47 71 48 72 50 73 52 74 49 75
REMARK SMILES IDX 71 76 72 77 77 78 73 79 74 80 76 81 78 82 75 83 59 84 60 85
REMARK SMILES IDX 65 86 61 87 62 88 64 89 66 90 63 91
REMARK H PARENT 83 53 57 64
REMARK Flexibility Score: inf
ROOT
ATOM      1  C   UNL A   1      33.983  34.268  28.757  1.00  0.00     0.274 C 
ENDROOT
BRANCH   1   2
ATOM      2  O   UNL A   1      33.353  34.207  30.051  1.00  0.00    -0.459 OA
BRANCH   2   3
ATOM      3  C   UNL A   1      34.071  34.660  31.114  1.00  0.00     0.347 C 
ATOM      4  O   UNL A   1      34.201  35.843  31.412  1.00  0.00    -0.248 OA
BRANCH   3   5
ATOM      5  C   UNL A   1      34.631  33.484  31.956  1.00  0.00     0.279 C 
ATOM      6  C   UNL A   1      34.484  33.725  33.462  1.00  0.00     0.066 C 
BRANCH   5   7
ATOM      7  O   UNL A   1      35.852  32.803  31.791  1.00  0.00    -0.475 OA
BRANCH   7   8
ATOM      8  C   UNL A   1      37.005  33.358  31.348  1.00  0.00     0.162 A 
ATOM      9  C   UNL A   1      37.974  34.096  32.028  1.00  0.00     0.161 A 
ATOM     10  C   UNL A   1      39.031  34.683  31.316  1.00  0.00     0.058 A 
ATOM     11  C   UNL A   1      39.146  34.507  29.933  1.00  0.00    -0.020 A 
ATOM     12  C   UNL A   1      37.182  33.116  29.977  1.00  0.00     0.051 A 
ATOM     13  C   UNL A   1      38.243  33.678  29.271  1.00  0.00     0.012 A 
BRANCH   9  14
ATOM     14  O   UNL A   1      37.868  34.466  33.339  1.00  0.00    -0.493 OA
ATOM     15  C   UNL A   1      39.104  34.822  33.942  1.00  0.00     0.278 C 
ENDBRANCH   9  14
BRANCH  11  16
ATOM     16  C   UNL A   1      40.132  35.278  29.175  1.00  0.00     0.029 C 
ATOM     17  C   UNL A   1      41.434  34.960  29.100  1.00  0.00     0.081 C 
ATOM     18  S   UNL A   1      42.569  35.903  28.211  1.00  0.00    -0.054 SA
ATOM     19  C   UNL A   1      42.130  33.804  29.748  1.00  0.00     0.270 C 
ATOM     20  C   UNL A   1      43.929  34.868  28.655  1.00  0.00     0.152 C 
ATOM     21  N   UNL A   1      43.504  33.904  29.553  1.00  0.00    -0.261 N 
ATOM     22  O   UNL A   1      41.546  32.915  30.351  1.00  0.00    -0.268 OA
ATOM     23  S   UNL A   1      45.428  35.070  27.939  1.00  0.00    -0.051 S 
BRANCH  21  24
ATOM     24  C   UNL A   1      44.374  32.986  30.216  1.00  0.00     0.054 A 
ATOM     25  C   UNL A   1      45.188  33.458  31.262  1.00  0.00     0.027 A 
ATOM     26  C   UNL A   1      44.499  31.641  29.810  1.00  0.00    -0.027 A 
ATOM     27  C   UNL A   1      46.063  32.605  31.936  1.00  0.00     0.005 A 
ATOM     28  C   UNL A   1      45.370  30.789  30.518  1.00  0.00     0.009 A 
ATOM     29  C   UNL A   1      43.810  31.057  28.606  1.00  0.00     0.046 C 
ATOM     30  C   UNL A   1      46.152  31.260  31.578  1.00  0.00    -0.051 A 
ATOM     31  C   UNL A   1      47.104  30.351  32.299  1.00  0.00     0.044 C 
ENDBRANCH  21  24
ENDBRANCH  11  16
ENDBRANCH   7   8
ENDBRANCH   5   7
ENDBRANCH   3   5
ENDBRANCH   2   3
ENDBRANCH   1   2
BRANCH   1  32
ATOM     32  C   UNL A   1      33.581  33.048  27.931  1.00  0.00     0.275 C 
BRANCH  32  33
ATOM     33  O   UNL A   1      34.746  32.245  27.678  1.00  0.00    -0.458 OA
BRANCH  33  34
ATOM     34  C   UNL A   1      34.552  30.918  27.842  1.00  0.00     0.338 C 
ATOM     35  O   UNL A   1      33.557  30.257  27.587  1.00  0.00    -0.246 OA
BRANCH  34  36
ATOM     36  C   UNL A   1      35.823  30.308  28.231  1.00  0.00     0.060 A 
ATOM     37  C   UNL A   1      35.897  29.703  29.486  1.00  0.00     0.016 A 
ATOM     38  C   UNL A   1      36.944  30.411  27.414  1.00  0.00     0.016 A 
ATOM     39  C   UNL A   1      37.109  29.232  29.964  1.00  0.00     0.010 A 
ATOM     40  C   UNL A   1      38.161  29.917  27.883  1.00  0.00     0.010 A 
ATOM     41  C   UNL A   1      38.252  29.350  29.169  1.00  0.00    -0.014 A 
BRANCH  41  42
ATOM     42  C   UNL A   1      39.564  28.957  29.719  1.00  0.00     0.031 A 
ATOM     43  C   UNL A   1      40.344  27.874  29.039  1.00  0.00     0.074 A 
ATOM     44  C   UNL A   1      40.048  29.584  30.805  1.00  0.00     0.049 A 
ATOM     45  N   UNL A   1      41.430  27.264  29.434  1.00  0.00    -0.248 NA
ATOM     46  C   UNL A   1      39.826  27.408  27.741  1.00  0.00     0.031 C 
ATOM     47  C   UNL A   1      39.400  30.698  31.497  1.00  0.00     0.029 A 
ATOM     48  N   UNL A   1      41.195  29.364  31.520  1.00  0.00    -0.354 N 
ATOM     49  C   UNL A   1      41.703  26.316  28.457  1.00  0.00     0.074 A 
ATOM     50  C   UNL A   1      40.669  26.429  27.452  1.00  0.00     0.031 C 
ATOM     51  C   UNL A   1      40.157  31.062  32.544  1.00  0.00     0.029 A 
ATOM     52  C   UNL A   1      41.307  30.167  32.628  1.00  0.00     0.049 A 
ATOM     53  H   UNL A   1      41.872  28.696  31.265  1.00  0.00     0.167 HD
ATOM     54  C   UNL A   1      42.726  25.431  28.413  1.00  0.00     0.037 A 
ATOM     55  C   UNL A   1      42.214  30.149  33.620  1.00  0.00     0.037 A 
ATOM     56  C   UNL A   1      43.758  25.354  29.413  1.00  0.00     0.049 A 
ATOM     57  C   UNL A   1      43.312  29.124  33.575  1.00  0.00     0.074 A 
ATOM     58  C   UNL A   1      44.846  24.502  29.469  1.00  0.00     0.029 A 
ATOM     59  N   UNL A   1      43.830  26.172  30.531  1.00  0.00    -0.354 N 
ATOM     60  N   UNL A   1      43.547  28.205  32.669  1.00  0.00    -0.248 NA
ATOM     61  C   UNL A   1      44.264  29.125  34.694  1.00  0.00     0.031 C 
ATOM     62  C   UNL A   1      45.556  24.781  30.642  1.00  0.00     0.029 A 
ATOM     63  C   UNL A   1      44.935  25.835  31.294  1.00  0.00     0.049 A 
ATOM     64  H   UNL A   1      43.190  26.888  30.750  1.00  0.00     0.167 HD
ATOM     65  C   UNL A   1      44.680  27.528  33.098  1.00  0.00     0.074 A 
ATOM     66  C   UNL A   1      45.094  28.154  34.339  1.00  0.00     0.031 C 
ATOM     67  C   UNL A   1      45.321  26.481  32.523  1.00  0.00     0.037 A 
BRANCH  54  68
ATOM     68  C   UNL A   1      42.746  24.455  27.275  1.00  0.00     0.057 A 
ATOM     69  C   UNL A   1      42.057  23.237  27.326  1.00  0.00     0.134 A 
ATOM     70  C   UNL A   1      43.463  24.745  26.108  1.00  0.00     0.134 A 
ATOM     71  F   UNL A   1      41.367  22.890  28.423  1.00  0.00    -0.206 F 
ATOM     72  C   UNL A   1      42.098  22.332  26.264  1.00  0.00     0.040 A 
ATOM     73  C   UNL A   1      43.493  23.858  25.029  1.00  0.00     0.040 A 
ATOM     74  F   UNL A   1      44.146  25.894  25.994  1.00  0.00    -0.206 F 
ATOM     75  C   UNL A   1      42.815  22.644  25.109  1.00  0.00     0.006 A 
ENDBRANCH  54  68
BRANCH  55  76
ATOM     76  C   UNL A   1      42.095  31.103  34.749  1.00  0.00     0.057 A 
ATOM     77  C   UNL A   1      41.387  30.770  35.908  1.00  0.00     0.134 A 
ATOM     78  C   UNL A   1      42.698  32.367  34.701  1.00  0.00     0.134 A 
ATOM     79  F   UNL A   1      40.771  29.583  36.006  1.00  0.00    -0.206 F 
ATOM     80  C   UNL A   1      41.274  31.662  36.976  1.00  0.00     0.040 A 
ATOM     81  C   UNL A   1      42.615  33.258  35.771  1.00  0.00     0.040 A 
ATOM     82  F   UNL A   1      43.394  32.745  33.619  1.00  0.00    -0.206 F 
ATOM     83  C   UNL A   1      41.896  32.908  36.912  1.00  0.00     0.006 A 
ENDBRANCH  55  76
BRANCH  67  84
ATOM     84  C   UNL A   1      46.548  25.974  33.218  1.00  0.00     0.057 A 
ATOM     85  C   UNL A   1      47.823  26.453  32.899  1.00  0.00     0.134 A 
ATOM     86  C   UNL A   1      46.444  25.021  34.238  1.00  0.00     0.134 A 
ATOM     87  F   UNL A   1      47.987  27.356  31.921  1.00  0.00    -0.206 F 
ATOM     88  C   UNL A   1      48.960  25.987  33.562  1.00  0.00     0.040 A 
ATOM     89  C   UNL A   1      47.570  24.565  34.923  1.00  0.00     0.040 A 
ATOM     90  F   UNL A   1      45.248  24.529  34.594  1.00  0.00    -0.206 F 
ATOM     91  C   UNL A   1      48.833  25.045  34.582  1.00  0.00     0.006 A 
ENDBRANCH  67  84
ENDBRANCH  41  42
ENDBRANCH  34  36
ENDBRANCH  33  34
ENDBRANCH  32  33
ENDBRANCH   1  32
TORSDOF 16
ENDMDL
