MODEL 1
REMARK VINA RESULT:     -11.3      0.000      0.000
REMARK SMILES CC[C@@](C)(NC(=O)c1c(C)cc(C)[nH]c1=O)C(=O)OCCOC(=O)c1ccc(-c2c3nc(c(-c4c(F)cccc4F)c4ccc([nH]4)c(-c4c(F)cccc4F)c4nc(c(-c5c(F)cccc5F)c5ccc2[nH]5)C=C4)C=C3)cc1
REMARK SMILES IDX 20 1 19 2 17 3 18 4 3 5 4 6 2 7 1 8 5 9 6 10 7 12 8 13 9 14
REMARK SMILES IDX 15 15 10 16 11 17 14 18 16 19 12 20 13 22 21 23 22 24 23 25
REMARK SMILES IDX 24 26 25 27 26 28 78 29 27 30 77 31 28 32 29 33 30 34 71 35
REMARK SMILES IDX 31 36 76 37 70 38 72 39 32 40 75 41 69 42 68 43 33 45 59 46
REMARK SMILES IDX 42 47 58 48 43 49 46 50 57 51 73 52 44 53 45 54 56 56 74 57
REMARK SMILES IDX 47 58 34 59 35 60 40 61 36 62 37 63 39 64 41 65 38 66 60 67
REMARK SMILES IDX 61 68 66 69 62 70 63 71 65 72 67 73 64 74 48 75 49 76 54 77
REMARK SMILES IDX 50 78 51 79 53 80 55 81 52 82
REMARK H PARENT 5 11 14 21 72 44 46 55
REMARK Flexibility Score: inf
ROOT
ATOM      1  C   UNL A   1      31.580  29.328  24.491  1.00  0.00     0.274 C 
ENDROOT
BRANCH   1   2
ATOM      2  O   UNL A   1      31.824  28.119  23.732  1.00  0.00    -0.460 OA
BRANCH   2   3
ATOM      3  C   UNL A   1      30.734  27.518  23.204  1.00  0.00     0.331 C 
ATOM      4  O   UNL A   1      30.278  27.821  22.105  1.00  0.00    -0.249 OA
BRANCH   3   5
ATOM      5  C   UNL A   1      30.023  26.513  24.162  1.00  0.00     0.135 C 
ATOM      6  C   UNL A   1      28.520  26.687  23.876  1.00  0.00     0.047 C 
BRANCH   5   7
ATOM      7  C   UNL A   1      30.463  25.051  23.775  1.00  0.00     0.037 C 
ATOM      8  C   UNL A   1      31.574  24.839  22.751  1.00  0.00     0.007 C 
ENDBRANCH   5   7
BRANCH   5   9
ATOM      9  N   UNL A   1      30.221  26.532  25.657  1.00  0.00    -0.336 N 
ATOM     10  C   UNL A   1      31.271  26.333  26.502  1.00  0.00     0.258 C 
ATOM     11  H   UNL A   1      29.389  26.740  26.140  1.00  0.00     0.165 HD
ATOM     12  O   UNL A   1      31.385  27.101  27.460  1.00  0.00    -0.269 OA
BRANCH  10  13
ATOM     13  C   UNL A   1      32.037  25.077  26.475  1.00  0.00     0.107 A 
ATOM     14  C   UNL A   1      33.294  25.076  25.971  1.00  0.00    -0.031 A 
ATOM     15  C   UNL A   1      31.412  23.785  26.864  1.00  0.00     0.261 A 
ATOM     16  C   UNL A   1      34.028  26.263  25.403  1.00  0.00     0.045 C 
ATOM     17  C   UNL A   1      34.074  23.845  25.989  1.00  0.00     0.025 A 
ATOM     18  N   UNL A   1      32.226  22.672  26.818  1.00  0.00    -0.326 N 
ATOM     19  O   UNL A   1      30.250  23.702  27.251  1.00  0.00    -0.269 OA
ATOM     20  C   UNL A   1      33.544  22.694  26.428  1.00  0.00     0.015 A 
ATOM     21  H   UNL A   1      31.838  21.807  27.081  1.00  0.00     0.169 HD
ATOM     22  C   UNL A   1      34.347  21.444  26.608  1.00  0.00     0.064 C 
ENDBRANCH  10  13
ENDBRANCH   5   9
ENDBRANCH   3   5
ENDBRANCH   2   3
ENDBRANCH   1   2
BRANCH   1  23
ATOM     23  C   UNL A   1      32.852  29.767  25.197  1.00  0.00     0.275 C 
BRANCH  23  24
ATOM     24  O   UNL A   1      32.536  30.038  26.566  1.00  0.00    -0.458 OA
BRANCH  24  25
ATOM     25  C   UNL A   1      33.026  31.200  27.050  1.00  0.00     0.338 C 
ATOM     26  O   UNL A   1      32.548  32.315  26.990  1.00  0.00    -0.246 OA
BRANCH  25  27
ATOM     27  C   UNL A   1      34.324  30.916  27.658  1.00  0.00     0.060 A 
ATOM     28  C   UNL A   1      35.230  31.952  27.886  1.00  0.00     0.016 A 
ATOM     29  C   UNL A   1      34.627  29.599  27.993  1.00  0.00     0.016 A 
ATOM     30  C   UNL A   1      36.464  31.672  28.450  1.00  0.00     0.010 A 
ATOM     31  C   UNL A   1      35.830  29.328  28.630  1.00  0.00     0.010 A 
ATOM     32  C   UNL A   1      36.747  30.364  28.869  1.00  0.00    -0.014 A 
BRANCH  32  33
ATOM     33  C   UNL A   1      37.971  30.089  29.645  1.00  0.00     0.031 A 
ATOM     34  C   UNL A   1      39.046  29.225  29.068  1.00  0.00     0.074 A 
ATOM     35  C   UNL A   1      38.072  30.612  30.880  1.00  0.00     0.049 A 
ATOM     36  N   UNL A   1      40.112  28.744  29.648  1.00  0.00    -0.248 NA
ATOM     37  C   UNL A   1      38.899  28.845  27.654  1.00  0.00     0.031 C 
ATOM     38  C   UNL A   1      37.084  31.498  31.504  1.00  0.00     0.029 A 
ATOM     39  N   UNL A   1      39.048  30.485  31.832  1.00  0.00    -0.354 N 
ATOM     40  C   UNL A   1      40.755  27.986  28.680  1.00  0.00     0.074 A 
ATOM     41  C   UNL A   1      39.954  28.061  27.477  1.00  0.00     0.031 C 
ATOM     42  C   UNL A   1      37.523  31.864  32.716  1.00  0.00     0.029 A 
ATOM     43  C   UNL A   1      38.779  31.178  32.987  1.00  0.00     0.049 A 
ATOM     44  H   UNL A   1      39.863  29.949  31.700  1.00  0.00     0.167 HD
ATOM     45  C   UNL A   1      41.909  27.291  28.800  1.00  0.00     0.037 A 
ATOM     46  C   UNL A   1      39.458  31.223  34.146  1.00  0.00     0.037 A 
ATOM     47  C   UNL A   1      42.679  27.235  30.015  1.00  0.00     0.049 A 
ATOM     48  C   UNL A   1      40.702  30.396  34.270  1.00  0.00     0.074 A 
ATOM     49  C   UNL A   1      43.842  26.532  30.270  1.00  0.00     0.029 A 
ATOM     50  N   UNL A   1      42.358  27.920  31.180  1.00  0.00    -0.354 N 
ATOM     51  N   UNL A   1      41.275  29.634  33.368  1.00  0.00    -0.248 NA
ATOM     52  C   UNL A   1      41.380  30.410  35.571  1.00  0.00     0.031 C 
ATOM     53  C   UNL A   1      44.207  26.768  31.601  1.00  0.00     0.029 A 
ATOM     54  C   UNL A   1      43.294  27.648  32.162  1.00  0.00     0.049 A 
ATOM     55  H   UNL A   1      41.578  28.511  31.290  1.00  0.00     0.167 HD
ATOM     56  C   UNL A   1      42.380  29.075  33.990  1.00  0.00     0.074 A 
ATOM     57  C   UNL A   1      42.410  29.606  35.340  1.00  0.00     0.031 C 
ATOM     58  C   UNL A   1      43.284  28.194  33.496  1.00  0.00     0.037 A 
BRANCH  45  59
ATOM     59  C   UNL A   1      42.378  26.520  27.603  1.00  0.00     0.057 A 
ATOM     60  C   UNL A   1      43.218  27.091  26.640  1.00  0.00     0.134 A 
ATOM     61  C   UNL A   1      41.996  25.186  27.418  1.00  0.00     0.134 A 
ATOM     62  F   UNL A   1      43.605  28.371  26.747  1.00  0.00    -0.206 F 
ATOM     63  C   UNL A   1      43.649  26.368  25.525  1.00  0.00     0.040 A 
ATOM     64  C   UNL A   1      42.436  24.445  26.319  1.00  0.00     0.040 A 
ATOM     65  F   UNL A   1      41.191  24.578  28.303  1.00  0.00    -0.206 F 
ATOM     66  C   UNL A   1      43.261  25.038  25.366  1.00  0.00     0.006 A 
ENDBRANCH  45  59
BRANCH  46  67
ATOM     67  C   UNL A   1      38.958  32.064  35.261  1.00  0.00     0.057 A 
ATOM     68  C   UNL A   1      38.208  31.506  36.302  1.00  0.00     0.134 A 
ATOM     69  C   UNL A   1      39.260  33.430  35.346  1.00  0.00     0.134 A 
ATOM     70  F   UNL A   1      37.874  30.208  36.271  1.00  0.00    -0.206 F 
ATOM     71  C   UNL A   1      37.778  32.273  37.387  1.00  0.00     0.040 A 
ATOM     72  C   UNL A   1      38.858  34.203  36.436  1.00  0.00     0.040 A 
ATOM     73  F   UNL A   1      39.983  34.024  34.385  1.00  0.00    -0.206 F 
ATOM     74  C   UNL A   1      38.112  33.624  37.460  1.00  0.00     0.006 A 
ENDBRANCH  46  67
BRANCH  58  75
ATOM     75  C   UNL A   1      44.375  27.760  34.423  1.00  0.00     0.057 A 
ATOM     76  C   UNL A   1      44.249  26.610  35.210  1.00  0.00     0.134 A 
ATOM     77  C   UNL A   1      45.582  28.466  34.485  1.00  0.00     0.134 A 
ATOM     78  F   UNL A   1      43.109  25.901  35.202  1.00  0.00    -0.206 F 
ATOM     79  C   UNL A   1      45.286  26.181  36.038  1.00  0.00     0.040 A 
ATOM     80  C   UNL A   1      46.632  28.036  35.293  1.00  0.00     0.040 A 
ATOM     81  F   UNL A   1      45.762  29.573  33.748  1.00  0.00    -0.206 F 
ATOM     82  C   UNL A   1      46.485  26.891  36.074  1.00  0.00     0.006 A 
ENDBRANCH  58  75
ENDBRANCH  32  33
ENDBRANCH  25  27
ENDBRANCH  24  25
ENDBRANCH  23  24
ENDBRANCH   1  23
TORSDOF 14
ENDMDL
MODEL 2
REMARK VINA RESULT:     -11.3      4.079      8.742
REMARK SMILES CC[C@@](C)(NC(=O)c1c(C)cc(C)[nH]c1=O)C(=O)OCCOC(=O)c1ccc(-c2c3nc(c(-c4c(F)cccc4F)c4ccc([nH]4)c(-c4c(F)cccc4F)c4nc(c(-c5c(F)cccc5F)c5ccc2[nH]5)C=C4)C=C3)cc1
REMARK SMILES IDX 20 1 19 2 17 3 18 4 3 5 4 6 2 7 1 8 5 9 6 10 7 12 8 13 9 14
REMARK SMILES IDX 15 15 10 16 11 17 14 18 16 19 12 20 13 22 21 23 22 24 23 25
REMARK SMILES IDX 24 26 25 27 26 28 78 29 27 30 77 31 28 32 29 33 30 34 71 35
REMARK SMILES IDX 31 36 76 37 70 38 72 39 32 40 75 41 69 42 68 43 33 45 59 46
REMARK SMILES IDX 42 47 58 48 43 49 46 50 57 51 73 52 44 53 45 54 56 56 74 57
REMARK SMILES IDX 47 58 34 59 35 60 40 61 36 62 37 63 39 64 41 65 38 66 60 67
REMARK SMILES IDX 61 68 66 69 62 70 63 71 65 72 67 73 64 74 48 75 49 76 54 77
REMARK SMILES IDX 50 78 51 79 53 80 55 81 52 82
REMARK H PARENT 5 11 14 21 72 44 46 55
REMARK Flexibility Score: inf
ROOT
ATOM      1  C   UNL A   1      35.255  21.549  24.694  1.00  0.00     0.274 C 
ENDROOT
BRANCH   1   2
ATOM      2  O   UNL A   1      35.290  22.995  24.623  1.00  0.00    -0.460 OA
BRANCH   2   3
ATOM      3  C   UNL A   1      34.789  23.548  23.495  1.00  0.00     0.331 C 
ATOM      4  O   UNL A   1      35.220  23.278  22.376  1.00  0.00    -0.249 OA
BRANCH   3   5
ATOM      5  C   UNL A   1      33.723  24.660  23.740  1.00  0.00     0.135 C 
ATOM      6  C   UNL A   1      33.168  24.993  22.342  1.00  0.00     0.047 C 
BRANCH   5   7
ATOM      7  C   UNL A   1      32.570  24.065  24.632  1.00  0.00     0.037 C 
ATOM      8  C   UNL A   1      31.767  22.867  24.134  1.00  0.00     0.007 C 
ENDBRANCH   5   7
BRANCH   5   9
ATOM      9  N   UNL A   1      34.044  25.958  24.438  1.00  0.00    -0.336 N 
ATOM     10  C   UNL A   1      33.320  26.993  24.947  1.00  0.00     0.258 C 
ATOM     11  H   UNL A   1      35.013  26.089  24.554  1.00  0.00     0.165 HD
ATOM     12  O   UNL A   1      33.672  27.453  26.036  1.00  0.00    -0.269 OA
BRANCH  10  13
ATOM     13  C   UNL A   1      32.379  27.747  24.104  1.00  0.00     0.107 A 
ATOM     14  C   UNL A   1      31.047  27.550  24.255  1.00  0.00    -0.031 A 
ATOM     15  C   UNL A   1      32.862  28.617  23.000  1.00  0.00     0.261 A 
ATOM     16  C   UNL A   1      30.390  26.601  25.224  1.00  0.00     0.045 C 
ATOM     17  C   UNL A   1      30.111  28.331  23.457  1.00  0.00     0.025 A 
ATOM     18  N   UNL A   1      31.894  29.291  22.283  1.00  0.00    -0.326 N 
ATOM     19  O   UNL A   1      34.054  28.776  22.755  1.00  0.00    -0.269 OA
ATOM     20  C   UNL A   1      30.544  29.189  22.522  1.00  0.00     0.015 A 
ATOM     21  H   UNL A   1      32.189  29.882  21.554  1.00  0.00     0.169 HD
ATOM     22  C   UNL A   1      29.632  30.121  21.786  1.00  0.00     0.064 C 
ENDBRANCH  10  13
ENDBRANCH   5   9
ENDBRANCH   3   5
ENDBRANCH   2   3
ENDBRANCH   1   2
BRANCH   1  23
ATOM     23  C   UNL A   1      36.668  20.998  24.791  1.00  0.00     0.275 C 
BRANCH  23  24
ATOM     24  O   UNL A   1      37.337  21.663  25.868  1.00  0.00    -0.458 OA
BRANCH  24  25
ATOM     25  C   UNL A   1      38.659  21.402  25.971  1.00  0.00     0.338 C 
ATOM     26  O   UNL A   1      39.255  20.373  25.724  1.00  0.00    -0.246 OA
BRANCH  25  27
ATOM     27  C   UNL A   1      39.308  22.599  26.500  1.00  0.00     0.060 A 
ATOM     28  C   UNL A   1      40.402  22.478  27.357  1.00  0.00     0.016 A 
ATOM     29  C   UNL A   1      38.807  23.844  26.132  1.00  0.00     0.016 A 
ATOM     30  C   UNL A   1      41.003  23.619  27.865  1.00  0.00     0.010 A 
ATOM     31  C   UNL A   1      39.456  24.988  26.577  1.00  0.00     0.010 A 
ATOM     32  C   UNL A   1      40.562  24.878  27.437  1.00  0.00    -0.014 A 
BRANCH  32  33
ATOM     33  C   UNL A   1      41.314  26.089  27.814  1.00  0.00     0.031 A 
ATOM     34  C   UNL A   1      40.668  27.140  28.658  1.00  0.00     0.074 A 
ATOM     35  C   UNL A   1      42.571  26.226  27.356  1.00  0.00     0.049 A 
ATOM     36  N   UNL A   1      41.104  28.332  28.962  1.00  0.00    -0.248 NA
ATOM     37  C   UNL A   1      39.354  26.809  29.233  1.00  0.00     0.031 C 
ATOM     38  C   UNL A   1      43.290  25.228  26.557  1.00  0.00     0.029 A 
ATOM     39  N   UNL A   1      43.472  27.247  27.497  1.00  0.00    -0.354 N 
ATOM     40  C   UNL A   1      40.112  28.906  29.743  1.00  0.00     0.074 A 
ATOM     41  C   UNL A   1      39.045  27.936  29.860  1.00  0.00     0.031 C 
ATOM     42  C   UNL A   1      44.532  25.670  26.312  1.00  0.00     0.029 A 
ATOM     43  C   UNL A   1      44.669  27.011  26.866  1.00  0.00     0.049 A 
ATOM     44  H   UNL A   1      43.280  28.070  28.002  1.00  0.00     0.167 HD
ATOM     45  C   UNL A   1      40.104  30.138  30.304  1.00  0.00     0.037 A 
ATOM     46  C   UNL A   1      45.743  27.806  26.723  1.00  0.00     0.037 A 
ATOM     47  C   UNL A   1      41.183  31.081  30.163  1.00  0.00     0.049 A 
ATOM     48  C   UNL A   1      45.683  29.187  27.305  1.00  0.00     0.074 A 
ATOM     49  C   UNL A   1      41.272  32.372  30.650  1.00  0.00     0.029 A 
ATOM     50  N   UNL A   1      42.368  30.822  29.485  1.00  0.00    -0.354 N 
ATOM     51  N   UNL A   1      44.717  29.746  27.995  1.00  0.00    -0.248 NA
ATOM     52  C   UNL A   1      46.841  30.056  27.070  1.00  0.00     0.031 C 
ATOM     53  C   UNL A   1      42.500  32.905  30.240  1.00  0.00     0.029 A 
ATOM     54  C   UNL A   1      43.191  31.934  29.530  1.00  0.00     0.049 A 
ATOM     55  H   UNL A   1      42.588  29.974  29.037  1.00  0.00     0.167 HD
ATOM     56  C   UNL A   1      45.147  31.033  28.277  1.00  0.00     0.074 A 
ATOM     57  C   UNL A   1      46.474  31.162  27.703  1.00  0.00     0.031 C 
ATOM     58  C   UNL A   1      44.502  32.023  28.941  1.00  0.00     0.037 A 
BRANCH  45  59
ATOM     59  C   UNL A   1      38.887  30.534  31.083  1.00  0.00     0.057 A 
ATOM     60  C   UNL A   1      37.798  31.172  30.476  1.00  0.00     0.134 A 
ATOM     61  C   UNL A   1      38.795  30.264  32.454  1.00  0.00     0.134 A 
ATOM     62  F   UNL A   1      37.831  31.478  29.170  1.00  0.00    -0.206 F 
ATOM     63  C   UNL A   1      36.667  31.542  31.207  1.00  0.00     0.040 A 
ATOM     64  C   UNL A   1      37.662  30.610  33.193  1.00  0.00     0.040 A 
ATOM     65  F   UNL A   1      39.803  29.657  33.098  1.00  0.00    -0.206 F 
ATOM     66  C   UNL A   1      36.596  31.257  32.570  1.00  0.00     0.006 A 
ENDBRANCH  45  59
BRANCH  46  67
ATOM     67  C   UNL A   1      46.935  27.312  25.992  1.00  0.00     0.057 A 
ATOM     68  C   UNL A   1      47.953  26.621  26.658  1.00  0.00     0.134 A 
ATOM     69  C   UNL A   1      47.064  27.468  24.605  1.00  0.00     0.134 A 
ATOM     70  F   UNL A   1      47.894  26.452  27.987  1.00  0.00    -0.206 F 
ATOM     71  C   UNL A   1      49.053  26.101  25.974  1.00  0.00     0.040 A 
ATOM     72  C   UNL A   1      48.146  26.932  23.905  1.00  0.00     0.040 A 
ATOM     73  F   UNL A   1      46.119  28.113  23.906  1.00  0.00    -0.206 F 
ATOM     74  C   UNL A   1      49.146  26.248  24.591  1.00  0.00     0.006 A 
ENDBRANCH  46  67
BRANCH  58  75
ATOM     75  C   UNL A   1      45.230  33.324  29.079  1.00  0.00     0.057 A 
ATOM     76  C   UNL A   1      46.108  33.559  30.142  1.00  0.00     0.134 A 
ATOM     77  C   UNL A   1      45.093  34.324  28.109  1.00  0.00     0.134 A 
ATOM     78  F   UNL A   1      46.268  32.642  31.109  1.00  0.00    -0.206 F 
ATOM     79  C   UNL A   1      46.821  34.753  30.242  1.00  0.00     0.040 A 
ATOM     80  C   UNL A   1      45.816  35.512  28.187  1.00  0.00     0.040 A 
ATOM     81  F   UNL A   1      44.270  34.151  27.063  1.00  0.00    -0.206 F 
ATOM     82  C   UNL A   1      46.682  35.730  29.258  1.00  0.00     0.006 A 
ENDBRANCH  58  75
ENDBRANCH  32  33
ENDBRANCH  25  27
ENDBRANCH  24  25
ENDBRANCH  23  24
ENDBRANCH   1  23
TORSDOF 14
ENDMDL
MODEL 3
REMARK VINA RESULT:     -11.2      1.195      1.980
REMARK SMILES CC[C@@](C)(NC(=O)c1c(C)cc(C)[nH]c1=O)C(=O)OCCOC(=O)c1ccc(-c2c3nc(c(-c4c(F)cccc4F)c4ccc([nH]4)c(-c4c(F)cccc4F)c4nc(c(-c5c(F)cccc5F)c5ccc2[nH]5)C=C4)C=C3)cc1
REMARK SMILES IDX 20 1 19 2 17 3 18 4 3 5 4 6 2 7 1 8 5 9 6 10 7 12 8 13 9 14
REMARK SMILES IDX 15 15 10 16 11 17 14 18 16 19 12 20 13 22 21 23 22 24 23 25
REMARK SMILES IDX 24 26 25 27 26 28 78 29 27 30 77 31 28 32 29 33 30 34 71 35
REMARK SMILES IDX 31 36 76 37 70 38 72 39 32 40 75 41 69 42 68 43 33 45 59 46
REMARK SMILES IDX 42 47 58 48 43 49 46 50 57 51 73 52 44 53 45 54 56 56 74 57
REMARK SMILES IDX 47 58 34 59 35 60 40 61 36 62 37 63 39 64 41 65 38 66 60 67
REMARK SMILES IDX 61 68 66 69 62 70 63 71 65 72 67 73 64 74 48 75 49 76 54 77
REMARK SMILES IDX 50 78 51 79 53 80 55 81 52 82
REMARK H PARENT 5 11 14 21 72 44 46 55
REMARK Flexibility Score: inf
ROOT
ATOM      1  C   UNL A   1      32.366  28.732  25.128  1.00  0.00     0.274 C 
ENDROOT
BRANCH   1   2
ATOM      2  O   UNL A   1      31.311  27.741  25.099  1.00  0.00    -0.460 OA
BRANCH   2   3
ATOM      3  C   UNL A   1      31.339  26.813  26.083  1.00  0.00     0.331 C 
ATOM      4  O   UNL A   1      31.067  27.077  27.251  1.00  0.00    -0.249 OA
BRANCH   3   5
ATOM      5  C   UNL A   1      31.882  25.419  25.639  1.00  0.00     0.135 C 
ATOM      6  C   UNL A   1      30.965  24.396  26.335  1.00  0.00     0.047 C 
BRANCH   5   7
ATOM      7  C   UNL A   1      31.720  25.289  24.078  1.00  0.00     0.037 C 
ATOM      8  C   UNL A   1      30.454  24.669  23.495  1.00  0.00     0.007 C 
ENDBRANCH   5   7
BRANCH   5   9
ATOM      9  N   UNL A   1      33.311  24.993  25.859  1.00  0.00    -0.336 N 
ATOM     10  C   UNL A   1      34.134  24.041  25.338  1.00  0.00     0.258 C 
ATOM     11  H   UNL A   1      33.760  25.536  26.548  1.00  0.00     0.165 HD
ATOM     12  O   UNL A   1      35.297  24.367  25.089  1.00  0.00    -0.269 OA
BRANCH  10  13
ATOM     13  C   UNL A   1      33.765  22.617  25.376  1.00  0.00     0.107 A 
ATOM     14  C   UNL A   1      33.442  21.983  24.224  1.00  0.00    -0.031 A 
ATOM     15  C   UNL A   1      33.608  21.897  26.667  1.00  0.00     0.261 A 
ATOM     16  C   UNL A   1      33.408  22.596  22.848  1.00  0.00     0.045 C 
ATOM     17  C   UNL A   1      33.124  20.561  24.251  1.00  0.00     0.025 A 
ATOM     18  N   UNL A   1      33.275  20.561  26.587  1.00  0.00    -0.326 N 
ATOM     19  O   UNL A   1      33.804  22.435  27.753  1.00  0.00    -0.269 OA
ATOM     20  C   UNL A   1      33.074  19.884  25.408  1.00  0.00     0.015 A 
ATOM     21  H   UNL A   1      33.177  20.059  27.428  1.00  0.00     0.169 HD
ATOM     22  C   UNL A   1      32.903  18.398  25.475  1.00  0.00     0.064 C 
ENDBRANCH  10  13
ENDBRANCH   5   9
ENDBRANCH   3   5
ENDBRANCH   2   3
ENDBRANCH   1   2
BRANCH   1  23
ATOM     23  C   UNL A   1      31.811  30.071  25.584  1.00  0.00     0.275 C 
BRANCH  23  24
ATOM     24  O   UNL A   1      32.231  30.295  26.934  1.00  0.00    -0.458 OA
BRANCH  24  25
ATOM     25  C   UNL A   1      32.851  31.475  27.154  1.00  0.00     0.338 C 
ATOM     26  O   UNL A   1      32.465  32.599  26.901  1.00  0.00    -0.246 OA
BRANCH  25  27
ATOM     27  C   UNL A   1      34.159  31.188  27.738  1.00  0.00     0.060 A 
ATOM     28  C   UNL A   1      35.049  32.229  28.001  1.00  0.00     0.016 A 
ATOM     29  C   UNL A   1      34.487  29.864  28.013  1.00  0.00     0.016 A 
ATOM     30  C   UNL A   1      36.293  31.946  28.541  1.00  0.00     0.010 A 
ATOM     31  C   UNL A   1      35.701  29.587  28.626  1.00  0.00     0.010 A 
ATOM     32  C   UNL A   1      36.603  30.627  28.902  1.00  0.00    -0.014 A 
BRANCH  32  33
ATOM     33  C   UNL A   1      37.839  30.341  29.654  1.00  0.00     0.031 A 
ATOM     34  C   UNL A   1      38.897  29.474  29.053  1.00  0.00     0.074 A 
ATOM     35  C   UNL A   1      37.965  30.856  30.890  1.00  0.00     0.049 A 
ATOM     36  N   UNL A   1      39.971  28.983  29.611  1.00  0.00    -0.248 NA
ATOM     37  C   UNL A   1      38.724  29.103  27.639  1.00  0.00     0.031 C 
ATOM     38  C   UNL A   1      36.993  31.744  31.536  1.00  0.00     0.029 A 
ATOM     39  N   UNL A   1      38.956  30.717  31.823  1.00  0.00    -0.354 N 
ATOM     40  C   UNL A   1      40.592  28.227  28.627  1.00  0.00     0.074 A 
ATOM     41  C   UNL A   1      39.770  28.314  27.439  1.00  0.00     0.031 C 
ATOM     42  C   UNL A   1      37.456  32.101  32.743  1.00  0.00     0.029 A 
ATOM     43  C   UNL A   1      38.712  31.405  32.987  1.00  0.00     0.049 A 
ATOM     44  H   UNL A   1      39.766  30.177  31.674  1.00  0.00     0.167 HD
ATOM     45  C   UNL A   1      41.745  27.525  28.723  1.00  0.00     0.037 A 
ATOM     46  C   UNL A   1      39.412  31.441  34.134  1.00  0.00     0.037 A 
ATOM     47  C   UNL A   1      42.535  27.456  29.924  1.00  0.00     0.049 A 
ATOM     48  C   UNL A   1      40.653  30.605  34.231  1.00  0.00     0.074 A 
ATOM     49  C   UNL A   1      43.698  26.745  30.154  1.00  0.00     0.029 A 
ATOM     50  N   UNL A   1      42.239  28.137  31.098  1.00  0.00    -0.354 N 
ATOM     51  N   UNL A   1      41.206  29.845  33.315  1.00  0.00    -0.248 NA
ATOM     52  C   UNL A   1      41.354  30.607  35.520  1.00  0.00     0.031 C 
ATOM     53  C   UNL A   1      44.089  26.972  31.479  1.00  0.00     0.029 A 
ATOM     54  C   UNL A   1      43.191  27.854  32.062  1.00  0.00     0.049 A 
ATOM     55  H   UNL A   1      41.465  28.732  31.225  1.00  0.00     0.167 HD
ATOM     56  C   UNL A   1      42.318  29.276  33.913  1.00  0.00     0.074 A 
ATOM     57  C   UNL A   1      42.376  29.799  35.266  1.00  0.00     0.031 C 
ATOM     58  C   UNL A   1      43.208  28.392  33.398  1.00  0.00     0.037 A 
BRANCH  45  59
ATOM     59  C   UNL A   1      42.188  26.758  27.514  1.00  0.00     0.057 A 
ATOM     60  C   UNL A   1      41.845  25.413  27.326  1.00  0.00     0.134 A 
ATOM     61  C   UNL A   1      42.957  27.373  26.519  1.00  0.00     0.134 A 
ATOM     62  F   UNL A   1      41.127  24.759  28.252  1.00  0.00    -0.206 F 
ATOM     63  C   UNL A   1      42.263  24.703  26.199  1.00  0.00     0.040 A 
ATOM     64  C   UNL A   1      43.365  26.680  25.377  1.00  0.00     0.040 A 
ATOM     65  F   UNL A   1      43.322  28.659  26.637  1.00  0.00    -0.206 F 
ATOM     66  C   UNL A   1      43.022  25.339  25.218  1.00  0.00     0.006 A 
ENDBRANCH  45  59
BRANCH  46  67
ATOM     67  C   UNL A   1      38.937  32.278  35.263  1.00  0.00     0.057 A 
ATOM     68  C   UNL A   1      38.171  31.725  36.294  1.00  0.00     0.134 A 
ATOM     69  C   UNL A   1      39.280  33.632  35.369  1.00  0.00     0.134 A 
ATOM     70  F   UNL A   1      37.799  30.439  36.243  1.00  0.00    -0.206 F 
ATOM     71  C   UNL A   1      37.764  32.487  37.392  1.00  0.00     0.040 A 
ATOM     72  C   UNL A   1      38.901  34.399  36.472  1.00  0.00     0.040 A 
ATOM     73  F   UNL A   1      40.020  34.220  34.418  1.00  0.00    -0.206 F 
ATOM     74  C   UNL A   1      38.138  33.827  37.486  1.00  0.00     0.006 A 
ENDBRANCH  46  67
BRANCH  58  75
ATOM     75  C   UNL A   1      44.313  27.947  34.304  1.00  0.00     0.057 A 
ATOM     76  C   UNL A   1      44.196  26.791  35.083  1.00  0.00     0.134 A 
ATOM     77  C   UNL A   1      45.523  28.648  34.351  1.00  0.00     0.134 A 
ATOM     78  F   UNL A   1      43.053  26.087  35.089  1.00  0.00    -0.206 F 
ATOM     79  C   UNL A   1      45.244  26.351  35.890  1.00  0.00     0.040 A 
ATOM     80  C   UNL A   1      46.586  28.207  35.138  1.00  0.00     0.040 A 
ATOM     81  F   UNL A   1      45.695  29.761  33.620  1.00  0.00    -0.206 F 
ATOM     82  C   UNL A   1      46.447  27.057  35.911  1.00  0.00     0.006 A 
ENDBRANCH  58  75
ENDBRANCH  32  33
ENDBRANCH  25  27
ENDBRANCH  24  25
ENDBRANCH  23  24
ENDBRANCH   1  23
TORSDOF 14
ENDMDL
