MODEL 1
REMARK VINA RESULT:     -11.8      0.000      0.000
REMARK SMILES O=C(OCCOC(=O)[C@H]1CCCC[C@H]1C(=O)Nc1ccc(Cl)cc1F)c1ccc(-c2c3nc(c(-c4c(F)cccc4F)c4ccc([nH]4)c(-c4c(F)cccc4F)c4nc(c(-c5c(F)cccc5F)c5ccc2[nH]5)C=C4)C=C3)cc1
REMARK SMILES IDX 4 1 3 2 2 3 1 4 26 5 27 6 79 7 28 8 78 9 29 10 30 11 31 12
REMARK SMILES IDX 72 13 32 14 77 15 71 16 73 17 33 18 76 19 70 20 69 21 34 23
REMARK SMILES IDX 60 24 43 25 59 26 44 27 47 28 58 29 74 30 45 31 46 32 57 34
REMARK SMILES IDX 75 35 48 36 35 37 36 38 41 39 37 40 38 41 40 42 42 43 39 44
REMARK SMILES IDX 61 45 62 46 67 47 63 48 64 49 66 50 68 51 65 52 49 53 50 54
REMARK SMILES IDX 55 55 51 56 52 57 54 58 56 59 53 60 5 61 6 62 7 63 8 64 9 65
REMARK SMILES IDX 10 66 14 67 11 68 13 69 12 70 15 71 16 72 17 73 18 75 19 76
REMARK SMILES IDX 24 77 20 78 23 79 25 80 21 81 22 82
REMARK H PARENT 73 22 47 33 17 74
REMARK Flexibility Score: inf
ROOT
ATOM      1  C   UNL A   1      31.432  31.990  26.879  1.00  0.00     0.275 C 
ENDROOT
BRANCH   1   2
ATOM      2  O   UNL A   1      32.479  32.982  26.842  1.00  0.00    -0.458 OA
BRANCH   2   3
ATOM      3  C   UNL A   1      33.001  33.652  27.903  1.00  0.00     0.338 C 
ATOM      4  O   UNL A   1      32.518  34.711  28.282  1.00  0.00    -0.246 OA
BRANCH   3   5
ATOM      5  C   UNL A   1      34.276  33.182  28.487  1.00  0.00     0.060 A 
ATOM      6  C   UNL A   1      35.482  33.856  28.295  1.00  0.00     0.016 A 
ATOM      7  C   UNL A   1      34.246  32.018  29.269  1.00  0.00     0.016 A 
ATOM      8  C   UNL A   1      36.615  33.452  28.991  1.00  0.00     0.010 A 
ATOM      9  C   UNL A   1      35.381  31.600  29.960  1.00  0.00     0.010 A 
ATOM     10  C   UNL A   1      36.569  32.324  29.823  1.00  0.00    -0.014 A 
BRANCH  10  11
ATOM     11  C   UNL A   1      37.860  31.769  30.268  1.00  0.00     0.031 A 
ATOM     12  C   UNL A   1      38.279  32.128  31.662  1.00  0.00     0.074 A 
ATOM     13  C   UNL A   1      38.524  30.865  29.529  1.00  0.00     0.049 A 
ATOM     14  N   UNL A   1      39.178  31.572  32.424  1.00  0.00    -0.248 NA
ATOM     15  C   UNL A   1      37.544  33.238  32.300  1.00  0.00     0.031 C 
ATOM     16  C   UNL A   1      38.164  30.443  28.175  1.00  0.00     0.029 A 
ATOM     17  N   UNL A   1      39.629  30.112  29.829  1.00  0.00    -0.354 N 
ATOM     18  C   UNL A   1      39.063  32.214  33.649  1.00  0.00     0.074 A 
ATOM     19  C   UNL A   1      38.065  33.247  33.514  1.00  0.00     0.031 C 
ATOM     20  C   UNL A   1      39.032  29.502  27.761  1.00  0.00     0.029 A 
ATOM     21  C   UNL A   1      39.994  29.242  28.828  1.00  0.00     0.049 A 
ATOM     22  H   UNL A   1      40.116  30.186  30.681  1.00  0.00     0.167 HD
ATOM     23  C   UNL A   1      39.714  31.939  34.800  1.00  0.00     0.037 A 
ATOM     24  C   UNL A   1      40.983  28.326  28.806  1.00  0.00     0.037 A 
ATOM     25  C   UNL A   1      40.761  30.963  34.888  1.00  0.00     0.049 A 
ATOM     26  C   UNL A   1      41.784  28.127  30.071  1.00  0.00     0.074 A 
ATOM     27  C   UNL A   1      41.569  30.651  35.962  1.00  0.00     0.029 A 
ATOM     28  N   UNL A   1      41.156  30.155  33.828  1.00  0.00    -0.354 N 
ATOM     29  N   UNL A   1      41.636  28.702  31.244  1.00  0.00    -0.248 NA
ATOM     30  C   UNL A   1      42.871  27.140  30.021  1.00  0.00     0.031 C 
ATOM     31  C   UNL A   1      42.487  29.682  35.537  1.00  0.00     0.029 A 
ATOM     32  C   UNL A   1      42.214  29.357  34.215  1.00  0.00     0.049 A 
ATOM     33  H   UNL A   1      40.743  30.153  32.935  1.00  0.00     0.167 HD
ATOM     34  C   UNL A   1      42.592  28.130  32.075  1.00  0.00     0.074 A 
ATOM     35  C   UNL A   1      43.295  27.144  31.276  1.00  0.00     0.031 C 
ATOM     36  C   UNL A   1      42.874  28.389  33.376  1.00  0.00     0.037 A 
BRANCH  23  37
ATOM     37  C   UNL A   1      39.318  32.740  36.000  1.00  0.00     0.057 A 
ATOM     38  C   UNL A   1      39.940  33.962  36.300  1.00  0.00     0.134 A 
ATOM     39  C   UNL A   1      38.366  32.259  36.904  1.00  0.00     0.134 A 
ATOM     40  F   UNL A   1      40.889  34.458  35.491  1.00  0.00    -0.206 F 
ATOM     41  C   UNL A   1      39.648  34.661  37.472  1.00  0.00     0.040 A 
ATOM     42  C   UNL A   1      38.051  32.960  38.070  1.00  0.00     0.040 A 
ATOM     43  F   UNL A   1      37.749  31.089  36.685  1.00  0.00    -0.206 F 
ATOM     44  C   UNL A   1      38.699  34.160  38.360  1.00  0.00     0.006 A 
ENDBRANCH  23  37
BRANCH  24  45
ATOM     45  C   UNL A   1      41.269  27.528  27.583  1.00  0.00     0.057 A 
ATOM     46  C   UNL A   1      40.747  26.240  27.398  1.00  0.00     0.134 A 
ATOM     47  C   UNL A   1      42.127  28.013  26.586  1.00  0.00     0.134 A 
ATOM     48  F   UNL A   1      39.933  25.703  28.319  1.00  0.00    -0.206 F 
ATOM     49  C   UNL A   1      41.095  25.455  26.294  1.00  0.00     0.040 A 
ATOM     50  C   UNL A   1      42.462  27.251  25.464  1.00  0.00     0.040 A 
ATOM     51  F   UNL A   1      42.663  29.238  26.693  1.00  0.00    -0.206 F 
ATOM     52  C   UNL A   1      41.954  25.961  25.322  1.00  0.00     0.006 A 
ENDBRANCH  24  45
BRANCH  36  53
ATOM     53  C   UNL A   1      43.975  27.588  34.001  1.00  0.00     0.057 A 
ATOM     54  C   UNL A   1      43.730  26.349  34.604  1.00  0.00     0.134 A 
ATOM     55  C   UNL A   1      45.301  28.037  33.944  1.00  0.00     0.134 A 
ATOM     56  F   UNL A   1      42.480  25.873  34.696  1.00  0.00    -0.206 F 
ATOM     57  C   UNL A   1      44.765  25.593  35.151  1.00  0.00     0.040 A 
ATOM     58  C   UNL A   1      46.347  27.275  34.462  1.00  0.00     0.040 A 
ATOM     59  F   UNL A   1      45.599  29.211  33.366  1.00  0.00    -0.206 F 
ATOM     60  C   UNL A   1      46.079  26.053  35.072  1.00  0.00     0.006 A 
ENDBRANCH  36  53
ENDBRANCH  10  11
ENDBRANCH   3   5
ENDBRANCH   2   3
ENDBRANCH   1   2
BRANCH   1  61
ATOM     61  C   UNL A   1      31.741  30.629  26.247  1.00  0.00     0.274 C 
BRANCH  61  62
ATOM     62  O   UNL A   1      31.974  29.614  27.226  1.00  0.00    -0.462 OA
BRANCH  62  63
ATOM     63  C   UNL A   1      31.638  28.358  26.824  1.00  0.00     0.309 C 
ATOM     64  O   UNL A   1      31.046  27.554  27.521  1.00  0.00    -0.252 OA
BRANCH  63  65
ATOM     65  C   UNL A   1      32.217  28.067  25.448  1.00  0.00     0.111 C 
ATOM     66  C   UNL A   1      33.757  28.042  25.498  1.00  0.00     0.016 C 
ATOM     67  C   UNL A   1      31.648  26.889  24.631  1.00  0.00     0.093 C 
ATOM     68  C   UNL A   1      34.301  26.661  25.834  1.00  0.00     0.001 C 
ATOM     69  C   UNL A   1      32.354  25.533  24.704  1.00  0.00     0.014 C 
ATOM     70  C   UNL A   1      33.870  25.652  24.780  1.00  0.00     0.001 C 
BRANCH  67  71
ATOM     71  C   UNL A   1      30.142  26.722  24.494  1.00  0.00     0.228 C 
ATOM     72  O   UNL A   1      29.641  25.733  25.060  1.00  0.00    -0.274 OA
ATOM     73  N   UNL A   1      29.226  27.514  23.905  1.00  0.00    -0.323 N 
ATOM     74  H   UNL A   1      28.326  27.159  24.083  1.00  0.00     0.170 HD
BRANCH  73  75
ATOM     75  C   UNL A   1      29.120  28.677  23.122  1.00  0.00     0.077 A 
ATOM     76  C   UNL A   1      27.841  29.270  23.135  1.00  0.00     0.031 A 
ATOM     77  C   UNL A   1      30.083  29.266  22.305  1.00  0.00     0.148 A 
ATOM     78  C   UNL A   1      27.526  30.364  22.323  1.00  0.00     0.023 A 
ATOM     79  C   UNL A   1      29.771  30.339  21.461  1.00  0.00     0.062 A 
ATOM     80  F   UNL A   1      31.335  28.810  22.258  1.00  0.00    -0.205 F 
ATOM     81  C   UNL A   1      28.490  30.878  21.467  1.00  0.00     0.044 A 
ATOM     82  Cl  UNL A   1      28.090  32.172  20.408  1.00  0.00    -0.084 Cl
ENDBRANCH  73  75
ENDBRANCH  67  71
ENDBRANCH  63  65
ENDBRANCH  62  63
ENDBRANCH  61  62
ENDBRANCH   1  61
TORSDOF 13
ENDMDL
MODEL 2
REMARK VINA RESULT:     -11.8      4.377      8.981
REMARK SMILES O=C(OCCOC(=O)[C@H]1CCCC[C@H]1C(=O)Nc1ccc(Cl)cc1F)c1ccc(-c2c3nc(c(-c4c(F)cccc4F)c4ccc([nH]4)c(-c4c(F)cccc4F)c4nc(c(-c5c(F)cccc5F)c5ccc2[nH]5)C=C4)C=C3)cc1
REMARK SMILES IDX 4 1 3 2 2 3 1 4 26 5 27 6 79 7 28 8 78 9 29 10 30 11 31 12
REMARK SMILES IDX 72 13 32 14 77 15 71 16 73 17 33 18 76 19 70 20 69 21 34 23
REMARK SMILES IDX 60 24 43 25 59 26 44 27 47 28 58 29 74 30 45 31 46 32 57 34
REMARK SMILES IDX 75 35 48 36 35 37 36 38 41 39 37 40 38 41 40 42 42 43 39 44
REMARK SMILES IDX 61 45 62 46 67 47 63 48 64 49 66 50 68 51 65 52 49 53 50 54
REMARK SMILES IDX 55 55 51 56 52 57 54 58 56 59 53 60 5 61 6 62 7 63 8 64 9 65
REMARK SMILES IDX 10 66 14 67 11 68 13 69 12 70 15 71 16 72 17 73 18 75 19 76
REMARK SMILES IDX 24 77 20 78 23 79 25 80 21 81 22 82
REMARK H PARENT 73 22 47 33 17 74
REMARK Flexibility Score: inf
ROOT
ATOM      1  C   UNL A   1      36.743  21.589  24.309  1.00  0.00     0.275 C 
ENDROOT
BRANCH   1   2
ATOM      2  O   UNL A   1      37.364  21.515  25.610  1.00  0.00    -0.458 OA
BRANCH   2   3
ATOM      3  C   UNL A   1      38.696  21.537  25.877  1.00  0.00     0.338 C 
ATOM      4  O   UNL A   1      39.383  20.531  25.751  1.00  0.00    -0.246 OA
BRANCH   3   5
ATOM      5  C   UNL A   1      39.280  22.746  26.499  1.00  0.00     0.060 A 
ATOM      6  C   UNL A   1      38.800  24.029  26.238  1.00  0.00     0.016 A 
ATOM      7  C   UNL A   1      40.347  22.569  27.392  1.00  0.00     0.016 A 
ATOM      8  C   UNL A   1      39.287  25.107  26.967  1.00  0.00     0.010 A 
ATOM      9  C   UNL A   1      40.849  23.648  28.116  1.00  0.00     0.010 A 
ATOM     10  C   UNL A   1      40.313  24.921  27.905  1.00  0.00    -0.014 A 
BRANCH  10  11
ATOM     11  C   UNL A   1      40.995  26.131  28.398  1.00  0.00     0.031 A 
ATOM     12  C   UNL A   1      42.427  26.289  27.985  1.00  0.00     0.074 A 
ATOM     13  C   UNL A   1      40.319  27.104  29.032  1.00  0.00     0.049 A 
ATOM     14  N   UNL A   1      43.180  27.352  28.002  1.00  0.00    -0.248 NA
ATOM     15  C   UNL A   1      43.082  25.089  27.428  1.00  0.00     0.031 C 
ATOM     16  C   UNL A   1      38.917  27.037  29.443  1.00  0.00     0.029 A 
ATOM     17  N   UNL A   1      40.717  28.360  29.411  1.00  0.00    -0.354 N 
ATOM     18  C   UNL A   1      44.367  26.967  27.393  1.00  0.00     0.074 A 
ATOM     19  C   UNL A   1      44.267  25.561  27.083  1.00  0.00     0.031 C 
ATOM     20  C   UNL A   1      38.570  28.203  30.018  1.00  0.00     0.029 A 
ATOM     21  C   UNL A   1      39.718  29.104  29.994  1.00  0.00     0.049 A 
ATOM     22  H   UNL A   1      41.632  28.696  29.280  1.00  0.00     0.167 HD
ATOM     23  C   UNL A   1      45.435  27.733  27.087  1.00  0.00     0.037 A 
ATOM     24  C   UNL A   1      39.742  30.379  30.430  1.00  0.00     0.037 A 
ATOM     25  C   UNL A   1      45.545  29.108  27.479  1.00  0.00     0.049 A 
ATOM     26  C   UNL A   1      41.000  31.180  30.190  1.00  0.00     0.074 A 
ATOM     27  C   UNL A   1      46.607  29.974  27.322  1.00  0.00     0.029 A 
ATOM     28  N   UNL A   1      44.540  29.806  28.140  1.00  0.00    -0.354 N 
ATOM     29  N   UNL A   1      42.101  30.825  29.567  1.00  0.00    -0.248 NA
ATOM     30  C   UNL A   1      41.015  32.561  30.691  1.00  0.00     0.031 C 
ATOM     31  C   UNL A   1      46.262  31.187  27.931  1.00  0.00     0.029 A 
ATOM     32  C   UNL A   1      44.966  31.089  28.420  1.00  0.00     0.049 A 
ATOM     33  H   UNL A   1      43.658  29.439  28.374  1.00  0.00     0.167 HD
ATOM     34  C   UNL A   1      42.927  31.942  29.578  1.00  0.00     0.074 A 
ATOM     35  C   UNL A   1      42.186  32.994  30.249  1.00  0.00     0.031 C 
ATOM     36  C   UNL A   1      44.182  32.097  29.089  1.00  0.00     0.037 A 
BRANCH  23  37
ATOM     37  C   UNL A   1      46.546  27.064  26.340  1.00  0.00     0.057 A 
ATOM     38  C   UNL A   1      47.568  26.378  27.012  1.00  0.00     0.134 A 
ATOM     39  C   UNL A   1      46.641  27.168  24.949  1.00  0.00     0.134 A 
ATOM     40  F   UNL A   1      47.554  26.277  28.350  1.00  0.00    -0.206 F 
ATOM     41  C   UNL A   1      48.660  25.842  26.327  1.00  0.00     0.040 A 
ATOM     42  C   UNL A   1      47.719  26.618  24.251  1.00  0.00     0.040 A 
ATOM     43  F   UNL A   1      45.707  27.827  24.249  1.00  0.00    -0.206 F 
ATOM     44  C   UNL A   1      48.736  25.961  24.941  1.00  0.00     0.006 A 
ENDBRANCH  23  37
BRANCH  24  45
ATOM     45  C   UNL A   1      38.565  30.984  31.112  1.00  0.00     0.057 A 
ATOM     46  C   UNL A   1      38.364  30.862  32.494  1.00  0.00     0.134 A 
ATOM     47  C   UNL A   1      37.573  31.654  30.383  1.00  0.00     0.134 A 
ATOM     48  F   UNL A   1      39.264  30.218  33.252  1.00  0.00    -0.206 F 
ATOM     49  C   UNL A   1      37.211  31.348  33.116  1.00  0.00     0.040 A 
ATOM     50  C   UNL A   1      36.427  32.169  30.997  1.00  0.00     0.040 A 
ATOM     51  F   UNL A   1      37.697  31.812  29.058  1.00  0.00    -0.206 F 
ATOM     52  C   UNL A   1      36.238  32.005  32.367  1.00  0.00     0.006 A 
ENDBRANCH  24  45
BRANCH  36  53
ATOM     53  C   UNL A   1      44.812  33.446  29.255  1.00  0.00     0.057 A 
ATOM     54  C   UNL A   1      44.624  34.464  28.314  1.00  0.00     0.134 A 
ATOM     55  C   UNL A   1      45.563  33.743  30.399  1.00  0.00     0.134 A 
ATOM     56  F   UNL A   1      43.922  34.235  27.195  1.00  0.00    -0.206 F 
ATOM     57  C   UNL A   1      45.183  35.729  28.494  1.00  0.00     0.040 A 
ATOM     58  C   UNL A   1      46.102  35.012  30.604  1.00  0.00     0.040 A 
ATOM     59  F   UNL A   1      45.765  32.811  31.343  1.00  0.00    -0.206 F 
ATOM     60  C   UNL A   1      45.917  36.007  29.646  1.00  0.00     0.006 A 
ENDBRANCH  36  53
ENDBRANCH  10  11
ENDBRANCH   3   5
ENDBRANCH   2   3
ENDBRANCH   1   2
BRANCH   1  61
ATOM     61  C   UNL A   1      36.832  22.928  23.570  1.00  0.00     0.274 C 
BRANCH  61  62
ATOM     62  O   UNL A   1      35.718  23.146  22.703  1.00  0.00    -0.462 OA
BRANCH  62  63
ATOM     63  C   UNL A   1      34.668  23.785  23.286  1.00  0.00     0.309 C 
ATOM     64  O   UNL A   1      34.763  24.497  24.270  1.00  0.00    -0.252 OA
BRANCH  63  65
ATOM     65  C   UNL A   1      33.362  23.382  22.620  1.00  0.00     0.111 C 
ATOM     66  C   UNL A   1      32.664  22.264  23.417  1.00  0.00     0.016 C 
ATOM     67  C   UNL A   1      32.373  24.482  22.184  1.00  0.00     0.093 C 
ATOM     68  C   UNL A   1      31.746  22.815  24.499  1.00  0.00     0.001 C 
ATOM     69  C   UNL A   1      31.233  24.865  23.130  1.00  0.00     0.014 C 
ATOM     70  C   UNL A   1      30.653  23.672  23.879  1.00  0.00     0.001 C 
BRANCH  67  71
ATOM     71  C   UNL A   1      32.880  25.691  21.412  1.00  0.00     0.228 C 
ATOM     72  O   UNL A   1      33.278  25.480  20.252  1.00  0.00    -0.274 OA
ATOM     73  N   UNL A   1      32.917  26.993  21.754  1.00  0.00    -0.323 N 
ATOM     74  H   UNL A   1      33.219  27.525  20.982  1.00  0.00     0.170 HD
BRANCH  73  75
ATOM     75  C   UNL A   1      32.667  27.852  22.840  1.00  0.00     0.077 A 
ATOM     76  C   UNL A   1      33.670  27.840  23.830  1.00  0.00     0.031 A 
ATOM     77  C   UNL A   1      31.547  28.646  23.081  1.00  0.00     0.148 A 
ATOM     78  C   UNL A   1      33.530  28.543  25.031  1.00  0.00     0.023 A 
ATOM     79  C   UNL A   1      31.380  29.327  24.293  1.00  0.00     0.062 A 
ATOM     80  F   UNL A   1      30.566  28.763  22.185  1.00  0.00    -0.205 F 
ATOM     81  C   UNL A   1      32.368  29.265  25.267  1.00  0.00     0.044 A 
ATOM     82  Cl  UNL A   1      32.153  30.068  26.772  1.00  0.00    -0.084 Cl
ENDBRANCH  73  75
ENDBRANCH  67  71
ENDBRANCH  63  65
ENDBRANCH  62  63
ENDBRANCH  61  62
ENDBRANCH   1  61
TORSDOF 13
ENDMDL
MODEL 3
REMARK VINA RESULT:     -11.7      2.824      4.347
REMARK SMILES O=C(OCCOC(=O)[C@H]1CCCC[C@H]1C(=O)Nc1ccc(Cl)cc1F)c1ccc(-c2c3nc(c(-c4c(F)cccc4F)c4ccc([nH]4)c(-c4c(F)cccc4F)c4nc(c(-c5c(F)cccc5F)c5ccc2[nH]5)C=C4)C=C3)cc1
REMARK SMILES IDX 4 1 3 2 2 3 1 4 26 5 27 6 79 7 28 8 78 9 29 10 30 11 31 12
REMARK SMILES IDX 72 13 32 14 77 15 71 16 73 17 33 18 76 19 70 20 69 21 34 23
REMARK SMILES IDX 60 24 43 25 59 26 44 27 47 28 58 29 74 30 45 31 46 32 57 34
REMARK SMILES IDX 75 35 48 36 35 37 36 38 41 39 37 40 38 41 40 42 42 43 39 44
REMARK SMILES IDX 61 45 62 46 67 47 63 48 64 49 66 50 68 51 65 52 49 53 50 54
REMARK SMILES IDX 55 55 51 56 52 57 54 58 56 59 53 60 5 61 6 62 7 63 8 64 9 65
REMARK SMILES IDX 10 66 14 67 11 68 13 69 12 70 15 71 16 72 17 73 18 75 19 76
REMARK SMILES IDX 24 77 20 78 23 79 25 80 21 81 22 82
REMARK H PARENT 73 22 47 33 17 74
REMARK Flexibility Score: inf
ROOT
ATOM      1  C   UNL A   1      31.804  29.706  26.765  1.00  0.00     0.275 C 
ENDROOT
BRANCH   1   2
ATOM      2  O   UNL A   1      32.987  30.489  26.504  1.00  0.00    -0.458 OA
BRANCH   2   3
ATOM      3  C   UNL A   1      33.618  31.322  27.372  1.00  0.00     0.338 C 
ATOM      4  O   UNL A   1      33.165  32.432  27.626  1.00  0.00    -0.246 OA
BRANCH   3   5
ATOM      5  C   UNL A   1      34.959  30.951  27.871  1.00  0.00     0.060 A 
ATOM      6  C   UNL A   1      35.315  29.632  28.155  1.00  0.00     0.016 A 
ATOM      7  C   UNL A   1      35.899  31.979  28.045  1.00  0.00     0.016 A 
ATOM      8  C   UNL A   1      36.633  29.328  28.474  1.00  0.00     0.010 A 
ATOM      9  C   UNL A   1      37.219  31.682  28.377  1.00  0.00     0.010 A 
ATOM     10  C   UNL A   1      37.587  30.350  28.588  1.00  0.00    -0.014 A 
BRANCH  10  11
ATOM     11  C   UNL A   1      38.865  30.002  29.234  1.00  0.00     0.031 A 
ATOM     12  C   UNL A   1      39.078  30.565  30.606  1.00  0.00     0.074 A 
ATOM     13  C   UNL A   1      39.699  29.100  28.690  1.00  0.00     0.049 A 
ATOM     14  N   UNL A   1      39.932  30.207  31.524  1.00  0.00    -0.248 NA
ATOM     15  C   UNL A   1      38.166  31.651  31.016  1.00  0.00     0.031 C 
ATOM     16  C   UNL A   1      39.545  28.485  27.372  1.00  0.00     0.029 A 
ATOM     17  N   UNL A   1      40.831  28.516  29.199  1.00  0.00    -0.354 N 
ATOM     18  C   UNL A   1      39.610  30.970  32.638  1.00  0.00     0.074 A 
ATOM     19  C   UNL A   1      38.537  31.860  32.267  1.00  0.00     0.031 C 
ATOM     20  C   UNL A   1      40.546  27.607  27.175  1.00  0.00     0.029 A 
ATOM     21  C   UNL A   1      41.396  27.583  28.361  1.00  0.00     0.049 A 
ATOM     22  H   UNL A   1      41.203  28.744  30.080  1.00  0.00     0.167 HD
ATOM     23  C   UNL A   1      40.145  30.906  33.875  1.00  0.00     0.037 A 
ATOM     24  C   UNL A   1      42.467  26.790  28.561  1.00  0.00     0.037 A 
ATOM     25  C   UNL A   1      41.267  30.073  34.198  1.00  0.00     0.049 A 
ATOM     26  C   UNL A   1      43.129  26.832  29.918  1.00  0.00     0.074 A 
ATOM     27  C   UNL A   1      41.969  29.981  35.381  1.00  0.00     0.029 A 
ATOM     28  N   UNL A   1      41.863  29.198  33.297  1.00  0.00    -0.354 N 
ATOM     29  N   UNL A   1      42.788  27.518  30.985  1.00  0.00    -0.248 NA
ATOM     30  C   UNL A   1      44.308  25.976  30.108  1.00  0.00     0.031 C 
ATOM     31  C   UNL A   1      43.023  29.081  35.182  1.00  0.00     0.029 A 
ATOM     32  C   UNL A   1      42.943  28.576  33.891  1.00  0.00     0.049 A 
ATOM     33  H   UNL A   1      41.560  29.045  32.373  1.00  0.00     0.167 HD
ATOM     34  C   UNL A   1      43.691  27.159  31.978  1.00  0.00     0.074 A 
ATOM     35  C   UNL A   1      44.578  26.174  31.390  1.00  0.00     0.031 C 
ATOM     36  C   UNL A   1      43.791  27.598  33.257  1.00  0.00     0.037 A 
BRANCH  23  37
ATOM     37  C   UNL A   1      39.532  31.791  34.915  1.00  0.00     0.057 A 
ATOM     38  C   UNL A   1      38.488  31.337  35.735  1.00  0.00     0.134 A 
ATOM     39  C   UNL A   1      39.928  33.125  35.049  1.00  0.00     0.134 A 
ATOM     40  F   UNL A   1      38.036  30.078  35.627  1.00  0.00    -0.206 F 
ATOM     41  C   UNL A   1      37.842  32.190  36.634  1.00  0.00     0.040 A 
ATOM     42  C   UNL A   1      39.303  33.981  35.959  1.00  0.00     0.040 A 
ATOM     43  F   UNL A   1      40.907  33.625  34.282  1.00  0.00    -0.206 F 
ATOM     44  C   UNL A   1      38.252  33.516  36.748  1.00  0.00     0.006 A 
ENDBRANCH  23  37
BRANCH  24  45
ATOM     45  C   UNL A   1      42.974  25.893  27.486  1.00  0.00     0.057 A 
ATOM     46  C   UNL A   1      43.882  26.337  26.515  1.00  0.00     0.134 A 
ATOM     47  C   UNL A   1      42.513  24.574  27.367  1.00  0.00     0.134 A 
ATOM     48  F   UNL A   1      44.353  27.592  26.555  1.00  0.00    -0.206 F 
ATOM     49  C   UNL A   1      44.282  25.521  25.452  1.00  0.00     0.040 A 
ATOM     50  C   UNL A   1      42.925  23.739  26.326  1.00  0.00     0.040 A 
ATOM     51  F   UNL A   1      41.644  24.079  28.261  1.00  0.00    -0.206 F 
ATOM     52  C   UNL A   1      43.804  24.217  25.356  1.00  0.00     0.006 A 
ENDBRANCH  24  45
BRANCH  36  53
ATOM     53  C   UNL A   1      44.885  27.006  34.092  1.00  0.00     0.057 A 
ATOM     54  C   UNL A   1      44.695  25.826  34.819  1.00  0.00     0.134 A 
ATOM     55  C   UNL A   1      46.156  27.593  34.117  1.00  0.00     0.134 A 
ATOM     56  F   UNL A   1      43.497  25.224  34.840  1.00  0.00    -0.206 F 
ATOM     57  C   UNL A   1      45.730  25.261  35.565  1.00  0.00     0.040 A 
ATOM     58  C   UNL A   1      47.205  27.021  34.835  1.00  0.00     0.040 A 
ATOM     59  F   UNL A   1      46.401  28.719  33.429  1.00  0.00    -0.206 F 
ATOM     60  C   UNL A   1      46.990  25.855  35.566  1.00  0.00     0.006 A 
ENDBRANCH  36  53
ENDBRANCH  10  11
ENDBRANCH   3   5
ENDBRANCH   2   3
ENDBRANCH   1   2
BRANCH   1  61
ATOM     61  C   UNL A   1      31.977  28.449  27.624  1.00  0.00     0.274 C 
BRANCH  61  62
ATOM     62  O   UNL A   1      31.031  27.430  27.294  1.00  0.00    -0.462 OA
BRANCH  62  63
ATOM     63  C   UNL A   1      31.525  26.440  26.502  1.00  0.00     0.309 C 
ATOM     64  O   UNL A   1      32.712  26.206  26.361  1.00  0.00    -0.252 OA
BRANCH  63  65
ATOM     65  C   UNL A   1      30.402  25.765  25.731  1.00  0.00     0.111 C 
ATOM     66  C   UNL A   1      30.128  26.503  24.407  1.00  0.00     0.016 C 
ATOM     67  C   UNL A   1      30.439  24.235  25.540  1.00  0.00     0.093 C 
ATOM     68  C   UNL A   1      30.994  25.985  23.268  1.00  0.00     0.001 C 
ATOM     69  C   UNL A   1      31.038  23.668  24.252  1.00  0.00     0.014 C 
ATOM     70  C   UNL A   1      30.718  24.509  23.023  1.00  0.00     0.001 C 
BRANCH  67  71
ATOM     71  C   UNL A   1      30.730  23.332  26.729  1.00  0.00     0.228 C 
ATOM     72  O   UNL A   1      29.867  23.303  27.626  1.00  0.00    -0.274 OA
ATOM     73  N   UNL A   1      31.756  22.490  26.957  1.00  0.00    -0.323 N 
ATOM     74  H   UNL A   1      31.587  21.986  27.784  1.00  0.00     0.170 HD
BRANCH  73  75
ATOM     75  C   UNL A   1      32.988  22.087  26.411  1.00  0.00     0.077 A 
ATOM     76  C   UNL A   1      34.059  22.962  26.687  1.00  0.00     0.031 A 
ATOM     77  C   UNL A   1      33.261  20.989  25.596  1.00  0.00     0.148 A 
ATOM     78  C   UNL A   1      35.327  22.776  26.126  1.00  0.00     0.023 A 
ATOM     79  C   UNL A   1      34.516  20.812  25.001  1.00  0.00     0.062 A 
ATOM     80  F   UNL A   1      32.329  20.078  25.315  1.00  0.00    -0.205 F 
ATOM     81  C   UNL A   1      35.542  21.713  25.262  1.00  0.00     0.044 A 
ATOM     82  Cl  UNL A   1      37.073  21.522  24.506  1.00  0.00    -0.084 Cl
ENDBRANCH  73  75
ENDBRANCH  67  71
ENDBRANCH  63  65
ENDBRANCH  62  63
ENDBRANCH  61  62
ENDBRANCH   1  61
TORSDOF 13
ENDMDL
