MODEL 1
REMARK VINA RESULT:     -12.5      0.000      0.000
REMARK SMILES O=C(COc1ccc(Br)cc1/C=C1\C(=O)Nc2ccc(Br)cc21)OCCOC(=O)c1ccc(-c2c3nc(c(-c4c(F)cccc4F)c4ccc([nH]4)c(-c4c(F)cccc4F)c4nc(c(-c5c(F)cccc5F)c5ccc2[nH]5)C=C4)C=C3)cc1
REMARK SMILES IDX 25 1 24 2 2 3 1 4 3 5 4 6 5 7 6 8 11 9 7 10 10 11 8 12 9 13
REMARK SMILES IDX 12 14 13 15 14 16 23 17 15 18 16 19 17 20 22 21 18 23 20 24
REMARK SMILES IDX 19 25 21 26 26 27 27 28 28 29 29 30 30 31 31 32 83 33 32 34
REMARK SMILES IDX 82 35 33 36 34 37 35 38 76 39 36 40 81 41 75 42 77 43 37 44
REMARK SMILES IDX 80 45 74 46 73 47 38 49 64 50 47 51 63 52 48 53 51 54 62 55
REMARK SMILES IDX 78 56 49 57 50 58 61 60 79 61 52 62 39 63 40 64 45 65 41 66
REMARK SMILES IDX 42 67 44 68 46 69 43 70 65 71 66 72 71 73 67 74 68 75 70 76
REMARK SMILES IDX 72 77 69 78 53 79 54 80 59 81 55 82 56 83 58 84 60 85 57 86
REMARK H PARENT 16 22 77 48 51 59
REMARK Flexibility Score: inf
ROOT
ATOM      1  C   UNL A   1      41.122  20.794  26.212  1.00  0.00     0.274 C 
ENDROOT
BRANCH   1   2
ATOM      2  O   UNL A   1      40.118  21.459  27.007  1.00  0.00    -0.460 OA
BRANCH   2   3
ATOM      3  C   UNL A   1      39.127  22.199  26.454  1.00  0.00     0.344 C 
ATOM      4  O   UNL A   1      39.014  23.391  26.735  1.00  0.00    -0.248 OA
BRANCH   3   5
ATOM      5  C   UNL A   1      38.226  21.537  25.409  1.00  0.00     0.352 C 
BRANCH   5   6
ATOM      6  O   UNL A   1      37.027  22.242  25.054  1.00  0.00    -0.481 OA
BRANCH   6   7
ATOM      7  C   UNL A   1      35.953  21.375  25.055  1.00  0.00     0.127 A 
ATOM      8  C   UNL A   1      36.231  19.995  24.995  1.00  0.00     0.048 A 
ATOM      9  C   UNL A   1      34.627  21.859  25.058  1.00  0.00     0.018 A 
ATOM     10  C   UNL A   1      35.217  19.076  24.766  1.00  0.00     0.019 A 
ATOM     11  C   UNL A   1      33.640  20.900  24.777  1.00  0.00     0.027 A 
ATOM     12  C   UNL A   1      33.924  19.539  24.628  1.00  0.00     0.018 A 
ATOM     13  Br  UNL A   1      32.526  18.332  24.222  1.00  0.00    -0.051 Br
BRANCH   9  14
ATOM     14  C   UNL A   1      34.320  23.314  25.251  1.00  0.00     0.026 C 
ATOM     15  C   UNL A   1      33.480  23.929  26.114  1.00  0.00     0.050 C 
ATOM     16  C   UNL A   1      32.554  23.277  27.105  1.00  0.00     0.256 C 
ATOM     17  C   UNL A   1      32.882  25.251  25.856  1.00  0.00     0.012 A 
ATOM     18  O   UNL A   1      32.809  22.490  27.984  1.00  0.00    -0.269 OA
ATOM     19  N   UNL A   1      31.334  23.888  26.866  1.00  0.00    -0.321 N 
ATOM     20  C   UNL A   1      31.526  25.077  26.169  1.00  0.00     0.049 A 
ATOM     21  C   UNL A   1      33.348  26.504  25.508  1.00  0.00     0.026 A 
ATOM     22  H   UNL A   1      30.460  23.533  27.148  1.00  0.00     0.170 HD
ATOM     23  C   UNL A   1      30.575  26.046  25.956  1.00  0.00     0.028 A 
ATOM     24  C   UNL A   1      32.400  27.534  25.383  1.00  0.00     0.018 A 
ATOM     25  C   UNL A   1      31.023  27.295  25.542  1.00  0.00     0.018 A 
ATOM     26  Br  UNL A   1      32.974  29.311  25.076  1.00  0.00    -0.051 Br
ENDBRANCH   9  14
ENDBRANCH   6   7
ENDBRANCH   5   6
ENDBRANCH   3   5
ENDBRANCH   2   3
ENDBRANCH   1   2
BRANCH   1  27
ATOM     27  C   UNL A   1      42.435  21.579  26.267  1.00  0.00     0.275 C 
BRANCH  27  28
ATOM     28  O   UNL A   1      42.349  22.693  25.359  1.00  0.00    -0.458 OA
BRANCH  28  29
ATOM     29  C   UNL A   1      43.300  23.654  25.493  1.00  0.00     0.338 C 
ATOM     30  O   UNL A   1      44.321  23.775  24.843  1.00  0.00    -0.246 OA
BRANCH  29  31
ATOM     31  C   UNL A   1      42.794  24.660  26.456  1.00  0.00     0.060 A 
ATOM     32  C   UNL A   1      41.966  24.289  27.519  1.00  0.00     0.016 A 
ATOM     33  C   UNL A   1      43.126  26.006  26.261  1.00  0.00     0.016 A 
ATOM     34  C   UNL A   1      41.479  25.264  28.390  1.00  0.00     0.010 A 
ATOM     35  C   UNL A   1      42.641  26.984  27.136  1.00  0.00     0.010 A 
ATOM     36  C   UNL A   1      41.824  26.617  28.215  1.00  0.00    -0.014 A 
BRANCH  36  37
ATOM     37  C   UNL A   1      41.464  27.593  29.270  1.00  0.00     0.031 A 
ATOM     38  C   UNL A   1      40.282  28.506  29.148  1.00  0.00     0.074 A 
ATOM     39  C   UNL A   1      42.229  27.628  30.377  1.00  0.00     0.049 A 
ATOM     40  N   UNL A   1      39.764  29.293  30.057  1.00  0.00    -0.248 NA
ATOM     41  C   UNL A   1      39.595  28.552  27.849  1.00  0.00     0.031 C 
ATOM     42  C   UNL A   1      43.435  26.824  30.590  1.00  0.00     0.029 A 
ATOM     43  N   UNL A   1      42.099  28.350  31.534  1.00  0.00    -0.354 N 
ATOM     44  C   UNL A   1      38.695  29.932  29.447  1.00  0.00     0.074 A 
ATOM     45  C   UNL A   1      38.642  29.448  28.081  1.00  0.00     0.031 C 
ATOM     46  C   UNL A   1      43.915  27.072  31.817  1.00  0.00     0.029 A 
ATOM     47  C   UNL A   1      43.057  28.055  32.472  1.00  0.00     0.049 A 
ATOM     48  H   UNL A   1      41.387  29.015  31.679  1.00  0.00     0.167 HD
ATOM     49  C   UNL A   1      37.833  30.828  29.985  1.00  0.00     0.037 A 
ATOM     50  C   UNL A   1      43.218  28.510  33.728  1.00  0.00     0.037 A 
ATOM     51  C   UNL A   1      37.862  31.284  31.350  1.00  0.00     0.049 A 
ATOM     52  C   UNL A   1      42.224  29.475  34.300  1.00  0.00     0.074 A 
ATOM     53  C   UNL A   1      36.957  32.104  32.002  1.00  0.00     0.029 A 
ATOM     54  N   UNL A   1      38.851  30.972  32.270  1.00  0.00    -0.354 N 
ATOM     55  N   UNL A   1      41.140  29.968  33.753  1.00  0.00    -0.248 NA
ATOM     56  C   UNL A   1      42.467  29.933  35.676  1.00  0.00     0.031 C 
ATOM     57  C   UNL A   1      37.410  32.308  33.310  1.00  0.00     0.029 A 
ATOM     58  C   UNL A   1      38.588  31.600  33.476  1.00  0.00     0.049 A 
ATOM     59  H   UNL A   1      39.625  30.391  32.092  1.00  0.00     0.167 HD
ATOM     60  C   UNL A   1      40.557  30.770  34.724  1.00  0.00     0.074 A 
ATOM     61  C   UNL A   1      41.401  30.688  35.898  1.00  0.00     0.031 C 
ATOM     62  C   UNL A   1      39.423  31.507  34.646  1.00  0.00     0.037 A 
BRANCH  49  63
ATOM     63  C   UNL A   1      36.750  31.371  29.107  1.00  0.00     0.057 A 
ATOM     64  C   UNL A   1      36.776  32.697  28.663  1.00  0.00     0.134 A 
ATOM     65  C   UNL A   1      35.623  30.603  28.799  1.00  0.00     0.134 A 
ATOM     66  F   UNL A   1      37.815  33.492  28.956  1.00  0.00    -0.206 F 
ATOM     67  C   UNL A   1      35.718  33.239  27.930  1.00  0.00     0.040 A 
ATOM     68  C   UNL A   1      34.556  31.137  28.074  1.00  0.00     0.040 A 
ATOM     69  F   UNL A   1      35.535  29.330  29.211  1.00  0.00    -0.206 F 
ATOM     70  C   UNL A   1      34.604  32.457  27.631  1.00  0.00     0.006 A 
ENDBRANCH  49  63
BRANCH  50  71
ATOM     71  C   UNL A   1      44.341  28.006  34.552  1.00  0.00     0.057 A 
ATOM     72  C   UNL A   1      44.228  26.825  35.294  1.00  0.00     0.134 A 
ATOM     73  C   UNL A   1      45.555  28.698  34.611  1.00  0.00     0.134 A 
ATOM     74  F   UNL A   1      43.084  26.125  35.282  1.00  0.00    -0.206 F 
ATOM     75  C   UNL A   1      45.286  26.350  36.070  1.00  0.00     0.040 A 
ATOM     76  C   UNL A   1      46.628  28.223  35.365  1.00  0.00     0.040 A 
ATOM     77  F   UNL A   1      45.723  29.828  33.908  1.00  0.00    -0.206 F 
ATOM     78  C   UNL A   1      46.493  27.047  36.101  1.00  0.00     0.006 A 
ENDBRANCH  50  71
BRANCH  62  79
ATOM     79  C   UNL A   1      39.013  32.261  35.875  1.00  0.00     0.057 A 
ATOM     80  C   UNL A   1      39.429  33.583  36.076  1.00  0.00     0.134 A 
ATOM     81  C   UNL A   1      38.220  31.673  36.869  1.00  0.00     0.134 A 
ATOM     82  F   UNL A   1      40.196  34.202  35.165  1.00  0.00    -0.206 F 
ATOM     83  C   UNL A   1      39.067  34.295  37.220  1.00  0.00     0.040 A 
ATOM     84  C   UNL A   1      37.833  32.383  38.007  1.00  0.00     0.040 A 
ATOM     85  F   UNL A   1      37.778  30.414  36.729  1.00  0.00    -0.206 F 
ATOM     86  C   UNL A   1      38.261  33.697  38.186  1.00  0.00     0.006 A 
ENDBRANCH  62  79
ENDBRANCH  36  37
ENDBRANCH  29  31
ENDBRANCH  28  29
ENDBRANCH  27  28
ENDBRANCH   1  27
TORSDOF 14
ENDMDL
MODEL 2
REMARK VINA RESULT:     -12.4      2.983      8.267
REMARK SMILES O=C(COc1ccc(Br)cc1/C=C1\C(=O)Nc2ccc(Br)cc21)OCCOC(=O)c1ccc(-c2c3nc(c(-c4c(F)cccc4F)c4ccc([nH]4)c(-c4c(F)cccc4F)c4nc(c(-c5c(F)cccc5F)c5ccc2[nH]5)C=C4)C=C3)cc1
REMARK SMILES IDX 25 1 24 2 2 3 1 4 3 5 4 6 5 7 6 8 11 9 7 10 10 11 8 12 9 13
REMARK SMILES IDX 12 14 13 15 14 16 23 17 15 18 16 19 17 20 22 21 18 23 20 24
REMARK SMILES IDX 19 25 21 26 26 27 27 28 28 29 29 30 30 31 31 32 83 33 32 34
REMARK SMILES IDX 82 35 33 36 34 37 35 38 76 39 36 40 81 41 75 42 77 43 37 44
REMARK SMILES IDX 80 45 74 46 73 47 38 49 64 50 47 51 63 52 48 53 51 54 62 55
REMARK SMILES IDX 78 56 49 57 50 58 61 60 79 61 52 62 39 63 40 64 45 65 41 66
REMARK SMILES IDX 42 67 44 68 46 69 43 70 65 71 66 72 71 73 67 74 68 75 70 76
REMARK SMILES IDX 72 77 69 78 53 79 54 80 59 81 55 82 56 83 58 84 60 85 57 86
REMARK H PARENT 16 22 77 48 51 59
REMARK Flexibility Score: inf
ROOT
ATOM      1  C   UNL A   1      31.815  30.316  26.447  1.00  0.00     0.274 C 
ENDROOT
BRANCH   1   2
ATOM      2  O   UNL A   1      33.147  30.079  25.946  1.00  0.00    -0.460 OA
BRANCH   2   3
ATOM      3  C   UNL A   1      33.610  28.834  25.676  1.00  0.00     0.344 C 
ATOM      4  O   UNL A   1      33.870  28.057  26.594  1.00  0.00    -0.248 OA
BRANCH   3   5
ATOM      5  C   UNL A   1      33.706  28.399  24.212  1.00  0.00     0.352 C 
BRANCH   5   6
ATOM      6  O   UNL A   1      32.997  27.204  23.848  1.00  0.00    -0.481 OA
BRANCH   6   7
ATOM      7  C   UNL A   1      31.705  27.518  23.476  1.00  0.00     0.127 A 
ATOM      8  C   UNL A   1      31.435  28.856  23.126  1.00  0.00     0.048 A 
ATOM      9  C   UNL A   1      30.683  26.544  23.503  1.00  0.00     0.018 A 
ATOM     10  C   UNL A   1      30.130  29.297  22.961  1.00  0.00     0.019 A 
ATOM     11  C   UNL A   1      29.377  27.045  23.377  1.00  0.00     0.027 A 
ATOM     12  C   UNL A   1      29.101  28.391  23.117  1.00  0.00     0.018 A 
ATOM     13  Br  UNL A   1      27.305  28.970  22.993  1.00  0.00    -0.051 Br
BRANCH   9  14
ATOM     14  C   UNL A   1      30.982  25.095  23.749  1.00  0.00     0.026 C 
ATOM     15  C   UNL A   1      30.864  24.352  24.872  1.00  0.00     0.050 C 
ATOM     16  C   UNL A   1      30.440  24.823  26.237  1.00  0.00     0.256 C 
ATOM     17  C   UNL A   1      31.663  23.140  25.125  1.00  0.00     0.012 A 
ATOM     18  O   UNL A   1      29.431  25.398  26.566  1.00  0.00    -0.269 OA
ATOM     19  N   UNL A   1      31.426  24.328  27.076  1.00  0.00    -0.321 N 
ATOM     20  C   UNL A   1      32.120  23.304  26.442  1.00  0.00     0.049 A 
ATOM     21  C   UNL A   1      31.936  21.967  24.448  1.00  0.00     0.026 A 
ATOM     22  H   UNL A   1      31.607  24.654  27.987  1.00  0.00     0.170 HD
ATOM     23  C   UNL A   1      33.007  22.442  27.042  1.00  0.00     0.028 A 
ATOM     24  C   UNL A   1      32.762  21.028  25.089  1.00  0.00     0.018 A 
ATOM     25  C   UNL A   1      33.343  21.288  26.344  1.00  0.00     0.018 A 
ATOM     26  Br  UNL A   1      33.046  19.331  24.302  1.00  0.00    -0.051 Br
ENDBRANCH   9  14
ENDBRANCH   6   7
ENDBRANCH   5   6
ENDBRANCH   3   5
ENDBRANCH   2   3
ENDBRANCH   1   2
BRANCH   1  27
ATOM     27  C   UNL A   1      31.650  31.793  26.811  1.00  0.00     0.275 C 
BRANCH  27  28
ATOM     28  O   UNL A   1      32.918  32.455  26.653  1.00  0.00    -0.458 OA
BRANCH  28  29
ATOM     29  C   UNL A   1      33.323  33.235  27.690  1.00  0.00     0.338 C 
ATOM     30  O   UNL A   1      32.717  34.160  28.196  1.00  0.00    -0.246 OA
BRANCH  29  31
ATOM     31  C   UNL A   1      34.569  32.648  28.238  1.00  0.00     0.060 A 
ATOM     32  C   UNL A   1      35.771  33.360  28.222  1.00  0.00     0.016 A 
ATOM     33  C   UNL A   1      34.534  31.341  28.740  1.00  0.00     0.016 A 
ATOM     34  C   UNL A   1      36.933  32.768  28.715  1.00  0.00     0.010 A 
ATOM     35  C   UNL A   1      35.698  30.748  29.237  1.00  0.00     0.010 A 
ATOM     36  C   UNL A   1      36.904  31.463  29.240  1.00  0.00    -0.014 A 
BRANCH  36  37
ATOM     37  C   UNL A   1      38.101  30.943  29.942  1.00  0.00     0.031 A 
ATOM     38  C   UNL A   1      38.406  31.284  31.369  1.00  0.00     0.074 A 
ATOM     39  C   UNL A   1      38.919  30.121  29.258  1.00  0.00     0.049 A 
ATOM     40  N   UNL A   1      39.328  30.777  32.148  1.00  0.00    -0.248 NA
ATOM     41  C   UNL A   1      37.584  32.323  32.006  1.00  0.00     0.031 C 
ATOM     42  C   UNL A   1      38.755  29.756  27.848  1.00  0.00     0.029 A 
ATOM     43  N   UNL A   1      40.034  29.431  29.655  1.00  0.00    -0.354 N 
ATOM     44  C   UNL A   1      39.205  31.432  33.365  1.00  0.00     0.074 A 
ATOM     45  C   UNL A   1      38.122  32.385  33.219  1.00  0.00     0.031 C 
ATOM     46  C   UNL A   1      39.714  28.882  27.509  1.00  0.00     0.029 A 
ATOM     47  C   UNL A   1      40.562  28.634  28.671  1.00  0.00     0.049 A 
ATOM     48  H   UNL A   1      40.418  29.500  30.560  1.00  0.00     0.167 HD
ATOM     49  C   UNL A   1      39.922  31.243  34.498  1.00  0.00     0.037 A 
ATOM     50  C   UNL A   1      41.601  27.779  28.703  1.00  0.00     0.037 A 
ATOM     51  C   UNL A   1      40.976  30.273  34.655  1.00  0.00     0.049 A 
ATOM     52  C   UNL A   1      42.350  27.571  29.985  1.00  0.00     0.074 A 
ATOM     53  C   UNL A   1      41.675  29.943  35.804  1.00  0.00     0.029 A 
ATOM     54  N   UNL A   1      41.490  29.489  33.635  1.00  0.00    -0.354 N 
ATOM     55  N   UNL A   1      42.135  28.101  31.164  1.00  0.00    -0.248 NA
ATOM     56  C   UNL A   1      43.477  26.628  29.944  1.00  0.00     0.031 C 
ATOM     57  C   UNL A   1      42.629  28.974  35.475  1.00  0.00     0.029 A 
ATOM     58  C   UNL A   1      42.511  28.690  34.125  1.00  0.00     0.049 A 
ATOM     59  H   UNL A   1      41.177  29.498  32.703  1.00  0.00     0.167 HD
ATOM     60  C   UNL A   1      43.079  27.537  32.010  1.00  0.00     0.074 A 
ATOM     61  C   UNL A   1      43.860  26.614  31.213  1.00  0.00     0.031 C 
ATOM     62  C   UNL A   1      43.278  27.765  33.332  1.00  0.00     0.037 A 
BRANCH  49  63
ATOM     63  C   UNL A   1      39.585  32.084  35.688  1.00  0.00     0.057 A 
ATOM     64  C   UNL A   1      38.601  31.686  36.599  1.00  0.00     0.134 A 
ATOM     65  C   UNL A   1      40.162  33.346  35.862  1.00  0.00     0.134 A 
ATOM     66  F   UNL A   1      37.989  30.501  36.465  1.00  0.00    -0.206 F 
ATOM     67  C   UNL A   1      38.210  32.513  37.654  1.00  0.00     0.040 A 
ATOM     68  C   UNL A   1      39.773  34.184  36.908  1.00  0.00     0.040 A 
ATOM     69  F   UNL A   1      41.100  33.787  35.011  1.00  0.00    -0.206 F 
ATOM     70  C   UNL A   1      38.799  33.767  37.812  1.00  0.00     0.006 A 
ENDBRANCH  49  63
BRANCH  50  71
ATOM     71  C   UNL A   1      41.956  27.009  27.489  1.00  0.00     0.057 A 
ATOM     72  C   UNL A   1      41.474  25.713  27.281  1.00  0.00     0.134 A 
ATOM     73  C   UNL A   1      42.785  27.561  26.506  1.00  0.00     0.134 A 
ATOM     74  F   UNL A   1      40.682  25.130  28.194  1.00  0.00    -0.206 F 
ATOM     75  C   UNL A   1      41.807  24.987  26.137  1.00  0.00     0.040 A 
ATOM     76  C   UNL A   1      43.109  26.855  25.347  1.00  0.00     0.040 A 
ATOM     77  F   UNL A   1      43.263  28.806  26.647  1.00  0.00    -0.206 F 
ATOM     78  C   UNL A   1      42.622  25.562  25.163  1.00  0.00     0.006 A 
ENDBRANCH  50  71
BRANCH  62  79
ATOM     79  C   UNL A   1      44.365  26.981  34.003  1.00  0.00     0.057 A 
ATOM     80  C   UNL A   1      44.092  25.742  34.596  1.00  0.00     0.134 A 
ATOM     81  C   UNL A   1      45.679  27.459  34.077  1.00  0.00     0.134 A 
ATOM     82  F   UNL A   1      42.851  25.231  34.566  1.00  0.00    -0.206 F 
ATOM     83  C   UNL A   1      45.089  25.004  35.235  1.00  0.00     0.040 A 
ATOM     84  C   UNL A   1      46.690  26.719  34.694  1.00  0.00     0.040 A 
ATOM     85  F   UNL A   1      46.008  28.633  33.516  1.00  0.00    -0.206 F 
ATOM     86  C   UNL A   1      46.394  25.490  35.279  1.00  0.00     0.006 A 
ENDBRANCH  62  79
ENDBRANCH  36  37
ENDBRANCH  29  31
ENDBRANCH  28  29
ENDBRANCH  27  28
ENDBRANCH   1  27
TORSDOF 14
ENDMDL
MODEL 3
REMARK VINA RESULT:     -12.4      4.917      9.662
REMARK SMILES O=C(COc1ccc(Br)cc1/C=C1\C(=O)Nc2ccc(Br)cc21)OCCOC(=O)c1ccc(-c2c3nc(c(-c4c(F)cccc4F)c4ccc([nH]4)c(-c4c(F)cccc4F)c4nc(c(-c5c(F)cccc5F)c5ccc2[nH]5)C=C4)C=C3)cc1
REMARK SMILES IDX 25 1 24 2 2 3 1 4 3 5 4 6 5 7 6 8 11 9 7 10 10 11 8 12 9 13
REMARK SMILES IDX 12 14 13 15 14 16 23 17 15 18 16 19 17 20 22 21 18 23 20 24
REMARK SMILES IDX 19 25 21 26 26 27 27 28 28 29 29 30 30 31 31 32 83 33 32 34
REMARK SMILES IDX 82 35 33 36 34 37 35 38 76 39 36 40 81 41 75 42 77 43 37 44
REMARK SMILES IDX 80 45 74 46 73 47 38 49 64 50 47 51 63 52 48 53 51 54 62 55
REMARK SMILES IDX 78 56 49 57 50 58 61 60 79 61 52 62 39 63 40 64 45 65 41 66
REMARK SMILES IDX 42 67 44 68 46 69 43 70 65 71 66 72 71 73 67 74 68 75 70 76
REMARK SMILES IDX 72 77 69 78 53 79 54 80 59 81 55 82 56 83 58 84 60 85 57 86
REMARK H PARENT 16 22 77 48 51 59
REMARK Flexibility Score: inf
ROOT
ATOM      1  C   UNL A   1      32.995  29.763  26.660  1.00  0.00     0.274 C 
ENDROOT
BRANCH   1   2
ATOM      2  O   UNL A   1      33.544  28.445  26.870  1.00  0.00    -0.460 OA
BRANCH   2   3
ATOM      3  C   UNL A   1      33.651  27.537  25.870  1.00  0.00     0.344 C 
ATOM      4  O   UNL A   1      33.691  26.335  26.127  1.00  0.00    -0.248 OA
BRANCH   3   5
ATOM      5  C   UNL A   1      33.626  28.044  24.426  1.00  0.00     0.352 C 
BRANCH   5   6
ATOM      6  O   UNL A   1      33.057  27.163  23.445  1.00  0.00    -0.481 OA
BRANCH   6   7
ATOM      7  C   UNL A   1      31.746  27.516  23.199  1.00  0.00     0.127 A 
ATOM      8  C   UNL A   1      31.489  28.851  22.829  1.00  0.00     0.048 A 
ATOM      9  C   UNL A   1      30.698  26.585  23.370  1.00  0.00     0.018 A 
ATOM     10  C   UNL A   1      30.191  29.339  22.785  1.00  0.00     0.019 A 
ATOM     11  C   UNL A   1      29.404  27.134  23.362  1.00  0.00     0.027 A 
ATOM     12  C   UNL A   1      29.152  28.481  23.083  1.00  0.00     0.018 A 
ATOM     13  Br  UNL A   1      27.375  29.127  23.126  1.00  0.00    -0.051 Br
BRANCH   9  14
ATOM     14  C   UNL A   1      30.968  25.135  23.637  1.00  0.00     0.026 C 
ATOM     15  C   UNL A   1      30.867  24.418  24.780  1.00  0.00     0.050 C 
ATOM     16  C   UNL A   1      30.498  24.929  26.147  1.00  0.00     0.256 C 
ATOM     17  C   UNL A   1      31.643  23.191  25.034  1.00  0.00     0.012 A 
ATOM     18  O   UNL A   1      29.515  25.536  26.495  1.00  0.00    -0.269 OA
ATOM     19  N   UNL A   1      31.498  24.426  26.965  1.00  0.00    -0.321 N 
ATOM     20  C   UNL A   1      32.146  23.371  26.332  1.00  0.00     0.049 A 
ATOM     21  C   UNL A   1      31.865  21.998  24.374  1.00  0.00     0.026 A 
ATOM     22  H   UNL A   1      31.716  24.767  27.863  1.00  0.00     0.170 HD
ATOM     23  C   UNL A   1      33.029  22.499  26.923  1.00  0.00     0.028 A 
ATOM     24  C   UNL A   1      32.687  21.052  25.009  1.00  0.00     0.018 A 
ATOM     25  C   UNL A   1      33.314  21.323  26.239  1.00  0.00     0.018 A 
ATOM     26  Br  UNL A   1      32.904  19.332  24.251  1.00  0.00    -0.051 Br
ENDBRANCH   9  14
ENDBRANCH   6   7
ENDBRANCH   5   6
ENDBRANCH   3   5
ENDBRANCH   2   3
ENDBRANCH   1   2
BRANCH   1  27
ATOM     27  C   UNL A   1      33.658  30.762  27.611  1.00  0.00     0.275 C 
BRANCH  27  28
ATOM     28  O   UNL A   1      35.082  30.558  27.581  1.00  0.00    -0.458 OA
BRANCH  28  29
ATOM     29  C   UNL A   1      35.750  30.795  28.741  1.00  0.00     0.338 C 
ATOM     30  O   UNL A   1      35.310  31.309  29.751  1.00  0.00    -0.246 OA
BRANCH  29  31
ATOM     31  C   UNL A   1      37.077  30.144  28.640  1.00  0.00     0.060 A 
ATOM     32  C   UNL A   1      37.707  29.976  27.404  1.00  0.00     0.016 A 
ATOM     33  C   UNL A   1      37.680  29.658  29.806  1.00  0.00     0.016 A 
ATOM     34  C   UNL A   1      38.942  29.330  27.338  1.00  0.00     0.010 A 
ATOM     35  C   UNL A   1      38.920  29.013  29.741  1.00  0.00     0.010 A 
ATOM     36  C   UNL A   1      39.565  28.858  28.506  1.00  0.00    -0.014 A 
BRANCH  36  37
ATOM     37  C   UNL A   1      40.961  28.366  28.428  1.00  0.00     0.031 A 
ATOM     38  C   UNL A   1      41.293  26.942  28.102  1.00  0.00     0.074 A 
ATOM     39  C   UNL A   1      41.950  29.255  28.643  1.00  0.00     0.049 A 
ATOM     40  N   UNL A   1      42.466  26.417  27.848  1.00  0.00    -0.248 NA
ATOM     41  C   UNL A   1      40.181  25.982  28.057  1.00  0.00     0.031 C 
ATOM     42  C   UNL A   1      41.751  30.657  29.018  1.00  0.00     0.029 A 
ATOM     43  N   UNL A   1      43.311  29.120  28.558  1.00  0.00    -0.354 N 
ATOM     44  C   UNL A   1      42.239  25.068  27.618  1.00  0.00     0.074 A 
ATOM     45  C   UNL A   1      40.814  24.850  27.772  1.00  0.00     0.031 C 
ATOM     46  C   UNL A   1      42.946  31.261  29.097  1.00  0.00     0.029 A 
ATOM     47  C   UNL A   1      43.990  30.290  28.788  1.00  0.00     0.049 A 
ATOM     48  H   UNL A   1      43.757  28.266  28.352  1.00  0.00     0.167 HD
ATOM     49  C   UNL A   1      43.139  24.108  27.295  1.00  0.00     0.037 A 
ATOM     50  C   UNL A   1      45.308  30.558  28.736  1.00  0.00     0.037 A 
ATOM     51  C   UNL A   1      44.550  24.328  27.109  1.00  0.00     0.049 A 
ATOM     52  C   UNL A   1      46.270  29.478  28.342  1.00  0.00     0.074 A 
ATOM     53  C   UNL A   1      45.510  23.431  26.672  1.00  0.00     0.029 A 
ATOM     54  N   UNL A   1      45.206  25.523  27.358  1.00  0.00    -0.354 N 
ATOM     55  N   UNL A   1      46.025  28.238  27.996  1.00  0.00    -0.248 NA
ATOM     56  C   UNL A   1      47.694  29.842  28.313  1.00  0.00     0.031 C 
ATOM     57  C   UNL A   1      46.751  24.076  26.678  1.00  0.00     0.029 A 
ATOM     58  C   UNL A   1      46.560  25.380  27.103  1.00  0.00     0.049 A 
ATOM     59  H   UNL A   1      44.773  26.351  27.669  1.00  0.00     0.167 HD
ATOM     60  C   UNL A   1      47.257  27.683  27.682  1.00  0.00     0.074 A 
ATOM     61  C   UNL A   1      48.246  28.724  27.865  1.00  0.00     0.031 C 
ATOM     62  C   UNL A   1      47.540  26.421  27.276  1.00  0.00     0.037 A 
BRANCH  49  63
ATOM     63  C   UNL A   1      42.633  22.715  27.092  1.00  0.00     0.057 A 
ATOM     64  C   UNL A   1      42.389  22.214  25.809  1.00  0.00     0.134 A 
ATOM     65  C   UNL A   1      42.280  21.913  28.182  1.00  0.00     0.134 A 
ATOM     66  F   UNL A   1      42.676  22.950  24.725  1.00  0.00    -0.206 F 
ATOM     67  C   UNL A   1      41.822  20.953  25.616  1.00  0.00     0.040 A 
ATOM     68  C   UNL A   1      41.704  20.655  28.001  1.00  0.00     0.040 A 
ATOM     69  F   UNL A   1      42.476  22.347  29.435  1.00  0.00    -0.206 F 
ATOM     70  C   UNL A   1      41.479  20.168  26.716  1.00  0.00     0.006 A 
ENDBRANCH  49  63
BRANCH  50  71
ATOM     71  C   UNL A   1      45.787  31.933  29.009  1.00  0.00     0.057 A 
ATOM     72  C   UNL A   1      46.164  32.331  30.296  1.00  0.00     0.134 A 
ATOM     73  C   UNL A   1      45.884  32.877  27.982  1.00  0.00     0.134 A 
ATOM     74  F   UNL A   1      46.084  31.470  31.322  1.00  0.00    -0.206 F 
ATOM     75  C   UNL A   1      46.616  33.625  30.554  1.00  0.00     0.040 A 
ATOM     76  C   UNL A   1      46.355  34.168  28.221  1.00  0.00     0.040 A 
ATOM     77  F   UNL A   1      45.550  32.545  26.726  1.00  0.00    -0.206 F 
ATOM     78  C   UNL A   1      46.719  34.546  29.512  1.00  0.00     0.006 A 
ENDBRANCH  50  71
BRANCH  62  79
ATOM     79  C   UNL A   1      48.974  26.107  26.975  1.00  0.00     0.057 A 
ATOM     80  C   UNL A   1      49.481  26.252  25.677  1.00  0.00     0.134 A 
ATOM     81  C   UNL A   1      49.850  25.645  27.965  1.00  0.00     0.134 A 
ATOM     82  F   UNL A   1      48.691  26.683  24.681  1.00  0.00    -0.206 F 
ATOM     83  C   UNL A   1      50.810  25.953  25.376  1.00  0.00     0.040 A 
ATOM     84  C   UNL A   1      51.188  25.365  27.680  1.00  0.00     0.040 A 
ATOM     85  F   UNL A   1      49.429  25.498  29.230  1.00  0.00    -0.206 F 
ATOM     86  C   UNL A   1      51.669  25.514  26.381  1.00  0.00     0.006 A 
ENDBRANCH  62  79
ENDBRANCH  36  37
ENDBRANCH  29  31
ENDBRANCH  28  29
ENDBRANCH  27  28
ENDBRANCH   1  27
TORSDOF 14
ENDMDL
