MODEL 1
REMARK VINA RESULT:     -13.1      0.000      0.000
REMARK SMILES O=C(OCCOC(=O)c1ccc([C@@H]2CC(O)=Nc3c2ncn3-c2cccc(Cl)c2)cc1)c1ccc(-c2c3nc(c(-c4c(F)cccc4F)c4ccc([nH]4)c(-c4c(F)cccc4F)c4nc(c(-c5c(F)cccc5F)c5ccc2[nH]5)C=C4)C=C3)cc1
REMARK SMILES IDX 4 1 3 2 2 3 1 4 32 5 33 6 85 7 34 8 84 9 35 10 36 11 37 12
REMARK SMILES IDX 78 13 38 14 83 15 77 16 79 17 39 18 82 19 76 20 75 21 40 23
REMARK SMILES IDX 66 24 49 25 65 26 50 27 53 28 64 29 80 30 51 31 52 32 63 34
REMARK SMILES IDX 81 35 54 36 41 37 42 38 47 39 43 40 44 41 46 42 48 43 45 44
REMARK SMILES IDX 67 45 68 46 73 47 69 48 70 49 72 50 74 51 71 52 55 53 56 54
REMARK SMILES IDX 61 55 57 56 58 57 60 58 62 59 59 60 5 61 6 62 7 63 8 64 9 65
REMARK SMILES IDX 10 66 31 67 11 68 30 69 12 70 13 71 14 72 19 73 15 74 18 75
REMARK SMILES IDX 20 76 17 77 22 78 21 79 16 80 23 82 24 83 29 84 25 85 27 86
REMARK SMILES IDX 26 87 28 88
REMARK H PARENT 79 22 53 33 16 81
REMARK Flexibility Score: inf
ROOT
ATOM      1  C   UNL A   1      32.387  30.654  26.863  1.00  0.00     0.275 C 
ENDROOT
BRANCH   1   2
ATOM      2  O   UNL A   1      33.823  30.524  26.915  1.00  0.00    -0.458 OA
BRANCH   2   3
ATOM      3  C   UNL A   1      34.534  31.441  27.606  1.00  0.00     0.338 C 
ATOM      4  O   UNL A   1      34.111  32.524  27.972  1.00  0.00    -0.246 OA
BRANCH   3   5
ATOM      5  C   UNL A   1      35.828  30.882  28.049  1.00  0.00     0.060 A 
ATOM      6  C   UNL A   1      36.824  31.683  28.619  1.00  0.00     0.016 A 
ATOM      7  C   UNL A   1      36.031  29.505  27.904  1.00  0.00     0.016 A 
ATOM      8  C   UNL A   1      38.045  31.129  28.971  1.00  0.00     0.010 A 
ATOM      9  C   UNL A   1      37.249  28.947  28.274  1.00  0.00     0.010 A 
ATOM     10  C   UNL A   1      38.272  29.766  28.766  1.00  0.00    -0.014 A 
BRANCH  10  11
ATOM     11  C   UNL A   1      39.593  29.232  29.096  1.00  0.00     0.031 A 
ATOM     12  C   UNL A   1      39.956  29.100  30.543  1.00  0.00     0.074 A 
ATOM     13  C   UNL A   1      40.411  28.706  28.163  1.00  0.00     0.049 A 
ATOM     14  N   UNL A   1      41.017  29.520  31.160  1.00  0.00    -0.248 NA
ATOM     15  C   UNL A   1      39.003  28.398  31.413  1.00  0.00     0.031 C 
ATOM     16  C   UNL A   1      40.135  28.435  26.750  1.00  0.00     0.029 A 
ATOM     17  N   UNL A   1      41.653  28.177  28.343  1.00  0.00    -0.354 N 
ATOM     18  C   UNL A   1      40.935  29.031  32.466  1.00  0.00     0.074 A 
ATOM     19  C   UNL A   1      39.650  28.391  32.578  1.00  0.00     0.031 C 
ATOM     20  C   UNL A   1      41.071  27.585  26.274  1.00  0.00     0.029 A 
ATOM     21  C   UNL A   1      42.081  27.378  27.298  1.00  0.00     0.049 A 
ATOM     22  H   UNL A   1      42.197  28.348  29.144  1.00  0.00     0.167 HD
ATOM     23  C   UNL A   1      41.972  29.077  33.352  1.00  0.00     0.037 A 
ATOM     24  C   UNL A   1      43.148  26.547  27.307  1.00  0.00     0.037 A 
ATOM     25  C   UNL A   1      42.972  30.033  32.969  1.00  0.00     0.049 A 
ATOM     26  C   UNL A   1      44.047  26.962  28.411  1.00  0.00     0.074 A 
ATOM     27  C   UNL A   1      42.982  31.399  32.764  1.00  0.00     0.029 A 
ATOM     28  N   UNL A   1      44.160  29.587  32.449  1.00  0.00    -0.354 N 
ATOM     29  N   UNL A   1      44.744  28.063  28.417  1.00  0.00    -0.248 NA
ATOM     30  C   UNL A   1      43.858  26.332  29.710  1.00  0.00     0.031 C 
ATOM     31  C   UNL A   1      43.883  31.599  31.676  1.00  0.00     0.029 A 
ATOM     32  C   UNL A   1      44.371  30.340  31.323  1.00  0.00     0.049 A 
ATOM     33  H   UNL A   1      44.739  28.876  32.809  1.00  0.00     0.167 HD
ATOM     34  C   UNL A   1      44.738  28.480  29.740  1.00  0.00     0.074 A 
ATOM     35  C   UNL A   1      44.262  27.328  30.501  1.00  0.00     0.031 C 
ATOM     36  C   UNL A   1      44.852  29.798  30.078  1.00  0.00     0.037 A 
BRANCH  23  37
ATOM     37  C   UNL A   1      42.208  28.083  34.460  1.00  0.00     0.057 A 
ATOM     38  C   UNL A   1      42.728  26.807  34.166  1.00  0.00     0.134 A 
ATOM     39  C   UNL A   1      41.687  28.232  35.761  1.00  0.00     0.134 A 
ATOM     40  F   UNL A   1      43.232  26.530  32.954  1.00  0.00    -0.206 F 
ATOM     41  C   UNL A   1      42.681  25.745  35.079  1.00  0.00     0.040 A 
ATOM     42  C   UNL A   1      41.680  27.192  36.696  1.00  0.00     0.040 A 
ATOM     43  F   UNL A   1      41.074  29.358  36.152  1.00  0.00    -0.206 F 
ATOM     44  C   UNL A   1      42.152  25.935  36.348  1.00  0.00     0.006 A 
ENDBRANCH  23  37
BRANCH  24  45
ATOM     45  C   UNL A   1      43.294  25.255  26.606  1.00  0.00     0.057 A 
ATOM     46  C   UNL A   1      42.509  24.149  26.949  1.00  0.00     0.134 A 
ATOM     47  C   UNL A   1      44.032  25.148  25.414  1.00  0.00     0.134 A 
ATOM     48  F   UNL A   1      41.731  24.178  28.041  1.00  0.00    -0.206 F 
ATOM     49  C   UNL A   1      42.455  23.001  26.149  1.00  0.00     0.040 A 
ATOM     50  C   UNL A   1      43.997  24.005  24.612  1.00  0.00     0.040 A 
ATOM     51  F   UNL A   1      44.746  26.181  24.945  1.00  0.00    -0.206 F 
ATOM     52  C   UNL A   1      43.197  22.929  24.973  1.00  0.00     0.006 A 
ENDBRANCH  24  45
BRANCH  36  53
ATOM     53  C   UNL A   1      45.193  30.786  28.999  1.00  0.00     0.057 A 
ATOM     54  C   UNL A   1      46.510  31.107  28.635  1.00  0.00     0.134 A 
ATOM     55  C   UNL A   1      44.173  31.292  28.186  1.00  0.00     0.134 A 
ATOM     56  F   UNL A   1      47.556  30.577  29.280  1.00  0.00    -0.206 F 
ATOM     57  C   UNL A   1      46.795  31.932  27.544  1.00  0.00     0.040 A 
ATOM     58  C   UNL A   1      44.446  32.091  27.072  1.00  0.00     0.040 A 
ATOM     59  F   UNL A   1      42.892  30.973  28.430  1.00  0.00    -0.206 F 
ATOM     60  C   UNL A   1      45.761  32.422  26.755  1.00  0.00     0.006 A 
ENDBRANCH  36  53
ENDBRANCH  10  11
ENDBRANCH   3   5
ENDBRANCH   2   3
ENDBRANCH   1   2
BRANCH   1  61
ATOM     61  C   UNL A   1      31.712  30.443  25.508  1.00  0.00     0.275 C 
BRANCH  61  62
ATOM     62  O   UNL A   1      32.568  29.679  24.642  1.00  0.00    -0.458 OA
BRANCH  62  63
ATOM     63  C   UNL A   1      31.995  28.574  24.094  1.00  0.00     0.338 C 
ATOM     64  O   UNL A   1      31.059  28.514  23.329  1.00  0.00    -0.246 OA
BRANCH  63  65
ATOM     65  C   UNL A   1      32.701  27.399  24.624  1.00  0.00     0.060 A 
ATOM     66  C   UNL A   1      32.619  27.082  25.980  1.00  0.00     0.016 A 
ATOM     67  C   UNL A   1      33.471  26.630  23.754  1.00  0.00     0.016 A 
ATOM     68  C   UNL A   1      33.272  25.943  26.459  1.00  0.00     0.005 A 
ATOM     69  C   UNL A   1      34.148  25.514  24.244  1.00  0.00     0.005 A 
ATOM     70  C   UNL A   1      34.029  25.131  25.595  1.00  0.00    -0.038 A 
BRANCH  70  71
ATOM     71  C   UNL A   1      34.730  23.900  26.157  1.00  0.00     0.081 C 
ATOM     72  C   UNL A   1      36.158  23.751  25.593  1.00  0.00     0.111 C 
ATOM     73  C   UNL A   1      33.888  22.718  25.838  1.00  0.00     0.093 A 
ATOM     74  C   UNL A   1      36.433  22.455  24.849  1.00  0.00     0.188 C 
ATOM     75  C   UNL A   1      34.395  21.622  25.176  1.00  0.00     0.164 A 
ATOM     76  N   UNL A   1      32.547  22.595  26.069  1.00  0.00    -0.238 NA
ATOM     77  N   UNL A   1      35.642  21.445  24.677  1.00  0.00    -0.198 NA
ATOM     78  N   UNL A   1      33.309  20.789  24.967  1.00  0.00    -0.283 N 
ATOM     79  C   UNL A   1      32.220  21.454  25.498  1.00  0.00     0.206 A 
BRANCH  74  80
ATOM     80  O   UNL A   1      37.676  22.382  24.329  1.00  0.00    -0.496 OA
ATOM     81  H   UNL A   1      38.183  21.602  24.434  1.00  0.00     0.294 HD
ENDBRANCH  74  80
BRANCH  78  82
ATOM     82  C   UNL A   1      33.290  19.526  24.327  1.00  0.00     0.050 A 
ATOM     83  C   UNL A   1      32.471  19.319  23.209  1.00  0.00     0.027 A 
ATOM     84  C   UNL A   1      34.082  18.482  24.822  1.00  0.00     0.047 A 
ATOM     85  C   UNL A   1      32.472  18.077  22.570  1.00  0.00     0.004 A 
ATOM     86  C   UNL A   1      34.038  17.234  24.204  1.00  0.00     0.043 A 
ATOM     87  C   UNL A   1      33.248  17.031  23.073  1.00  0.00     0.020 A 
ATOM     88  Cl  UNL A   1      34.947  15.926  24.855  1.00  0.00    -0.084 Cl
ENDBRANCH  78  82
ENDBRANCH  70  71
ENDBRANCH  63  65
ENDBRANCH  62  63
ENDBRANCH  61  62
ENDBRANCH   1  61
TORSDOF 14
ENDMDL
MODEL 2
REMARK VINA RESULT:     -12.9      2.237      3.480
REMARK SMILES O=C(OCCOC(=O)c1ccc([C@@H]2CC(O)=Nc3c2ncn3-c2cccc(Cl)c2)cc1)c1ccc(-c2c3nc(c(-c4c(F)cccc4F)c4ccc([nH]4)c(-c4c(F)cccc4F)c4nc(c(-c5c(F)cccc5F)c5ccc2[nH]5)C=C4)C=C3)cc1
REMARK SMILES IDX 4 1 3 2 2 3 1 4 32 5 33 6 85 7 34 8 84 9 35 10 36 11 37 12
REMARK SMILES IDX 78 13 38 14 83 15 77 16 79 17 39 18 82 19 76 20 75 21 40 23
REMARK SMILES IDX 66 24 49 25 65 26 50 27 53 28 64 29 80 30 51 31 52 32 63 34
REMARK SMILES IDX 81 35 54 36 41 37 42 38 47 39 43 40 44 41 46 42 48 43 45 44
REMARK SMILES IDX 67 45 68 46 73 47 69 48 70 49 72 50 74 51 71 52 55 53 56 54
REMARK SMILES IDX 61 55 57 56 58 57 60 58 62 59 59 60 5 61 6 62 7 63 8 64 9 65
REMARK SMILES IDX 10 66 31 67 11 68 30 69 12 70 13 71 14 72 19 73 15 74 18 75
REMARK SMILES IDX 20 76 17 77 22 78 21 79 16 80 23 82 24 83 29 84 25 85 27 86
REMARK SMILES IDX 26 87 28 88
REMARK H PARENT 79 22 53 33 16 81
REMARK Flexibility Score: inf
ROOT
ATOM      1  C   UNL A   1      35.232  32.359  28.132  1.00  0.00     0.275 C 
ENDROOT
BRANCH   1   2
ATOM      2  O   UNL A   1      35.745  32.958  29.340  1.00  0.00    -0.458 OA
BRANCH   2   3
ATOM      3  C   UNL A   1      35.860  32.192  30.447  1.00  0.00     0.338 C 
ATOM      4  O   UNL A   1      35.049  32.150  31.356  1.00  0.00    -0.246 OA
BRANCH   3   5
ATOM      5  C   UNL A   1      36.990  31.248  30.320  1.00  0.00     0.060 A 
ATOM      6  C   UNL A   1      36.818  29.866  30.457  1.00  0.00     0.016 A 
ATOM      7  C   UNL A   1      38.255  31.774  30.035  1.00  0.00     0.016 A 
ATOM      8  C   UNL A   1      37.913  29.018  30.387  1.00  0.00     0.010 A 
ATOM      9  C   UNL A   1      39.349  30.922  29.945  1.00  0.00     0.010 A 
ATOM     10  C   UNL A   1      39.186  29.550  30.166  1.00  0.00    -0.014 A 
BRANCH  10  11
ATOM     11  C   UNL A   1      40.322  28.629  30.157  1.00  0.00     0.031 A 
ATOM     12  C   UNL A   1      41.026  28.369  31.454  1.00  0.00     0.074 A 
ATOM     13  C   UNL A   1      40.642  27.888  29.077  1.00  0.00     0.049 A 
ATOM     14  N   UNL A   1      42.295  28.430  31.720  1.00  0.00    -0.248 NA
ATOM     15  C   UNL A   1      40.197  27.984  32.603  1.00  0.00     0.031 C 
ATOM     16  C   UNL A   1      39.904  27.737  27.820  1.00  0.00     0.029 A 
ATOM     17  N   UNL A   1      41.663  26.999  28.946  1.00  0.00    -0.354 N 
ATOM     18  C   UNL A   1      42.447  27.971  33.031  1.00  0.00     0.074 A 
ATOM     19  C   UNL A   1      41.117  27.759  33.541  1.00  0.00     0.031 C 
ATOM     20  C   UNL A   1      40.364  26.647  27.169  1.00  0.00     0.029 A 
ATOM     21  C   UNL A   1      41.513  26.122  27.887  1.00  0.00     0.049 A 
ATOM     22  H   UNL A   1      42.439  26.980  29.551  1.00  0.00     0.167 HD
ATOM     23  C   UNL A   1      43.657  27.681  33.589  1.00  0.00     0.037 A 
ATOM     24  C   UNL A   1      42.236  25.001  27.663  1.00  0.00     0.037 A 
ATOM     25  C   UNL A   1      44.745  28.285  32.875  1.00  0.00     0.049 A 
ATOM     26  C   UNL A   1      43.495  25.101  28.441  1.00  0.00     0.074 A 
ATOM     27  C   UNL A   1      45.106  29.584  32.572  1.00  0.00     0.029 A 
ATOM     28  N   UNL A   1      45.543  27.501  32.081  1.00  0.00    -0.354 N 
ATOM     29  N   UNL A   1      44.463  25.931  28.172  1.00  0.00    -0.248 NA
ATOM     30  C   UNL A   1      43.505  24.541  29.785  1.00  0.00     0.031 C 
ATOM     31  C   UNL A   1      45.675  29.511  31.267  1.00  0.00     0.029 A 
ATOM     32  C   UNL A   1      45.639  28.169  30.888  1.00  0.00     0.049 A 
ATOM     33  H   UNL A   1      45.959  26.641  32.319  1.00  0.00     0.167 HD
ATOM     34  C   UNL A   1      44.960  26.310  29.409  1.00  0.00     0.074 A 
ATOM     35  C   UNL A   1      44.399  25.351  30.357  1.00  0.00     0.031 C 
ATOM     36  C   UNL A   1      45.557  27.523  29.602  1.00  0.00     0.037 A 
BRANCH  23  37
ATOM     37  C   UNL A   1      43.890  26.646  34.661  1.00  0.00     0.057 A 
ATOM     38  C   UNL A   1      44.391  27.034  35.919  1.00  0.00     0.134 A 
ATOM     39  C   UNL A   1      43.905  25.260  34.411  1.00  0.00     0.134 A 
ATOM     40  F   UNL A   1      44.452  28.327  36.269  1.00  0.00    -0.206 F 
ATOM     41  C   UNL A   1      44.918  26.114  36.836  1.00  0.00     0.040 A 
ATOM     42  C   UNL A   1      44.384  24.329  35.340  1.00  0.00     0.040 A 
ATOM     43  F   UNL A   1      43.550  24.751  33.223  1.00  0.00    -0.206 F 
ATOM     44  C   UNL A   1      44.919  24.757  36.545  1.00  0.00     0.006 A 
ENDBRANCH  23  37
BRANCH  24  45
ATOM     45  C   UNL A   1      41.780  23.738  27.048  1.00  0.00     0.057 A 
ATOM     46  C   UNL A   1      42.632  22.969  26.249  1.00  0.00     0.134 A 
ATOM     47  C   UNL A   1      40.573  23.128  27.436  1.00  0.00     0.134 A 
ATOM     48  F   UNL A   1      43.827  23.447  25.872  1.00  0.00    -0.206 F 
ATOM     49  C   UNL A   1      42.307  21.663  25.860  1.00  0.00     0.040 A 
ATOM     50  C   UNL A   1      40.231  21.831  27.047  1.00  0.00     0.040 A 
ATOM     51  F   UNL A   1      39.725  23.740  28.275  1.00  0.00    -0.206 F 
ATOM     52  C   UNL A   1      41.105  21.089  26.265  1.00  0.00     0.006 A 
ENDBRANCH  24  45
BRANCH  36  53
ATOM     53  C   UNL A   1      45.857  28.372  28.400  1.00  0.00     0.057 A 
ATOM     54  C   UNL A   1      44.921  29.239  27.816  1.00  0.00     0.134 A 
ATOM     55  C   UNL A   1      47.172  28.454  27.931  1.00  0.00     0.134 A 
ATOM     56  F   UNL A   1      43.667  29.318  28.275  1.00  0.00    -0.206 F 
ATOM     57  C   UNL A   1      45.267  30.110  26.779  1.00  0.00     0.040 A 
ATOM     58  C   UNL A   1      47.539  29.344  26.917  1.00  0.00     0.040 A 
ATOM     59  F   UNL A   1      48.138  27.706  28.488  1.00  0.00    -0.206 F 
ATOM     60  C   UNL A   1      46.582  30.168  26.330  1.00  0.00     0.006 A 
ENDBRANCH  36  53
ENDBRANCH  10  11
ENDBRANCH   3   5
ENDBRANCH   2   3
ENDBRANCH   1   2
BRANCH   1  61
ATOM     61  C   UNL A   1      33.717  32.378  27.928  1.00  0.00     0.275 C 
BRANCH  61  62
ATOM     62  O   UNL A   1      33.267  31.098  27.449  1.00  0.00    -0.458 OA
BRANCH  62  63
ATOM     63  C   UNL A   1      32.071  31.115  26.802  1.00  0.00     0.338 C 
ATOM     64  O   UNL A   1      31.322  32.049  26.630  1.00  0.00    -0.246 OA
BRANCH  63  65
ATOM     65  C   UNL A   1      31.796  29.745  26.343  1.00  0.00     0.060 A 
ATOM     66  C   UNL A   1      31.961  28.667  27.213  1.00  0.00     0.016 A 
ATOM     67  C   UNL A   1      31.397  29.547  25.024  1.00  0.00     0.016 A 
ATOM     68  C   UNL A   1      31.664  27.375  26.769  1.00  0.00     0.005 A 
ATOM     69  C   UNL A   1      31.135  28.252  24.576  1.00  0.00     0.005 A 
ATOM     70  C   UNL A   1      31.228  27.151  25.450  1.00  0.00    -0.038 A 
BRANCH  70  71
ATOM     71  C   UNL A   1      30.920  25.728  25.002  1.00  0.00     0.081 C 
ATOM     72  C   UNL A   1      30.259  24.907  26.129  1.00  0.00     0.111 C 
ATOM     73  C   UNL A   1      32.194  25.112  24.549  1.00  0.00     0.093 A 
ATOM     74  C   UNL A   1      31.007  23.652  26.546  1.00  0.00     0.188 C 
ATOM     75  C   UNL A   1      32.646  23.917  25.063  1.00  0.00     0.164 A 
ATOM     76  N   UNL A   1      33.088  25.657  23.671  1.00  0.00    -0.238 NA
ATOM     77  N   UNL A   1      32.093  23.159  26.040  1.00  0.00    -0.198 NA
ATOM     78  N   UNL A   1      33.892  23.724  24.491  1.00  0.00    -0.283 N 
ATOM     79  C   UNL A   1      34.112  24.829  23.690  1.00  0.00     0.206 A 
BRANCH  74  80
ATOM     80  O   UNL A   1      30.426  22.988  27.566  1.00  0.00    -0.496 OA
ATOM     81  H   UNL A   1      30.924  22.773  28.329  1.00  0.00     0.294 HD
ENDBRANCH  74  80
BRANCH  78  82
ATOM     82  C   UNL A   1      34.782  22.639  24.686  1.00  0.00     0.050 A 
ATOM     83  C   UNL A   1      36.141  22.882  24.928  1.00  0.00     0.027 A 
ATOM     84  C   UNL A   1      34.302  21.325  24.625  1.00  0.00     0.047 A 
ATOM     85  C   UNL A   1      37.009  21.809  25.139  1.00  0.00     0.004 A 
ATOM     86  C   UNL A   1      35.189  20.262  24.791  1.00  0.00     0.043 A 
ATOM     87  C   UNL A   1      36.536  20.498  25.061  1.00  0.00     0.020 A 
ATOM     88  Cl  UNL A   1      34.621  18.645  24.637  1.00  0.00    -0.084 Cl
ENDBRANCH  78  82
ENDBRANCH  70  71
ENDBRANCH  63  65
ENDBRANCH  62  63
ENDBRANCH  61  62
ENDBRANCH   1  61
TORSDOF 14
ENDMDL
MODEL 3
REMARK VINA RESULT:     -12.7      2.529      6.500
REMARK SMILES O=C(OCCOC(=O)c1ccc([C@@H]2CC(O)=Nc3c2ncn3-c2cccc(Cl)c2)cc1)c1ccc(-c2c3nc(c(-c4c(F)cccc4F)c4ccc([nH]4)c(-c4c(F)cccc4F)c4nc(c(-c5c(F)cccc5F)c5ccc2[nH]5)C=C4)C=C3)cc1
REMARK SMILES IDX 4 1 3 2 2 3 1 4 32 5 33 6 85 7 34 8 84 9 35 10 36 11 37 12
REMARK SMILES IDX 78 13 38 14 83 15 77 16 79 17 39 18 82 19 76 20 75 21 40 23
REMARK SMILES IDX 66 24 49 25 65 26 50 27 53 28 64 29 80 30 51 31 52 32 63 34
REMARK SMILES IDX 81 35 54 36 41 37 42 38 47 39 43 40 44 41 46 42 48 43 45 44
REMARK SMILES IDX 67 45 68 46 73 47 69 48 70 49 72 50 74 51 71 52 55 53 56 54
REMARK SMILES IDX 61 55 57 56 58 57 60 58 62 59 59 60 5 61 6 62 7 63 8 64 9 65
REMARK SMILES IDX 10 66 31 67 11 68 30 69 12 70 13 71 14 72 19 73 15 74 18 75
REMARK SMILES IDX 20 76 17 77 22 78 21 79 16 80 23 82 24 83 29 84 25 85 27 86
REMARK SMILES IDX 26 87 28 88
REMARK H PARENT 79 22 53 33 16 81
REMARK Flexibility Score: inf
ROOT
ATOM      1  C   UNL A   1      35.155  32.103  28.720  1.00  0.00     0.275 C 
ENDROOT
BRANCH   1   2
ATOM      2  O   UNL A   1      36.119  31.255  28.061  1.00  0.00    -0.458 OA
BRANCH   2   3
ATOM      3  C   UNL A   1      36.135  29.937  28.358  1.00  0.00     0.338 C 
ATOM      4  O   UNL A   1      35.149  29.228  28.450  1.00  0.00    -0.246 OA
BRANCH   3   5
ATOM      5  C   UNL A   1      37.517  29.412  28.351  1.00  0.00     0.060 A 
ATOM      6  C   UNL A   1      38.003  28.594  29.378  1.00  0.00     0.016 A 
ATOM      7  C   UNL A   1      38.336  29.738  27.264  1.00  0.00     0.016 A 
ATOM      8  C   UNL A   1      39.322  28.168  29.361  1.00  0.00     0.010 A 
ATOM      9  C   UNL A   1      39.652  29.294  27.238  1.00  0.00     0.010 A 
ATOM     10  C   UNL A   1      40.159  28.547  28.308  1.00  0.00    -0.014 A 
BRANCH  10  11
ATOM     11  C   UNL A   1      41.558  28.125  28.358  1.00  0.00     0.031 A 
ATOM     12  C   UNL A   1      41.926  26.832  27.695  1.00  0.00     0.074 A 
ATOM     13  C   UNL A   1      42.537  28.927  28.821  1.00  0.00     0.049 A 
ATOM     14  N   UNL A   1      42.594  25.830  28.177  1.00  0.00    -0.248 NA
ATOM     15  C   UNL A   1      41.491  26.643  26.305  1.00  0.00     0.031 C 
ATOM     16  C   UNL A   1      42.458  30.337  29.212  1.00  0.00     0.029 A 
ATOM     17  N   UNL A   1      43.867  28.654  28.914  1.00  0.00    -0.354 N 
ATOM     18  C   UNL A   1      42.778  24.933  27.120  1.00  0.00     0.074 A 
ATOM     19  C   UNL A   1      42.035  25.463  26.007  1.00  0.00     0.031 C 
ATOM     20  C   UNL A   1      43.706  30.850  29.262  1.00  0.00     0.029 A 
ATOM     21  C   UNL A   1      44.664  29.777  29.055  1.00  0.00     0.049 A 
ATOM     22  H   UNL A   1      44.231  27.740  28.882  1.00  0.00     0.167 HD
ATOM     23  C   UNL A   1      43.623  23.865  27.181  1.00  0.00     0.037 A 
ATOM     24  C   UNL A   1      46.010  29.828  28.933  1.00  0.00     0.037 A 
ATOM     25  C   UNL A   1      43.959  23.513  28.531  1.00  0.00     0.049 A 
ATOM     26  C   UNL A   1      46.539  28.451  29.090  1.00  0.00     0.074 A 
ATOM     27  C   UNL A   1      43.237  23.107  29.638  1.00  0.00     0.029 A 
ATOM     28  N   UNL A   1      45.205  23.823  29.014  1.00  0.00    -0.354 N 
ATOM     29  N   UNL A   1      46.540  27.786  30.211  1.00  0.00    -0.248 NA
ATOM     30  C   UNL A   1      46.709  27.651  27.886  1.00  0.00     0.031 C 
ATOM     31  C   UNL A   1      43.899  23.712  30.747  1.00  0.00     0.029 A 
ATOM     32  C   UNL A   1      44.987  24.416  30.231  1.00  0.00     0.049 A 
ATOM     33  H   UNL A   1      46.072  23.655  28.579  1.00  0.00     0.167 HD
ATOM     34  C   UNL A   1      46.303  26.471  29.842  1.00  0.00     0.074 A 
ATOM     35  C   UNL A   1      46.513  26.434  28.398  1.00  0.00     0.031 C 
ATOM     36  C   UNL A   1      45.691  25.588  30.687  1.00  0.00     0.037 A 
BRANCH  23  37
ATOM     37  C   UNL A   1      44.348  23.266  26.003  1.00  0.00     0.057 A 
ATOM     38  C   UNL A   1      44.205  21.895  25.708  1.00  0.00     0.134 A 
ATOM     39  C   UNL A   1      45.393  23.919  25.320  1.00  0.00     0.134 A 
ATOM     40  F   UNL A   1      43.261  21.155  26.310  1.00  0.00    -0.206 F 
ATOM     41  C   UNL A   1      45.071  21.216  24.840  1.00  0.00     0.040 A 
ATOM     42  C   UNL A   1      46.233  23.261  24.415  1.00  0.00     0.040 A 
ATOM     43  F   UNL A   1      45.710  25.197  25.569  1.00  0.00    -0.206 F 
ATOM     44  C   UNL A   1      46.092  21.899  24.194  1.00  0.00     0.006 A 
ENDBRANCH  23  37
BRANCH  24  45
ATOM     45  C   UNL A   1      46.829  30.940  28.412  1.00  0.00     0.057 A 
ATOM     46  C   UNL A   1      46.727  31.356  27.080  1.00  0.00     0.134 A 
ATOM     47  C   UNL A   1      47.550  31.786  29.274  1.00  0.00     0.134 A 
ATOM     48  F   UNL A   1      46.016  30.641  26.196  1.00  0.00    -0.206 F 
ATOM     49  C   UNL A   1      47.304  32.550  26.630  1.00  0.00     0.040 A 
ATOM     50  C   UNL A   1      48.140  32.974  28.836  1.00  0.00     0.040 A 
ATOM     51  F   UNL A   1      47.633  31.530  30.587  1.00  0.00    -0.206 F 
ATOM     52  C   UNL A   1      48.008  33.366  27.511  1.00  0.00     0.006 A 
ENDBRANCH  24  45
BRANCH  36  53
ATOM     53  C   UNL A   1      45.458  26.004  32.111  1.00  0.00     0.057 A 
ATOM     54  C   UNL A   1      44.302  26.675  32.539  1.00  0.00     0.134 A 
ATOM     55  C   UNL A   1      46.335  25.560  33.106  1.00  0.00     0.134 A 
ATOM     56  F   UNL A   1      43.348  27.035  31.673  1.00  0.00    -0.206 F 
ATOM     57  C   UNL A   1      44.056  26.935  33.890  1.00  0.00     0.040 A 
ATOM     58  C   UNL A   1      46.085  25.785  34.463  1.00  0.00     0.040 A 
ATOM     59  F   UNL A   1      47.427  24.852  32.779  1.00  0.00    -0.206 F 
ATOM     60  C   UNL A   1      44.947  26.484  34.858  1.00  0.00     0.006 A 
ENDBRANCH  36  53
ENDBRANCH  10  11
ENDBRANCH   3   5
ENDBRANCH   2   3
ENDBRANCH   1   2
BRANCH   1  61
ATOM     61  C   UNL A   1      33.852  32.395  27.976  1.00  0.00     0.275 C 
BRANCH  61  62
ATOM     62  O   UNL A   1      33.429  31.230  27.246  1.00  0.00    -0.458 OA
BRANCH  62  63
ATOM     63  C   UNL A   1      32.142  31.265  26.805  1.00  0.00     0.338 C 
ATOM     64  O   UNL A   1      31.374  32.199  26.800  1.00  0.00    -0.246 OA
BRANCH  63  65
ATOM     65  C   UNL A   1      31.798  29.914  26.336  1.00  0.00     0.060 A 
ATOM     66  C   UNL A   1      31.901  28.824  27.199  1.00  0.00     0.016 A 
ATOM     67  C   UNL A   1      31.398  29.745  25.013  1.00  0.00     0.016 A 
ATOM     68  C   UNL A   1      31.539  27.552  26.745  1.00  0.00     0.005 A 
ATOM     69  C   UNL A   1      31.070  28.469  24.555  1.00  0.00     0.005 A 
ATOM     70  C   UNL A   1      31.100  27.360  25.422  1.00  0.00    -0.038 A 
BRANCH  70  71
ATOM     71  C   UNL A   1      30.719  25.957  24.963  1.00  0.00     0.081 C 
ATOM     72  C   UNL A   1      29.996  25.171  26.076  1.00  0.00     0.111 C 
ATOM     73  C   UNL A   1      31.965  25.273  24.528  1.00  0.00     0.093 A 
ATOM     74  C   UNL A   1      30.666  23.874  26.499  1.00  0.00     0.188 C 
ATOM     75  C   UNL A   1      32.340  24.052  25.044  1.00  0.00     0.164 A 
ATOM     76  N   UNL A   1      32.901  25.770  23.666  1.00  0.00    -0.238 NA
ATOM     77  N   UNL A   1      31.730  23.324  26.008  1.00  0.00    -0.198 NA
ATOM     78  N   UNL A   1      33.582  23.792  24.491  1.00  0.00    -0.283 N 
ATOM     79  C   UNL A   1      33.877  24.885  23.698  1.00  0.00     0.206 A 
BRANCH  74  80
ATOM     80  O   UNL A   1      30.032  23.241  27.507  1.00  0.00    -0.496 OA
ATOM     81  H   UNL A   1      30.422  22.489  27.907  1.00  0.00     0.294 HD
ENDBRANCH  74  80
BRANCH  78  82
ATOM     82  C   UNL A   1      34.407  22.659  24.694  1.00  0.00     0.050 A 
ATOM     83  C   UNL A   1      33.873  21.370  24.560  1.00  0.00     0.027 A 
ATOM     84  C   UNL A   1      35.754  22.829  25.040  1.00  0.00     0.047 A 
ATOM     85  C   UNL A   1      34.697  20.256  24.742  1.00  0.00     0.004 A 
ATOM     86  C   UNL A   1      36.552  21.710  25.265  1.00  0.00     0.043 A 
ATOM     87  C   UNL A   1      36.034  20.426  25.105  1.00  0.00     0.020 A 
ATOM     88  Cl  UNL A   1      38.185  21.914  25.770  1.00  0.00    -0.084 Cl
ENDBRANCH  78  82
ENDBRANCH  70  71
ENDBRANCH  63  65
ENDBRANCH  62  63
ENDBRANCH  61  62
ENDBRANCH   1  61
TORSDOF 14
ENDMDL
