MODEL 1
REMARK VINA RESULT:     -10.2      0.000      0.000
REMARK SMILES CO[C@H]1C[C@H](C(=O)OCCOC(=O)c2ccc(-c3c4nc(c(-c5c(F)cccc5F)c5ccc([nH]5)c(-c5c(F)cccc5F)c5nc(c(-c6c(F)cccc6F)c6ccc3[nH]6)C=C5)C=C4)cc2)N(C(=O)CCSCC(N)=O)C1
REMARK SMILES IDX 6 1 7 2 5 3 3 4 4 5 78 6 68 7 2 8 1 9 69 10 70 11 71 12
REMARK SMILES IDX 72 13 73 14 74 15 75 16 76 17 77 18 8 21 9 22 10 23 11 24
REMARK SMILES IDX 12 25 13 26 14 27 15 28 67 29 16 30 66 31 17 32 18 33 19 34
REMARK SMILES IDX 60 35 20 36 65 37 59 38 61 39 21 40 64 41 58 42 57 43 22 45
REMARK SMILES IDX 48 46 31 47 47 48 32 49 35 50 46 51 62 52 33 53 34 54 45 56
REMARK SMILES IDX 63 57 36 58 23 59 24 60 29 61 25 62 26 63 28 64 30 65 27 66
REMARK SMILES IDX 49 67 50 68 55 69 51 70 52 71 54 72 56 73 53 74 37 75 38 76
REMARK SMILES IDX 43 77 39 78 40 79 42 80 44 81 41 82
REMARK H PARENT 76 19 76 20 61 44 35 55
REMARK Flexibility Score: inf
ROOT
ATOM      1  C   UNL A   1      36.252  22.655  23.836  1.00  0.00     0.329 C 
ATOM      2  O   UNL A   1      36.215  22.972  22.653  1.00  0.00    -0.250 OA
ENDROOT
BRANCH   1   3
ATOM      3  C   UNL A   1      35.097  22.980  24.797  1.00  0.00     0.197 C 
ATOM      4  C   UNL A   1      34.231  25.178  24.384  1.00  0.00     0.140 C 
ATOM      5  C   UNL A   1      35.089  24.385  25.374  1.00  0.00     0.071 C 
ATOM      6  C   UNL A   1      33.206  24.139  23.900  1.00  0.00     0.152 C 
ATOM      7  N   UNL A   1      33.786  22.831  24.174  1.00  0.00    -0.326 N 
BRANCH   4   8
ATOM      8  O   UNL A   1      33.551  26.336  24.858  1.00  0.00    -0.380 OA
ATOM      9  C   UNL A   1      32.240  26.564  24.370  1.00  0.00     0.195 C 
ENDBRANCH   4   8
BRANCH   7  10
ATOM     10  C   UNL A   1      33.069  21.677  23.952  1.00  0.00     0.224 C 
ATOM     11  O   UNL A   1      32.439  21.520  22.903  1.00  0.00    -0.275 OA
BRANCH  10  12
ATOM     12  C   UNL A   1      33.088  20.572  24.995  1.00  0.00     0.111 C 
BRANCH  12  13
ATOM     13  C   UNL A   1      33.777  19.292  24.510  1.00  0.00     0.080 C 
BRANCH  13  14
ATOM     14  S   UNL A   1      32.765  17.989  23.697  1.00  0.00    -0.152 SA
BRANCH  14  15
ATOM     15  C   UNL A   1      33.953  16.632  23.669  1.00  0.00     0.169 C 
BRANCH  15  16
ATOM     16  C   UNL A   1      34.304  16.051  25.018  1.00  0.00     0.227 C 
ATOM     17  N   UNL A   1      33.448  16.451  26.014  1.00  0.00    -0.369 N 
ATOM     18  O   UNL A   1      35.185  15.232  25.246  1.00  0.00    -0.274 OA
ATOM     19  H   UNL A   1      32.743  17.111  25.822  1.00  0.00     0.159 HD
ATOM     20  H   UNL A   1      33.540  16.079  26.921  1.00  0.00     0.159 HD
ENDBRANCH  15  16
ENDBRANCH  14  15
ENDBRANCH  13  14
ENDBRANCH  12  13
ENDBRANCH  10  12
ENDBRANCH   7  10
ENDBRANCH   1   3
BRANCH   1  21
ATOM     21  O   UNL A   1      37.323  22.065  24.423  1.00  0.00    -0.461 OA
BRANCH  21  22
ATOM     22  C   UNL A   1      37.130  20.684  24.808  1.00  0.00     0.274 C 
BRANCH  22  23
ATOM     23  C   UNL A   1      38.455  19.923  24.956  1.00  0.00     0.275 C 
BRANCH  23  24
ATOM     24  O   UNL A   1      38.991  19.996  26.292  1.00  0.00    -0.458 OA
BRANCH  24  25
ATOM     25  C   UNL A   1      40.323  20.195  26.366  1.00  0.00     0.338 C 
ATOM     26  O   UNL A   1      41.203  19.502  25.861  1.00  0.00    -0.246 OA
BRANCH  25  27
ATOM     27  C   UNL A   1      40.615  21.511  26.950  1.00  0.00     0.060 A 
ATOM     28  C   UNL A   1      39.926  22.603  26.416  1.00  0.00     0.016 A 
ATOM     29  C   UNL A   1      41.595  21.706  27.921  1.00  0.00     0.016 A 
ATOM     30  C   UNL A   1      40.195  23.894  26.831  1.00  0.00     0.010 A 
ATOM     31  C   UNL A   1      41.898  23.012  28.321  1.00  0.00     0.010 A 
ATOM     32  C   UNL A   1      41.214  24.107  27.756  1.00  0.00    -0.014 A 
BRANCH  32  33
ATOM     33  C   UNL A   1      41.680  25.491  27.953  1.00  0.00     0.031 A 
ATOM     34  C   UNL A   1      43.015  25.874  27.385  1.00  0.00     0.074 A 
ATOM     35  C   UNL A   1      40.882  26.406  28.528  1.00  0.00     0.049 A 
ATOM     36  N   UNL A   1      43.680  26.991  27.507  1.00  0.00    -0.248 NA
ATOM     37  C   UNL A   1      43.688  24.855  26.560  1.00  0.00     0.031 C 
ATOM     38  C   UNL A   1      39.519  26.164  28.998  1.00  0.00     0.029 A 
ATOM     39  N   UNL A   1      41.109  27.727  28.812  1.00  0.00    -0.354 N 
ATOM     40  C   UNL A   1      44.863  26.798  26.807  1.00  0.00     0.074 A 
ATOM     41  C   UNL A   1      44.830  25.458  26.266  1.00  0.00     0.031 C 
ATOM     42  C   UNL A   1      39.036  27.298  29.532  1.00  0.00     0.029 A 
ATOM     43  C   UNL A   1      40.075  28.323  29.489  1.00  0.00     0.049 A 
ATOM     44  H   UNL A   1      41.933  28.201  28.556  1.00  0.00     0.167 HD
ATOM     45  C   UNL A   1      45.887  27.667  26.639  1.00  0.00     0.037 A 
ATOM     46  C   UNL A   1      40.005  29.545  30.048  1.00  0.00     0.037 A 
ATOM     47  C   UNL A   1      45.892  29.000  27.179  1.00  0.00     0.049 A 
ATOM     48  C   UNL A   1      41.195  30.461  29.931  1.00  0.00     0.074 A 
ATOM     49  C   UNL A   1      46.882  29.962  27.097  1.00  0.00     0.029 A 
ATOM     50  N   UNL A   1      44.847  29.557  27.903  1.00  0.00    -0.354 N 
ATOM     51  N   UNL A   1      42.336  30.261  29.314  1.00  0.00    -0.248 NA
ATOM     52  C   UNL A   1      41.091  31.768  30.593  1.00  0.00     0.031 C 
ATOM     53  C   UNL A   1      46.455  31.084  27.814  1.00  0.00     0.029 A 
ATOM     54  C   UNL A   1      45.175  30.844  28.291  1.00  0.00     0.049 A 
ATOM     55  H   UNL A   1      43.999  29.103  28.112  1.00  0.00     0.167 HD
ATOM     56  C   UNL A   1      43.072  31.427  29.485  1.00  0.00     0.074 A 
ATOM     57  C   UNL A   1      42.242  32.331  30.255  1.00  0.00     0.031 C 
ATOM     58  C   UNL A   1      44.318  31.727  29.044  1.00  0.00     0.037 A 
BRANCH  45  59
ATOM     59  C   UNL A   1      47.095  27.174  25.901  1.00  0.00     0.057 A 
ATOM     60  C   UNL A   1      48.144  26.501  26.541  1.00  0.00     0.134 A 
ATOM     61  C   UNL A   1      47.211  27.381  24.520  1.00  0.00     0.134 A 
ATOM     62  F   UNL A   1      48.109  26.292  27.867  1.00  0.00    -0.206 F 
ATOM     63  C   UNL A   1      49.274  26.075  25.840  1.00  0.00     0.040 A 
ATOM     64  C   UNL A   1      48.323  26.936  23.804  1.00  0.00     0.040 A 
ATOM     65  F   UNL A   1      46.245  28.022  23.845  1.00  0.00    -0.206 F 
ATOM     66  C   UNL A   1      49.363  26.288  24.466  1.00  0.00     0.006 A 
ENDBRANCH  45  59
BRANCH  46  67
ATOM     67  C   UNL A   1      38.794  29.954  30.804  1.00  0.00     0.057 A 
ATOM     68  C   UNL A   1      37.765  30.681  30.193  1.00  0.00     0.134 A 
ATOM     69  C   UNL A   1      38.642  29.642  32.161  1.00  0.00     0.134 A 
ATOM     70  F   UNL A   1      37.859  31.030  28.902  1.00  0.00    -0.206 F 
ATOM     71  C   UNL A   1      36.642  31.100  30.910  1.00  0.00     0.040 A 
ATOM     72  C   UNL A   1      37.512  30.029  32.881  1.00  0.00     0.040 A 
ATOM     73  F   UNL A   1      39.591  28.947  32.807  1.00  0.00    -0.206 F 
ATOM     74  C   UNL A   1      36.511  30.769  32.257  1.00  0.00     0.006 A 
ENDBRANCH  46  67
BRANCH  58  75
ATOM     75  C   UNL A   1      44.833  33.106  29.334  1.00  0.00     0.057 A 
ATOM     76  C   UNL A   1      44.583  34.188  28.482  1.00  0.00     0.134 A 
ATOM     77  C   UNL A   1      45.554  33.358  30.510  1.00  0.00     0.134 A 
ATOM     78  F   UNL A   1      43.908  34.010  27.336  1.00  0.00    -0.206 F 
ATOM     79  C   UNL A   1      45.053  35.469  28.776  1.00  0.00     0.040 A 
ATOM     80  C   UNL A   1      46.003  34.639  30.828  1.00  0.00     0.040 A 
ATOM     81  F   UNL A   1      45.818  32.366  31.373  1.00  0.00    -0.206 F 
ATOM     82  C   UNL A   1      45.759  35.698  29.957  1.00  0.00     0.006 A 
ENDBRANCH  58  75
ENDBRANCH  32  33
ENDBRANCH  25  27
ENDBRANCH  24  25
ENDBRANCH  23  24
ENDBRANCH  22  23
ENDBRANCH  21  22
ENDBRANCH   1  21
TORSDOF 18
ENDMDL
MODEL 2
REMARK VINA RESULT:     -10.1      1.540      6.474
REMARK SMILES CO[C@H]1C[C@H](C(=O)OCCOC(=O)c2ccc(-c3c4nc(c(-c5c(F)cccc5F)c5ccc([nH]5)c(-c5c(F)cccc5F)c5nc(c(-c6c(F)cccc6F)c6ccc3[nH]6)C=C5)C=C4)cc2)N(C(=O)CCSCC(N)=O)C1
REMARK SMILES IDX 6 1 7 2 5 3 3 4 4 5 78 6 68 7 2 8 1 9 69 10 70 11 71 12
REMARK SMILES IDX 72 13 73 14 74 15 75 16 76 17 77 18 8 21 9 22 10 23 11 24
REMARK SMILES IDX 12 25 13 26 14 27 15 28 67 29 16 30 66 31 17 32 18 33 19 34
REMARK SMILES IDX 60 35 20 36 65 37 59 38 61 39 21 40 64 41 58 42 57 43 22 45
REMARK SMILES IDX 48 46 31 47 47 48 32 49 35 50 46 51 62 52 33 53 34 54 45 56
REMARK SMILES IDX 63 57 36 58 23 59 24 60 29 61 25 62 26 63 28 64 30 65 27 66
REMARK SMILES IDX 49 67 50 68 55 69 51 70 52 71 54 72 56 73 53 74 37 75 38 76
REMARK SMILES IDX 43 77 39 78 40 79 42 80 44 81 41 82
REMARK H PARENT 76 19 76 20 61 44 35 55
REMARK Flexibility Score: inf
ROOT
ATOM      1  C   UNL A   1      36.118  22.245  24.139  1.00  0.00     0.329 C 
ATOM      2  O   UNL A   1      36.659  22.631  23.109  1.00  0.00    -0.250 OA
ENDROOT
BRANCH   1   3
ATOM      3  C   UNL A   1      34.826  22.890  24.665  1.00  0.00     0.197 C 
ATOM      4  C   UNL A   1      34.330  24.911  23.473  1.00  0.00     0.140 C 
ATOM      5  C   UNL A   1      34.853  24.401  24.819  1.00  0.00     0.071 C 
ATOM      6  C   UNL A   1      33.323  23.827  23.055  1.00  0.00     0.152 C 
ATOM      7  N   UNL A   1      33.675  22.629  23.806  1.00  0.00    -0.326 N 
BRANCH   4   8
ATOM      8  O   UNL A   1      33.701  26.188  23.436  1.00  0.00    -0.380 OA
ATOM      9  C   UNL A   1      33.499  26.849  24.674  1.00  0.00     0.195 C 
ENDBRANCH   4   8
BRANCH   7  10
ATOM     10  C   UNL A   1      32.895  21.497  23.739  1.00  0.00     0.224 C 
ATOM     11  O   UNL A   1      32.224  21.255  22.732  1.00  0.00    -0.275 OA
BRANCH  10  12
ATOM     12  C   UNL A   1      32.896  20.517  24.900  1.00  0.00     0.111 C 
BRANCH  12  13
ATOM     13  C   UNL A   1      33.844  19.331  24.694  1.00  0.00     0.080 C 
BRANCH  13  14
ATOM     14  S   UNL A   1      33.190  17.793  23.924  1.00  0.00    -0.152 SA
BRANCH  14  15
ATOM     15  C   UNL A   1      32.531  16.961  25.383  1.00  0.00     0.169 C 
BRANCH  15  16
ATOM     16  C   UNL A   1      32.878  15.496  25.505  1.00  0.00     0.227 C 
ATOM     17  N   UNL A   1      31.775  14.696  25.680  1.00  0.00    -0.369 N 
ATOM     18  O   UNL A   1      33.991  15.003  25.375  1.00  0.00    -0.274 OA
ATOM     19  H   UNL A   1      30.884  15.102  25.784  1.00  0.00     0.159 HD
ATOM     20  H   UNL A   1      31.876  13.717  25.703  1.00  0.00     0.159 HD
ENDBRANCH  15  16
ENDBRANCH  14  15
ENDBRANCH  13  14
ENDBRANCH  12  13
ENDBRANCH  10  12
ENDBRANCH   7  10
ENDBRANCH   1   3
BRANCH   1  21
ATOM     21  O   UNL A   1      36.631  21.280  24.942  1.00  0.00    -0.461 OA
BRANCH  21  22
ATOM     22  C   UNL A   1      38.014  21.470  25.322  1.00  0.00     0.274 C 
BRANCH  22  23
ATOM     23  C   UNL A   1      38.797  20.150  25.373  1.00  0.00     0.275 C 
BRANCH  23  24
ATOM     24  O   UNL A   1      39.659  20.059  26.525  1.00  0.00    -0.458 OA
BRANCH  24  25
ATOM     25  C   UNL A   1      40.944  19.747  26.257  1.00  0.00     0.338 C 
ATOM     26  O   UNL A   1      41.362  18.708  25.751  1.00  0.00    -0.246 OA
BRANCH  25  27
ATOM     27  C   UNL A   1      41.808  20.921  26.438  1.00  0.00     0.060 A 
ATOM     28  C   UNL A   1      42.105  21.287  27.754  1.00  0.00     0.016 A 
ATOM     29  C   UNL A   1      42.244  21.708  25.375  1.00  0.00     0.016 A 
ATOM     30  C   UNL A   1      42.831  22.428  28.035  1.00  0.00     0.010 A 
ATOM     31  C   UNL A   1      42.950  22.885  25.653  1.00  0.00     0.010 A 
ATOM     32  C   UNL A   1      43.220  23.256  26.985  1.00  0.00    -0.014 A 
BRANCH  32  33
ATOM     33  C   UNL A   1      43.722  24.600  27.324  1.00  0.00     0.031 A 
ATOM     34  C   UNL A   1      42.733  25.621  27.806  1.00  0.00     0.074 A 
ATOM     35  C   UNL A   1      45.038  24.864  27.304  1.00  0.00     0.049 A 
ATOM     36  N   UNL A   1      42.910  26.887  28.072  1.00  0.00    -0.248 NA
ATOM     37  C   UNL A   1      41.356  25.143  28.023  1.00  0.00     0.031 C 
ATOM     38  C   UNL A   1      46.089  23.902  26.973  1.00  0.00     0.029 A 
ATOM     39  N   UNL A   1      45.713  26.025  27.572  1.00  0.00    -0.354 N 
ATOM     40  C   UNL A   1      41.663  27.365  28.452  1.00  0.00     0.074 A 
ATOM     41  C   UNL A   1      40.736  26.257  28.378  1.00  0.00     0.031 C 
ATOM     42  C   UNL A   1      47.280  24.522  27.038  1.00  0.00     0.029 A 
ATOM     43  C   UNL A   1      47.066  25.929  27.361  1.00  0.00     0.049 A 
ATOM     44  H   UNL A   1      45.272  26.848  27.885  1.00  0.00     0.167 HD
ATOM     45  C   UNL A   1      41.326  28.622  28.822  1.00  0.00     0.037 A 
ATOM     46  C   UNL A   1      48.010  26.889  27.382  1.00  0.00     0.037 A 
ATOM     47  C   UNL A   1      42.269  29.706  28.897  1.00  0.00     0.049 A 
ATOM     48  C   UNL A   1      47.596  28.300  27.703  1.00  0.00     0.074 A 
ATOM     49  C   UNL A   1      42.042  31.027  29.235  1.00  0.00     0.029 A 
ATOM     50  N   UNL A   1      43.626  29.585  28.628  1.00  0.00    -0.354 N 
ATOM     51  N   UNL A   1      46.407  28.765  28.012  1.00  0.00    -0.248 NA
ATOM     52  C   UNL A   1      48.650  29.322  27.673  1.00  0.00     0.031 C 
ATOM     53  C   UNL A   1      43.253  31.717  29.123  1.00  0.00     0.029 A 
ATOM     54  C   UNL A   1      44.247  30.813  28.775  1.00  0.00     0.049 A 
ATOM     55  H   UNL A   1      44.078  28.750  28.370  1.00  0.00     0.167 HD
ATOM     56  C   UNL A   1      46.577  30.124  28.245  1.00  0.00     0.074 A 
ATOM     57  C   UNL A   1      47.985  30.404  28.051  1.00  0.00     0.031 C 
ATOM     58  C   UNL A   1      45.656  31.057  28.590  1.00  0.00     0.037 A 
BRANCH  45  59
ATOM     59  C   UNL A   1      39.880  28.892  29.107  1.00  0.00     0.057 A 
ATOM     60  C   UNL A   1      39.340  28.805  30.398  1.00  0.00     0.134 A 
ATOM     61  C   UNL A   1      39.009  29.242  28.067  1.00  0.00     0.134 A 
ATOM     62  F   UNL A   1      40.113  28.449  31.435  1.00  0.00    -0.206 F 
ATOM     63  C   UNL A   1      37.983  29.032  30.638  1.00  0.00     0.040 A 
ATOM     64  C   UNL A   1      37.656  29.498  28.299  1.00  0.00     0.040 A 
ATOM     65  F   UNL A   1      39.458  29.339  26.807  1.00  0.00    -0.206 F 
ATOM     66  C   UNL A   1      37.138  29.385  29.587  1.00  0.00     0.006 A 
ENDBRANCH  45  59
BRANCH  46  67
ATOM     67  C   UNL A   1      49.418  26.559  27.047  1.00  0.00     0.057 A 
ATOM     68  C   UNL A   1      49.863  26.529  25.720  1.00  0.00     0.134 A 
ATOM     69  C   UNL A   1      50.351  26.248  28.045  1.00  0.00     0.134 A 
ATOM     70  F   UNL A   1      49.015  26.795  24.717  1.00  0.00    -0.206 F 
ATOM     71  C   UNL A   1      51.177  26.182  25.398  1.00  0.00     0.040 A 
ATOM     72  C   UNL A   1      51.674  25.929  27.739  1.00  0.00     0.040 A 
ATOM     73  F   UNL A   1      49.990  26.259  29.337  1.00  0.00    -0.206 F 
ATOM     74  C   UNL A   1      52.089  25.886  26.410  1.00  0.00     0.006 A 
ENDBRANCH  46  67
BRANCH  58  75
ATOM     75  C   UNL A   1      46.153  32.451  28.837  1.00  0.00     0.057 A 
ATOM     76  C   UNL A   1      46.609  32.867  30.093  1.00  0.00     0.134 A 
ATOM     77  C   UNL A   1      46.215  33.375  27.784  1.00  0.00     0.134 A 
ATOM     78  F   UNL A   1      46.565  32.034  31.143  1.00  0.00    -0.206 F 
ATOM     79  C   UNL A   1      47.086  34.163  30.300  1.00  0.00     0.040 A 
ATOM     80  C   UNL A   1      46.717  34.661  27.973  1.00  0.00     0.040 A 
ATOM     81  F   UNL A   1      45.804  33.034  26.554  1.00  0.00    -0.206 F 
ATOM     82  C   UNL A   1      47.148  35.061  29.236  1.00  0.00     0.006 A 
ENDBRANCH  58  75
ENDBRANCH  32  33
ENDBRANCH  25  27
ENDBRANCH  24  25
ENDBRANCH  23  24
ENDBRANCH  22  23
ENDBRANCH  21  22
ENDBRANCH   1  21
TORSDOF 18
ENDMDL
MODEL 3
REMARK VINA RESULT:     -10.0      1.680      2.401
REMARK SMILES CO[C@H]1C[C@H](C(=O)OCCOC(=O)c2ccc(-c3c4nc(c(-c5c(F)cccc5F)c5ccc([nH]5)c(-c5c(F)cccc5F)c5nc(c(-c6c(F)cccc6F)c6ccc3[nH]6)C=C5)C=C4)cc2)N(C(=O)CCSCC(N)=O)C1
REMARK SMILES IDX 6 1 7 2 5 3 3 4 4 5 78 6 68 7 2 8 1 9 69 10 70 11 71 12
REMARK SMILES IDX 72 13 73 14 74 15 75 16 76 17 77 18 8 21 9 22 10 23 11 24
REMARK SMILES IDX 12 25 13 26 14 27 15 28 67 29 16 30 66 31 17 32 18 33 19 34
REMARK SMILES IDX 60 35 20 36 65 37 59 38 61 39 21 40 64 41 58 42 57 43 22 45
REMARK SMILES IDX 48 46 31 47 47 48 32 49 35 50 46 51 62 52 33 53 34 54 45 56
REMARK SMILES IDX 63 57 36 58 23 59 24 60 29 61 25 62 26 63 28 64 30 65 27 66
REMARK SMILES IDX 49 67 50 68 55 69 51 70 52 71 54 72 56 73 53 74 37 75 38 76
REMARK SMILES IDX 43 77 39 78 40 79 42 80 44 81 41 82
REMARK H PARENT 76 19 76 20 61 44 35 55
REMARK Flexibility Score: inf
ROOT
ATOM      1  C   UNL A   1      36.221  22.291  24.253  1.00  0.00     0.329 C 
ATOM      2  O   UNL A   1      36.730  22.889  23.312  1.00  0.00    -0.250 OA
ENDROOT
BRANCH   1   3
ATOM      3  C   UNL A   1      34.918  22.776  24.910  1.00  0.00     0.197 C 
ATOM      4  C   UNL A   1      34.258  24.908  24.033  1.00  0.00     0.140 C 
ATOM      5  C   UNL A   1      34.867  24.250  25.274  1.00  0.00     0.071 C 
ATOM      6  C   UNL A   1      33.297  23.832  23.501  1.00  0.00     0.152 C 
ATOM      7  N   UNL A   1      33.748  22.566  24.063  1.00  0.00    -0.326 N 
BRANCH   4   8
ATOM      8  O   UNL A   1      33.557  26.136  24.198  1.00  0.00    -0.380 OA
ATOM      9  C   UNL A   1      32.156  26.118  23.978  1.00  0.00     0.195 C 
ENDBRANCH   4   8
BRANCH   7  10
ATOM     10  C   UNL A   1      33.032  21.407  23.864  1.00  0.00     0.224 C 
ATOM     11  O   UNL A   1      32.389  21.236  22.825  1.00  0.00    -0.275 OA
BRANCH  10  12
ATOM     12  C   UNL A   1      33.068  20.314  24.918  1.00  0.00     0.111 C 
BRANCH  12  13
ATOM     13  C   UNL A   1      34.031  19.171  24.575  1.00  0.00     0.080 C 
BRANCH  13  14
ATOM     14  S   UNL A   1      33.360  17.644  23.800  1.00  0.00    -0.152 SA
BRANCH  14  15
ATOM     15  C   UNL A   1      32.700  16.809  25.256  1.00  0.00     0.169 C 
BRANCH  15  16
ATOM     16  C   UNL A   1      33.003  15.332  25.349  1.00  0.00     0.227 C 
ATOM     17  N   UNL A   1      31.876  14.561  25.490  1.00  0.00    -0.369 N 
ATOM     18  O   UNL A   1      34.104  14.810  25.224  1.00  0.00    -0.274 OA
ATOM     19  H   UNL A   1      30.995  14.990  25.590  1.00  0.00     0.159 HD
ATOM     20  H   UNL A   1      31.948  13.579  25.490  1.00  0.00     0.159 HD
ENDBRANCH  15  16
ENDBRANCH  14  15
ENDBRANCH  13  14
ENDBRANCH  12  13
ENDBRANCH  10  12
ENDBRANCH   7  10
ENDBRANCH   1   3
BRANCH   1  21
ATOM     21  O   UNL A   1      36.781  21.208  24.848  1.00  0.00    -0.461 OA
BRANCH  21  22
ATOM     22  C   UNL A   1      38.095  21.428  25.410  1.00  0.00     0.274 C 
BRANCH  22  23
ATOM     23  C   UNL A   1      39.046  20.247  25.164  1.00  0.00     0.275 C 
BRANCH  23  24
ATOM     24  O   UNL A   1      39.733  19.828  26.360  1.00  0.00    -0.458 OA
BRANCH  24  25
ATOM     25  C   UNL A   1      41.070  19.705  26.240  1.00  0.00     0.338 C 
ATOM     26  O   UNL A   1      41.684  18.765  25.740  1.00  0.00    -0.246 OA
BRANCH  25  27
ATOM     27  C   UNL A   1      41.737  20.969  26.583  1.00  0.00     0.060 A 
ATOM     28  C   UNL A   1      41.743  21.330  27.932  1.00  0.00     0.016 A 
ATOM     29  C   UNL A   1      42.259  21.832  25.623  1.00  0.00     0.016 A 
ATOM     30  C   UNL A   1      42.260  22.542  28.349  1.00  0.00     0.010 A 
ATOM     31  C   UNL A   1      42.754  23.075  26.032  1.00  0.00     0.010 A 
ATOM     32  C   UNL A   1      42.731  23.439  27.393  1.00  0.00    -0.014 A 
BRANCH  32  33
ATOM     33  C   UNL A   1      42.993  24.823  27.825  1.00  0.00     0.031 A 
ATOM     34  C   UNL A   1      44.422  25.256  27.980  1.00  0.00     0.074 A 
ATOM     35  C   UNL A   1      41.984  25.698  27.971  1.00  0.00     0.049 A 
ATOM     36  N   UNL A   1      44.905  26.379  28.436  1.00  0.00    -0.248 NA
ATOM     37  C   UNL A   1      45.445  24.285  27.554  1.00  0.00     0.031 C 
ATOM     38  C   UNL A   1      40.572  25.409  27.720  1.00  0.00     0.029 A 
ATOM     39  N   UNL A   1      41.998  27.010  28.363  1.00  0.00    -0.354 N 
ATOM     40  C   UNL A   1      46.285  26.239  28.386  1.00  0.00     0.074 A 
ATOM     41  C   UNL A   1      46.565  24.921  27.861  1.00  0.00     0.031 C 
ATOM     42  C   UNL A   1      39.851  26.511  27.987  1.00  0.00     0.029 A 
ATOM     43  C   UNL A   1      40.745  27.557  28.475  1.00  0.00     0.049 A 
ATOM     44  H   UNL A   1      42.825  27.511  28.547  1.00  0.00     0.167 HD
ATOM     45  C   UNL A   1      47.231  27.134  28.755  1.00  0.00     0.037 A 
ATOM     46  C   UNL A   1      40.369  28.754  28.964  1.00  0.00     0.037 A 
ATOM     47  C   UNL A   1      46.926  28.444  29.266  1.00  0.00     0.049 A 
ATOM     48  C   UNL A   1      41.434  29.697  29.458  1.00  0.00     0.074 A 
ATOM     49  C   UNL A   1      47.798  29.428  29.695  1.00  0.00     0.029 A 
ATOM     50  N   UNL A   1      45.642  28.950  29.413  1.00  0.00    -0.354 N 
ATOM     51  N   UNL A   1      42.738  29.545  29.460  1.00  0.00    -0.248 NA
ATOM     52  C   UNL A   1      40.977  30.973  30.022  1.00  0.00     0.031 C 
ATOM     53  C   UNL A   1      47.038  30.511  30.148  1.00  0.00     0.029 A 
ATOM     54  C   UNL A   1      45.696  30.226  29.944  1.00  0.00     0.049 A 
ATOM     55  H   UNL A   1      44.816  28.470  29.176  1.00  0.00     0.167 HD
ATOM     56  C   UNL A   1      43.258  30.718  29.995  1.00  0.00     0.074 A 
ATOM     57  C   UNL A   1      42.127  31.573  30.294  1.00  0.00     0.031 C 
ATOM     58  C   UNL A   1      44.551  31.060  30.216  1.00  0.00     0.037 A 
BRANCH  45  59
ATOM     59  C   UNL A   1      48.662  26.696  28.675  1.00  0.00     0.057 A 
ATOM     60  C   UNL A   1      49.300  26.021  29.725  1.00  0.00     0.134 A 
ATOM     61  C   UNL A   1      49.417  26.958  27.525  1.00  0.00     0.134 A 
ATOM     62  F   UNL A   1      48.643  25.761  30.865  1.00  0.00    -0.206 F 
ATOM     63  C   UNL A   1      50.643  25.648  29.643  1.00  0.00     0.040 A 
ATOM     64  C   UNL A   1      50.752  26.565  27.420  1.00  0.00     0.040 A 
ATOM     65  F   UNL A   1      48.870  27.604  26.484  1.00  0.00    -0.206 F 
ATOM     66  C   UNL A   1      51.372  25.915  28.485  1.00  0.00     0.006 A 
ENDBRANCH  45  59
BRANCH  46  67
ATOM     67  C   UNL A   1      38.930  29.106  29.055  1.00  0.00     0.057 A 
ATOM     68  C   UNL A   1      38.205  28.914  30.237  1.00  0.00     0.134 A 
ATOM     69  C   UNL A   1      38.237  29.628  27.954  1.00  0.00     0.134 A 
ATOM     70  F   UNL A   1      38.804  28.398  31.319  1.00  0.00    -0.206 F 
ATOM     71  C   UNL A   1      36.843  29.208  30.314  1.00  0.00     0.040 A 
ATOM     72  C   UNL A   1      36.883  29.954  28.026  1.00  0.00     0.040 A 
ATOM     73  F   UNL A   1      38.872  29.837  26.791  1.00  0.00    -0.206 F 
ATOM     74  C   UNL A   1      36.178  29.736  29.208  1.00  0.00     0.006 A 
ENDBRANCH  46  67
BRANCH  58  75
ATOM     75  C   UNL A   1      44.812  32.436  30.754  1.00  0.00     0.057 A 
ATOM     76  C   UNL A   1      44.933  32.689  32.125  1.00  0.00     0.134 A 
ATOM     77  C   UNL A   1      44.988  33.515  29.876  1.00  0.00     0.134 A 
ATOM     78  F   UNL A   1      44.764  31.701  33.017  1.00  0.00    -0.206 F 
ATOM     79  C   UNL A   1      45.195  33.972  32.607  1.00  0.00     0.040 A 
ATOM     80  C   UNL A   1      45.280  34.795  30.345  1.00  0.00     0.040 A 
ATOM     81  F   UNL A   1      44.896  33.337  28.550  1.00  0.00    -0.206 F 
ATOM     82  C   UNL A   1      45.377  35.028  31.715  1.00  0.00     0.006 A 
ENDBRANCH  58  75
ENDBRANCH  32  33
ENDBRANCH  25  27
ENDBRANCH  24  25
ENDBRANCH  23  24
ENDBRANCH  22  23
ENDBRANCH  21  22
ENDBRANCH   1  21
TORSDOF 18
ENDMDL
