MODEL 1
REMARK VINA RESULT:     -11.2      0.000      0.000
REMARK SMILES CC1(C)[C@H]2CC[C@]1(C)[C@H](NC(=O)CCC(=O)OCCOC(=O)c1ccc(-c3c4nc(c(-c5c(F)cccc5F)c5ccc([nH]5)c(-c5c(F)cccc5F)c5nc(c(-c6c(F)cccc6F)c6ccc3[nH]6)C=C5)C=C4)cc1)C2
REMARK SMILES IDX 18 1 17 2 15 3 16 4 14 5 13 6 11 7 10 8 12 10 9 11 1 12 2 13
REMARK SMILES IDX 3 14 4 15 7 16 5 17 77 18 6 19 8 20 19 21 20 22 21 23 22 24
REMARK SMILES IDX 23 25 24 26 76 27 25 28 75 29 26 30 27 31 28 32 69 33 29 34
REMARK SMILES IDX 74 35 68 36 70 37 30 38 73 39 67 40 66 41 31 43 57 44 40 45
REMARK SMILES IDX 56 46 41 47 44 48 55 49 71 50 42 51 43 52 54 54 72 55 45 56
REMARK SMILES IDX 32 57 33 58 38 59 34 60 35 61 37 62 39 63 36 64 58 65 59 66
REMARK SMILES IDX 64 67 60 68 61 69 63 70 65 71 62 72 46 73 47 74 52 75 48 76
REMARK SMILES IDX 49 77 51 78 53 79 50 80
REMARK H PARENT 10 9 70 42 44 53
REMARK Flexibility Score: inf
ROOT
ATOM      1  C   UNL A   1      31.706  28.889  23.717  1.00  0.00     0.274 C 
ENDROOT
BRANCH   1   2
ATOM      2  O   UNL A   1      30.589  28.644  22.777  1.00  0.00    -0.462 OA
BRANCH   2   3
ATOM      3  C   UNL A   1      29.531  27.847  23.160  1.00  0.00     0.306 C 
ATOM      4  O   UNL A   1      28.368  28.236  23.126  1.00  0.00    -0.252 OA
BRANCH   3   5
ATOM      5  C   UNL A   1      29.936  26.403  23.698  1.00  0.00     0.132 C 
BRANCH   5   6
ATOM      6  C   UNL A   1      29.903  25.864  25.194  1.00  0.00     0.111 C 
BRANCH   6   7
ATOM      7  C   UNL A   1      31.174  25.755  26.148  1.00  0.00     0.220 C 
ATOM      8  N   UNL A   1      31.935  24.595  26.354  1.00  0.00    -0.353 N 
ATOM      9  H   UNL A   1      32.261  24.471  27.275  1.00  0.00     0.163 HD
ATOM     10  O   UNL A   1      31.442  26.720  26.876  1.00  0.00    -0.275 OA
BRANCH   8  11
ATOM     11  C   UNL A   1      32.329  23.520  25.398  1.00  0.00     0.088 C 
ATOM     12  C   UNL A   1      35.908  23.021  23.557  1.00  0.00     0.012 C 
ATOM     13  C   UNL A   1      34.689  22.765  24.463  1.00  0.00    -0.025 C 
ATOM     14  C   UNL A   1      34.773  21.256  24.626  1.00  0.00     0.012 C 
ATOM     15  C   UNL A   1      34.682  23.294  25.863  1.00  0.00    -0.003 C 
ATOM     16  C   UNL A   1      33.346  23.649  24.156  1.00  0.00    -0.007 C 
ATOM     17  C   UNL A   1      34.774  24.828  25.594  1.00  0.00     0.005 C 
ATOM     18  C   UNL A   1      33.266  22.710  26.155  1.00  0.00     0.029 C 
ATOM     19  C   UNL A   1      33.931  25.049  24.306  1.00  0.00     0.010 C 
ATOM     20  C   UNL A   1      32.718  23.220  22.847  1.00  0.00     0.014 C 
ENDBRANCH   8  11
ENDBRANCH   6   7
ENDBRANCH   5   6
ENDBRANCH   3   5
ENDBRANCH   2   3
ENDBRANCH   1   2
BRANCH   1  21
ATOM     21  C   UNL A   1      31.432  29.707  25.031  1.00  0.00     0.275 C 
BRANCH  21  22
ATOM     22  O   UNL A   1      32.588  29.705  25.924  1.00  0.00    -0.458 OA
BRANCH  22  23
ATOM     23  C   UNL A   1      32.864  30.824  26.668  1.00  0.00     0.338 C 
ATOM     24  O   UNL A   1      32.026  31.657  27.032  1.00  0.00    -0.246 OA
BRANCH  23  25
ATOM     25  C   UNL A   1      34.274  30.769  27.221  1.00  0.00     0.060 A 
ATOM     26  C   UNL A   1      34.774  29.536  27.636  1.00  0.00     0.016 A 
ATOM     27  C   UNL A   1      34.980  31.923  27.626  1.00  0.00     0.016 A 
ATOM     28  C   UNL A   1      35.835  29.474  28.549  1.00  0.00     0.010 A 
ATOM     29  C   UNL A   1      36.178  31.825  28.391  1.00  0.00     0.010 A 
ATOM     30  C   UNL A   1      36.642  30.583  28.852  1.00  0.00    -0.014 A 
BRANCH  30  31
ATOM     31  C   UNL A   1      37.999  30.358  29.477  1.00  0.00     0.031 A 
ATOM     32  C   UNL A   1      39.072  29.460  28.890  1.00  0.00     0.074 A 
ATOM     33  C   UNL A   1      38.284  30.975  30.652  1.00  0.00     0.049 A 
ATOM     34  N   UNL A   1      40.116  28.921  29.483  1.00  0.00    -0.248 NA
ATOM     35  C   UNL A   1      38.992  29.155  27.455  1.00  0.00     0.031 C 
ATOM     36  C   UNL A   1      37.440  31.967  31.331  1.00  0.00     0.029 A 
ATOM     37  N   UNL A   1      39.360  30.850  31.506  1.00  0.00    -0.354 N 
ATOM     38  C   UNL A   1      40.788  28.179  28.513  1.00  0.00     0.074 A 
ATOM     39  C   UNL A   1      40.048  28.364  27.279  1.00  0.00     0.031 C 
ATOM     40  C   UNL A   1      38.032  32.382  32.450  1.00  0.00     0.029 A 
ATOM     41  C   UNL A   1      39.193  31.549  32.681  1.00  0.00     0.049 A 
ATOM     42  H   UNL A   1      40.163  30.319  31.297  1.00  0.00     0.167 HD
ATOM     43  C   UNL A   1      41.902  27.409  28.650  1.00  0.00     0.037 A 
ATOM     44  C   UNL A   1      39.794  31.461  33.881  1.00  0.00     0.037 A 
ATOM     45  C   UNL A   1      42.647  27.255  29.883  1.00  0.00     0.049 A 
ATOM     46  C   UNL A   1      40.891  30.472  34.072  1.00  0.00     0.074 A 
ATOM     47  C   UNL A   1      43.756  26.460  30.135  1.00  0.00     0.029 A 
ATOM     48  N   UNL A   1      42.366  27.917  31.068  1.00  0.00    -0.354 N 
ATOM     49  N   UNL A   1      41.430  29.664  33.195  1.00  0.00    -0.248 NA
ATOM     50  C   UNL A   1      41.451  30.365  35.424  1.00  0.00     0.031 C 
ATOM     51  C   UNL A   1      44.109  26.602  31.482  1.00  0.00     0.029 A 
ATOM     52  C   UNL A   1      43.260  27.530  32.057  1.00  0.00     0.049 A 
ATOM     53  H   UNL A   1      41.637  28.568  31.191  1.00  0.00     0.167 HD
ATOM     54  C   UNL A   1      42.415  28.974  33.880  1.00  0.00     0.074 A 
ATOM     55  C   UNL A   1      42.402  29.461  35.244  1.00  0.00     0.031 C 
ATOM     56  C   UNL A   1      43.257  28.023  33.411  1.00  0.00     0.037 A 
BRANCH  43  57
ATOM     57  C   UNL A   1      42.369  26.599  27.465  1.00  0.00     0.057 A 
ATOM     58  C   UNL A   1      43.288  27.087  26.528  1.00  0.00     0.134 A 
ATOM     59  C   UNL A   1      41.955  25.265  27.317  1.00  0.00     0.134 A 
ATOM     60  F   UNL A   1      43.737  28.348  26.609  1.00  0.00    -0.206 F 
ATOM     61  C   UNL A   1      43.760  26.288  25.479  1.00  0.00     0.040 A 
ATOM     62  C   UNL A   1      42.437  24.451  26.288  1.00  0.00     0.040 A 
ATOM     63  F   UNL A   1      41.098  24.719  28.192  1.00  0.00    -0.206 F 
ATOM     64  C   UNL A   1      43.338  24.964  25.361  1.00  0.00     0.006 A 
ENDBRANCH  43  57
BRANCH  44  65
ATOM     65  C   UNL A   1      39.267  32.258  35.021  1.00  0.00     0.057 A 
ATOM     66  C   UNL A   1      39.657  33.584  35.219  1.00  0.00     0.134 A 
ATOM     67  C   UNL A   1      38.331  31.717  35.917  1.00  0.00     0.134 A 
ATOM     68  F   UNL A   1      40.562  34.148  34.408  1.00  0.00    -0.206 F 
ATOM     69  C   UNL A   1      39.140  34.344  36.269  1.00  0.00     0.040 A 
ATOM     70  C   UNL A   1      37.778  32.477  36.946  1.00  0.00     0.040 A 
ATOM     71  F   UNL A   1      37.905  30.453  35.775  1.00  0.00    -0.206 F 
ATOM     72  C   UNL A   1      38.189  33.795  37.129  1.00  0.00     0.006 A 
ENDBRANCH  44  65
BRANCH  56  73
ATOM     73  C   UNL A   1      44.284  27.501  34.369  1.00  0.00     0.057 A 
ATOM     74  C   UNL A   1      44.060  26.360  35.151  1.00  0.00     0.134 A 
ATOM     75  C   UNL A   1      45.512  28.157  34.517  1.00  0.00     0.134 A 
ATOM     76  F   UNL A   1      42.892  25.703  35.077  1.00  0.00    -0.206 F 
ATOM     77  C   UNL A   1      45.015  25.903  36.061  1.00  0.00     0.040 A 
ATOM     78  C   UNL A   1      46.484  27.695  35.404  1.00  0.00     0.040 A 
ATOM     79  F   UNL A   1      45.787  29.258  33.801  1.00  0.00    -0.206 F 
ATOM     80  C   UNL A   1      46.234  26.568  36.184  1.00  0.00     0.006 A 
ENDBRANCH  56  73
ENDBRANCH  30  31
ENDBRANCH  23  25
ENDBRANCH  22  23
ENDBRANCH  21  22
ENDBRANCH   1  21
TORSDOF 14
ENDMDL
MODEL 2
REMARK VINA RESULT:     -11.2      0.935      1.707
REMARK SMILES CC1(C)[C@H]2CC[C@]1(C)[C@H](NC(=O)CCC(=O)OCCOC(=O)c1ccc(-c3c4nc(c(-c5c(F)cccc5F)c5ccc([nH]5)c(-c5c(F)cccc5F)c5nc(c(-c6c(F)cccc6F)c6ccc3[nH]6)C=C5)C=C4)cc1)C2
REMARK SMILES IDX 18 1 17 2 15 3 16 4 14 5 13 6 11 7 10 8 12 10 9 11 1 12 2 13
REMARK SMILES IDX 3 14 4 15 7 16 5 17 77 18 6 19 8 20 19 21 20 22 21 23 22 24
REMARK SMILES IDX 23 25 24 26 76 27 25 28 75 29 26 30 27 31 28 32 69 33 29 34
REMARK SMILES IDX 74 35 68 36 70 37 30 38 73 39 67 40 66 41 31 43 57 44 40 45
REMARK SMILES IDX 56 46 41 47 44 48 55 49 71 50 42 51 43 52 54 54 72 55 45 56
REMARK SMILES IDX 32 57 33 58 38 59 34 60 35 61 37 62 39 63 36 64 58 65 59 66
REMARK SMILES IDX 64 67 60 68 61 69 63 70 65 71 62 72 46 73 47 74 52 75 48 76
REMARK SMILES IDX 49 77 51 78 53 79 50 80
REMARK H PARENT 10 9 70 42 44 53
REMARK Flexibility Score: inf
ROOT
ATOM      1  C   UNL A   1      31.348  28.431  24.517  1.00  0.00     0.274 C 
ENDROOT
BRANCH   1   2
ATOM      2  O   UNL A   1      31.514  27.116  25.178  1.00  0.00    -0.462 OA
BRANCH   2   3
ATOM      3  C   UNL A   1      30.598  26.112  24.950  1.00  0.00     0.306 C 
ATOM      4  O   UNL A   1      29.943  25.601  25.853  1.00  0.00    -0.252 OA
BRANCH   3   5
ATOM      5  C   UNL A   1      30.490  25.630  23.435  1.00  0.00     0.132 C 
BRANCH   5   6
ATOM      6  C   UNL A   1      31.563  25.788  22.272  1.00  0.00     0.111 C 
BRANCH   6   7
ATOM      7  C   UNL A   1      33.141  25.764  22.483  1.00  0.00     0.220 C 
ATOM      8  N   UNL A   1      33.801  25.232  23.602  1.00  0.00    -0.353 N 
ATOM      9  H   UNL A   1      34.597  25.734  23.891  1.00  0.00     0.163 HD
ATOM     10  O   UNL A   1      33.848  26.380  21.676  1.00  0.00    -0.275 OA
BRANCH   8  11
ATOM     11  C   UNL A   1      33.486  24.026  24.421  1.00  0.00     0.088 C 
ATOM     12  C   UNL A   1      36.064  21.210  25.789  1.00  0.00     0.012 C 
ATOM     13  C   UNL A   1      35.034  22.355  25.772  1.00  0.00    -0.025 C 
ATOM     14  C   UNL A   1      34.433  22.212  27.161  1.00  0.00     0.012 C 
ATOM     15  C   UNL A   1      35.504  23.775  25.712  1.00  0.00    -0.003 C 
ATOM     16  C   UNL A   1      34.225  22.597  24.370  1.00  0.00    -0.007 C 
ATOM     17  C   UNL A   1      36.253  23.774  24.342  1.00  0.00     0.005 C 
ATOM     18  C   UNL A   1      34.050  24.335  25.722  1.00  0.00     0.029 C 
ATOM     19  C   UNL A   1      35.410  22.830  23.438  1.00  0.00     0.010 C 
ATOM     20  C   UNL A   1      33.264  21.456  24.110  1.00  0.00     0.014 C 
ENDBRANCH   8  11
ENDBRANCH   6   7
ENDBRANCH   5   6
ENDBRANCH   3   5
ENDBRANCH   2   3
ENDBRANCH   1   2
BRANCH   1  21
ATOM     21  C   UNL A   1      31.437  29.738  25.385  1.00  0.00     0.275 C 
BRANCH  21  22
ATOM     22  O   UNL A   1      32.805  30.008  25.822  1.00  0.00    -0.458 OA
BRANCH  22  23
ATOM     23  C   UNL A   1      33.026  30.963  26.782  1.00  0.00     0.338 C 
ATOM     24  O   UNL A   1      32.148  31.662  27.302  1.00  0.00    -0.246 OA
BRANCH  23  25
ATOM     25  C   UNL A   1      34.438  30.865  27.324  1.00  0.00     0.060 A 
ATOM     26  C   UNL A   1      34.884  29.629  27.790  1.00  0.00     0.016 A 
ATOM     27  C   UNL A   1      35.203  32.000  27.669  1.00  0.00     0.016 A 
ATOM     28  C   UNL A   1      35.950  29.557  28.694  1.00  0.00     0.010 A 
ATOM     29  C   UNL A   1      36.405  31.879  28.426  1.00  0.00     0.010 A 
ATOM     30  C   UNL A   1      36.814  30.638  28.939  1.00  0.00    -0.014 A 
BRANCH  30  31
ATOM     31  C   UNL A   1      38.166  30.376  29.560  1.00  0.00     0.031 A 
ATOM     32  C   UNL A   1      39.229  29.482  28.949  1.00  0.00     0.074 A 
ATOM     33  C   UNL A   1      38.455  30.952  30.754  1.00  0.00     0.049 A 
ATOM     34  N   UNL A   1      40.263  28.912  29.527  1.00  0.00    -0.248 NA
ATOM     35  C   UNL A   1      39.150  29.224  27.504  1.00  0.00     0.031 C 
ATOM     36  C   UNL A   1      37.622  31.933  31.462  1.00  0.00     0.029 A 
ATOM     37  N   UNL A   1      39.526  30.787  31.607  1.00  0.00    -0.354 N 
ATOM     38  C   UNL A   1      40.930  28.192  28.537  1.00  0.00     0.074 A 
ATOM     39  C   UNL A   1      40.196  28.425  27.307  1.00  0.00     0.031 C 
ATOM     40  C   UNL A   1      38.215  32.305  32.595  1.00  0.00     0.029 A 
ATOM     41  C   UNL A   1      39.364  31.450  32.803  1.00  0.00     0.049 A 
ATOM     42  H   UNL A   1      40.323  30.252  31.385  1.00  0.00     0.167 HD
ATOM     43  C   UNL A   1      42.033  27.403  28.653  1.00  0.00     0.037 A 
ATOM     44  C   UNL A   1      39.960  31.317  34.001  1.00  0.00     0.037 A 
ATOM     45  C   UNL A   1      42.771  27.201  29.883  1.00  0.00     0.049 A 
ATOM     46  C   UNL A   1      41.044  30.308  34.165  1.00  0.00     0.074 A 
ATOM     47  C   UNL A   1      43.870  26.384  30.112  1.00  0.00     0.029 A 
ATOM     48  N   UNL A   1      42.495  27.830  31.087  1.00  0.00    -0.354 N 
ATOM     49  N   UNL A   1      41.575  29.521  33.264  1.00  0.00    -0.248 NA
ATOM     50  C   UNL A   1      41.598  30.152  35.514  1.00  0.00     0.031 C 
ATOM     51  C   UNL A   1      44.220  26.479  31.464  1.00  0.00     0.029 A 
ATOM     52  C   UNL A   1      43.381  27.400  32.066  1.00  0.00     0.049 A 
ATOM     53  H   UNL A   1      41.775  28.486  31.228  1.00  0.00     0.167 HD
ATOM     54  C   UNL A   1      42.549  28.797  33.931  1.00  0.00     0.074 A 
ATOM     55  C   UNL A   1      42.537  29.242  35.308  1.00  0.00     0.031 C 
ATOM     56  C   UNL A   1      43.380  27.850  33.434  1.00  0.00     0.037 A 
BRANCH  43  57
ATOM     57  C   UNL A   1      42.493  26.625  27.444  1.00  0.00     0.057 A 
ATOM     58  C   UNL A   1      43.506  27.078  26.591  1.00  0.00     0.134 A 
ATOM     59  C   UNL A   1      41.968  25.347  27.189  1.00  0.00     0.134 A 
ATOM     60  F   UNL A   1      44.063  28.284  26.777  1.00  0.00    -0.206 F 
ATOM     61  C   UNL A   1      43.964  26.302  25.519  1.00  0.00     0.040 A 
ATOM     62  C   UNL A   1      42.434  24.554  26.136  1.00  0.00     0.040 A 
ATOM     63  F   UNL A   1      41.016  24.833  27.979  1.00  0.00    -0.206 F 
ATOM     64  C   UNL A   1      43.431  25.034  25.293  1.00  0.00     0.006 A 
ENDBRANCH  43  57
BRANCH  44  65
ATOM     65  C   UNL A   1      39.439  32.084  35.164  1.00  0.00     0.057 A 
ATOM     66  C   UNL A   1      39.874  33.386  35.426  1.00  0.00     0.134 A 
ATOM     67  C   UNL A   1      38.467  31.542  36.020  1.00  0.00     0.134 A 
ATOM     68  F   UNL A   1      40.814  33.950  34.656  1.00  0.00    -0.206 F 
ATOM     69  C   UNL A   1      39.363  34.121  36.497  1.00  0.00     0.040 A 
ATOM     70  C   UNL A   1      37.922  32.279  37.070  1.00  0.00     0.040 A 
ATOM     71  F   UNL A   1      37.999  30.301  35.816  1.00  0.00    -0.206 F 
ATOM     72  C   UNL A   1      38.377  33.571  37.316  1.00  0.00     0.006 A 
ENDBRANCH  44  65
BRANCH  56  73
ATOM     73  C   UNL A   1      44.396  27.285  34.379  1.00  0.00     0.057 A 
ATOM     74  C   UNL A   1      45.641  27.894  34.583  1.00  0.00     0.134 A 
ATOM     75  C   UNL A   1      44.126  26.108  35.088  1.00  0.00     0.134 A 
ATOM     76  F   UNL A   1      45.972  29.008  33.913  1.00  0.00    -0.206 F 
ATOM     77  C   UNL A   1      46.589  27.339  35.445  1.00  0.00     0.040 A 
ATOM     78  C   UNL A   1      45.055  25.559  35.971  1.00  0.00     0.040 A 
ATOM     79  F   UNL A   1      42.954  25.473  34.932  1.00  0.00    -0.206 F 
ATOM     80  C   UNL A   1      46.294  26.172  36.147  1.00  0.00     0.006 A 
ENDBRANCH  56  73
ENDBRANCH  30  31
ENDBRANCH  23  25
ENDBRANCH  22  23
ENDBRANCH  21  22
ENDBRANCH   1  21
TORSDOF 14
ENDMDL
MODEL 3
REMARK VINA RESULT:     -11.2      4.084      8.708
REMARK SMILES CC1(C)[C@H]2CC[C@]1(C)[C@H](NC(=O)CCC(=O)OCCOC(=O)c1ccc(-c3c4nc(c(-c5c(F)cccc5F)c5ccc([nH]5)c(-c5c(F)cccc5F)c5nc(c(-c6c(F)cccc6F)c6ccc3[nH]6)C=C5)C=C4)cc1)C2
REMARK SMILES IDX 18 1 17 2 15 3 16 4 14 5 13 6 11 7 10 8 12 10 9 11 1 12 2 13
REMARK SMILES IDX 3 14 4 15 7 16 5 17 77 18 6 19 8 20 19 21 20 22 21 23 22 24
REMARK SMILES IDX 23 25 24 26 76 27 25 28 75 29 26 30 27 31 28 32 69 33 29 34
REMARK SMILES IDX 74 35 68 36 70 37 30 38 73 39 67 40 66 41 31 43 57 44 40 45
REMARK SMILES IDX 56 46 41 47 44 48 55 49 71 50 42 51 43 52 54 54 72 55 45 56
REMARK SMILES IDX 32 57 33 58 38 59 34 60 35 61 37 62 39 63 36 64 58 65 59 66
REMARK SMILES IDX 64 67 60 68 61 69 63 70 65 71 62 72 46 73 47 74 52 75 48 76
REMARK SMILES IDX 49 77 51 78 53 79 50 80
REMARK H PARENT 10 9 70 42 44 53
REMARK Flexibility Score: inf
ROOT
ATOM      1  C   UNL A   1      35.076  20.249  25.003  1.00  0.00     0.274 C 
ENDROOT
BRANCH   1   2
ATOM      2  O   UNL A   1      33.801  20.258  24.251  1.00  0.00    -0.462 OA
BRANCH   2   3
ATOM      3  C   UNL A   1      32.604  20.150  24.927  1.00  0.00     0.306 C 
ATOM      4  O   UNL A   1      32.114  19.066  25.230  1.00  0.00    -0.252 OA
BRANCH   3   5
ATOM      5  C   UNL A   1      31.880  21.534  25.241  1.00  0.00     0.132 C 
BRANCH   5   6
ATOM      6  C   UNL A   1      32.008  22.442  26.540  1.00  0.00     0.111 C 
BRANCH   6   7
ATOM      7  C   UNL A   1      31.125  23.734  26.836  1.00  0.00     0.220 C 
ATOM      8  N   UNL A   1      31.601  25.054  26.853  1.00  0.00    -0.353 N 
ATOM      9  H   UNL A   1      31.197  25.631  27.541  1.00  0.00     0.163 HD
ATOM     10  O   UNL A   1      29.959  23.570  27.217  1.00  0.00    -0.275 OA
BRANCH   8  11
ATOM     11  C   UNL A   1      32.622  25.720  25.994  1.00  0.00     0.088 C 
ATOM     12  C   UNL A   1      31.986  28.076  22.754  1.00  0.00     0.012 C 
ATOM     13  C   UNL A   1      32.419  27.621  24.161  1.00  0.00    -0.025 C 
ATOM     14  C   UNL A   1      33.475  28.666  24.481  1.00  0.00     0.012 C 
ATOM     15  C   UNL A   1      31.450  27.707  25.299  1.00  0.00    -0.003 C 
ATOM     16  C   UNL A   1      32.522  26.007  24.412  1.00  0.00    -0.007 C 
ATOM     17  C   UNL A   1      30.329  26.743  24.799  1.00  0.00     0.005 C 
ATOM     18  C   UNL A   1      32.480  27.128  26.316  1.00  0.00     0.029 C 
ATOM     19  C   UNL A   1      31.093  25.609  24.057  1.00  0.00     0.010 C 
ATOM     20  C   UNL A   1      33.690  25.425  23.644  1.00  0.00     0.014 C 
ENDBRANCH   8  11
ENDBRANCH   6   7
ENDBRANCH   5   6
ENDBRANCH   3   5
ENDBRANCH   2   3
ENDBRANCH   1   2
BRANCH   1  21
ATOM     21  C   UNL A   1      35.628  21.600  25.587  1.00  0.00     0.275 C 
BRANCH  21  22
ATOM     22  O   UNL A   1      36.930  21.945  25.021  1.00  0.00    -0.458 OA
BRANCH  22  23
ATOM     23  C   UNL A   1      38.066  21.417  25.582  1.00  0.00     0.338 C 
ATOM     24  O   UNL A   1      38.517  20.291  25.341  1.00  0.00    -0.246 OA
BRANCH  23  25
ATOM     25  C   UNL A   1      38.848  22.484  26.321  1.00  0.00     0.060 A 
ATOM     26  C   UNL A   1      38.570  23.821  26.041  1.00  0.00     0.016 A 
ATOM     27  C   UNL A   1      40.038  22.206  27.028  1.00  0.00     0.016 A 
ATOM     28  C   UNL A   1      39.520  24.813  26.314  1.00  0.00     0.010 A 
ATOM     29  C   UNL A   1      40.894  23.254  27.475  1.00  0.00     0.010 A 
ATOM     30  C   UNL A   1      40.635  24.592  27.139  1.00  0.00    -0.014 A 
BRANCH  30  31
ATOM     31  C   UNL A   1      41.355  25.777  27.739  1.00  0.00     0.031 A 
ATOM     32  C   UNL A   1      40.688  26.840  28.592  1.00  0.00     0.074 A 
ATOM     33  C   UNL A   1      42.681  25.926  27.491  1.00  0.00     0.049 A 
ATOM     34  N   UNL A   1      41.102  28.057  28.871  1.00  0.00    -0.248 NA
ATOM     35  C   UNL A   1      39.419  26.489  29.245  1.00  0.00     0.031 C 
ATOM     36  C   UNL A   1      43.539  24.962  26.790  1.00  0.00     0.029 A 
ATOM     37  N   UNL A   1      43.549  26.957  27.781  1.00  0.00    -0.354 N 
ATOM     38  C   UNL A   1      40.131  28.633  29.688  1.00  0.00     0.074 A 
ATOM     39  C   UNL A   1      39.116  27.616  29.887  1.00  0.00     0.031 C 
ATOM     40  C   UNL A   1      44.791  25.416  26.739  1.00  0.00     0.029 A 
ATOM     41  C   UNL A   1      44.793  26.783  27.216  1.00  0.00     0.049 A 
ATOM     42  H   UNL A   1      43.306  27.735  28.334  1.00  0.00     0.167 HD
ATOM     43  C   UNL A   1      40.089  29.892  30.203  1.00  0.00     0.037 A 
ATOM     44  C   UNL A   1      45.801  27.636  26.963  1.00  0.00     0.037 A 
ATOM     45  C   UNL A   1      41.123  30.889  30.018  1.00  0.00     0.049 A 
ATOM     46  C   UNL A   1      45.661  29.064  27.364  1.00  0.00     0.074 A 
ATOM     47  C   UNL A   1      41.149  32.206  30.457  1.00  0.00     0.029 A 
ATOM     48  N   UNL A   1      42.319  30.679  29.350  1.00  0.00    -0.354 N 
ATOM     49  N   UNL A   1      44.679  29.643  28.005  1.00  0.00    -0.248 NA
ATOM     50  C   UNL A   1      46.758  29.962  26.987  1.00  0.00     0.031 C 
ATOM     51  C   UNL A   1      42.333  32.802  30.007  1.00  0.00     0.029 A 
ATOM     52  C   UNL A   1      43.075  31.844  29.341  1.00  0.00     0.049 A 
ATOM     53  H   UNL A   1      42.593  29.826  28.940  1.00  0.00     0.167 HD
ATOM     54  C   UNL A   1      45.053  30.970  28.139  1.00  0.00     0.074 A 
ATOM     55  C   UNL A   1      46.352  31.107  27.515  1.00  0.00     0.031 C 
ATOM     56  C   UNL A   1      44.373  31.980  28.732  1.00  0.00     0.037 A 
BRANCH  43  57
ATOM     57  C   UNL A   1      38.857  30.318  30.964  1.00  0.00     0.057 A 
ATOM     58  C   UNL A   1      37.738  30.882  30.340  1.00  0.00     0.134 A 
ATOM     59  C   UNL A   1      38.760  30.069  32.343  1.00  0.00     0.134 A 
ATOM     60  F   UNL A   1      37.751  31.141  29.024  1.00  0.00    -0.206 F 
ATOM     61  C   UNL A   1      36.580  31.201  31.060  1.00  0.00     0.040 A 
ATOM     62  C   UNL A   1      37.601  30.361  33.068  1.00  0.00     0.040 A 
ATOM     63  F   UNL A   1      39.781  29.504  33.005  1.00  0.00    -0.206 F 
ATOM     64  C   UNL A   1      36.508  30.935  32.427  1.00  0.00     0.006 A 
ENDBRANCH  43  57
BRANCH  44  65
ATOM     65  C   UNL A   1      46.974  27.167  26.177  1.00  0.00     0.057 A 
ATOM     66  C   UNL A   1      47.020  27.311  24.789  1.00  0.00     0.134 A 
ATOM     67  C   UNL A   1      48.092  26.596  26.806  1.00  0.00     0.134 A 
ATOM     68  F   UNL A   1      45.975  27.831  24.130  1.00  0.00    -0.206 F 
ATOM     69  C   UNL A   1      48.132  26.902  24.052  1.00  0.00     0.040 A 
ATOM     70  C   UNL A   1      49.224  26.218  26.087  1.00  0.00     0.040 A 
ATOM     71  F   UNL A   1      48.116  26.440  28.139  1.00  0.00    -0.206 F 
ATOM     72  C   UNL A   1      49.243  26.364  24.702  1.00  0.00     0.006 A 
ENDBRANCH  44  65
BRANCH  56  73
ATOM     73  C   UNL A   1      45.063  33.308  28.797  1.00  0.00     0.057 A 
ATOM     74  C   UNL A   1      45.990  33.617  29.800  1.00  0.00     0.134 A 
ATOM     75  C   UNL A   1      44.787  34.295  27.842  1.00  0.00     0.134 A 
ATOM     76  F   UNL A   1      46.276  32.725  30.761  1.00  0.00    -0.206 F 
ATOM     77  C   UNL A   1      46.603  34.870  29.864  1.00  0.00     0.040 A 
ATOM     78  C   UNL A   1      45.413  35.541  27.880  1.00  0.00     0.040 A 
ATOM     79  F   UNL A   1      43.905  34.064  26.858  1.00  0.00    -0.206 F 
ATOM     80  C   UNL A   1      46.320  35.833  28.897  1.00  0.00     0.006 A 
ENDBRANCH  56  73
ENDBRANCH  30  31
ENDBRANCH  23  25
ENDBRANCH  22  23
ENDBRANCH  21  22
ENDBRANCH   1  21
TORSDOF 14
ENDMDL
