MODEL 1
REMARK VINA RESULT:     -10.9      0.000      0.000
REMARK SMILES C[C@H]1[C@H](C(=O)OCCOC(=O)c2ccc(-c3c4nc(c(-c5c(F)cccc5F)c5ccc([nH]5)c(-c5c(F)cccc5F)c5nc(c(-c6c(F)cccc6F)c6ccc3[nH]6)C=C5)C=C4)cc2)CC[N@@H+]1Cc1cscn1
REMARK SMILES IDX 7 1 6 2 4 3 5 4 3 5 1 6 2 7 68 8 66 9 67 10 69 12 70 13
REMARK SMILES IDX 71 14 74 15 72 16 73 17 8 18 9 19 10 20 11 21 12 22 13 23
REMARK SMILES IDX 65 24 14 25 64 26 15 27 16 28 17 29 58 30 18 31 63 32 57 33
REMARK SMILES IDX 59 34 19 35 62 36 56 37 55 38 20 40 46 41 29 42 45 43 30 44
REMARK SMILES IDX 33 45 44 46 60 47 31 48 32 49 43 51 61 52 34 53 21 54 22 55
REMARK SMILES IDX 27 56 23 57 24 58 26 59 28 60 25 61 47 62 48 63 53 64 49 65
REMARK SMILES IDX 50 66 52 67 54 68 51 69 35 70 36 71 41 72 37 73 38 74 40 75
REMARK SMILES IDX 42 76 39 77
REMARK H PARENT 68 11 59 39 33 50
REMARK Flexibility Score: inf
ROOT
ATOM      1  C   UNL A   1      31.775  28.424  26.828  1.00  0.00     0.274 C 
ENDROOT
BRANCH   1   2
ATOM      2  O   UNL A   1      32.242  27.330  26.017  1.00  0.00    -0.462 OA
BRANCH   2   3
ATOM      3  C   UNL A   1      31.464  26.227  25.942  1.00  0.00     0.315 C 
ATOM      4  O   UNL A   1      31.257  25.459  26.878  1.00  0.00    -0.252 OA
BRANCH   3   5
ATOM      5  C   UNL A   1      30.837  26.003  24.579  1.00  0.00     0.162 C 
ATOM      6  C   UNL A   1      28.457  26.474  23.876  1.00  0.00     0.076 C 
ATOM      7  C   UNL A   1      29.860  27.072  24.065  1.00  0.00     0.195 C 
ATOM      8  N   UNL A   1      30.350  27.472  22.734  1.00  0.00    -0.327 N 
ATOM      9  C   UNL A   1      31.916  25.862  23.517  1.00  0.00     0.083 C 
ATOM     10  C   UNL A   1      31.306  26.475  22.273  1.00  0.00     0.263 C 
ATOM     11  H   UNL A   1      29.569  27.473  22.078  1.00  0.00     0.348 HD
BRANCH   8  12
ATOM     12  C   UNL A   1      30.773  28.873  22.627  1.00  0.00     0.320 C 
BRANCH  12  13
ATOM     13  C   UNL A   1      29.667  29.885  22.503  1.00  0.00     0.105 A 
ATOM     14  C   UNL A   1      29.176  30.719  23.493  1.00  0.00     0.096 A 
ATOM     15  N   UNL A   1      29.090  30.092  21.253  1.00  0.00    -0.244 NA
ATOM     16  S   UNL A   1      27.932  31.722  22.876  1.00  0.00    -0.130 S 
ATOM     17  C   UNL A   1      28.177  31.033  21.329  1.00  0.00     0.176 A 
ENDBRANCH  12  13
ENDBRANCH   8  12
ENDBRANCH   3   5
ENDBRANCH   2   3
ENDBRANCH   1   2
BRANCH   1  18
ATOM     18  C   UNL A   1      31.798  29.727  26.030  1.00  0.00     0.275 C 
BRANCH  18  19
ATOM     19  O   UNL A   1      33.118  30.300  26.029  1.00  0.00    -0.458 OA
BRANCH  19  20
ATOM     20  C   UNL A   1      33.324  31.251  26.967  1.00  0.00     0.338 C 
ATOM     21  O   UNL A   1      32.557  32.121  27.337  1.00  0.00    -0.246 OA
BRANCH  20  22
ATOM     22  C   UNL A   1      34.623  31.012  27.603  1.00  0.00     0.060 A 
ATOM     23  C   UNL A   1      34.945  29.709  27.987  1.00  0.00     0.016 A 
ATOM     24  C   UNL A   1      35.478  32.074  27.890  1.00  0.00     0.016 A 
ATOM     25  C   UNL A   1      36.119  29.454  28.683  1.00  0.00     0.010 A 
ATOM     26  C   UNL A   1      36.668  31.816  28.569  1.00  0.00     0.010 A 
ATOM     27  C   UNL A   1      36.987  30.507  28.980  1.00  0.00    -0.014 A 
BRANCH  27  28
ATOM     28  C   UNL A   1      38.216  30.266  29.761  1.00  0.00     0.031 A 
ATOM     29  C   UNL A   1      39.283  29.384  29.188  1.00  0.00     0.074 A 
ATOM     30  C   UNL A   1      38.353  30.806  30.985  1.00  0.00     0.049 A 
ATOM     31  N   UNL A   1      40.311  28.838  29.781  1.00  0.00    -0.248 NA
ATOM     32  C   UNL A   1      39.167  29.065  27.756  1.00  0.00     0.031 C 
ATOM     33  C   UNL A   1      37.413  31.738  31.608  1.00  0.00     0.029 A 
ATOM     34  N   UNL A   1      39.327  30.626  31.932  1.00  0.00    -0.354 N 
ATOM     35  C   UNL A   1      40.941  28.075  28.808  1.00  0.00     0.074 A 
ATOM     36  C   UNL A   1      40.184  28.231  27.584  1.00  0.00     0.031 C 
ATOM     37  C   UNL A   1      37.845  32.032  32.845  1.00  0.00     0.029 A 
ATOM     38  C   UNL A   1      39.051  31.258  33.120  1.00  0.00     0.049 A 
ATOM     39  H   UNL A   1      40.142  30.096  31.777  1.00  0.00     0.167 HD
ATOM     40  C   UNL A   1      42.046  27.306  28.936  1.00  0.00     0.037 A 
ATOM     41  C   UNL A   1      39.671  31.172  34.311  1.00  0.00     0.037 A 
ATOM     42  C   UNL A   1      42.799  27.183  30.157  1.00  0.00     0.049 A 
ATOM     43  C   UNL A   1      40.861  30.265  34.448  1.00  0.00     0.074 A 
ATOM     44  C   UNL A   1      43.934  26.431  30.401  1.00  0.00     0.029 A 
ATOM     45  N   UNL A   1      42.487  27.838  31.339  1.00  0.00    -0.354 N 
ATOM     46  N   UNL A   1      41.429  29.508  33.540  1.00  0.00    -0.248 NA
ATOM     47  C   UNL A   1      41.487  30.185  35.775  1.00  0.00     0.031 C 
ATOM     48  C   UNL A   1      44.292  26.610  31.741  1.00  0.00     0.029 A 
ATOM     49  C   UNL A   1      43.402  27.501  32.320  1.00  0.00     0.049 A 
ATOM     50  H   UNL A   1      41.727  28.453  31.462  1.00  0.00     0.167 HD
ATOM     51  C   UNL A   1      42.492  28.882  34.176  1.00  0.00     0.074 A 
ATOM     52  C   UNL A   1      42.491  29.350  35.547  1.00  0.00     0.031 C 
ATOM     53  C   UNL A   1      43.389  28.001  33.671  1.00  0.00     0.037 A 
BRANCH  40  54
ATOM     54  C   UNL A   1      42.479  26.511  27.742  1.00  0.00     0.057 A 
ATOM     55  C   UNL A   1      42.017  25.211  27.507  1.00  0.00     0.134 A 
ATOM     56  C   UNL A   1      43.355  27.067  26.801  1.00  0.00     0.134 A 
ATOM     57  F   UNL A   1      41.190  24.614  28.378  1.00  0.00    -0.206 F 
ATOM     58  C   UNL A   1      42.428  24.483  26.387  1.00  0.00     0.040 A 
ATOM     59  C   UNL A   1      43.754  26.359  25.666  1.00  0.00     0.040 A 
ATOM     60  F   UNL A   1      43.833  28.310  26.966  1.00  0.00    -0.206 F 
ATOM     61  C   UNL A   1      43.294  25.060  25.461  1.00  0.00     0.006 A 
ENDBRANCH  40  54
BRANCH  41  62
ATOM     62  C   UNL A   1      39.149  31.933  35.471  1.00  0.00     0.057 A 
ATOM     63  C   UNL A   1      38.269  31.344  36.385  1.00  0.00     0.134 A 
ATOM     64  C   UNL A   1      39.525  33.263  35.702  1.00  0.00     0.134 A 
ATOM     65  F   UNL A   1      37.856  30.081  36.205  1.00  0.00    -0.206 F 
ATOM     66  C   UNL A   1      37.777  32.050  37.485  1.00  0.00     0.040 A 
ATOM     67  C   UNL A   1      39.060  33.973  36.810  1.00  0.00     0.040 A 
ATOM     68  F   UNL A   1      40.368  33.883  34.865  1.00  0.00    -0.206 F 
ATOM     69  C   UNL A   1      38.178  33.367  37.703  1.00  0.00     0.006 A 
ENDBRANCH  41  62
BRANCH  53  70
ATOM     70  C   UNL A   1      44.473  27.527  34.588  1.00  0.00     0.057 A 
ATOM     71  C   UNL A   1      45.668  28.238  34.746  1.00  0.00     0.134 A 
ATOM     72  C   UNL A   1      44.286  26.382  35.372  1.00  0.00     0.134 A 
ATOM     73  F   UNL A   1      45.909  29.335  34.013  1.00  0.00    -0.206 F 
ATOM     74  C   UNL A   1      46.645  27.821  35.651  1.00  0.00     0.040 A 
ATOM     75  C   UNL A   1      45.246  25.967  36.294  1.00  0.00     0.040 A 
ATOM     76  F   UNL A   1      43.158  25.663  35.269  1.00  0.00    -0.206 F 
ATOM     77  C   UNL A   1      46.431  26.687  36.435  1.00  0.00     0.006 A 
ENDBRANCH  53  70
ENDBRANCH  27  28
ENDBRANCH  20  22
ENDBRANCH  19  20
ENDBRANCH  18  19
ENDBRANCH   1  18
TORSDOF 13
ENDMDL
MODEL 2
REMARK VINA RESULT:     -10.6      5.151      9.495
REMARK SMILES C[C@H]1[C@H](C(=O)OCCOC(=O)c2ccc(-c3c4nc(c(-c5c(F)cccc5F)c5ccc([nH]5)c(-c5c(F)cccc5F)c5nc(c(-c6c(F)cccc6F)c6ccc3[nH]6)C=C5)C=C4)cc2)CC[N@@H+]1Cc1cscn1
REMARK SMILES IDX 7 1 6 2 4 3 5 4 3 5 1 6 2 7 68 8 66 9 67 10 69 12 70 13
REMARK SMILES IDX 71 14 74 15 72 16 73 17 8 18 9 19 10 20 11 21 12 22 13 23
REMARK SMILES IDX 65 24 14 25 64 26 15 27 16 28 17 29 58 30 18 31 63 32 57 33
REMARK SMILES IDX 59 34 19 35 62 36 56 37 55 38 20 40 46 41 29 42 45 43 30 44
REMARK SMILES IDX 33 45 44 46 60 47 31 48 32 49 43 51 61 52 34 53 21 54 22 55
REMARK SMILES IDX 27 56 23 57 24 58 26 59 28 60 25 61 47 62 48 63 53 64 49 65
REMARK SMILES IDX 50 66 52 67 54 68 51 69 35 70 36 71 41 72 37 73 38 74 40 75
REMARK SMILES IDX 42 76 39 77
REMARK H PARENT 68 11 59 39 33 50
REMARK Flexibility Score: inf
ROOT
ATOM      1  C   UNL A   1      36.437  22.875  23.492  1.00  0.00     0.274 C 
ENDROOT
BRANCH   1   2
ATOM      2  O   UNL A   1      35.169  23.064  22.836  1.00  0.00    -0.462 OA
BRANCH   2   3
ATOM      3  C   UNL A   1      34.222  23.770  23.492  1.00  0.00     0.315 C 
ATOM      4  O   UNL A   1      34.377  24.910  23.920  1.00  0.00    -0.252 OA
BRANCH   3   5
ATOM      5  C   UNL A   1      32.906  23.033  23.660  1.00  0.00     0.162 C 
ATOM      6  C   UNL A   1      32.046  21.077  22.313  1.00  0.00     0.076 C 
ATOM      7  C   UNL A   1      32.925  21.505  23.499  1.00  0.00     0.195 C 
ATOM      8  N   UNL A   1      32.313  20.953  24.720  1.00  0.00    -0.327 N 
ATOM      9  C   UNL A   1      32.316  23.311  25.034  1.00  0.00     0.083 C 
ATOM     10  C   UNL A   1      31.610  22.025  25.411  1.00  0.00     0.263 C 
ATOM     11  H   UNL A   1      31.620  20.252  24.458  1.00  0.00     0.348 HD
BRANCH   8  12
ATOM     12  C   UNL A   1      33.208  20.131  25.543  1.00  0.00     0.320 C 
BRANCH  12  13
ATOM     13  C   UNL A   1      33.378  18.703  25.100  1.00  0.00     0.105 A 
ATOM     14  C   UNL A   1      32.546  17.632  25.382  1.00  0.00     0.096 A 
ATOM     15  N   UNL A   1      34.435  18.390  24.251  1.00  0.00    -0.244 NA
ATOM     16  S   UNL A   1      33.131  16.203  24.639  1.00  0.00    -0.130 S 
ATOM     17  C   UNL A   1      34.400  17.114  23.941  1.00  0.00     0.176 A 
ENDBRANCH  12  13
ENDBRANCH   8  12
ENDBRANCH   3   5
ENDBRANCH   2   3
ENDBRANCH   1   2
BRANCH   1  18
ATOM     18  C   UNL A   1      36.415  21.602  24.337  1.00  0.00     0.275 C 
BRANCH  18  19
ATOM     19  O   UNL A   1      36.978  21.845  25.639  1.00  0.00    -0.458 OA
BRANCH  19  20
ATOM     20  C   UNL A   1      38.278  21.497  25.770  1.00  0.00     0.338 C 
ATOM     21  O   UNL A   1      38.827  20.483  25.380  1.00  0.00    -0.246 OA
BRANCH  20  22
ATOM     22  C   UNL A   1      39.007  22.617  26.371  1.00  0.00     0.060 A 
ATOM     23  C   UNL A   1      38.580  23.916  26.090  1.00  0.00     0.016 A 
ATOM     24  C   UNL A   1      40.148  22.390  27.138  1.00  0.00     0.016 A 
ATOM     25  C   UNL A   1      39.302  25.007  26.555  1.00  0.00     0.010 A 
ATOM     26  C   UNL A   1      40.861  23.484  27.624  1.00  0.00     0.010 A 
ATOM     27  C   UNL A   1      40.449  24.797  27.325  1.00  0.00    -0.014 A 
BRANCH  27  28
ATOM     28  C   UNL A   1      41.258  25.941  27.788  1.00  0.00     0.031 A 
ATOM     29  C   UNL A   1      40.607  27.008  28.613  1.00  0.00     0.074 A 
ATOM     30  C   UNL A   1      42.553  26.034  27.441  1.00  0.00     0.049 A 
ATOM     31  N   UNL A   1      41.043  28.202  28.915  1.00  0.00    -0.248 NA
ATOM     32  C   UNL A   1      39.280  26.689  29.164  1.00  0.00     0.031 C 
ATOM     33  C   UNL A   1      43.308  25.018  26.705  1.00  0.00     0.029 A 
ATOM     34  N   UNL A   1      43.457  27.045  27.639  1.00  0.00    -0.354 N 
ATOM     35  C   UNL A   1      40.026  28.795  29.650  1.00  0.00     0.074 A 
ATOM     36  C   UNL A   1      38.954  27.830  29.756  1.00  0.00     0.031 C 
ATOM     37  C   UNL A   1      44.555  25.468  26.494  1.00  0.00     0.029 A 
ATOM     38  C   UNL A   1      44.663  26.824  27.021  1.00  0.00     0.049 A 
ATOM     39  H   UNL A   1      43.260  27.850  28.172  1.00  0.00     0.167 HD
ATOM     40  C   UNL A   1      39.996  30.041  30.177  1.00  0.00     0.037 A 
ATOM     41  C   UNL A   1      45.713  27.649  26.850  1.00  0.00     0.037 A 
ATOM     42  C   UNL A   1      41.083  30.978  30.081  1.00  0.00     0.049 A 
ATOM     43  C   UNL A   1      45.634  29.049  27.390  1.00  0.00     0.074 A 
ATOM     44  C   UNL A   1      41.161  32.268  30.577  1.00  0.00     0.029 A 
ATOM     45  N   UNL A   1      42.288  30.717  29.445  1.00  0.00    -0.354 N 
ATOM     46  N   UNL A   1      44.655  29.625  28.047  1.00  0.00    -0.248 NA
ATOM     47  C   UNL A   1      46.794  29.919  27.154  1.00  0.00     0.031 C 
ATOM     48  C   UNL A   1      42.404  32.797  30.214  1.00  0.00     0.029 A 
ATOM     49  C   UNL A   1      43.114  31.824  29.527  1.00  0.00     0.049 A 
ATOM     50  H   UNL A   1      42.523  29.869  29.003  1.00  0.00     0.167 HD
ATOM     51  C   UNL A   1      45.089  30.913  28.324  1.00  0.00     0.074 A 
ATOM     52  C   UNL A   1      46.421  31.034  27.766  1.00  0.00     0.031 C 
ATOM     53  C   UNL A   1      44.445  31.908  28.981  1.00  0.00     0.037 A 
BRANCH  40  54
ATOM     54  C   UNL A   1      38.735  30.471  30.865  1.00  0.00     0.057 A 
ATOM     55  C   UNL A   1      38.531  30.274  32.235  1.00  0.00     0.134 A 
ATOM     56  C   UNL A   1      37.720  31.113  30.144  1.00  0.00     0.134 A 
ATOM     57  F   UNL A   1      39.457  29.649  32.978  1.00  0.00    -0.206 F 
ATOM     58  C   UNL A   1      37.351  30.682  32.862  1.00  0.00     0.040 A 
ATOM     59  C   UNL A   1      36.546  31.547  30.763  1.00  0.00     0.040 A 
ATOM     60  F   UNL A   1      37.854  31.334  28.828  1.00  0.00    -0.206 F 
ATOM     61  C   UNL A   1      36.358  31.326  32.125  1.00  0.00     0.006 A 
ENDBRANCH  40  54
BRANCH  41  62
ATOM     62  C   UNL A   1      46.903  27.182  26.098  1.00  0.00     0.057 A 
ATOM     63  C   UNL A   1      47.012  27.386  24.719  1.00  0.00     0.134 A 
ATOM     64  C   UNL A   1      47.964  26.533  26.742  1.00  0.00     0.134 A 
ATOM     65  F   UNL A   1      46.019  27.983  24.045  1.00  0.00    -0.206 F 
ATOM     66  C   UNL A   1      48.132  26.957  24.004  1.00  0.00     0.040 A 
ATOM     67  C   UNL A   1      49.100  26.120  26.044  1.00  0.00     0.040 A 
ATOM     68  F   UNL A   1      47.921  26.310  28.063  1.00  0.00    -0.206 F 
ATOM     69  C   UNL A   1      49.183  26.327  24.668  1.00  0.00     0.006 A 
ENDBRANCH  41  62
BRANCH  53  70
ATOM     70  C   UNL A   1      45.189  33.191  29.181  1.00  0.00     0.057 A 
ATOM     71  C   UNL A   1      45.076  34.256  28.280  1.00  0.00     0.134 A 
ATOM     72  C   UNL A   1      45.970  33.385  30.327  1.00  0.00     0.134 A 
ATOM     73  F   UNL A   1      44.351  34.125  27.159  1.00  0.00    -0.206 F 
ATOM     74  C   UNL A   1      45.724  35.470  28.510  1.00  0.00     0.040 A 
ATOM     75  C   UNL A   1      46.606  34.600  30.576  1.00  0.00     0.040 A 
ATOM     76  F   UNL A   1      46.109  32.402  31.230  1.00  0.00    -0.206 F 
ATOM     77  C   UNL A   1      46.484  35.647  29.666  1.00  0.00     0.006 A 
ENDBRANCH  53  70
ENDBRANCH  27  28
ENDBRANCH  20  22
ENDBRANCH  19  20
ENDBRANCH  18  19
ENDBRANCH   1  18
TORSDOF 13
ENDMDL
MODEL 3
REMARK VINA RESULT:     -10.4      2.542      3.644
REMARK SMILES C[C@H]1[C@H](C(=O)OCCOC(=O)c2ccc(-c3c4nc(c(-c5c(F)cccc5F)c5ccc([nH]5)c(-c5c(F)cccc5F)c5nc(c(-c6c(F)cccc6F)c6ccc3[nH]6)C=C5)C=C4)cc2)CC[N@@H+]1Cc1cscn1
REMARK SMILES IDX 7 1 6 2 4 3 5 4 3 5 1 6 2 7 68 8 66 9 67 10 69 12 70 13
REMARK SMILES IDX 71 14 74 15 72 16 73 17 8 18 9 19 10 20 11 21 12 22 13 23
REMARK SMILES IDX 65 24 14 25 64 26 15 27 16 28 17 29 58 30 18 31 63 32 57 33
REMARK SMILES IDX 59 34 19 35 62 36 56 37 55 38 20 40 46 41 29 42 45 43 30 44
REMARK SMILES IDX 33 45 44 46 60 47 31 48 32 49 43 51 61 52 34 53 21 54 22 55
REMARK SMILES IDX 27 56 23 57 24 58 26 59 28 60 25 61 47 62 48 63 53 64 49 65
REMARK SMILES IDX 50 66 52 67 54 68 51 69 35 70 36 71 41 72 37 73 38 74 40 75
REMARK SMILES IDX 42 76 39 77
REMARK H PARENT 68 11 59 39 33 50
REMARK Flexibility Score: inf
ROOT
ATOM      1  C   UNL A   1      31.474  28.206  25.352  1.00  0.00     0.274 C 
ENDROOT
BRANCH   1   2
ATOM      2  O   UNL A   1      32.673  27.502  25.727  1.00  0.00    -0.462 OA
BRANCH   2   3
ATOM      3  C   UNL A   1      32.545  26.219  26.134  1.00  0.00     0.315 C 
ATOM      4  O   UNL A   1      31.619  25.796  26.819  1.00  0.00    -0.252 OA
BRANCH   3   5
ATOM      5  C   UNL A   1      33.660  25.306  25.658  1.00  0.00     0.162 C 
ATOM      6  C   UNL A   1      34.651  23.319  26.863  1.00  0.00     0.076 C 
ATOM      7  C   UNL A   1      33.516  23.803  25.947  1.00  0.00     0.195 C 
ATOM      8  N   UNL A   1      33.674  23.118  24.652  1.00  0.00    -0.327 N 
ATOM      9  C   UNL A   1      33.847  25.437  24.155  1.00  0.00     0.083 C 
ATOM     10  C   UNL A   1      34.260  24.053  23.701  1.00  0.00     0.263 C 
ATOM     11  H   UNL A   1      34.329  22.344  24.763  1.00  0.00     0.348 HD
BRANCH   8  12
ATOM     12  C   UNL A   1      32.489  22.384  24.192  1.00  0.00     0.320 C 
BRANCH  12  13
ATOM     13  C   UNL A   1      32.577  20.885  24.264  1.00  0.00     0.105 A 
ATOM     14  C   UNL A   1      32.864  20.113  25.378  1.00  0.00     0.096 A 
ATOM     15  N   UNL A   1      32.273  20.143  23.126  1.00  0.00    -0.244 NA
ATOM     16  S   UNL A   1      32.826  18.446  24.982  1.00  0.00    -0.130 S 
ATOM     17  C   UNL A   1      32.365  18.860  23.387  1.00  0.00     0.176 A 
ENDBRANCH  12  13
ENDBRANCH   8  12
ENDBRANCH   3   5
ENDBRANCH   2   3
ENDBRANCH   1   2
BRANCH   1  18
ATOM     18  C   UNL A   1      31.674  29.714  25.500  1.00  0.00     0.275 C 
BRANCH  18  19
ATOM     19  O   UNL A   1      33.036  30.014  25.854  1.00  0.00    -0.458 OA
BRANCH  19  20
ATOM     20  C   UNL A   1      33.178  30.943  26.826  1.00  0.00     0.338 C 
ATOM     21  O   UNL A   1      32.353  31.744  27.226  1.00  0.00    -0.246 OA
BRANCH  20  22
ATOM     22  C   UNL A   1      34.490  30.770  27.455  1.00  0.00     0.060 A 
ATOM     23  C   UNL A   1      34.884  29.484  27.829  1.00  0.00     0.016 A 
ATOM     24  C   UNL A   1      35.289  31.874  27.745  1.00  0.00     0.016 A 
ATOM     25  C   UNL A   1      36.073  29.287  28.518  1.00  0.00     0.010 A 
ATOM     26  C   UNL A   1      36.494  31.676  28.418  1.00  0.00     0.010 A 
ATOM     27  C   UNL A   1      36.885  30.384  28.818  1.00  0.00    -0.014 A 
BRANCH  27  28
ATOM     28  C   UNL A   1      38.129  30.203  29.592  1.00  0.00     0.031 A 
ATOM     29  C   UNL A   1      39.223  29.351  29.026  1.00  0.00     0.074 A 
ATOM     30  C   UNL A   1      38.256  30.771  30.804  1.00  0.00     0.049 A 
ATOM     31  N   UNL A   1      40.277  28.856  29.619  1.00  0.00    -0.248 NA
ATOM     32  C   UNL A   1      39.107  29.002  27.601  1.00  0.00     0.031 C 
ATOM     33  C   UNL A   1      37.286  31.679  31.419  1.00  0.00     0.029 A 
ATOM     34  N   UNL A   1      39.243  30.645  31.746  1.00  0.00    -0.354 N 
ATOM     35  C   UNL A   1      40.926  28.099  28.653  1.00  0.00     0.074 A 
ATOM     36  C   UNL A   1      40.153  28.204  27.435  1.00  0.00     0.031 C 
ATOM     37  C   UNL A   1      37.717  32.011  32.646  1.00  0.00     0.029 A 
ATOM     38  C   UNL A   1      38.954  31.289  32.924  1.00  0.00     0.049 A 
ATOM     39  H   UNL A   1      40.076  30.144  31.593  1.00  0.00     0.167 HD
ATOM     40  C   UNL A   1      42.061  27.375  28.786  1.00  0.00     0.037 A 
ATOM     41  C   UNL A   1      39.587  31.249  34.111  1.00  0.00     0.037 A 
ATOM     42  C   UNL A   1      42.828  27.304  30.001  1.00  0.00     0.049 A 
ATOM     43  C   UNL A   1      40.812  30.389  34.253  1.00  0.00     0.074 A 
ATOM     44  C   UNL A   1      43.994  26.600  30.249  1.00  0.00     0.029 A 
ATOM     45  N   UNL A   1      42.501  27.969  31.174  1.00  0.00    -0.354 N 
ATOM     46  N   UNL A   1      41.400  29.637  33.354  1.00  0.00    -0.248 NA
ATOM     47  C   UNL A   1      41.451  30.358  35.576  1.00  0.00     0.031 C 
ATOM     48  C   UNL A   1      44.355  26.817  31.582  1.00  0.00     0.029 A 
ATOM     49  C   UNL A   1      43.437  27.685  32.153  1.00  0.00     0.049 A 
ATOM     50  H   UNL A   1      41.720  28.557  31.293  1.00  0.00     0.167 HD
ATOM     51  C   UNL A   1      42.491  29.065  33.992  1.00  0.00     0.074 A 
ATOM     52  C   UNL A   1      42.485  29.557  35.354  1.00  0.00     0.031 C 
ATOM     53  C   UNL A   1      43.417  28.208  33.495  1.00  0.00     0.037 A 
BRANCH  40  54
ATOM     54  C   UNL A   1      42.513  26.575  27.602  1.00  0.00     0.057 A 
ATOM     55  C   UNL A   1      43.386  27.096  26.641  1.00  0.00     0.134 A 
ATOM     56  C   UNL A   1      42.083  25.252  27.437  1.00  0.00     0.134 A 
ATOM     57  F   UNL A   1      43.821  28.362  26.732  1.00  0.00    -0.206 F 
ATOM     58  C   UNL A   1      43.801  26.336  25.544  1.00  0.00     0.040 A 
ATOM     59  C   UNL A   1      42.508  24.475  26.358  1.00  0.00     0.040 A 
ATOM     60  F   UNL A   1      41.248  24.691  28.324  1.00  0.00    -0.206 F 
ATOM     61  C   UNL A   1      43.365  25.020  25.405  1.00  0.00     0.006 A 
ENDBRANCH  40  54
BRANCH  41  62
ATOM     62  C   UNL A   1      39.046  32.011  35.262  1.00  0.00     0.057 A 
ATOM     63  C   UNL A   1      38.276  31.383  36.247  1.00  0.00     0.134 A 
ATOM     64  C   UNL A   1      39.294  33.381  35.412  1.00  0.00     0.134 A 
ATOM     65  F   UNL A   1      37.987  30.078  36.146  1.00  0.00    -0.206 F 
ATOM     66  C   UNL A   1      37.769  32.091  37.338  1.00  0.00     0.040 A 
ATOM     67  C   UNL A   1      38.813  34.096  36.510  1.00  0.00     0.040 A 
ATOM     68  F   UNL A   1      40.028  34.040  34.504  1.00  0.00    -0.206 F 
ATOM     69  C   UNL A   1      38.042  33.450  37.475  1.00  0.00     0.006 A 
ENDBRANCH  41  62
BRANCH  53  70
ATOM     70  C   UNL A   1      44.526  27.793  34.410  1.00  0.00     0.057 A 
ATOM     71  C   UNL A   1      45.688  28.559  34.555  1.00  0.00     0.134 A 
ATOM     72  C   UNL A   1      44.395  26.648  35.207  1.00  0.00     0.134 A 
ATOM     73  F   UNL A   1      45.876  29.659  33.810  1.00  0.00    -0.206 F 
ATOM     74  C   UNL A   1      46.687  28.195  35.458  1.00  0.00     0.040 A 
ATOM     75  C   UNL A   1      45.378  26.287  36.127  1.00  0.00     0.040 A 
ATOM     76  F   UNL A   1      43.300  25.879  35.116  1.00  0.00    -0.206 F 
ATOM     77  C   UNL A   1      46.529  27.061  36.254  1.00  0.00     0.006 A 
ENDBRANCH  53  70
ENDBRANCH  27  28
ENDBRANCH  20  22
ENDBRANCH  19  20
ENDBRANCH  18  19
ENDBRANCH   1  18
TORSDOF 13
ENDMDL
