MODEL 1
REMARK VINA RESULT:      -9.6      0.000      0.000
REMARK SMILES COc1cc(/C=C/C(=O)OCCOC(=O)c2ccc(-c3c4nc(c(-c5c(F)cccc5F)c5ccc([nH]5)c(-c5c(F)cccc5F)c5nc(c(-c6c(F)cccc6F)c6ccc3[nH]6)C=C5)C=C4)cc2)cc(OC)c1O
REMARK SMILES IDX 11 1 10 2 8 3 9 4 7 5 6 6 5 7 3 8 4 9 74 10 71 11 70 12 2 13
REMARK SMILES IDX 1 14 75 15 72 17 73 18 12 19 13 20 14 21 15 22 16 23 17 24
REMARK SMILES IDX 69 25 18 26 68 27 19 28 20 29 21 30 62 31 22 32 67 33 61 34
REMARK SMILES IDX 63 35 23 36 66 37 60 38 59 39 24 41 50 42 33 43 49 44 34 45
REMARK SMILES IDX 37 46 48 47 64 48 35 49 36 50 47 52 65 53 38 54 25 55 26 56
REMARK SMILES IDX 31 57 27 58 28 59 30 60 32 61 29 62 51 63 52 64 57 65 53 66
REMARK SMILES IDX 54 67 56 68 58 69 55 70 39 71 40 72 45 73 41 74 42 75 44 76
REMARK SMILES IDX 46 77 43 78
REMARK H PARENT 75 16 63 40 37 51
REMARK Flexibility Score: inf
ROOT
ATOM      1  C   UNL A   1      33.599  36.579  31.185  1.00  0.00     0.275 C 
ENDROOT
BRANCH   1   2
ATOM      2  O   UNL A   1      34.490  35.608  31.768  1.00  0.00    -0.459 OA
BRANCH   2   3
ATOM      3  C   UNL A   1      34.794  35.794  33.074  1.00  0.00     0.330 C 
ATOM      4  O   UNL A   1      34.252  36.584  33.835  1.00  0.00    -0.247 OA
BRANCH   3   5
ATOM      5  C   UNL A   1      35.845  34.877  33.558  1.00  0.00     0.094 C 
ATOM      6  C   UNL A   1      35.704  33.559  33.767  1.00  0.00     0.016 C 
BRANCH   6   7
ATOM      7  C   UNL A   1      36.764  32.723  34.355  1.00  0.00    -0.018 A 
ATOM      8  C   UNL A   1      38.216  32.119  36.211  1.00  0.00     0.165 A 
ATOM      9  C   UNL A   1      37.280  32.982  35.631  1.00  0.00     0.058 A 
ATOM     10  C   UNL A   1      38.615  30.959  35.533  1.00  0.00     0.200 A 
ATOM     11  C   UNL A   1      38.143  30.703  34.239  1.00  0.00     0.165 A 
ATOM     12  C   UNL A   1      37.208  31.585  33.672  1.00  0.00     0.058 A 
BRANCH   8  13
ATOM     13  O   UNL A   1      38.594  32.430  37.492  1.00  0.00    -0.493 OA
ATOM     14  C   UNL A   1      37.524  32.511  38.436  1.00  0.00     0.278 C 
ENDBRANCH   8  13
BRANCH  10  15
ATOM     15  O   UNL A   1      39.387  30.039  36.191  1.00  0.00    -0.502 OA
ATOM     16  H   UNL A   1      39.119  29.142  36.225  1.00  0.00     0.293 HD
ENDBRANCH  10  15
BRANCH  11  17
ATOM     17  O   UNL A   1      38.429  29.633  33.434  1.00  0.00    -0.493 OA
ATOM     18  C   UNL A   1      37.410  29.165  32.560  1.00  0.00     0.278 C 
ENDBRANCH  11  17
ENDBRANCH   6   7
ENDBRANCH   3   5
ENDBRANCH   2   3
ENDBRANCH   1   2
BRANCH   1  19
ATOM     19  C   UNL A   1      32.606  35.929  30.216  1.00  0.00     0.275 C 
BRANCH  19  20
ATOM     20  O   UNL A   1      33.186  35.706  28.918  1.00  0.00    -0.458 OA
BRANCH  20  21
ATOM     21  C   UNL A   1      33.183  34.417  28.504  1.00  0.00     0.338 C 
ATOM     22  O   UNL A   1      32.302  33.845  27.879  1.00  0.00    -0.246 OA
BRANCH  21  23
ATOM     23  C   UNL A   1      34.475  33.784  28.815  1.00  0.00     0.060 A 
ATOM     24  C   UNL A   1      34.520  32.880  29.880  1.00  0.00     0.016 A 
ATOM     25  C   UNL A   1      35.643  34.121  28.122  1.00  0.00     0.016 A 
ATOM     26  C   UNL A   1      35.732  32.311  30.263  1.00  0.00     0.010 A 
ATOM     27  C   UNL A   1      36.860  33.553  28.511  1.00  0.00     0.010 A 
ATOM     28  C   UNL A   1      36.914  32.655  29.591  1.00  0.00    -0.014 A 
BRANCH  28  29
ATOM     29  C   UNL A   1      38.209  32.100  30.054  1.00  0.00     0.031 A 
ATOM     30  C   UNL A   1      38.683  30.771  29.542  1.00  0.00     0.074 A 
ATOM     31  C   UNL A   1      38.969  32.801  30.914  1.00  0.00     0.049 A 
ATOM     32  N   UNL A   1      39.776  30.113  29.836  1.00  0.00    -0.248 NA
ATOM     33  C   UNL A   1      37.812  30.091  28.571  1.00  0.00     0.031 C 
ATOM     34  C   UNL A   1      38.628  34.112  31.464  1.00  0.00     0.029 A 
ATOM     35  N   UNL A   1      40.185  32.505  31.475  1.00  0.00    -0.354 N 
ATOM     36  C   UNL A   1      39.725  28.942  29.091  1.00  0.00     0.074 A 
ATOM     37  C   UNL A   1      38.480  28.967  28.352  1.00  0.00     0.031 C 
ATOM     38  C   UNL A   1      39.614  34.509  32.286  1.00  0.00     0.029 A 
ATOM     39  C   UNL A   1      40.638  33.468  32.342  1.00  0.00     0.049 A 
ATOM     40  H   UNL A   1      40.686  31.681  31.276  1.00  0.00     0.167 HD
ATOM     41  C   UNL A   1      40.636  27.943  29.023  1.00  0.00     0.037 A 
ATOM     42  C   UNL A   1      41.745  33.501  33.107  1.00  0.00     0.037 A 
ATOM     43  C   UNL A   1      41.875  27.918  29.757  1.00  0.00     0.049 A 
ATOM     44  C   UNL A   1      42.716  32.354  33.055  1.00  0.00     0.074 A 
ATOM     45  C   UNL A   1      42.869  26.955  29.739  1.00  0.00     0.029 A 
ATOM     46  N   UNL A   1      42.285  28.898  30.647  1.00  0.00    -0.354 N 
ATOM     47  N   UNL A   1      42.668  31.264  32.329  1.00  0.00    -0.248 NA
ATOM     48  C   UNL A   1      43.895  32.444  33.927  1.00  0.00     0.031 C 
ATOM     49  C   UNL A   1      43.865  27.335  30.647  1.00  0.00     0.029 A 
ATOM     50  C   UNL A   1      43.508  28.554  31.201  1.00  0.00     0.049 A 
ATOM     51  H   UNL A   1      41.781  29.718  30.856  1.00  0.00     0.167 HD
ATOM     52  C   UNL A   1      43.815  30.546  32.642  1.00  0.00     0.074 A 
ATOM     53  C   UNL A   1      44.548  31.332  33.614  1.00  0.00     0.031 C 
ATOM     54  C   UNL A   1      44.225  29.345  32.167  1.00  0.00     0.037 A 
BRANCH  41  55
ATOM     55  C   UNL A   1      40.313  26.779  28.134  1.00  0.00     0.057 A 
ATOM     56  C   UNL A   1      40.864  26.655  26.853  1.00  0.00     0.134 A 
ATOM     57  C   UNL A   1      39.462  25.758  28.576  1.00  0.00     0.134 A 
ATOM     58  F   UNL A   1      41.676  27.605  26.367  1.00  0.00    -0.206 F 
ATOM     59  C   UNL A   1      40.562  25.566  26.033  1.00  0.00     0.040 A 
ATOM     60  C   UNL A   1      39.170  24.654  27.774  1.00  0.00     0.040 A 
ATOM     61  F   UNL A   1      38.906  25.815  29.795  1.00  0.00    -0.206 F 
ATOM     62  C   UNL A   1      39.716  24.559  26.496  1.00  0.00     0.006 A 
ENDBRANCH  41  55
BRANCH  42  63
ATOM     63  C   UNL A   1      41.990  34.660  33.997  1.00  0.00     0.057 A 
ATOM     64  C   UNL A   1      42.602  35.824  33.520  1.00  0.00     0.134 A 
ATOM     65  C   UNL A   1      41.616  34.632  35.347  1.00  0.00     0.134 A 
ATOM     66  F   UNL A   1      43.003  35.900  32.242  1.00  0.00    -0.206 F 
ATOM     67  C   UNL A   1      42.844  36.917  34.354  1.00  0.00     0.040 A 
ATOM     68  C   UNL A   1      41.831  35.724  36.186  1.00  0.00     0.040 A 
ATOM     69  F   UNL A   1      41.026  33.544  35.862  1.00  0.00    -0.206 F 
ATOM     70  C   UNL A   1      42.450  36.871  35.691  1.00  0.00     0.006 A 
ENDBRANCH  42  63
BRANCH  54  71
ATOM     71  C   UNL A   1      45.534  28.818  32.675  1.00  0.00     0.057 A 
ATOM     72  C   UNL A   1      46.747  29.139  32.054  1.00  0.00     0.134 A 
ATOM     73  C   UNL A   1      45.585  28.010  33.818  1.00  0.00     0.134 A 
ATOM     74  F   UNL A   1      46.765  29.897  30.947  1.00  0.00    -0.206 F 
ATOM     75  C   UNL A   1      47.965  28.658  32.540  1.00  0.00     0.040 A 
ATOM     76  C   UNL A   1      46.797  27.541  34.327  1.00  0.00     0.040 A 
ATOM     77  F   UNL A   1      44.458  27.673  34.463  1.00  0.00    -0.206 F 
ATOM     78  C   UNL A   1      47.991  27.861  33.684  1.00  0.00     0.006 A 
ENDBRANCH  54  71
ENDBRANCH  28  29
ENDBRANCH  21  23
ENDBRANCH  20  21
ENDBRANCH  19  20
ENDBRANCH   1  19
TORSDOF 15
ENDMDL
MODEL 2
REMARK VINA RESULT:      -9.4      0.535      6.587
REMARK SMILES COc1cc(/C=C/C(=O)OCCOC(=O)c2ccc(-c3c4nc(c(-c5c(F)cccc5F)c5ccc([nH]5)c(-c5c(F)cccc5F)c5nc(c(-c6c(F)cccc6F)c6ccc3[nH]6)C=C5)C=C4)cc2)cc(OC)c1O
REMARK SMILES IDX 11 1 10 2 8 3 9 4 7 5 6 6 5 7 3 8 4 9 74 10 71 11 70 12 2 13
REMARK SMILES IDX 1 14 75 15 72 17 73 18 12 19 13 20 14 21 15 22 16 23 17 24
REMARK SMILES IDX 69 25 18 26 68 27 19 28 20 29 21 30 62 31 22 32 67 33 61 34
REMARK SMILES IDX 63 35 23 36 66 37 60 38 59 39 24 41 50 42 33 43 49 44 34 45
REMARK SMILES IDX 37 46 48 47 64 48 35 49 36 50 47 52 65 53 38 54 25 55 26 56
REMARK SMILES IDX 31 57 27 58 28 59 30 60 32 61 29 62 51 63 52 64 57 65 53 66
REMARK SMILES IDX 54 67 56 68 58 69 55 70 39 71 40 72 45 73 41 74 42 75 44 76
REMARK SMILES IDX 46 77 43 78
REMARK H PARENT 75 16 63 40 37 51
REMARK Flexibility Score: inf
ROOT
ATOM      1  C   UNL A   1      32.390  35.981  32.252  1.00  0.00     0.275 C 
ENDROOT
BRANCH   1   2
ATOM      2  O   UNL A   1      33.281  34.914  32.632  1.00  0.00    -0.459 OA
BRANCH   2   3
ATOM      3  C   UNL A   1      34.433  35.293  33.234  1.00  0.00     0.330 C 
ATOM      4  O   UNL A   1      34.866  36.434  33.309  1.00  0.00    -0.247 OA
BRANCH   3   5
ATOM      5  C   UNL A   1      35.139  34.172  33.887  1.00  0.00     0.094 C 
ATOM      6  C   UNL A   1      36.385  34.211  34.385  1.00  0.00     0.016 C 
BRANCH   6   7
ATOM      7  C   UNL A   1      37.068  33.024  34.925  1.00  0.00    -0.018 A 
ATOM      8  C   UNL A   1      38.082  30.833  34.632  1.00  0.00     0.165 A 
ATOM      9  C   UNL A   1      37.346  31.909  34.126  1.00  0.00     0.058 A 
ATOM     10  C   UNL A   1      38.587  30.881  35.939  1.00  0.00     0.200 A 
ATOM     11  C   UNL A   1      38.285  31.968  36.769  1.00  0.00     0.165 A 
ATOM     12  C   UNL A   1      37.540  33.036  36.243  1.00  0.00     0.058 A 
BRANCH   8  13
ATOM     13  O   UNL A   1      38.358  29.829  33.738  1.00  0.00    -0.493 OA
ATOM     14  C   UNL A   1      37.312  29.544  32.807  1.00  0.00     0.278 C 
ENDBRANCH   8  13
BRANCH  10  15
ATOM     15  O   UNL A   1      39.454  29.905  36.351  1.00  0.00    -0.502 OA
ATOM     16  H   UNL A   1      39.516  29.687  37.260  1.00  0.00     0.293 HD
ENDBRANCH  10  15
BRANCH  11  17
ATOM     17  O   UNL A   1      38.686  32.177  38.062  1.00  0.00    -0.493 OA
ATOM     18  C   UNL A   1      37.687  32.474  39.030  1.00  0.00     0.278 C 
ENDBRANCH  11  17
ENDBRANCH   6   7
ENDBRANCH   3   5
ENDBRANCH   2   3
ENDBRANCH   1   2
BRANCH   1  19
ATOM     19  C   UNL A   1      32.048  35.931  30.759  1.00  0.00     0.275 C 
BRANCH  19  20
ATOM     20  O   UNL A   1      33.229  35.865  29.937  1.00  0.00    -0.458 OA
BRANCH  20  21
ATOM     21  C   UNL A   1      33.292  34.795  29.112  1.00  0.00     0.338 C 
ATOM     22  O   UNL A   1      32.486  34.479  28.249  1.00  0.00    -0.246 OA
BRANCH  21  23
ATOM     23  C   UNL A   1      34.563  34.079  29.310  1.00  0.00     0.060 A 
ATOM     24  C   UNL A   1      34.609  33.092  30.299  1.00  0.00     0.016 A 
ATOM     25  C   UNL A   1      35.714  34.415  28.592  1.00  0.00     0.016 A 
ATOM     26  C   UNL A   1      35.807  32.438  30.579  1.00  0.00     0.010 A 
ATOM     27  C   UNL A   1      36.918  33.762  28.877  1.00  0.00     0.010 A 
ATOM     28  C   UNL A   1      36.974  32.780  29.880  1.00  0.00    -0.014 A 
BRANCH  28  29
ATOM     29  C   UNL A   1      38.258  32.130  30.236  1.00  0.00     0.031 A 
ATOM     30  C   UNL A   1      39.200  32.800  31.194  1.00  0.00     0.074 A 
ATOM     31  C   UNL A   1      38.566  30.927  29.720  1.00  0.00     0.049 A 
ATOM     32  N   UNL A   1      40.372  32.400  31.619  1.00  0.00    -0.248 NA
ATOM     33  C   UNL A   1      38.766  34.092  31.748  1.00  0.00     0.031 C 
ATOM     34  C   UNL A   1      37.724  30.166  28.798  1.00  0.00     0.029 A 
ATOM     35  N   UNL A   1      39.673  30.137  29.897  1.00  0.00    -0.354 N 
ATOM     36  C   UNL A   1      40.818  33.389  32.485  1.00  0.00     0.074 A 
ATOM     37  C   UNL A   1      39.803  34.422  32.505  1.00  0.00     0.031 C 
ATOM     38  C   UNL A   1      38.347  29.016  28.489  1.00  0.00     0.029 A 
ATOM     39  C   UNL A   1      39.640  28.975  29.167  1.00  0.00     0.049 A 
ATOM     40  H   UNL A   1      40.421  30.380  30.491  1.00  0.00     0.167 HD
ATOM     41  C   UNL A   1      41.965  33.429  33.205  1.00  0.00     0.037 A 
ATOM     42  C   UNL A   1      40.556  27.996  29.046  1.00  0.00     0.037 A 
ATOM     43  C   UNL A   1      42.975  32.402  33.187  1.00  0.00     0.049 A 
ATOM     44  C   UNL A   1      41.846  28.088  29.814  1.00  0.00     0.074 A 
ATOM     45  C   UNL A   1      44.162  32.346  33.896  1.00  0.00     0.029 A 
ATOM     46  N   UNL A   1      42.918  31.253  32.412  1.00  0.00    -0.354 N 
ATOM     47  N   UNL A   1      42.246  29.016  30.648  1.00  0.00    -0.248 NA
ATOM     48  C   UNL A   1      42.809  26.995  29.624  1.00  0.00     0.031 C 
ATOM     49  C   UNL A   1      44.842  31.182  33.523  1.00  0.00     0.029 A 
ATOM     50  C   UNL A   1      44.060  30.493  32.611  1.00  0.00     0.049 A 
ATOM     51  H   UNL A   1      42.177  31.013  31.810  1.00  0.00     0.167 HD
ATOM     52  C   UNL A   1      43.497  28.613  31.095  1.00  0.00     0.074 A 
ATOM     53  C   UNL A   1      43.784  27.348  30.451  1.00  0.00     0.031 C 
ATOM     54  C   UNL A   1      44.332  29.235  31.962  1.00  0.00     0.037 A 
BRANCH  41  55
ATOM     55  C   UNL A   1      42.197  34.638  34.060  1.00  0.00     0.057 A 
ATOM     56  C   UNL A   1      42.848  35.776  33.568  1.00  0.00     0.134 A 
ATOM     57  C   UNL A   1      41.741  34.675  35.384  1.00  0.00     0.134 A 
ATOM     58  F   UNL A   1      43.320  35.800  32.312  1.00  0.00    -0.206 F 
ATOM     59  C   UNL A   1      43.057  36.900  34.369  1.00  0.00     0.040 A 
ATOM     60  C   UNL A   1      41.925  35.800  36.188  1.00  0.00     0.040 A 
ATOM     61  F   UNL A   1      41.106  33.619  35.914  1.00  0.00    -0.206 F 
ATOM     62  C   UNL A   1      42.590  36.915  35.683  1.00  0.00     0.006 A 
ENDBRANCH  41  55
BRANCH  42  63
ATOM     63  C   UNL A   1      40.287  26.843  28.153  1.00  0.00     0.057 A 
ATOM     64  C   UNL A   1      39.463  25.789  28.559  1.00  0.00     0.134 A 
ATOM     65  C   UNL A   1      40.848  26.771  26.872  1.00  0.00     0.134 A 
ATOM     66  F   UNL A   1      38.917  25.791  29.783  1.00  0.00    -0.206 F 
ATOM     67  C   UNL A   1      39.212  24.697  27.726  1.00  0.00     0.040 A 
ATOM     68  C   UNL A   1      40.588  25.698  26.021  1.00  0.00     0.040 A 
ATOM     69  F   UNL A   1      41.647  27.752  26.427  1.00  0.00    -0.206 F 
ATOM     70  C   UNL A   1      39.771  24.653  26.449  1.00  0.00     0.006 A 
ENDBRANCH  42  63
BRANCH  54  71
ATOM     71  C   UNL A   1      45.626  28.546  32.281  1.00  0.00     0.057 A 
ATOM     72  C   UNL A   1      46.792  28.791  31.547  1.00  0.00     0.134 A 
ATOM     73  C   UNL A   1      45.713  27.652  33.357  1.00  0.00     0.134 A 
ATOM     74  F   UNL A   1      46.771  29.625  30.496  1.00  0.00    -0.206 F 
ATOM     75  C   UNL A   1      47.997  28.158  31.859  1.00  0.00     0.040 A 
ATOM     76  C   UNL A   1      46.916  27.030  33.692  1.00  0.00     0.040 A 
ATOM     77  F   UNL A   1      44.632  27.380  34.104  1.00  0.00    -0.206 F 
ATOM     78  C   UNL A   1      48.061  27.279  32.939  1.00  0.00     0.006 A 
ENDBRANCH  54  71
ENDBRANCH  28  29
ENDBRANCH  21  23
ENDBRANCH  20  21
ENDBRANCH  19  20
ENDBRANCH   1  19
TORSDOF 15
ENDMDL
MODEL 3
REMARK VINA RESULT:      -8.6      0.820      6.599
REMARK SMILES COc1cc(/C=C/C(=O)OCCOC(=O)c2ccc(-c3c4nc(c(-c5c(F)cccc5F)c5ccc([nH]5)c(-c5c(F)cccc5F)c5nc(c(-c6c(F)cccc6F)c6ccc3[nH]6)C=C5)C=C4)cc2)cc(OC)c1O
REMARK SMILES IDX 11 1 10 2 8 3 9 4 7 5 6 6 5 7 3 8 4 9 74 10 71 11 70 12 2 13
REMARK SMILES IDX 1 14 75 15 72 17 73 18 12 19 13 20 14 21 15 22 16 23 17 24
REMARK SMILES IDX 69 25 18 26 68 27 19 28 20 29 21 30 62 31 22 32 67 33 61 34
REMARK SMILES IDX 63 35 23 36 66 37 60 38 59 39 24 41 50 42 33 43 49 44 34 45
REMARK SMILES IDX 37 46 48 47 64 48 35 49 36 50 47 52 65 53 38 54 25 55 26 56
REMARK SMILES IDX 31 57 27 58 28 59 30 60 32 61 29 62 51 63 52 64 57 65 53 66
REMARK SMILES IDX 54 67 56 68 58 69 55 70 39 71 40 72 45 73 41 74 42 75 44 76
REMARK SMILES IDX 46 77 43 78
REMARK H PARENT 75 16 63 40 37 51
REMARK Flexibility Score: inf
ROOT
ATOM      1  C   UNL A   1      32.369  35.940  32.127  1.00  0.00     0.275 C 
ENDROOT
BRANCH   1   2
ATOM      2  O   UNL A   1      33.269  34.923  32.609  1.00  0.00    -0.459 OA
BRANCH   2   3
ATOM      3  C   UNL A   1      34.405  35.370  33.194  1.00  0.00     0.330 C 
ATOM      4  O   UNL A   1      34.778  36.533  33.250  1.00  0.00    -0.247 OA
BRANCH   3   5
ATOM      5  C   UNL A   1      35.176  34.296  33.854  1.00  0.00     0.094 C 
ATOM      6  C   UNL A   1      36.411  34.415  34.364  1.00  0.00     0.016 C 
BRANCH   6   7
ATOM      7  C   UNL A   1      37.164  33.274  34.910  1.00  0.00    -0.018 A 
ATOM      8  C   UNL A   1      38.041  32.005  36.791  1.00  0.00     0.165 A 
ATOM      9  C   UNL A   1      37.409  33.144  36.283  1.00  0.00     0.058 A 
ATOM     10  C   UNL A   1      38.398  30.957  35.931  1.00  0.00     0.200 A 
ATOM     11  C   UNL A   1      38.200  31.084  34.550  1.00  0.00     0.165 A 
ATOM     12  C   UNL A   1      37.569  32.239  34.059  1.00  0.00     0.058 A 
BRANCH   8  13
ATOM     13  O   UNL A   1      38.161  31.953  38.157  1.00  0.00    -0.493 OA
ATOM     14  C   UNL A   1      38.559  33.178  38.776  1.00  0.00     0.278 C 
ENDBRANCH   8  13
BRANCH  10  15
ATOM     15  O   UNL A   1      38.845  29.781  36.469  1.00  0.00    -0.502 OA
ATOM     16  H   UNL A   1      39.765  29.622  36.547  1.00  0.00     0.293 HD
ENDBRANCH  10  15
BRANCH  11  17
ATOM     17  O   UNL A   1      38.490  30.172  33.570  1.00  0.00    -0.493 OA
ATOM     18  C   UNL A   1      37.404  29.551  32.895  1.00  0.00     0.278 C 
ENDBRANCH  11  17
ENDBRANCH   6   7
ENDBRANCH   3   5
ENDBRANCH   2   3
ENDBRANCH   1   2
BRANCH   1  19
ATOM     19  C   UNL A   1      32.063  35.766  30.635  1.00  0.00     0.275 C 
BRANCH  19  20
ATOM     20  O   UNL A   1      33.261  35.754  29.837  1.00  0.00    -0.458 OA
BRANCH  20  21
ATOM     21  C   UNL A   1      33.474  34.611  29.144  1.00  0.00     0.338 C 
ATOM     22  O   UNL A   1      32.785  34.155  28.243  1.00  0.00    -0.246 OA
BRANCH  21  23
ATOM     23  C   UNL A   1      34.755  34.007  29.546  1.00  0.00     0.060 A 
ATOM     24  C   UNL A   1      35.913  34.439  28.893  1.00  0.00     0.016 A 
ATOM     25  C   UNL A   1      34.818  32.982  30.496  1.00  0.00     0.016 A 
ATOM     26  C   UNL A   1      37.140  33.847  29.182  1.00  0.00     0.010 A 
ATOM     27  C   UNL A   1      36.050  32.384  30.781  1.00  0.00     0.010 A 
ATOM     28  C   UNL A   1      37.215  32.805  30.117  1.00  0.00    -0.014 A 
BRANCH  28  29
ATOM     29  C   UNL A   1      38.514  32.132  30.363  1.00  0.00     0.031 A 
ATOM     30  C   UNL A   1      39.548  32.788  31.231  1.00  0.00     0.074 A 
ATOM     31  C   UNL A   1      38.753  30.922  29.828  1.00  0.00     0.049 A 
ATOM     32  N   UNL A   1      40.745  32.368  31.554  1.00  0.00    -0.248 NA
ATOM     33  C   UNL A   1      39.188  34.090  31.813  1.00  0.00     0.031 C 
ATOM     34  C   UNL A   1      37.820  30.173  28.988  1.00  0.00     0.029 A 
ATOM     35  N   UNL A   1      39.857  30.112  29.912  1.00  0.00    -0.354 N 
ATOM     36  C   UNL A   1      41.283  33.352  32.372  1.00  0.00     0.074 A 
ATOM     37  C   UNL A   1      40.293  34.403  32.475  1.00  0.00     0.031 C 
ATOM     38  C   UNL A   1      38.392  29.010  28.632  1.00  0.00     0.029 A 
ATOM     39  C   UNL A   1      39.739  28.948  29.194  1.00  0.00     0.049 A 
ATOM     40  H   UNL A   1      40.658  30.343  30.437  1.00  0.00     0.167 HD
ATOM     41  C   UNL A   1      42.489  33.373  32.988  1.00  0.00     0.037 A 
ATOM     42  C   UNL A   1      40.622  27.951  28.999  1.00  0.00     0.037 A 
ATOM     43  C   UNL A   1      43.475  32.327  32.888  1.00  0.00     0.049 A 
ATOM     44  C   UNL A   1      41.975  28.022  29.650  1.00  0.00     0.074 A 
ATOM     45  C   UNL A   1      44.718  32.252  33.490  1.00  0.00     0.029 A 
ATOM     46  N   UNL A   1      43.329  31.177  32.128  1.00  0.00    -0.354 N 
ATOM     47  N   UNL A   1      42.464  28.946  30.441  1.00  0.00    -0.248 NA
ATOM     48  C   UNL A   1      42.899  26.910  29.383  1.00  0.00     0.031 C 
ATOM     49  C   UNL A   1      45.342  31.074  33.066  1.00  0.00     0.029 A 
ATOM     50  C   UNL A   1      44.470  30.396  32.229  1.00  0.00     0.049 A 
ATOM     51  H   UNL A   1      42.534  30.948  31.594  1.00  0.00     0.167 HD
ATOM     52  C   UNL A   1      43.742  28.522  30.780  1.00  0.00     0.074 A 
ATOM     53  C   UNL A   1      43.948  27.249  30.120  1.00  0.00     0.031 C 
ATOM     54  C   UNL A   1      44.661  29.131  31.566  1.00  0.00     0.037 A 
BRANCH  41  55
ATOM     55  C   UNL A   1      42.818  34.581  33.813  1.00  0.00     0.057 A 
ATOM     56  C   UNL A   1      42.540  34.635  35.185  1.00  0.00     0.134 A 
ATOM     57  C   UNL A   1      43.443  35.693  33.234  1.00  0.00     0.134 A 
ATOM     58  F   UNL A   1      41.931  33.608  35.797  1.00  0.00    -0.206 F 
ATOM     59  C   UNL A   1      42.853  35.762  35.947  1.00  0.00     0.040 A 
ATOM     60  C   UNL A   1      43.780  36.816  33.991  1.00  0.00     0.040 A 
ATOM     61  F   UNL A   1      43.741  35.702  31.927  1.00  0.00    -0.206 F 
ATOM     62  C   UNL A   1      43.479  36.855  35.350  1.00  0.00     0.006 A 
ENDBRANCH  41  55
BRANCH  42  63
ATOM     63  C   UNL A   1      40.255  26.801  28.139  1.00  0.00     0.057 A 
ATOM     64  C   UNL A   1      39.394  25.798  28.598  1.00  0.00     0.134 A 
ATOM     65  C   UNL A   1      40.756  26.678  26.837  1.00  0.00     0.134 A 
ATOM     66  F   UNL A   1      38.902  25.850  29.844  1.00  0.00    -0.206 F 
ATOM     67  C   UNL A   1      39.051  24.708  27.797  1.00  0.00     0.040 A 
ATOM     68  C   UNL A   1      40.404  25.606  26.018  1.00  0.00     0.040 A 
ATOM     69  F   UNL A   1      41.586  27.608  26.342  1.00  0.00    -0.206 F 
ATOM     70  C   UNL A   1      39.551  24.614  26.499  1.00  0.00     0.006 A 
ENDBRANCH  42  63
BRANCH  54  71
ATOM     71  C   UNL A   1      45.965  28.419  31.775  1.00  0.00     0.057 A 
ATOM     72  C   UNL A   1      46.138  27.488  32.805  1.00  0.00     0.134 A 
ATOM     73  C   UNL A   1      47.047  28.642  30.914  1.00  0.00     0.134 A 
ATOM     74  F   UNL A   1      45.145  27.240  33.673  1.00  0.00    -0.206 F 
ATOM     75  C   UNL A   1      47.350  26.816  32.985  1.00  0.00     0.040 A 
ATOM     76  C   UNL A   1      48.255  27.961  31.069  1.00  0.00     0.040 A 
ATOM     77  F   UNL A   1      46.942  29.517  29.902  1.00  0.00    -0.206 F 
ATOM     78  C   UNL A   1      48.410  27.048  32.111  1.00  0.00     0.006 A 
ENDBRANCH  54  71
ENDBRANCH  28  29
ENDBRANCH  21  23
ENDBRANCH  20  21
ENDBRANCH  19  20
ENDBRANCH   1  19
TORSDOF 15
ENDMDL
