MODEL 1
REMARK VINA RESULT:     -11.0      0.000      0.000
REMARK SMILES O=C(OCCOC(=O)c1ccc(-c2c3nc(c(-c4c(F)cccc4F)c4ccc([nH]4)c(-c4c(F)cccc4F)c4nc(c(-c5c(F)cccc5F)c5ccc2[nH]5)C=C4)C=C3)cc1)c1ccc(N/C=C\C(=O)c2ccco2)cc1
REMARK SMILES IDX 4 1 3 2 2 3 1 4 63 5 64 6 78 7 65 8 77 9 66 10 67 11 68 13
REMARK SMILES IDX 69 14 70 15 71 16 72 17 73 18 76 19 74 20 75 21 5 22 6 23
REMARK SMILES IDX 7 24 8 25 9 26 10 27 62 28 11 29 61 30 12 31 13 32 14 33
REMARK SMILES IDX 55 34 15 35 60 36 54 37 56 38 16 39 59 40 53 41 52 42 17 44
REMARK SMILES IDX 43 45 26 46 42 47 27 48 30 49 41 50 57 51 28 52 29 53 40 55
REMARK SMILES IDX 58 56 31 57 18 58 19 59 24 60 20 61 21 62 23 63 25 64 22 65
REMARK SMILES IDX 44 66 45 67 50 68 46 69 47 70 49 71 51 72 48 73 32 74 33 75
REMARK SMILES IDX 38 76 34 77 35 78 37 79 39 80 36 81
REMARK H PARENT 67 12 56 43 30 54
REMARK Flexibility Score: inf
ROOT
ATOM      1  C   UNL A   1      43.100  21.359  26.086  1.00  0.00     0.275 C 
ENDROOT
BRANCH   1   2
ATOM      2  O   UNL A   1      41.707  21.443  25.737  1.00  0.00    -0.458 OA
BRANCH   2   3
ATOM      3  C   UNL A   1      40.635  21.416  26.565  1.00  0.00     0.338 C 
ATOM      4  O   UNL A   1      40.724  20.847  27.652  1.00  0.00    -0.246 OA
BRANCH   3   5
ATOM      5  C   UNL A   1      39.280  21.862  26.125  1.00  0.00     0.060 A 
ATOM      6  C   UNL A   1      38.373  21.108  25.380  1.00  0.00     0.018 A 
ATOM      7  C   UNL A   1      38.911  23.168  26.476  1.00  0.00     0.018 A 
ATOM      8  C   UNL A   1      37.086  21.591  25.106  1.00  0.00     0.027 A 
ATOM      9  C   UNL A   1      37.639  23.660  26.164  1.00  0.00     0.027 A 
ATOM     10  C   UNL A   1      36.691  22.864  25.512  1.00  0.00     0.038 A 
BRANCH  10  11
ATOM     11  N   UNL A   1      35.418  23.397  25.267  1.00  0.00    -0.362 N 
ATOM     12  H   UNL A   1      35.171  24.176  25.817  1.00  0.00     0.166 HD
BRANCH  11  13
ATOM     13  C   UNL A   1      34.473  22.985  24.368  1.00  0.00     0.087 C 
ATOM     14  C   UNL A   1      33.692  21.896  24.388  1.00  0.00     0.074 C 
BRANCH  14  15
ATOM     15  C   UNL A   1      33.575  20.869  25.469  1.00  0.00     0.222 C 
ATOM     16  O   UNL A   1      33.632  21.262  26.634  1.00  0.00    -0.286 OA
BRANCH  15  17
ATOM     17  C   UNL A   1      33.419  19.482  25.102  1.00  0.00     0.173 A 
ATOM     18  C   UNL A   1      34.310  18.534  24.629  1.00  0.00     0.054 A 
ATOM     19  O   UNL A   1      32.155  18.965  25.088  1.00  0.00    -0.461 OA
ATOM     20  C   UNL A   1      33.545  17.392  24.290  1.00  0.00     0.043 A 
ATOM     21  C   UNL A   1      32.243  17.706  24.593  1.00  0.00     0.196 A 
ENDBRANCH  15  17
ENDBRANCH  14  15
ENDBRANCH  11  13
ENDBRANCH  10  11
ENDBRANCH   3   5
ENDBRANCH   2   3
ENDBRANCH   1   2
BRANCH   1  22
ATOM     22  C   UNL A   1      44.035  22.129  25.149  1.00  0.00     0.275 C 
BRANCH  22  23
ATOM     23  O   UNL A   1      43.482  23.377  24.701  1.00  0.00    -0.458 OA
BRANCH  23  24
ATOM     24  C   UNL A   1      44.186  24.472  25.090  1.00  0.00     0.338 C 
ATOM     25  O   UNL A   1      45.248  24.846  24.621  1.00  0.00    -0.246 OA
BRANCH  24  26
ATOM     26  C   UNL A   1      43.453  25.248  26.119  1.00  0.00     0.060 A 
ATOM     27  C   UNL A   1      44.006  26.475  26.508  1.00  0.00     0.016 A 
ATOM     28  C   UNL A   1      42.271  24.803  26.720  1.00  0.00     0.016 A 
ATOM     29  C   UNL A   1      43.405  27.236  27.511  1.00  0.00     0.010 A 
ATOM     30  C   UNL A   1      41.658  25.578  27.719  1.00  0.00     0.010 A 
ATOM     31  C   UNL A   1      42.235  26.788  28.141  1.00  0.00    -0.014 A 
BRANCH  31  32
ATOM     32  C   UNL A   1      41.689  27.563  29.289  1.00  0.00     0.031 A 
ATOM     33  C   UNL A   1      42.345  27.465  30.641  1.00  0.00     0.074 A 
ATOM     34  C   UNL A   1      40.661  28.417  29.123  1.00  0.00     0.049 A 
ATOM     35  N   UNL A   1      42.111  28.164  31.724  1.00  0.00    -0.248 NA
ATOM     36  C   UNL A   1      43.411  26.463  30.791  1.00  0.00     0.031 C 
ATOM     37  C   UNL A   1      39.940  28.648  27.873  1.00  0.00     0.029 A 
ATOM     38  N   UNL A   1      40.047  29.261  30.018  1.00  0.00    -0.354 N 
ATOM     39  C   UNL A   1      43.030  27.723  32.666  1.00  0.00     0.074 A 
ATOM     40  C   UNL A   1      43.775  26.643  32.053  1.00  0.00     0.031 C 
ATOM     41  C   UNL A   1      38.962  29.544  28.086  1.00  0.00     0.029 A 
ATOM     42  C   UNL A   1      39.000  29.969  29.482  1.00  0.00     0.049 A 
ATOM     43  H   UNL A   1      40.332  29.349  30.956  1.00  0.00     0.167 HD
ATOM     44  C   UNL A   1      43.265  28.197  33.913  1.00  0.00     0.037 A 
ATOM     45  C   UNL A   1      38.174  30.871  30.046  1.00  0.00     0.037 A 
ATOM     46  C   UNL A   1      42.524  29.256  34.547  1.00  0.00     0.049 A 
ATOM     47  C   UNL A   1      38.397  31.319  31.460  1.00  0.00     0.074 A 
ATOM     48  C   UNL A   1      42.720  29.817  35.799  1.00  0.00     0.029 A 
ATOM     49  N   UNL A   1      41.436  29.907  33.988  1.00  0.00    -0.354 N 
ATOM     50  N   UNL A   1      39.317  30.941  32.312  1.00  0.00    -0.248 NA
ATOM     51  C   UNL A   1      37.488  32.355  31.973  1.00  0.00     0.031 C 
ATOM     52  C   UNL A   1      41.726  30.778  36.013  1.00  0.00     0.029 A 
ATOM     53  C   UNL A   1      40.937  30.845  34.877  1.00  0.00     0.049 A 
ATOM     54  H   UNL A   1      41.072  29.729  33.090  1.00  0.00     0.167 HD
ATOM     55  C   UNL A   1      39.114  31.710  33.451  1.00  0.00     0.074 A 
ATOM     56  C   UNL A   1      37.992  32.581  33.178  1.00  0.00     0.031 C 
ATOM     57  C   UNL A   1      39.809  31.700  34.614  1.00  0.00     0.037 A 
BRANCH  44  58
ATOM     58  C   UNL A   1      44.401  27.583  34.676  1.00  0.00     0.057 A 
ATOM     59  C   UNL A   1      44.224  26.411  35.422  1.00  0.00     0.134 A 
ATOM     60  C   UNL A   1      45.687  28.130  34.619  1.00  0.00     0.134 A 
ATOM     61  F   UNL A   1      43.012  25.845  35.523  1.00  0.00    -0.206 F 
ATOM     62  C   UNL A   1      45.287  25.811  36.098  1.00  0.00     0.040 A 
ATOM     63  C   UNL A   1      46.763  27.527  35.273  1.00  0.00     0.040 A 
ATOM     64  F   UNL A   1      45.923  29.248  33.917  1.00  0.00    -0.206 F 
ATOM     65  C   UNL A   1      46.563  26.364  36.017  1.00  0.00     0.006 A 
ENDBRANCH  44  58
BRANCH  45  66
ATOM     66  C   UNL A   1      37.046  31.434  29.269  1.00  0.00     0.057 A 
ATOM     67  C   UNL A   1      37.093  32.725  28.737  1.00  0.00     0.134 A 
ATOM     68  C   UNL A   1      35.866  30.702  29.101  1.00  0.00     0.134 A 
ATOM     69  F   UNL A   1      38.182  33.487  28.910  1.00  0.00    -0.206 F 
ATOM     70  C   UNL A   1      36.000  33.271  28.061  1.00  0.00     0.040 A 
ATOM     71  C   UNL A   1      34.775  31.224  28.406  1.00  0.00     0.040 A 
ATOM     72  F   UNL A   1      35.753  29.476  29.629  1.00  0.00    -0.206 F 
ATOM     73  C   UNL A   1      34.840  32.517  27.888  1.00  0.00     0.006 A 
ENDBRANCH  45  66
BRANCH  57  74
ATOM     74  C   UNL A   1      39.383  32.674  35.671  1.00  0.00     0.057 A 
ATOM     75  C   UNL A   1      38.413  32.349  36.628  1.00  0.00     0.134 A 
ATOM     76  C   UNL A   1      39.948  33.954  35.735  1.00  0.00     0.134 A 
ATOM     77  F   UNL A   1      37.819  31.145  36.611  1.00  0.00    -0.206 F 
ATOM     78  C   UNL A   1      37.998  33.271  37.591  1.00  0.00     0.040 A 
ATOM     79  C   UNL A   1      39.561  34.877  36.708  1.00  0.00     0.040 A 
ATOM     80  F   UNL A   1      40.886  34.330  34.853  1.00  0.00    -0.206 F 
ATOM     81  C   UNL A   1      38.576  34.538  37.635  1.00  0.00     0.006 A 
ENDBRANCH  57  74
ENDBRANCH  31  32
ENDBRANCH  24  26
ENDBRANCH  23  24
ENDBRANCH  22  23
ENDBRANCH   1  22
TORSDOF 15
ENDMDL
MODEL 2
REMARK VINA RESULT:     -10.9      5.076     11.019
REMARK SMILES O=C(OCCOC(=O)c1ccc(-c2c3nc(c(-c4c(F)cccc4F)c4ccc([nH]4)c(-c4c(F)cccc4F)c4nc(c(-c5c(F)cccc5F)c5ccc2[nH]5)C=C4)C=C3)cc1)c1ccc(N/C=C\C(=O)c2ccco2)cc1
REMARK SMILES IDX 4 1 3 2 2 3 1 4 63 5 64 6 78 7 65 8 77 9 66 10 67 11 68 13
REMARK SMILES IDX 69 14 70 15 71 16 72 17 73 18 76 19 74 20 75 21 5 22 6 23
REMARK SMILES IDX 7 24 8 25 9 26 10 27 62 28 11 29 61 30 12 31 13 32 14 33
REMARK SMILES IDX 55 34 15 35 60 36 54 37 56 38 16 39 59 40 53 41 52 42 17 44
REMARK SMILES IDX 43 45 26 46 42 47 27 48 30 49 41 50 57 51 28 52 29 53 40 55
REMARK SMILES IDX 58 56 31 57 18 58 19 59 24 60 20 61 21 62 23 63 25 64 22 65
REMARK SMILES IDX 44 66 45 67 50 68 46 69 47 70 49 71 51 72 48 73 32 74 33 75
REMARK SMILES IDX 38 76 34 77 35 78 37 79 39 80 36 81
REMARK H PARENT 67 12 56 43 30 54
REMARK Flexibility Score: inf
ROOT
ATOM      1  C   UNL A   1      33.894  35.725  31.542  1.00  0.00     0.275 C 
ENDROOT
BRANCH   1   2
ATOM      2  O   UNL A   1      34.301  34.650  32.408  1.00  0.00    -0.458 OA
BRANCH   2   3
ATOM      3  C   UNL A   1      34.939  34.735  33.601  1.00  0.00     0.338 C 
ATOM      4  O   UNL A   1      34.733  35.703  34.330  1.00  0.00    -0.246 OA
BRANCH   3   5
ATOM      5  C   UNL A   1      36.048  33.809  33.975  1.00  0.00     0.060 A 
ATOM      6  C   UNL A   1      37.077  34.086  34.875  1.00  0.00     0.018 A 
ATOM      7  C   UNL A   1      36.058  32.561  33.337  1.00  0.00     0.018 A 
ATOM      8  C   UNL A   1      38.013  33.103  35.227  1.00  0.00     0.027 A 
ATOM      9  C   UNL A   1      37.019  31.598  33.663  1.00  0.00     0.027 A 
ATOM     10  C   UNL A   1      37.985  31.838  34.644  1.00  0.00     0.038 A 
BRANCH  10  11
ATOM     11  N   UNL A   1      38.893  30.818  34.960  1.00  0.00    -0.362 N 
ATOM     12  H   UNL A   1      38.861  30.493  35.889  1.00  0.00     0.166 HD
BRANCH  11  13
ATOM     13  C   UNL A   1      39.818  30.211  34.153  1.00  0.00     0.087 C 
ATOM     14  C   UNL A   1      40.900  29.493  34.484  1.00  0.00     0.074 C 
BRANCH  14  15
ATOM     15  C   UNL A   1      41.341  29.074  35.851  1.00  0.00     0.222 C 
ATOM     16  O   UNL A   1      41.541  29.961  36.680  1.00  0.00    -0.286 OA
BRANCH  15  17
ATOM     17  C   UNL A   1      41.524  27.669  36.126  1.00  0.00     0.173 A 
ATOM     18  C   UNL A   1      42.121  26.646  35.408  1.00  0.00     0.054 A 
ATOM     19  O   UNL A   1      40.923  27.153  37.238  1.00  0.00    -0.461 OA
ATOM     20  C   UNL A   1      41.849  25.447  36.111  1.00  0.00     0.043 A 
ATOM     21  C   UNL A   1      41.122  25.813  37.216  1.00  0.00     0.196 A 
ENDBRANCH  15  17
ENDBRANCH  14  15
ENDBRANCH  11  13
ENDBRANCH  10  11
ENDBRANCH   3   5
ENDBRANCH   2   3
ENDBRANCH   1   2
BRANCH   1  22
ATOM     22  C   UNL A   1      32.713  35.388  30.627  1.00  0.00     0.275 C 
BRANCH  22  23
ATOM     23  O   UNL A   1      33.017  35.548  29.232  1.00  0.00    -0.458 OA
BRANCH  23  24
ATOM     24  C   UNL A   1      33.199  34.380  28.562  1.00  0.00     0.338 C 
ATOM     25  O   UNL A   1      32.433  33.896  27.744  1.00  0.00    -0.246 OA
BRANCH  24  26
ATOM     26  C   UNL A   1      34.519  33.780  28.869  1.00  0.00     0.060 A 
ATOM     27  C   UNL A   1      34.529  32.645  29.690  1.00  0.00     0.016 A 
ATOM     28  C   UNL A   1      35.728  34.304  28.401  1.00  0.00     0.016 A 
ATOM     29  C   UNL A   1      35.737  32.057  30.069  1.00  0.00     0.010 A 
ATOM     30  C   UNL A   1      36.942  33.702  28.771  1.00  0.00     0.010 A 
ATOM     31  C   UNL A   1      36.957  32.589  29.630  1.00  0.00    -0.014 A 
BRANCH  31  32
ATOM     32  C   UNL A   1      38.227  32.012  30.151  1.00  0.00     0.031 A 
ATOM     33  C   UNL A   1      38.682  30.655  29.686  1.00  0.00     0.074 A 
ATOM     34  C   UNL A   1      39.023  32.720  30.976  1.00  0.00     0.049 A 
ATOM     35  N   UNL A   1      39.820  30.044  29.909  1.00  0.00    -0.248 NA
ATOM     36  C   UNL A   1      37.745  29.891  28.848  1.00  0.00     0.031 C 
ATOM     37  C   UNL A   1      38.738  34.057  31.493  1.00  0.00     0.029 A 
ATOM     38  N   UNL A   1      40.246  32.408  31.522  1.00  0.00    -0.354 N 
ATOM     39  C   UNL A   1      39.755  28.851  29.203  1.00  0.00     0.074 A 
ATOM     40  C   UNL A   1      38.438  28.787  28.606  1.00  0.00     0.031 C 
ATOM     41  C   UNL A   1      39.739  34.438  32.305  1.00  0.00     0.029 A 
ATOM     42  C   UNL A   1      40.746  33.383  32.350  1.00  0.00     0.049 A 
ATOM     43  H   UNL A   1      40.718  31.566  31.336  1.00  0.00     0.167 HD
ATOM     44  C   UNL A   1      40.716  27.912  29.030  1.00  0.00     0.037 A 
ATOM     45  C   UNL A   1      41.893  33.429  33.054  1.00  0.00     0.037 A 
ATOM     46  C   UNL A   1      42.024  27.947  29.629  1.00  0.00     0.049 A 
ATOM     47  C   UNL A   1      42.908  32.333  32.916  1.00  0.00     0.074 A 
ATOM     48  C   UNL A   1      43.068  27.049  29.479  1.00  0.00     0.029 A 
ATOM     49  N   UNL A   1      42.468  28.925  30.505  1.00  0.00    -0.354 N 
ATOM     50  N   UNL A   1      42.858  31.246  32.187  1.00  0.00    -0.248 NA
ATOM     51  C   UNL A   1      44.159  32.497  33.670  1.00  0.00     0.031 C 
ATOM     52  C   UNL A   1      44.127  27.460  30.295  1.00  0.00     0.029 A 
ATOM     53  C   UNL A   1      43.758  28.639  30.921  1.00  0.00     0.049 A 
ATOM     54  H   UNL A   1      41.942  29.708  30.790  1.00  0.00     0.167 HD
ATOM     55  C   UNL A   1      44.079  30.611  32.374  1.00  0.00     0.074 A 
ATOM     56  C   UNL A   1      44.851  31.438  33.276  1.00  0.00     0.031 C 
ATOM     57  C   UNL A   1      44.521  29.451  31.832  1.00  0.00     0.037 A 
BRANCH  44  58
ATOM     58  C   UNL A   1      40.393  26.761  28.123  1.00  0.00     0.057 A 
ATOM     59  C   UNL A   1      39.516  25.746  28.525  1.00  0.00     0.134 A 
ATOM     60  C   UNL A   1      40.911  26.698  26.825  1.00  0.00     0.134 A 
ATOM     61  F   UNL A   1      38.994  25.747  29.761  1.00  0.00    -0.206 F 
ATOM     62  C   UNL A   1      39.176  24.697  27.670  1.00  0.00     0.040 A 
ATOM     63  C   UNL A   1      40.562  25.664  25.954  1.00  0.00     0.040 A 
ATOM     64  F   UNL A   1      41.751  27.642  26.378  1.00  0.00    -0.206 F 
ATOM     65  C   UNL A   1      39.694  24.659  26.377  1.00  0.00     0.006 A 
ENDBRANCH  44  58
BRANCH  45  66
ATOM     66  C   UNL A   1      42.165  34.568  33.960  1.00  0.00     0.057 A 
ATOM     67  C   UNL A   1      42.792  35.732  33.510  1.00  0.00     0.134 A 
ATOM     68  C   UNL A   1      41.852  34.481  35.321  1.00  0.00     0.134 A 
ATOM     69  F   UNL A   1      43.156  35.848  32.225  1.00  0.00    -0.206 F 
ATOM     70  C   UNL A   1      43.102  36.775  34.385  1.00  0.00     0.040 A 
ATOM     71  C   UNL A   1      42.132  35.525  36.203  1.00  0.00     0.040 A 
ATOM     72  F   UNL A   1      41.289  33.369  35.813  1.00  0.00    -0.206 F 
ATOM     73  C   UNL A   1      42.765  36.675  35.734  1.00  0.00     0.006 A 
ENDBRANCH  45  66
BRANCH  57  74
ATOM     74  C   UNL A   1      45.912  29.018  32.189  1.00  0.00     0.057 A 
ATOM     75  C   UNL A   1      46.168  28.186  33.286  1.00  0.00     0.134 A 
ATOM     76  C   UNL A   1      47.010  29.437  31.427  1.00  0.00     0.134 A 
ATOM     77  F   UNL A   1      45.162  27.763  34.067  1.00  0.00    -0.206 F 
ATOM     78  C   UNL A   1      47.468  27.811  33.631  1.00  0.00     0.040 A 
ATOM     79  C   UNL A   1      48.312  29.050  31.747  1.00  0.00     0.040 A 
ATOM     80  F   UNL A   1      46.836  30.232  30.360  1.00  0.00    -0.206 F 
ATOM     81  C   UNL A   1      48.545  28.241  32.857  1.00  0.00     0.006 A 
ENDBRANCH  57  74
ENDBRANCH  31  32
ENDBRANCH  24  26
ENDBRANCH  23  24
ENDBRANCH  22  23
ENDBRANCH   1  22
TORSDOF 15
ENDMDL
MODEL 3
REMARK VINA RESULT:     -10.9      4.779     10.758
REMARK SMILES O=C(OCCOC(=O)c1ccc(-c2c3nc(c(-c4c(F)cccc4F)c4ccc([nH]4)c(-c4c(F)cccc4F)c4nc(c(-c5c(F)cccc5F)c5ccc2[nH]5)C=C4)C=C3)cc1)c1ccc(N/C=C\C(=O)c2ccco2)cc1
REMARK SMILES IDX 4 1 3 2 2 3 1 4 63 5 64 6 78 7 65 8 77 9 66 10 67 11 68 13
REMARK SMILES IDX 69 14 70 15 71 16 72 17 73 18 76 19 74 20 75 21 5 22 6 23
REMARK SMILES IDX 7 24 8 25 9 26 10 27 62 28 11 29 61 30 12 31 13 32 14 33
REMARK SMILES IDX 55 34 15 35 60 36 54 37 56 38 16 39 59 40 53 41 52 42 17 44
REMARK SMILES IDX 43 45 26 46 42 47 27 48 30 49 41 50 57 51 28 52 29 53 40 55
REMARK SMILES IDX 58 56 31 57 18 58 19 59 24 60 20 61 21 62 23 63 25 64 22 65
REMARK SMILES IDX 44 66 45 67 50 68 46 69 47 70 49 71 51 72 48 73 32 74 33 75
REMARK SMILES IDX 38 76 34 77 35 78 37 79 39 80 36 81
REMARK H PARENT 67 12 56 43 30 54
REMARK Flexibility Score: inf
ROOT
ATOM      1  C   UNL A   1      33.690  35.845  31.438  1.00  0.00     0.275 C 
ENDROOT
BRANCH   1   2
ATOM      2  O   UNL A   1      34.085  34.795  32.337  1.00  0.00    -0.458 OA
BRANCH   2   3
ATOM      3  C   UNL A   1      34.814  34.901  33.475  1.00  0.00     0.338 C 
ATOM      4  O   UNL A   1      34.634  35.860  34.223  1.00  0.00    -0.246 OA
BRANCH   3   5
ATOM      5  C   UNL A   1      35.982  34.014  33.754  1.00  0.00     0.060 A 
ATOM      6  C   UNL A   1      37.126  34.369  34.469  1.00  0.00     0.018 A 
ATOM      7  C   UNL A   1      35.921  32.719  33.221  1.00  0.00     0.018 A 
ATOM      8  C   UNL A   1      38.121  33.424  34.756  1.00  0.00     0.027 A 
ATOM      9  C   UNL A   1      36.936  31.792  33.477  1.00  0.00     0.027 A 
ATOM     10  C   UNL A   1      38.031  32.116  34.284  1.00  0.00     0.038 A 
BRANCH  10  11
ATOM     11  N   UNL A   1      38.994  31.130  34.542  1.00  0.00    -0.362 N 
ATOM     12  H   UNL A   1      39.415  31.170  35.431  1.00  0.00     0.166 HD
BRANCH  11  13
ATOM     13  C   UNL A   1      39.427  30.119  33.728  1.00  0.00     0.087 C 
ATOM     14  C   UNL A   1      40.437  29.255  33.902  1.00  0.00     0.074 C 
BRANCH  14  15
ATOM     15  C   UNL A   1      41.318  29.102  35.101  1.00  0.00     0.222 C 
ATOM     16  O   UNL A   1      41.795  30.126  35.590  1.00  0.00    -0.286 OA
BRANCH  15  17
ATOM     17  C   UNL A   1      41.578  27.778  35.613  1.00  0.00     0.173 A 
ATOM     18  C   UNL A   1      42.366  27.316  36.653  1.00  0.00     0.054 A 
ATOM     19  O   UNL A   1      41.068  26.716  34.923  1.00  0.00    -0.461 OA
ATOM     20  C   UNL A   1      42.352  25.902  36.575  1.00  0.00     0.043 A 
ATOM     21  C   UNL A   1      41.545  25.591  35.509  1.00  0.00     0.196 A 
ENDBRANCH  15  17
ENDBRANCH  14  15
ENDBRANCH  11  13
ENDBRANCH  10  11
ENDBRANCH   3   5
ENDBRANCH   2   3
ENDBRANCH   1   2
BRANCH   1  22
ATOM     22  C   UNL A   1      32.528  35.479  30.509  1.00  0.00     0.275 C 
BRANCH  22  23
ATOM     23  O   UNL A   1      32.866  35.583  29.117  1.00  0.00    -0.458 OA
BRANCH  23  24
ATOM     24  C   UNL A   1      33.097  34.390  28.508  1.00  0.00     0.338 C 
ATOM     25  O   UNL A   1      32.412  33.886  27.632  1.00  0.00    -0.246 OA
BRANCH  24  26
ATOM     26  C   UNL A   1      34.371  33.786  28.968  1.00  0.00     0.060 A 
ATOM     27  C   UNL A   1      35.554  34.450  28.622  1.00  0.00     0.016 A 
ATOM     28  C   UNL A   1      34.436  32.594  29.697  1.00  0.00     0.016 A 
ATOM     29  C   UNL A   1      36.794  33.913  28.970  1.00  0.00     0.010 A 
ATOM     30  C   UNL A   1      35.684  32.063  30.061  1.00  0.00     0.010 A 
ATOM     31  C   UNL A   1      36.875  32.704  29.677  1.00  0.00    -0.014 A 
BRANCH  31  32
ATOM     32  C   UNL A   1      38.212  32.099  29.925  1.00  0.00     0.031 A 
ATOM     33  C   UNL A   1      39.210  32.813  30.798  1.00  0.00     0.074 A 
ATOM     34  C   UNL A   1      38.520  30.879  29.445  1.00  0.00     0.049 A 
ATOM     35  N   UNL A   1      40.365  32.389  31.248  1.00  0.00    -0.248 NA
ATOM     36  C   UNL A   1      38.858  34.174  31.233  1.00  0.00     0.031 C 
ATOM     37  C   UNL A   1      37.654  30.048  28.612  1.00  0.00     0.029 A 
ATOM     38  N   UNL A   1      39.656  30.119  29.600  1.00  0.00    -0.354 N 
ATOM     39  C   UNL A   1      40.853  33.406  32.057  1.00  0.00     0.074 A 
ATOM     40  C   UNL A   1      39.907  34.499  31.975  1.00  0.00     0.031 C 
ATOM     41  C   UNL A   1      38.298  28.911  28.300  1.00  0.00     0.029 A 
ATOM     42  C   UNL A   1      39.616  28.921  28.930  1.00  0.00     0.049 A 
ATOM     43  H   UNL A   1      40.426  30.407  30.141  1.00  0.00     0.167 HD
ATOM     44  C   UNL A   1      41.964  33.418  32.831  1.00  0.00     0.037 A 
ATOM     45  C   UNL A   1      40.529  27.935  28.844  1.00  0.00     0.037 A 
ATOM     46  C   UNL A   1      42.926  32.350  32.913  1.00  0.00     0.049 A 
ATOM     47  C   UNL A   1      41.796  28.008  29.643  1.00  0.00     0.074 A 
ATOM     48  C   UNL A   1      44.064  32.271  33.698  1.00  0.00     0.029 A 
ATOM     49  N   UNL A   1      42.874  31.179  32.175  1.00  0.00    -0.354 N 
ATOM     50  N   UNL A   1      42.208  28.947  30.458  1.00  0.00    -0.248 NA
ATOM     51  C   UNL A   1      42.705  26.858  29.540  1.00  0.00     0.031 C 
ATOM     52  C   UNL A   1      44.722  31.072  33.405  1.00  0.00     0.029 A 
ATOM     53  C   UNL A   1      43.970  30.384  32.468  1.00  0.00     0.049 A 
ATOM     54  H   UNL A   1      42.161  30.946  31.535  1.00  0.00     0.167 HD
ATOM     55  C   UNL A   1      43.408  28.490  30.984  1.00  0.00     0.074 A 
ATOM     56  C   UNL A   1      43.655  27.188  30.404  1.00  0.00     0.031 C 
ATOM     57  C   UNL A   1      44.226  29.096  31.879  1.00  0.00     0.037 A 
BRANCH  44  58
ATOM     58  C   UNL A   1      42.191  34.630  33.685  1.00  0.00     0.057 A 
ATOM     59  C   UNL A   1      41.839  34.639  35.040  1.00  0.00     0.134 A 
ATOM     60  C   UNL A   1      42.815  35.771  33.167  1.00  0.00     0.134 A 
ATOM     61  F   UNL A   1      41.229  33.578  35.592  1.00  0.00    -0.206 F 
ATOM     62  C   UNL A   1      42.088  35.747  35.850  1.00  0.00     0.040 A 
ATOM     63  C   UNL A   1      43.087  36.878  33.973  1.00  0.00     0.040 A 
ATOM     64  F   UNL A   1      43.181  35.823  31.879  1.00  0.00    -0.206 F 
ATOM     65  C   UNL A   1      42.722  36.868  35.318  1.00  0.00     0.006 A 
ENDBRANCH  44  58
BRANCH  45  66
ATOM     66  C   UNL A   1      40.282  26.766  27.969  1.00  0.00     0.057 A 
ATOM     67  C   UNL A   1      39.512  25.680  28.393  1.00  0.00     0.134 A 
ATOM     68  C   UNL A   1      40.872  26.692  26.703  1.00  0.00     0.134 A 
ATOM     69  F   UNL A   1      38.963  25.679  29.616  1.00  0.00    -0.206 F 
ATOM     70  C   UNL A   1      39.338  24.555  27.586  1.00  0.00     0.040 A 
ATOM     71  C   UNL A   1      40.685  25.586  25.874  1.00  0.00     0.040 A 
ATOM     72  F   UNL A   1      41.654  27.688  26.265  1.00  0.00    -0.206 F 
ATOM     73  C   UNL A   1      39.920  24.510  26.319  1.00  0.00     0.006 A 
ENDBRANCH  45  66
BRANCH  57  74
ATOM     74  C   UNL A   1      45.454  28.344  32.298  1.00  0.00     0.057 A 
ATOM     75  C   UNL A   1      45.456  27.492  33.409  1.00  0.00     0.134 A 
ATOM     76  C   UNL A   1      46.651  28.473  31.581  1.00  0.00     0.134 A 
ATOM     77  F   UNL A   1      44.347  27.338  34.148  1.00  0.00    -0.206 F 
ATOM     78  C   UNL A   1      46.612  26.819  33.811  1.00  0.00     0.040 A 
ATOM     79  C   UNL A   1      47.806  27.787  31.957  1.00  0.00     0.040 A 
ATOM     80  F   UNL A   1      46.717  29.270  30.503  1.00  0.00    -0.206 F 
ATOM     81  C   UNL A   1      47.791  26.963  33.081  1.00  0.00     0.006 A 
ENDBRANCH  57  74
ENDBRANCH  31  32
ENDBRANCH  24  26
ENDBRANCH  23  24
ENDBRANCH  22  23
ENDBRANCH   1  22
TORSDOF 15
ENDMDL
