MODEL 1
REMARK VINA RESULT:     -12.8      0.000      0.000
REMARK SMILES COc1ccc(-c2ccc(S(=O)(=O)NC(C)(C)C)cc2)c(C(=O)OCCOC(=O)c2ccc(-c3c4nc(c(-c5c(F)cccc5F)c5ccc([nH]5)c(-c5c(F)cccc5F)c5nc(c(-c6c(F)cccc6F)c6ccc3[nH]6)C=C5)C=C4)cc2)c1
REMARK SMILES IDX 25 1 24 2 22 3 23 4 21 5 3 6 4 7 84 8 5 9 6 10 2 11 1 12
REMARK SMILES IDX 7 13 8 14 20 15 9 16 19 17 10 18 11 19 12 20 13 21 14 22
REMARK SMILES IDX 15 24 16 25 17 26 18 27 26 28 27 29 28 30 29 31 30 32 31 33
REMARK SMILES IDX 83 34 32 35 82 36 33 37 34 38 35 39 76 40 36 41 81 42 75 43
REMARK SMILES IDX 77 44 37 45 80 46 74 47 73 48 38 50 64 51 47 52 63 53 48 54
REMARK SMILES IDX 51 55 62 56 78 57 49 58 50 59 61 61 79 62 52 63 39 64 40 65
REMARK SMILES IDX 45 66 41 67 42 68 44 69 46 70 43 71 65 72 66 73 71 74 67 75
REMARK SMILES IDX 68 76 70 77 72 78 69 79 53 80 54 81 59 82 55 83 56 84 58 85
REMARK SMILES IDX 60 86 57 87
REMARK H PARENT 14 23 77 49 51 60
REMARK Flexibility Score: inf
ROOT
ATOM      1  C   UNL A   1      32.365  28.894  24.657  1.00  0.00     0.275 C 
ENDROOT
BRANCH   1   2
ATOM      2  O   UNL A   1      32.194  28.852  23.224  1.00  0.00    -0.458 OA
BRANCH   2   3
ATOM      3  C   UNL A   1      31.562  27.753  22.733  1.00  0.00     0.339 C 
ATOM      4  O   UNL A   1      32.065  26.873  22.056  1.00  0.00    -0.246 OA
BRANCH   3   5
ATOM      5  C   UNL A   1      30.121  27.792  23.083  1.00  0.00     0.071 A 
ATOM      6  C   UNL A   1      28.042  29.026  22.909  1.00  0.00     0.119 A 
ATOM      7  C   UNL A   1      27.380  27.961  23.518  1.00  0.00     0.047 A 
ATOM      8  C   UNL A   1      29.416  28.950  22.711  1.00  0.00     0.062 A 
ATOM      9  C   UNL A   1      28.079  26.812  23.910  1.00  0.00     0.013 A 
ATOM     10  C   UNL A   1      29.460  26.700  23.694  1.00  0.00    -0.004 A 
BRANCH   6  11
ATOM     11  O   UNL A   1      27.263  30.098  22.566  1.00  0.00    -0.497 OA
ATOM     12  C   UNL A   1      27.572  31.316  23.241  1.00  0.00     0.278 C 
ENDBRANCH   6  11
BRANCH  10  13
ATOM     13  C   UNL A   1      30.183  25.540  24.234  1.00  0.00    -0.017 A 
ATOM     14  C   UNL A   1      30.604  24.124  23.252  1.00  0.00     0.010 A 
ATOM     15  C   UNL A   1      30.998  25.714  25.834  1.00  0.00     0.010 A 
ATOM     16  C   UNL A   1      31.793  22.882  23.764  1.00  0.00     0.022 A 
ATOM     17  C   UNL A   1      32.388  24.343  26.352  1.00  0.00     0.022 A 
ATOM     18  C   UNL A   1      32.686  22.956  25.285  1.00  0.00     0.082 A 
BRANCH  18  19
ATOM     19  S   UNL A   1      33.556  21.548  25.929  1.00  0.00     0.241 S 
ATOM     20  O   UNL A   1      33.869  21.800  27.311  1.00  0.00    -0.207 OA
ATOM     21  O   UNL A   1      32.742  20.413  25.547  1.00  0.00    -0.207 OA
BRANCH  19  22
ATOM     22  N   UNL A   1      34.987  21.333  25.043  1.00  0.00    -0.206 NA
ATOM     23  H   UNL A   1      34.668  21.006  24.131  1.00  0.00     0.141 HD
BRANCH  22  24
ATOM     24  C   UNL A   1      36.085  22.317  24.720  1.00  0.00     0.025 C 
ATOM     25  C   UNL A   1      36.272  23.455  25.722  1.00  0.00     0.028 C 
ATOM     26  C   UNL A   1      37.389  21.489  24.643  1.00  0.00     0.028 C 
ATOM     27  C   UNL A   1      35.931  22.930  23.338  1.00  0.00     0.028 C 
ENDBRANCH  22  24
ENDBRANCH  19  22
ENDBRANCH  18  19
ENDBRANCH  10  13
ENDBRANCH   3   5
ENDBRANCH   2   3
ENDBRANCH   1   2
BRANCH   1  28
ATOM     28  C   UNL A   1      31.504  29.995  25.270  1.00  0.00     0.275 C 
BRANCH  28  29
ATOM     29  O   UNL A   1      31.816  30.120  26.670  1.00  0.00    -0.458 OA
BRANCH  29  30
ATOM     30  C   UNL A   1      32.272  31.341  27.008  1.00  0.00     0.338 C 
ATOM     31  O   UNL A   1      31.719  32.416  26.829  1.00  0.00    -0.246 OA
BRANCH  30  32
ATOM     32  C   UNL A   1      33.522  31.278  27.763  1.00  0.00     0.060 A 
ATOM     33  C   UNL A   1      34.509  32.742  28.082  1.00  0.00     0.016 A 
ATOM     34  C   UNL A   1      34.347  29.725  27.727  1.00  0.00     0.016 A 
ATOM     35  C   UNL A   1      36.505  32.512  28.314  1.00  0.00     0.010 A 
ATOM     36  C   UNL A   1      36.104  29.543  28.001  1.00  0.00     0.010 A 
ATOM     37  C   UNL A   1      37.247  30.878  28.322  1.00  0.00    -0.014 A 
BRANCH  37  38
ATOM     38  C   UNL A   1      38.608  30.666  29.090  1.00  0.00     0.031 A 
ATOM     39  C   UNL A   1      39.544  29.520  28.711  1.00  0.00     0.074 A 
ATOM     40  C   UNL A   1      38.945  31.277  30.266  1.00  0.00     0.049 A 
ATOM     41  N   UNL A   1      40.393  28.836  29.448  1.00  0.00    -0.248 NA
ATOM     42  C   UNL A   1      39.501  29.064  27.320  1.00  0.00     0.031 C 
ATOM     43  C   UNL A   1      38.401  32.496  30.850  1.00  0.00     0.029 A 
ATOM     44  N   UNL A   1      39.791  30.841  31.286  1.00  0.00    -0.354 N 
ATOM     45  C   UNL A   1      40.922  27.853  28.618  1.00  0.00     0.074 A 
ATOM     46  C   UNL A   1      40.162  27.918  27.387  1.00  0.00     0.031 C 
ATOM     47  C   UNL A   1      38.648  32.548  32.165  1.00  0.00     0.029 A 
ATOM     48  C   UNL A   1      39.541  31.457  32.504  1.00  0.00     0.049 A 
ATOM     49  H   UNL A   1      40.495  30.166  31.156  1.00  0.00     0.167 HD
ATOM     50  C   UNL A   1      42.013  27.057  28.782  1.00  0.00     0.037 A 
ATOM     51  C   UNL A   1      39.986  31.249  33.762  1.00  0.00     0.037 A 
ATOM     52  C   UNL A   1      42.903  27.107  29.916  1.00  0.00     0.049 A 
ATOM     53  C   UNL A   1      41.150  30.341  33.981  1.00  0.00     0.074 A 
ATOM     54  C   UNL A   1      44.140  26.497  30.066  1.00  0.00     0.029 A 
ATOM     55  N   UNL A   1      42.673  27.817  31.082  1.00  0.00    -0.354 N 
ATOM     56  N   UNL A   1      41.703  29.504  33.145  1.00  0.00    -0.248 NA
ATOM     57  C   UNL A   1      41.837  30.446  35.278  1.00  0.00     0.031 C 
ATOM     58  C   UNL A   1      44.637  26.804  31.338  1.00  0.00     0.029 A 
ATOM     59  C   UNL A   1      43.732  27.642  31.963  1.00  0.00     0.049 A 
ATOM     60  H   UNL A   1      41.874  28.365  31.260  1.00  0.00     0.167 HD
ATOM     61  C   UNL A   1      42.859  29.061  33.771  1.00  0.00     0.074 A 
ATOM     62  C   UNL A   1      42.904  29.687  35.075  1.00  0.00     0.031 C 
ATOM     63  C   UNL A   1      43.814  28.248  33.266  1.00  0.00     0.037 A 
BRANCH  50  64
ATOM     64  C   UNL A   1      42.380  26.125  27.652  1.00  0.00     0.057 A 
ATOM     65  C   UNL A   1      41.909  24.804  27.596  1.00  0.00     0.134 A 
ATOM     66  C   UNL A   1      43.169  26.564  26.582  1.00  0.00     0.134 A 
ATOM     67  F   UNL A   1      41.131  24.315  28.575  1.00  0.00    -0.206 F 
ATOM     68  C   UNL A   1      42.268  23.937  26.563  1.00  0.00     0.040 A 
ATOM     69  C   UNL A   1      43.497  25.720  25.517  1.00  0.00     0.040 A 
ATOM     70  F   UNL A   1      43.627  27.825  26.541  1.00  0.00    -0.206 F 
ATOM     71  C   UNL A   1      43.061  24.396  25.515  1.00  0.00     0.006 A 
ENDBRANCH  50  64
BRANCH  51  72
ATOM     72  C   UNL A   1      39.445  32.048  34.897  1.00  0.00     0.057 A 
ATOM     73  C   UNL A   1      39.909  33.342  35.164  1.00  0.00     0.134 A 
ATOM     74  C   UNL A   1      38.464  31.528  35.749  1.00  0.00     0.134 A 
ATOM     75  F   UNL A   1      40.869  33.884  34.401  1.00  0.00    -0.206 F 
ATOM     76  C   UNL A   1      39.426  34.088  36.241  1.00  0.00     0.040 A 
ATOM     77  C   UNL A   1      37.958  32.272  36.819  1.00  0.00     0.040 A 
ATOM     78  F   UNL A   1      38.002  30.282  35.576  1.00  0.00    -0.206 F 
ATOM     79  C   UNL A   1      38.442  33.555  37.071  1.00  0.00     0.006 A 
ENDBRANCH  51  72
BRANCH  63  80
ATOM     80  C   UNL A   1      45.046  28.039  34.092  1.00  0.00     0.057 A 
ATOM     81  C   UNL A   1      45.174  26.973  34.992  1.00  0.00     0.134 A 
ATOM     82  C   UNL A   1      46.126  28.927  33.987  1.00  0.00     0.134 A 
ATOM     83  F   UNL A   1      44.169  26.100  35.159  1.00  0.00    -0.206 F 
ATOM     84  C   UNL A   1      46.318  26.815  35.777  1.00  0.00     0.040 A 
ATOM     85  C   UNL A   1      47.286  28.761  34.743  1.00  0.00     0.040 A 
ATOM     86  F   UNL A   1      46.071  29.972  33.147  1.00  0.00    -0.206 F 
ATOM     87  C   UNL A   1      47.381  27.707  35.648  1.00  0.00     0.006 A 
ENDBRANCH  63  80
ENDBRANCH  37  38
ENDBRANCH  30  32
ENDBRANCH  29  30
ENDBRANCH  28  29
ENDBRANCH   1  28
TORSDOF 16
ENDMDL
MODEL 2
REMARK VINA RESULT:     -12.7      3.031      6.551
REMARK SMILES COc1ccc(-c2ccc(S(=O)(=O)NC(C)(C)C)cc2)c(C(=O)OCCOC(=O)c2ccc(-c3c4nc(c(-c5c(F)cccc5F)c5ccc([nH]5)c(-c5c(F)cccc5F)c5nc(c(-c6c(F)cccc6F)c6ccc3[nH]6)C=C5)C=C4)cc2)c1
REMARK SMILES IDX 25 1 24 2 22 3 23 4 21 5 3 6 4 7 84 8 5 9 6 10 2 11 1 12
REMARK SMILES IDX 7 13 8 14 20 15 9 16 19 17 10 18 11 19 12 20 13 21 14 22
REMARK SMILES IDX 15 24 16 25 17 26 18 27 26 28 27 29 28 30 29 31 30 32 31 33
REMARK SMILES IDX 83 34 32 35 82 36 33 37 34 38 35 39 76 40 36 41 81 42 75 43
REMARK SMILES IDX 77 44 37 45 80 46 74 47 73 48 38 50 64 51 47 52 63 53 48 54
REMARK SMILES IDX 51 55 62 56 78 57 49 58 50 59 61 61 79 62 52 63 39 64 40 65
REMARK SMILES IDX 45 66 41 67 42 68 44 69 46 70 43 71 65 72 66 73 71 74 67 75
REMARK SMILES IDX 68 76 70 77 72 78 69 79 53 80 54 81 59 82 55 83 56 84 58 85
REMARK SMILES IDX 60 86 57 87
REMARK H PARENT 14 23 77 49 51 60
REMARK Flexibility Score: inf
ROOT
ATOM      1  C   UNL A   1      33.338  28.969  24.940  1.00  0.00     0.275 C 
ENDROOT
BRANCH   1   2
ATOM      2  O   UNL A   1      32.919  29.326  23.606  1.00  0.00    -0.458 OA
BRANCH   2   3
ATOM      3  C   UNL A   1      32.492  28.301  22.822  1.00  0.00     0.339 C 
ATOM      4  O   UNL A   1      33.136  27.739  21.954  1.00  0.00    -0.246 OA
BRANCH   3   5
ATOM      5  C   UNL A   1      31.075  27.982  23.123  1.00  0.00     0.071 A 
ATOM      6  C   UNL A   1      28.766  28.692  22.919  1.00  0.00     0.119 A 
ATOM      7  C   UNL A   1      28.362  27.476  23.468  1.00  0.00     0.047 A 
ATOM      8  C   UNL A   1      30.123  28.953  22.766  1.00  0.00     0.062 A 
ATOM      9  C   UNL A   1      29.305  26.511  23.845  1.00  0.00     0.013 A 
ATOM     10  C   UNL A   1      30.678  26.739  23.674  1.00  0.00    -0.004 A 
BRANCH   6  11
ATOM     11  O   UNL A   1      27.763  29.562  22.586  1.00  0.00    -0.497 OA
ATOM     12  C   UNL A   1      28.070  30.473  21.533  1.00  0.00     0.278 C 
ENDBRANCH   6  11
BRANCH  10  13
ATOM     13  C   UNL A   1      31.643  25.764  24.198  1.00  0.00    -0.017 A 
ATOM     14  C   UNL A   1      32.025  25.618  25.924  1.00  0.00     0.010 A 
ATOM     15  C   UNL A   1      32.175  24.424  23.113  1.00  0.00     0.010 A 
ATOM     16  C   UNL A   1      32.893  24.216  26.631  1.00  0.00     0.022 A 
ATOM     17  C   UNL A   1      33.082  22.823  23.946  1.00  0.00     0.022 A 
ATOM     18  C   UNL A   1      33.431  22.825  25.686  1.00  0.00     0.082 A 
BRANCH  18  19
ATOM     19  S   UNL A   1      34.599  21.652  26.329  1.00  0.00     0.241 S 
ATOM     20  O   UNL A   1      34.115  21.178  27.599  1.00  0.00    -0.207 OA
ATOM     21  O   UNL A   1      34.832  20.733  25.234  1.00  0.00    -0.207 OA
BRANCH  19  22
ATOM     22  N   UNL A   1      36.097  22.422  26.534  1.00  0.00    -0.206 NA
ATOM     23  H   UNL A   1      36.548  21.894  27.282  1.00  0.00     0.141 HD
BRANCH  22  24
ATOM     24  C   UNL A   1      37.204  22.670  25.538  1.00  0.00     0.025 C 
ATOM     25  C   UNL A   1      36.758  23.126  24.150  1.00  0.00     0.028 C 
ATOM     26  C   UNL A   1      38.104  23.760  26.164  1.00  0.00     0.028 C 
ATOM     27  C   UNL A   1      38.114  21.465  25.365  1.00  0.00     0.028 C 
ENDBRANCH  22  24
ENDBRANCH  19  22
ENDBRANCH  18  19
ENDBRANCH  10  13
ENDBRANCH   3   5
ENDBRANCH   2   3
ENDBRANCH   1   2
BRANCH   1  28
ATOM     28  C   UNL A   1      32.814  29.978  25.958  1.00  0.00     0.275 C 
BRANCH  28  29
ATOM     29  O   UNL A   1      33.380  29.689  27.250  1.00  0.00    -0.458 OA
BRANCH  29  30
ATOM     30  C   UNL A   1      34.245  30.629  27.676  1.00  0.00     0.338 C 
ATOM     31  O   UNL A   1      34.064  31.836  27.728  1.00  0.00    -0.246 OA
BRANCH  30  32
ATOM     32  C   UNL A   1      35.472  30.048  28.219  1.00  0.00     0.060 A 
ATOM     33  C   UNL A   1      35.948  30.277  29.933  1.00  0.00     0.016 A 
ATOM     34  C   UNL A   1      36.750  29.753  27.046  1.00  0.00     0.016 A 
ATOM     35  C   UNL A   1      37.919  30.242  30.387  1.00  0.00     0.010 A 
ATOM     36  C   UNL A   1      38.479  29.661  27.485  1.00  0.00     0.010 A 
ATOM     37  C   UNL A   1      39.144  29.871  29.130  1.00  0.00    -0.014 A 
BRANCH  37  38
ATOM     38  C   UNL A   1      40.525  29.251  29.574  1.00  0.00     0.031 A 
ATOM     39  C   UNL A   1      41.699  30.155  29.948  1.00  0.00     0.074 A 
ATOM     40  C   UNL A   1      40.876  27.938  29.425  1.00  0.00     0.049 A 
ATOM     41  N   UNL A   1      42.995  29.953  29.841  1.00  0.00    -0.248 NA
ATOM     42  C   UNL A   1      41.370  31.474  30.492  1.00  0.00     0.031 C 
ATOM     43  C   UNL A   1      40.012  26.778  29.247  1.00  0.00     0.029 A 
ATOM     44  N   UNL A   1      42.138  27.365  29.267  1.00  0.00    -0.354 N 
ATOM     45  C   UNL A   1      43.605  31.135  30.248  1.00  0.00     0.074 A 
ATOM     46  C   UNL A   1      42.538  32.097  30.423  1.00  0.00     0.031 C 
ATOM     47  C   UNL A   1      40.692  25.754  28.714  1.00  0.00     0.029 A 
ATOM     48  C   UNL A   1      42.098  26.107  28.681  1.00  0.00     0.049 A 
ATOM     49  H   UNL A   1      42.973  27.807  29.544  1.00  0.00     0.167 HD
ATOM     50  C   UNL A   1      44.900  31.385  30.583  1.00  0.00     0.037 A 
ATOM     51  C   UNL A   1      43.045  25.270  28.208  1.00  0.00     0.037 A 
ATOM     52  C   UNL A   1      45.950  30.396  30.604  1.00  0.00     0.049 A 
ATOM     53  C   UNL A   1      44.479  25.547  28.514  1.00  0.00     0.074 A 
ATOM     54  C   UNL A   1      47.228  30.510  31.131  1.00  0.00     0.029 A 
ATOM     55  N   UNL A   1      45.846  29.110  30.102  1.00  0.00    -0.354 N 
ATOM     56  N   UNL A   1      45.017  26.630  29.005  1.00  0.00    -0.248 NA
ATOM     57  C   UNL A   1      45.423  24.433  28.324  1.00  0.00     0.031 C 
ATOM     58  C   UNL A   1      47.910  29.308  30.910  1.00  0.00     0.029 A 
ATOM     59  C   UNL A   1      47.042  28.430  30.287  1.00  0.00     0.049 A 
ATOM     60  H   UNL A   1      45.041  28.734  29.677  1.00  0.00     0.167 HD
ATOM     61  C   UNL A   1      46.335  26.299  29.282  1.00  0.00     0.074 A 
ATOM     62  C   UNL A   1      46.528  24.928  28.862  1.00  0.00     0.031 C 
ATOM     63  C   UNL A   1      47.272  27.067  29.885  1.00  0.00     0.037 A 
BRANCH  50  64
ATOM     64  C   UNL A   1      45.245  32.775  31.064  1.00  0.00     0.057 A 
ATOM     65  C   UNL A   1      45.158  33.135  32.418  1.00  0.00     0.134 A 
ATOM     66  C   UNL A   1      45.717  33.750  30.177  1.00  0.00     0.134 A 
ATOM     67  F   UNL A   1      44.732  32.249  33.333  1.00  0.00    -0.206 F 
ATOM     68  C   UNL A   1      45.455  34.425  32.858  1.00  0.00     0.040 A 
ATOM     69  C   UNL A   1      46.063  35.033  30.613  1.00  0.00     0.040 A 
ATOM     70  F   UNL A   1      45.865  33.474  28.872  1.00  0.00    -0.206 F 
ATOM     71  C   UNL A   1      45.915  35.378  31.954  1.00  0.00     0.006 A 
ENDBRANCH  50  64
BRANCH  51  72
ATOM     72  C   UNL A   1      42.662  23.994  27.541  1.00  0.00     0.057 A 
ATOM     73  C   UNL A   1      42.589  23.895  26.146  1.00  0.00     0.134 A 
ATOM     74  C   UNL A   1      42.345  22.852  28.284  1.00  0.00     0.134 A 
ATOM     75  F   UNL A   1      42.852  24.964  25.380  1.00  0.00    -0.206 F 
ATOM     76  C   UNL A   1      42.206  22.711  25.512  1.00  0.00     0.040 A 
ATOM     77  C   UNL A   1      41.979  21.654  27.662  1.00  0.00     0.040 A 
ATOM     78  F   UNL A   1      42.357  22.886  29.624  1.00  0.00    -0.206 F 
ATOM     79  C   UNL A   1      41.905  21.582  26.272  1.00  0.00     0.006 A 
ENDBRANCH  51  72
BRANCH  63  80
ATOM     80  C   UNL A   1      48.585  26.422  30.207  1.00  0.00     0.057 A 
ATOM     81  C   UNL A   1      49.680  26.476  29.335  1.00  0.00     0.134 A 
ATOM     82  C   UNL A   1      48.755  25.730  31.414  1.00  0.00     0.134 A 
ATOM     83  F   UNL A   1      49.579  27.102  28.153  1.00  0.00    -0.206 F 
ATOM     84  C   UNL A   1      50.886  25.840  29.639  1.00  0.00     0.040 A 
ATOM     85  C   UNL A   1      49.964  25.117  31.743  1.00  0.00     0.040 A 
ATOM     86  F   UNL A   1      47.746  25.636  32.294  1.00  0.00    -0.206 F 
ATOM     87  C   UNL A   1      51.032  25.165  30.850  1.00  0.00     0.006 A 
ENDBRANCH  63  80
ENDBRANCH  37  38
ENDBRANCH  30  32
ENDBRANCH  29  30
ENDBRANCH  28  29
ENDBRANCH   1  28
TORSDOF 16
ENDMDL
MODEL 3
REMARK VINA RESULT:     -12.5      4.305      5.364
REMARK SMILES COc1ccc(-c2ccc(S(=O)(=O)NC(C)(C)C)cc2)c(C(=O)OCCOC(=O)c2ccc(-c3c4nc(c(-c5c(F)cccc5F)c5ccc([nH]5)c(-c5c(F)cccc5F)c5nc(c(-c6c(F)cccc6F)c6ccc3[nH]6)C=C5)C=C4)cc2)c1
REMARK SMILES IDX 25 1 24 2 22 3 23 4 21 5 3 6 4 7 84 8 5 9 6 10 2 11 1 12
REMARK SMILES IDX 7 13 8 14 20 15 9 16 19 17 10 18 11 19 12 20 13 21 14 22
REMARK SMILES IDX 15 24 16 25 17 26 18 27 26 28 27 29 28 30 29 31 30 32 31 33
REMARK SMILES IDX 83 34 32 35 82 36 33 37 34 38 35 39 76 40 36 41 81 42 75 43
REMARK SMILES IDX 77 44 37 45 80 46 74 47 73 48 38 50 64 51 47 52 63 53 48 54
REMARK SMILES IDX 51 55 62 56 78 57 49 58 50 59 61 61 79 62 52 63 39 64 40 65
REMARK SMILES IDX 45 66 41 67 42 68 44 69 46 70 43 71 65 72 66 73 71 74 67 75
REMARK SMILES IDX 68 76 70 77 72 78 69 79 53 80 54 81 59 82 55 83 56 84 58 85
REMARK SMILES IDX 60 86 57 87
REMARK H PARENT 14 23 77 49 51 60
REMARK Flexibility Score: inf
ROOT
ATOM      1  C   UNL A   1      32.871  29.492  25.726  1.00  0.00     0.275 C 
ENDROOT
BRANCH   1   2
ATOM      2  O   UNL A   1      32.161  28.403  25.098  1.00  0.00    -0.458 OA
BRANCH   2   3
ATOM      3  C   UNL A   1      31.866  28.566  23.782  1.00  0.00     0.339 C 
ATOM      4  O   UNL A   1      32.666  28.728  22.877  1.00  0.00    -0.246 OA
BRANCH   3   5
ATOM      5  C   UNL A   1      30.396  28.585  23.584  1.00  0.00     0.071 A 
ATOM      6  C   UNL A   1      28.462  29.927  23.005  1.00  0.00     0.119 A 
ATOM      7  C   UNL A   1      27.678  28.773  23.027  1.00  0.00     0.047 A 
ATOM      8  C   UNL A   1      29.816  29.835  23.305  1.00  0.00     0.062 A 
ATOM      9  C   UNL A   1      28.244  27.527  23.324  1.00  0.00     0.013 A 
ATOM     10  C   UNL A   1      29.613  27.405  23.601  1.00  0.00    -0.004 A 
BRANCH   6  11
ATOM     11  O   UNL A   1      27.807  31.090  22.703  1.00  0.00    -0.497 OA
ATOM     12  C   UNL A   1      28.086  31.629  21.412  1.00  0.00     0.278 C 
ENDBRANCH   6  11
BRANCH  10  13
ATOM     13  C   UNL A   1      30.149  26.108  24.036  1.00  0.00    -0.017 A 
ATOM     14  C   UNL A   1      31.007  25.004  22.944  1.00  0.00     0.010 A 
ATOM     15  C   UNL A   1      30.275  25.790  25.807  1.00  0.00     0.010 A 
ATOM     16  C   UNL A   1      31.988  23.613  23.512  1.00  0.00     0.022 A 
ATOM     17  C   UNL A   1      31.447  24.264  26.422  1.00  0.00     0.022 A 
ATOM     18  C   UNL A   1      32.223  23.218  25.216  1.00  0.00     0.082 A 
BRANCH  18  19
ATOM     19  S   UNL A   1      32.870  21.646  25.731  1.00  0.00     0.241 S 
ATOM     20  O   UNL A   1      33.151  21.710  27.141  1.00  0.00    -0.207 OA
ATOM     21  O   UNL A   1      31.931  20.677  25.204  1.00  0.00    -0.207 OA
BRANCH  19  22
ATOM     22  N   UNL A   1      34.298  21.330  24.871  1.00  0.00    -0.206 NA
ATOM     23  H   UNL A   1      33.984  21.185  23.912  1.00  0.00     0.141 HD
BRANCH  22  24
ATOM     24  C   UNL A   1      35.548  22.164  24.728  1.00  0.00     0.025 C 
ATOM     25  C   UNL A   1      36.868  21.398  24.796  1.00  0.00     0.028 C 
ATOM     26  C   UNL A   1      35.438  22.863  23.354  1.00  0.00     0.028 C 
ATOM     27  C   UNL A   1      35.612  23.299  25.738  1.00  0.00     0.028 C 
ENDBRANCH  22  24
ENDBRANCH  19  22
ENDBRANCH  18  19
ENDBRANCH  10  13
ENDBRANCH   3   5
ENDBRANCH   2   3
ENDBRANCH   1   2
BRANCH   1  28
ATOM     28  C   UNL A   1      31.934  30.669  25.984  1.00  0.00     0.275 C 
BRANCH  28  29
ATOM     29  O   UNL A   1      32.205  31.216  27.287  1.00  0.00    -0.458 OA
BRANCH  29  30
ATOM     30  C   UNL A   1      32.379  32.552  27.279  1.00  0.00     0.338 C 
ATOM     31  O   UNL A   1      31.601  33.399  26.866  1.00  0.00    -0.246 OA
BRANCH  30  32
ATOM     32  C   UNL A   1      33.612  32.956  27.952  1.00  0.00     0.060 A 
ATOM     33  C   UNL A   1      34.961  31.805  28.224  1.00  0.00     0.016 A 
ATOM     34  C   UNL A   1      33.457  34.314  29.060  1.00  0.00     0.016 A 
ATOM     35  C   UNL A   1      36.167  32.112  29.818  1.00  0.00     0.010 A 
ATOM     36  C   UNL A   1      34.578  34.598  30.423  1.00  0.00     0.010 A 
ATOM     37  C   UNL A   1      35.967  33.562  30.856  1.00  0.00    -0.014 A 
BRANCH  37  38
ATOM     38  C   UNL A   1      37.215  34.103  31.654  1.00  0.00     0.031 A 
ATOM     39  C   UNL A   1      38.549  34.335  30.946  1.00  0.00     0.074 A 
ATOM     40  C   UNL A   1      37.305  34.164  33.017  1.00  0.00     0.049 A 
ATOM     41  N   UNL A   1      39.780  34.266  31.408  1.00  0.00    -0.248 NA
ATOM     42  C   UNL A   1      38.493  34.664  29.521  1.00  0.00     0.031 C 
ATOM     43  C   UNL A   1      36.232  34.167  34.003  1.00  0.00     0.029 A 
ATOM     44  N   UNL A   1      38.430  34.102  33.840  1.00  0.00    -0.354 N 
ATOM     45  C   UNL A   1      40.615  34.485  30.317  1.00  0.00     0.074 A 
ATOM     46  C   UNL A   1      39.756  34.502  29.153  1.00  0.00     0.031 C 
ATOM     47  C   UNL A   1      36.689  33.803  35.208  1.00  0.00     0.029 A 
ATOM     48  C   UNL A   1      38.135  33.721  35.141  1.00  0.00     0.049 A 
ATOM     49  H   UNL A   1      39.341  34.309  33.530  1.00  0.00     0.167 HD
ATOM     50  C   UNL A   1      41.942  34.780  30.272  1.00  0.00     0.037 A 
ATOM     51  C   UNL A   1      38.892  33.388  36.208  1.00  0.00     0.037 A 
ATOM     52  C   UNL A   1      42.784  34.960  31.430  1.00  0.00     0.049 A 
ATOM     53  C   UNL A   1      40.360  33.652  36.169  1.00  0.00     0.074 A 
ATOM     54  C   UNL A   1      44.074  35.468  31.484  1.00  0.00     0.029 A 
ATOM     55  N   UNL A   1      42.423  34.667  32.734  1.00  0.00    -0.354 N 
ATOM     56  N   UNL A   1      41.108  33.969  35.147  1.00  0.00    -0.248 NA
ATOM     57  C   UNL A   1      41.068  33.643  37.459  1.00  0.00     0.031 C 
ATOM     58  C   UNL A   1      44.508  35.440  32.815  1.00  0.00     0.029 A 
ATOM     59  C   UNL A   1      43.472  34.960  33.594  1.00  0.00     0.049 A 
ATOM     60  H   UNL A   1      41.551  34.303  33.009  1.00  0.00     0.167 HD
ATOM     61  C   UNL A   1      42.345  34.300  35.679  1.00  0.00     0.074 A 
ATOM     62  C   UNL A   1      42.262  34.101  37.109  1.00  0.00     0.031 C 
ATOM     63  C   UNL A   1      43.427  34.778  35.022  1.00  0.00     0.037 A 
BRANCH  50  64
ATOM     64  C   UNL A   1      42.559  35.039  28.918  1.00  0.00     0.057 A 
ATOM     65  C   UNL A   1      42.400  36.264  28.251  1.00  0.00     0.134 A 
ATOM     66  C   UNL A   1      43.361  34.076  28.294  1.00  0.00     0.134 A 
ATOM     67  F   UNL A   1      41.661  37.245  28.794  1.00  0.00    -0.206 F 
ATOM     68  C   UNL A   1      42.951  36.493  26.990  1.00  0.00     0.040 A 
ATOM     69  C   UNL A   1      43.958  34.311  27.051  1.00  0.00     0.040 A 
ATOM     70  F   UNL A   1      43.594  32.893  28.884  1.00  0.00    -0.206 F 
ATOM     71  C   UNL A   1      43.738  35.516  26.388  1.00  0.00     0.006 A 
ENDBRANCH  50  64
BRANCH  51  72
ATOM     72  C   UNL A   1      38.254  32.928  37.474  1.00  0.00     0.057 A 
ATOM     73  C   UNL A   1      38.080  33.797  38.558  1.00  0.00     0.134 A 
ATOM     74  C   UNL A   1      37.820  31.608  37.632  1.00  0.00     0.134 A 
ATOM     75  F   UNL A   1      38.502  35.068  38.478  1.00  0.00    -0.206 F 
ATOM     76  C   UNL A   1      37.507  33.370  39.758  1.00  0.00     0.040 A 
ATOM     77  C   UNL A   1      37.227  31.171  38.821  1.00  0.00     0.040 A 
ATOM     78  F   UNL A   1      37.990  30.713  36.649  1.00  0.00    -0.206 F 
ATOM     79  C   UNL A   1      37.072  32.052  39.890  1.00  0.00     0.006 A 
ENDBRANCH  51  72
BRANCH  63  80
ATOM     80  C   UNL A   1      44.602  35.202  35.850  1.00  0.00     0.057 A 
ATOM     81  C   UNL A   1      45.658  34.334  36.153  1.00  0.00     0.134 A 
ATOM     82  C   UNL A   1      44.673  36.507  36.357  1.00  0.00     0.134 A 
ATOM     83  F   UNL A   1      45.640  33.064  35.719  1.00  0.00    -0.206 F 
ATOM     84  C   UNL A   1      46.728  34.738  36.954  1.00  0.00     0.040 A 
ATOM     85  C   UNL A   1      45.752  36.932  37.132  1.00  0.00     0.040 A 
ATOM     86  F   UNL A   1      43.695  37.391  36.108  1.00  0.00    -0.206 F 
ATOM     87  C   UNL A   1      46.780  36.044  37.440  1.00  0.00     0.006 A 
ENDBRANCH  63  80
ENDBRANCH  37  38
ENDBRANCH  30  32
ENDBRANCH  29  30
ENDBRANCH  28  29
ENDBRANCH   1  28
TORSDOF 16
ENDMDL
