MODEL 1
REMARK VINA RESULT:     -13.2      0.000      0.000
REMARK SMILES Cn1c(=O)c2c(nc(Nc3cccc(Cl)c3Cl)n2CC(=O)OCCOC(=O)c2ccc(-c3c4nc(c(-c5c(F)cccc5F)c5ccc([nH]5)c(-c5c(F)cccc5F)c5nc(c(-c6c(F)cccc6F)c6ccc3[nH]6)C=C5)C=C4)cc2)n(C)c1=O
REMARK SMILES IDX 23 1 22 2 20 3 21 4 19 5 18 6 1 7 2 8 3 9 84 10 4 11 5 12
REMARK SMILES IDX 82 13 85 14 6 15 83 16 7 17 8 18 9 19 10 21 11 22 16 23
REMARK SMILES IDX 12 24 14 25 17 26 13 27 15 28 24 29 25 30 26 31 27 32 28 33
REMARK SMILES IDX 29 34 81 35 30 36 80 37 31 38 32 39 33 40 74 41 34 42 79 43
REMARK SMILES IDX 73 44 75 45 35 46 78 47 72 48 71 49 36 51 62 52 45 53 61 54
REMARK SMILES IDX 46 55 49 56 60 57 76 58 47 59 48 60 59 62 77 63 50 64 37 65
REMARK SMILES IDX 38 66 43 67 39 68 40 69 42 70 44 71 41 72 63 73 64 74 69 75
REMARK SMILES IDX 65 76 66 77 68 78 70 79 67 80 51 81 52 82 57 83 53 84 54 85
REMARK SMILES IDX 56 86 58 87 55 88
REMARK H PARENT 9 20 75 50 49 61
REMARK Flexibility Score: inf
ROOT
ATOM      1  C   UNL A   1      37.851  30.199  32.341  1.00  0.00     0.274 C 
ENDROOT
BRANCH   1   2
ATOM      2  O   UNL A   1      36.651  30.952  32.665  1.00  0.00    -0.461 OA
BRANCH   2   3
ATOM      3  C   UNL A   1      36.408  32.014  31.854  1.00  0.00     0.326 C 
ATOM      4  O   UNL A   1      37.154  32.994  31.796  1.00  0.00    -0.250 OA
BRANCH   3   5
ATOM      5  C   UNL A   1      35.167  31.952  30.996  1.00  0.00     0.248 C 
BRANCH   5   6
ATOM      6  N   UNL A   1      34.644  33.111  30.271  1.00  0.00    -0.293 N 
ATOM      7  C   UNL A   1      33.863  36.789  33.545  1.00  0.00     0.159 C 
ATOM      8  N   UNL A   1      33.760  36.129  32.256  1.00  0.00    -0.261 N 
ATOM      9  C   UNL A   1      33.817  34.734  32.156  1.00  0.00     0.282 A 
ATOM     10  C   UNL A   1      33.308  36.925  31.207  1.00  0.00     0.332 A 
ATOM     11  O   UNL A   1      33.488  33.976  33.057  1.00  0.00    -0.267 OA
ATOM     12  C   UNL A   1      34.114  34.275  30.829  1.00  0.00     0.154 A 
ATOM     13  N   UNL A   1      33.256  36.330  29.949  1.00  0.00    -0.279 N 
ATOM     14  O   UNL A   1      32.938  38.087  31.402  1.00  0.00    -0.247 OA
ATOM     15  C   UNL A   1      33.762  35.059  29.777  1.00  0.00     0.170 A 
ATOM     16  C   UNL A   1      32.681  37.057  28.842  1.00  0.00     0.157 C 
ATOM     17  N   UNL A   1      33.876  34.397  28.605  1.00  0.00    -0.194 NA
ATOM     18  C   UNL A   1      34.336  33.194  28.908  1.00  0.00     0.210 A 
BRANCH  18  19
ATOM     19  N   UNL A   1      34.474  32.251  27.943  1.00  0.00    -0.324 N 
ATOM     20  H   UNL A   1      35.395  32.155  27.608  1.00  0.00     0.170 HD
BRANCH  19  21
ATOM     21  C   UNL A   1      33.553  31.384  27.332  1.00  0.00     0.061 A 
ATOM     22  C   UNL A   1      32.286  31.908  27.031  1.00  0.00     0.028 A 
ATOM     23  C   UNL A   1      33.829  30.041  26.987  1.00  0.00     0.083 A 
ATOM     24  C   UNL A   1      31.381  31.191  26.253  1.00  0.00     0.004 A 
ATOM     25  C   UNL A   1      32.941  29.346  26.152  1.00  0.00     0.061 A 
ATOM     26  Cl  UNL A   1      35.311  29.300  27.517  1.00  0.00    -0.080 Cl
ATOM     27  C   UNL A   1      31.730  29.932  25.770  1.00  0.00     0.022 A 
ATOM     28  Cl  UNL A   1      33.321  27.801  25.472  1.00  0.00    -0.083 Cl
ENDBRANCH  19  21
ENDBRANCH  18  19
ENDBRANCH   5   6
ENDBRANCH   3   5
ENDBRANCH   2   3
ENDBRANCH   1   2
BRANCH   1  29
ATOM     29  C   UNL A   1      37.677  29.450  31.019  1.00  0.00     0.275 C 
BRANCH  29  30
ATOM     30  O   UNL A   1      38.461  30.043  29.967  1.00  0.00    -0.458 OA
BRANCH  30  31
ATOM     31  C   UNL A   1      38.620  29.230  28.904  1.00  0.00     0.338 C 
ATOM     32  O   UNL A   1      37.917  28.235  28.675  1.00  0.00    -0.246 OA
BRANCH  31  33
ATOM     33  C   UNL A   1      39.915  29.372  28.272  1.00  0.00     0.060 A 
ATOM     34  C   UNL A   1      40.088  29.360  26.885  1.00  0.00     0.016 A 
ATOM     35  C   UNL A   1      40.925  28.874  29.078  1.00  0.00     0.016 A 
ATOM     36  C   UNL A   1      41.084  28.488  26.385  1.00  0.00     0.010 A 
ATOM     37  C   UNL A   1      42.097  28.515  28.484  1.00  0.00     0.010 A 
ATOM     38  C   UNL A   1      41.971  27.823  27.294  1.00  0.00    -0.014 A 
BRANCH  38  39
ATOM     39  C   UNL A   1      43.238  27.075  26.925  1.00  0.00     0.031 A 
ATOM     40  C   UNL A   1      42.684  25.607  26.863  1.00  0.00     0.074 A 
ATOM     41  C   UNL A   1      44.529  27.585  26.604  1.00  0.00     0.049 A 
ATOM     42  N   UNL A   1      42.779  24.763  27.846  1.00  0.00    -0.248 NA
ATOM     43  C   UNL A   1      41.565  25.139  25.961  1.00  0.00     0.031 C 
ATOM     44  C   UNL A   1      45.176  28.964  26.590  1.00  0.00     0.029 A 
ATOM     45  N   UNL A   1      45.705  26.888  26.219  1.00  0.00    -0.354 N 
ATOM     46  C   UNL A   1      42.209  23.566  27.405  1.00  0.00     0.074 A 
ATOM     47  C   UNL A   1      41.252  23.922  26.424  1.00  0.00     0.031 C 
ATOM     48  C   UNL A   1      46.377  28.989  25.909  1.00  0.00     0.029 A 
ATOM     49  C   UNL A   1      46.751  27.640  25.523  1.00  0.00     0.049 A 
ATOM     50  H   UNL A   1      45.814  25.929  26.412  1.00  0.00     0.167 HD
ATOM     51  C   UNL A   1      42.917  22.419  27.580  1.00  0.00     0.037 A 
ATOM     52  C   UNL A   1      47.970  27.186  24.987  1.00  0.00     0.037 A 
ATOM     53  C   UNL A   1      43.930  22.681  28.575  1.00  0.00     0.049 A 
ATOM     54  C   UNL A   1      48.148  25.818  25.543  1.00  0.00     0.074 A 
ATOM     55  C   UNL A   1      43.907  23.049  29.903  1.00  0.00     0.029 A 
ATOM     56  N   UNL A   1      45.062  23.217  28.026  1.00  0.00    -0.354 N 
ATOM     57  N   UNL A   1      48.382  25.638  26.814  1.00  0.00    -0.248 NA
ATOM     58  C   UNL A   1      47.369  24.801  24.841  1.00  0.00     0.031 C 
ATOM     59  C   UNL A   1      44.925  24.040  30.048  1.00  0.00     0.029 A 
ATOM     60  C   UNL A   1      45.664  24.099  28.872  1.00  0.00     0.049 A 
ATOM     61  H   UNL A   1      45.402  22.993  27.129  1.00  0.00     0.167 HD
ATOM     62  C   UNL A   1      47.355  24.799  27.204  1.00  0.00     0.074 A 
ATOM     63  C   UNL A   1      46.749  24.327  25.929  1.00  0.00     0.031 C 
ATOM     64  C   UNL A   1      46.813  24.864  28.463  1.00  0.00     0.037 A 
BRANCH  51  65
ATOM     65  C   UNL A   1      43.113  21.346  26.524  1.00  0.00     0.057 A 
ATOM     66  C   UNL A   1      42.634  20.056  26.817  1.00  0.00     0.134 A 
ATOM     67  C   UNL A   1      43.970  21.419  25.403  1.00  0.00     0.134 A 
ATOM     68  F   UNL A   1      41.843  19.848  27.881  1.00  0.00    -0.206 F 
ATOM     69  C   UNL A   1      42.997  18.924  26.077  1.00  0.00     0.040 A 
ATOM     70  C   UNL A   1      44.305  20.297  24.628  1.00  0.00     0.040 A 
ATOM     71  F   UNL A   1      44.596  22.547  25.048  1.00  0.00    -0.206 F 
ATOM     72  C   UNL A   1      43.831  19.041  24.976  1.00  0.00     0.006 A 
ENDBRANCH  51  65
BRANCH  52  73
ATOM     73  C   UNL A   1      48.700  27.498  23.665  1.00  0.00     0.057 A 
ATOM     74  C   UNL A   1      50.031  27.123  23.285  1.00  0.00     0.134 A 
ATOM     75  C   UNL A   1      47.908  27.898  22.586  1.00  0.00     0.134 A 
ATOM     76  F   UNL A   1      50.927  26.703  24.193  1.00  0.00    -0.206 F 
ATOM     77  C   UNL A   1      50.485  27.121  21.932  1.00  0.00     0.040 A 
ATOM     78  C   UNL A   1      48.337  27.874  21.245  1.00  0.00     0.040 A 
ATOM     79  F   UNL A   1      46.633  28.245  22.795  1.00  0.00    -0.206 F 
ATOM     80  C   UNL A   1      49.620  27.471  20.903  1.00  0.00     0.006 A 
ENDBRANCH  52  73
BRANCH  64  81
ATOM     81  C   UNL A   1      47.436  25.741  29.528  1.00  0.00     0.057 A 
ATOM     82  C   UNL A   1      48.747  25.656  30.037  1.00  0.00     0.134 A 
ATOM     83  C   UNL A   1      46.720  26.885  29.880  1.00  0.00     0.134 A 
ATOM     84  F   UNL A   1      49.592  24.702  29.629  1.00  0.00    -0.206 F 
ATOM     85  C   UNL A   1      49.275  26.619  30.917  1.00  0.00     0.040 A 
ATOM     86  C   UNL A   1      47.245  27.872  30.714  1.00  0.00     0.040 A 
ATOM     87  F   UNL A   1      45.516  27.109  29.332  1.00  0.00    -0.206 F 
ATOM     88  C   UNL A   1      48.513  27.730  31.264  1.00  0.00     0.006 A 
ENDBRANCH  64  81
ENDBRANCH  38  39
ENDBRANCH  31  33
ENDBRANCH  30  31
ENDBRANCH  29  30
ENDBRANCH   1  29
TORSDOF 14
ENDMDL
MODEL 2
REMARK VINA RESULT:     -12.7      3.835      6.123
REMARK SMILES Cn1c(=O)c2c(nc(Nc3cccc(Cl)c3Cl)n2CC(=O)OCCOC(=O)c2ccc(-c3c4nc(c(-c5c(F)cccc5F)c5ccc([nH]5)c(-c5c(F)cccc5F)c5nc(c(-c6c(F)cccc6F)c6ccc3[nH]6)C=C5)C=C4)cc2)n(C)c1=O
REMARK SMILES IDX 23 1 22 2 20 3 21 4 19 5 18 6 1 7 2 8 3 9 84 10 4 11 5 12
REMARK SMILES IDX 82 13 85 14 6 15 83 16 7 17 8 18 9 19 10 21 11 22 16 23
REMARK SMILES IDX 12 24 14 25 17 26 13 27 15 28 24 29 25 30 26 31 27 32 28 33
REMARK SMILES IDX 29 34 81 35 30 36 80 37 31 38 32 39 33 40 74 41 34 42 79 43
REMARK SMILES IDX 73 44 75 45 35 46 78 47 72 48 71 49 36 51 62 52 45 53 61 54
REMARK SMILES IDX 46 55 49 56 60 57 76 58 47 59 48 60 59 62 77 63 50 64 37 65
REMARK SMILES IDX 38 66 43 67 39 68 40 69 42 70 44 71 41 72 63 73 64 74 69 75
REMARK SMILES IDX 65 76 66 77 68 78 70 79 67 80 51 81 52 82 57 83 53 84 54 85
REMARK SMILES IDX 56 86 58 87 55 88
REMARK H PARENT 9 20 75 50 49 61
REMARK Flexibility Score: inf
ROOT
ATOM      1  C   UNL A   1      34.657  29.454  26.979  1.00  0.00     0.274 C 
ENDROOT
BRANCH   1   2
ATOM      2  O   UNL A   1      34.063  28.171  27.313  1.00  0.00    -0.461 OA
BRANCH   2   3
ATOM      3  C   UNL A   1      33.005  27.813  26.540  1.00  0.00     0.326 C 
ATOM      4  O   UNL A   1      31.845  27.800  26.960  1.00  0.00    -0.250 OA
BRANCH   3   5
ATOM      5  C   UNL A   1      33.300  27.431  25.110  1.00  0.00     0.248 C 
BRANCH   5   6
ATOM      6  N   UNL A   1      32.774  26.214  24.487  1.00  0.00    -0.293 N 
ATOM      7  C   UNL A   1      35.183  22.298  26.413  1.00  0.00     0.159 C 
ATOM      8  N   UNL A   1      34.309  22.974  25.471  1.00  0.00    -0.261 N 
ATOM      9  C   UNL A   1      34.460  24.339  25.204  1.00  0.00     0.282 A 
ATOM     10  C   UNL A   1      33.548  22.143  24.653  1.00  0.00     0.332 A 
ATOM     11  O   UNL A   1      35.518  24.940  25.320  1.00  0.00    -0.267 OA
ATOM     12  C   UNL A   1      33.299  24.926  24.597  1.00  0.00     0.154 A 
ATOM     13  N   UNL A   1      32.659  22.767  23.782  1.00  0.00    -0.279 N 
ATOM     14  O   UNL A   1      33.690  20.916  24.682  1.00  0.00    -0.247 OA
ATOM     15  C   UNL A   1      32.483  24.134  23.855  1.00  0.00     0.170 A 
ATOM     16  C   UNL A   1      31.931  21.975  22.821  1.00  0.00     0.157 C 
ATOM     17  N   UNL A   1      31.587  24.861  23.153  1.00  0.00    -0.194 NA
ATOM     18  C   UNL A   1      31.811  26.125  23.475  1.00  0.00     0.210 A 
BRANCH  18  19
ATOM     19  N   UNL A   1      31.124  27.120  22.860  1.00  0.00    -0.324 N 
ATOM     20  H   UNL A   1      31.659  27.630  22.209  1.00  0.00     0.170 HD
BRANCH  19  21
ATOM     21  C   UNL A   1      29.795  27.560  22.974  1.00  0.00     0.061 A 
ATOM     22  C   UNL A   1      28.867  26.654  23.512  1.00  0.00     0.028 A 
ATOM     23  C   UNL A   1      29.347  28.849  22.605  1.00  0.00     0.083 A 
ATOM     24  C   UNL A   1      27.578  27.063  23.845  1.00  0.00     0.004 A 
ATOM     25  C   UNL A   1      28.069  29.274  22.999  1.00  0.00     0.061 A 
ATOM     26  Cl  UNL A   1      30.418  29.926  21.758  1.00  0.00    -0.080 Cl
ATOM     27  C   UNL A   1      27.198  28.387  23.637  1.00  0.00     0.022 A 
ATOM     28  Cl  UNL A   1      27.539  30.912  22.820  1.00  0.00    -0.083 Cl
ENDBRANCH  19  21
ENDBRANCH  18  19
ENDBRANCH   5   6
ENDBRANCH   3   5
ENDBRANCH   2   3
ENDBRANCH   1   2
BRANCH   1  29
ATOM     29  C   UNL A   1      35.788  29.793  27.950  1.00  0.00     0.275 C 
BRANCH  29  30
ATOM     30  O   UNL A   1      36.996  29.079  27.626  1.00  0.00    -0.458 OA
BRANCH  30  31
ATOM     31  C   UNL A   1      37.850  28.985  28.665  1.00  0.00     0.338 C 
ATOM     32  O   UNL A   1      37.512  29.066  29.855  1.00  0.00    -0.246 OA
BRANCH  31  33
ATOM     33  C   UNL A   1      39.232  29.182  28.281  1.00  0.00     0.060 A 
ATOM     34  C   UNL A   1      39.630  29.389  26.957  1.00  0.00     0.016 A 
ATOM     35  C   UNL A   1      40.092  28.525  29.145  1.00  0.00     0.016 A 
ATOM     36  C   UNL A   1      40.687  28.575  26.486  1.00  0.00     0.010 A 
ATOM     37  C   UNL A   1      41.343  28.226  28.694  1.00  0.00     0.010 A 
ATOM     38  C   UNL A   1      41.408  27.741  27.402  1.00  0.00    -0.014 A 
BRANCH  38  39
ATOM     39  C   UNL A   1      42.712  27.019  27.122  1.00  0.00     0.031 A 
ATOM     40  C   UNL A   1      42.197  25.537  27.050  1.00  0.00     0.074 A 
ATOM     41  C   UNL A   1      44.008  27.556  26.872  1.00  0.00     0.049 A 
ATOM     42  N   UNL A   1      42.252  24.710  28.050  1.00  0.00    -0.248 NA
ATOM     43  C   UNL A   1      41.146  25.029  26.089  1.00  0.00     0.031 C 
ATOM     44  C   UNL A   1      44.622  28.950  26.875  1.00  0.00     0.029 A 
ATOM     45  N   UNL A   1      45.221  26.883  26.569  1.00  0.00    -0.354 N 
ATOM     46  C   UNL A   1      41.738  23.493  27.593  1.00  0.00     0.074 A 
ATOM     47  C   UNL A   1      40.834  23.812  26.551  1.00  0.00     0.031 C 
ATOM     48  C   UNL A   1      45.861  28.994  26.268  1.00  0.00     0.029 A 
ATOM     49  C   UNL A   1      46.290  27.650  25.926  1.00  0.00     0.049 A 
ATOM     50  H   UNL A   1      45.341  25.929  26.784  1.00  0.00     0.167 HD
ATOM     51  C   UNL A   1      42.461  22.367  27.829  1.00  0.00     0.037 A 
ATOM     52  C   UNL A   1      47.549  27.218  25.472  1.00  0.00     0.037 A 
ATOM     53  C   UNL A   1      43.405  22.668  28.879  1.00  0.00     0.049 A 
ATOM     54  C   UNL A   1      47.725  25.863  26.059  1.00  0.00     0.074 A 
ATOM     55  C   UNL A   1      43.293  23.054  30.198  1.00  0.00     0.029 A 
ATOM     56  N   UNL A   1      44.556  23.223  28.392  1.00  0.00    -0.354 N 
ATOM     57  N   UNL A   1      47.886  25.707  27.344  1.00  0.00    -0.248 NA
ATOM     58  C   UNL A   1      47.015  24.817  25.327  1.00  0.00     0.031 C 
ATOM     59  C   UNL A   1      44.277  24.071  30.389  1.00  0.00     0.029 A 
ATOM     60  C   UNL A   1      45.085  24.132  29.259  1.00  0.00     0.049 A 
ATOM     61  H   UNL A   1      44.954  22.995  27.521  1.00  0.00     0.167 HD
ATOM     62  C   UNL A   1      46.856  24.848  27.685  1.00  0.00     0.074 A 
ATOM     63  C   UNL A   1      46.341  24.344  26.383  1.00  0.00     0.031 C 
ATOM     64  C   UNL A   1      46.238  24.918  28.907  1.00  0.00     0.037 A 
BRANCH  51  65
ATOM     65  C   UNL A   1      42.746  21.284  26.804  1.00  0.00     0.057 A 
ATOM     66  C   UNL A   1      42.257  19.992  27.075  1.00  0.00     0.134 A 
ATOM     67  C   UNL A   1      43.685  21.352  25.751  1.00  0.00     0.134 A 
ATOM     68  F   UNL A   1      41.389  19.789  28.078  1.00  0.00    -0.206 F 
ATOM     69  C   UNL A   1      42.685  18.856  26.379  1.00  0.00     0.040 A 
ATOM     70  C   UNL A   1      44.088  20.225  25.017  1.00  0.00     0.040 A 
ATOM     71  F   UNL A   1      44.326  22.482  25.431  1.00  0.00    -0.206 F 
ATOM     72  C   UNL A   1      43.600  18.968  25.342  1.00  0.00     0.006 A 
ENDBRANCH  51  65
BRANCH  52  73
ATOM     73  C   UNL A   1      48.351  27.529  24.192  1.00  0.00     0.057 A 
ATOM     74  C   UNL A   1      49.709  27.179  23.898  1.00  0.00     0.134 A 
ATOM     75  C   UNL A   1      47.617  27.897  23.062  1.00  0.00     0.134 A 
ATOM     76  F   UNL A   1      50.558  26.790  24.864  1.00  0.00    -0.206 F 
ATOM     77  C   UNL A   1      50.244  27.169  22.575  1.00  0.00     0.040 A 
ATOM     78  C   UNL A   1      48.126  27.865  21.749  1.00  0.00     0.040 A 
ATOM     79  F   UNL A   1      46.325  28.219  23.189  1.00  0.00    -0.206 F 
ATOM     80  C   UNL A   1      49.436  27.486  21.491  1.00  0.00     0.006 A 
ENDBRANCH  52  73
BRANCH  64  81
ATOM     81  C   UNL A   1      46.774  25.825  29.995  1.00  0.00     0.057 A 
ATOM     82  C   UNL A   1      48.065  25.803  30.558  1.00  0.00     0.134 A 
ATOM     83  C   UNL A   1      45.991  26.935  30.313  1.00  0.00     0.134 A 
ATOM     84  F   UNL A   1      48.970  24.890  30.188  1.00  0.00    -0.206 F 
ATOM     85  C   UNL A   1      48.510  26.791  31.456  1.00  0.00     0.040 A 
ATOM     86  C   UNL A   1      46.433  27.947  31.165  1.00  0.00     0.040 A 
ATOM     87  F   UNL A   1      44.801  27.101  29.714  1.00  0.00    -0.206 F 
ATOM     88  C   UNL A   1      47.684  27.866  31.767  1.00  0.00     0.006 A 
ENDBRANCH  64  81
ENDBRANCH  38  39
ENDBRANCH  31  33
ENDBRANCH  30  31
ENDBRANCH  29  30
ENDBRANCH   1  29
TORSDOF 14
ENDMDL
MODEL 3
REMARK VINA RESULT:     -12.6      9.106     12.337
REMARK SMILES Cn1c(=O)c2c(nc(Nc3cccc(Cl)c3Cl)n2CC(=O)OCCOC(=O)c2ccc(-c3c4nc(c(-c5c(F)cccc5F)c5ccc([nH]5)c(-c5c(F)cccc5F)c5nc(c(-c6c(F)cccc6F)c6ccc3[nH]6)C=C5)C=C4)cc2)n(C)c1=O
REMARK SMILES IDX 23 1 22 2 20 3 21 4 19 5 18 6 1 7 2 8 3 9 84 10 4 11 5 12
REMARK SMILES IDX 82 13 85 14 6 15 83 16 7 17 8 18 9 19 10 21 11 22 16 23
REMARK SMILES IDX 12 24 14 25 17 26 13 27 15 28 24 29 25 30 26 31 27 32 28 33
REMARK SMILES IDX 29 34 81 35 30 36 80 37 31 38 32 39 33 40 74 41 34 42 79 43
REMARK SMILES IDX 73 44 75 45 35 46 78 47 72 48 71 49 36 51 62 52 45 53 61 54
REMARK SMILES IDX 46 55 49 56 60 57 76 58 47 59 48 60 59 62 77 63 50 64 37 65
REMARK SMILES IDX 38 66 43 67 39 68 40 69 42 70 44 71 41 72 63 73 64 74 69 75
REMARK SMILES IDX 65 76 66 77 68 78 70 79 67 80 51 81 52 82 57 83 53 84 54 85
REMARK SMILES IDX 56 86 58 87 55 88
REMARK H PARENT 9 20 75 50 49 61
REMARK Flexibility Score: inf
ROOT
ATOM      1  C   UNL A   1      38.399  33.039  32.398  1.00  0.00     0.274 C 
ENDROOT
BRANCH   1   2
ATOM      2  O   UNL A   1      37.613  32.113  31.602  1.00  0.00    -0.461 OA
BRANCH   2   3
ATOM      3  C   UNL A   1      36.342  31.920  32.039  1.00  0.00     0.326 C 
ATOM      4  O   UNL A   1      36.054  31.828  33.235  1.00  0.00    -0.250 OA
BRANCH   3   5
ATOM      5  C   UNL A   1      35.261  31.830  30.988  1.00  0.00     0.248 C 
BRANCH   5   6
ATOM      6  N   UNL A   1      34.770  32.996  30.252  1.00  0.00    -0.293 N 
ATOM      7  C   UNL A   1      33.888  36.658  33.518  1.00  0.00     0.159 C 
ATOM      8  N   UNL A   1      33.829  36.007  32.222  1.00  0.00    -0.261 N 
ATOM      9  C   UNL A   1      33.882  34.613  32.116  1.00  0.00     0.282 A 
ATOM     10  C   UNL A   1      33.418  36.811  31.161  1.00  0.00     0.332 A 
ATOM     11  O   UNL A   1      33.517  33.851  33.000  1.00  0.00    -0.267 OA
ATOM     12  C   UNL A   1      34.225  34.160  30.797  1.00  0.00     0.154 A 
ATOM     13  N   UNL A   1      33.410  36.224  29.899  1.00  0.00    -0.279 N 
ATOM     14  O   UNL A   1      33.047  37.974  31.350  1.00  0.00    -0.247 OA
ATOM     15  C   UNL A   1      33.916  34.951  29.737  1.00  0.00     0.170 A 
ATOM     16  C   UNL A   1      32.879  36.960  28.776  1.00  0.00     0.157 C 
ATOM     17  N   UNL A   1      34.069  34.295  28.566  1.00  0.00    -0.194 NA
ATOM     18  C   UNL A   1      34.512  33.089  28.879  1.00  0.00     0.210 A 
BRANCH  18  19
ATOM     19  N   UNL A   1      34.681  32.151  27.914  1.00  0.00    -0.324 N 
ATOM     20  H   UNL A   1      35.545  32.212  27.445  1.00  0.00     0.170 HD
BRANCH  19  21
ATOM     21  C   UNL A   1      33.859  31.107  27.458  1.00  0.00     0.061 A 
ATOM     22  C   UNL A   1      32.539  31.439  27.114  1.00  0.00     0.028 A 
ATOM     23  C   UNL A   1      34.280  29.766  27.308  1.00  0.00     0.083 A 
ATOM     24  C   UNL A   1      31.714  30.519  26.470  1.00  0.00     0.004 A 
ATOM     25  C   UNL A   1      33.470  28.862  26.604  1.00  0.00     0.061 A 
ATOM     26  Cl  UNL A   1      35.839  29.279  27.906  1.00  0.00    -0.080 Cl
ATOM     27  C   UNL A   1      32.199  29.248  26.169  1.00  0.00     0.022 A 
ATOM     28  Cl  UNL A   1      34.016  27.284  26.150  1.00  0.00    -0.083 Cl
ENDBRANCH  19  21
ENDBRANCH  18  19
ENDBRANCH   5   6
ENDBRANCH   3   5
ENDBRANCH   2   3
ENDBRANCH   1   2
BRANCH   1  29
ATOM     29  C   UNL A   1      38.500  34.397  31.703  1.00  0.00     0.275 C 
BRANCH  29  30
ATOM     30  O   UNL A   1      39.769  34.562  31.044  1.00  0.00    -0.458 OA
BRANCH  30  31
ATOM     31  C   UNL A   1      39.675  34.543  29.701  1.00  0.00     0.338 C 
ATOM     32  O   UNL A   1      38.741  34.019  29.074  1.00  0.00    -0.246 OA
BRANCH  31  33
ATOM     33  C   UNL A   1      40.933  34.823  29.040  1.00  0.00     0.060 A 
ATOM     34  C   UNL A   1      42.134  34.991  29.736  1.00  0.00     0.016 A 
ATOM     35  C   UNL A   1      40.737  35.522  27.861  1.00  0.00     0.016 A 
ATOM     36  C   UNL A   1      42.887  36.145  29.416  1.00  0.00     0.010 A 
ATOM     37  C   UNL A   1      41.782  36.243  27.366  1.00  0.00     0.010 A 
ATOM     38  C   UNL A   1      42.503  36.961  28.302  1.00  0.00    -0.014 A 
BRANCH  38  39
ATOM     39  C   UNL A   1      43.331  38.063  27.669  1.00  0.00     0.031 A 
ATOM     40  C   UNL A   1      44.738  37.367  27.636  1.00  0.00     0.074 A 
ATOM     41  C   UNL A   1      42.913  39.320  27.142  1.00  0.00     0.049 A 
ATOM     42  N   UNL A   1      45.651  37.554  28.541  1.00  0.00    -0.248 NA
ATOM     43  C   UNL A   1      45.046  36.065  26.933  1.00  0.00     0.031 C 
ATOM     44  C   UNL A   1      41.597  40.084  27.079  1.00  0.00     0.029 A 
ATOM     45  N   UNL A   1      43.681  40.335  26.512  1.00  0.00    -0.354 N 
ATOM     46  C   UNL A   1      46.762  36.801  28.152  1.00  0.00     0.074 A 
ATOM     47  C   UNL A   1      46.260  35.723  27.383  1.00  0.00     0.031 C 
ATOM     48  C   UNL A   1      41.630  41.140  26.191  1.00  0.00     0.029 A 
ATOM     49  C   UNL A   1      42.977  41.307  25.674  1.00  0.00     0.049 A 
ATOM     50  H   UNL A   1      44.657  40.383  26.634  1.00  0.00     0.167 HD
ATOM     51  C   UNL A   1      47.975  37.414  28.135  1.00  0.00     0.037 A 
ATOM     52  C   UNL A   1      43.497  42.361  24.901  1.00  0.00     0.037 A 
ATOM     53  C   UNL A   1      47.869  38.609  28.939  1.00  0.00     0.049 A 
ATOM     54  C   UNL A   1      44.910  42.502  25.345  1.00  0.00     0.074 A 
ATOM     55  C   UNL A   1      47.591  38.860  30.266  1.00  0.00     0.029 A 
ATOM     56  N   UNL A   1      47.397  39.672  28.219  1.00  0.00    -0.354 N 
ATOM     57  N   UNL A   1      45.195  42.940  26.540  1.00  0.00    -0.248 NA
ATOM     58  C   UNL A   1      45.807  41.515  24.747  1.00  0.00     0.031 C 
ATOM     59  C   UNL A   1      46.703  39.978  30.271  1.00  0.00     0.029 A 
ATOM     60  C   UNL A   1      46.628  40.498  28.983  1.00  0.00     0.049 A 
ATOM     61  H   UNL A   1      47.588  39.822  27.265  1.00  0.00     0.167 HD
ATOM     62  C   UNL A   1      45.966  41.923  27.069  1.00  0.00     0.074 A 
ATOM     63  C   UNL A   1      46.298  41.057  25.906  1.00  0.00     0.031 C 
ATOM     64  C   UNL A   1      45.940  41.624  28.408  1.00  0.00     0.037 A 
BRANCH  51  65
ATOM     65  C   UNL A   1      48.988  37.313  27.008  1.00  0.00     0.057 A 
ATOM     66  C   UNL A   1      48.526  37.556  25.702  1.00  0.00     0.134 A 
ATOM     67  C   UNL A   1      50.271  36.727  27.084  1.00  0.00     0.134 A 
ATOM     68  F   UNL A   1      47.306  38.074  25.495  1.00  0.00    -0.206 F 
ATOM     69  C   UNL A   1      49.264  37.219  24.561  1.00  0.00     0.040 A 
ATOM     70  C   UNL A   1      51.037  36.426  25.947  1.00  0.00     0.040 A 
ATOM     71  F   UNL A   1      50.816  36.335  28.241  1.00  0.00    -0.206 F 
ATOM     72  C   UNL A   1      50.526  36.656  24.679  1.00  0.00     0.006 A 
ENDBRANCH  51  65
BRANCH  52  73
ATOM     73  C   UNL A   1      43.161  42.870  23.485  1.00  0.00     0.057 A 
ATOM     74  C   UNL A   1      43.878  43.833  22.702  1.00  0.00     0.134 A 
ATOM     75  C   UNL A   1      42.267  42.102  22.734  1.00  0.00     0.134 A 
ATOM     76  F   UNL A   1      44.787  44.652  23.259  1.00  0.00    -0.206 F 
ATOM     77  C   UNL A   1      43.723  43.964  21.290  1.00  0.00     0.040 A 
ATOM     78  C   UNL A   1      42.125  42.203  21.337  1.00  0.00     0.040 A 
ATOM     79  F   UNL A   1      41.554  41.143  23.335  1.00  0.00    -0.206 F 
ATOM     80  C   UNL A   1      42.861  43.121  20.600  1.00  0.00     0.006 A 
ENDBRANCH  52  73
BRANCH  64  81
ATOM     81  C   UNL A   1      45.193  42.509  29.384  1.00  0.00     0.057 A 
ATOM     82  C   UNL A   1      45.415  43.879  29.627  1.00  0.00     0.134 A 
ATOM     83  C   UNL A   1      44.027  41.975  29.932  1.00  0.00     0.134 A 
ATOM     84  F   UNL A   1      46.397  44.545  29.010  1.00  0.00    -0.206 F 
ATOM     85  C   UNL A   1      44.562  44.644  30.444  1.00  0.00     0.040 A 
ATOM     86  C   UNL A   1      43.147  42.731  30.706  1.00  0.00     0.040 A 
ATOM     87  F   UNL A   1      43.672  40.715  29.638  1.00  0.00    -0.206 F 
ATOM     88  C   UNL A   1      43.425  44.062  30.994  1.00  0.00     0.006 A 
ENDBRANCH  64  81
ENDBRANCH  38  39
ENDBRANCH  31  33
ENDBRANCH  30  31
ENDBRANCH  29  30
ENDBRANCH   1  29
TORSDOF 14
ENDMDL
