MODEL 1
REMARK VINA RESULT:     -11.2      0.000      0.000
REMARK SMILES O=C(Cc1ccccc1Nc1c(Cl)cccc1C(F)(F)F)OCCOC(=O)c1ccc(-c2c3nc(c(-c4c(F)cccc4F)c4ccc([nH]4)c(-c4c(F)cccc4F)c4nc(c(-c5c(F)cccc5F)c5ccc2[nH]5)C=C4)C=C3)cc1
REMARK SMILES IDX 23 1 22 2 2 3 1 4 3 5 4 6 5 7 9 8 6 9 8 10 7 11 10 12 11 14
REMARK SMILES IDX 12 15 17 16 13 17 14 18 16 19 15 20 18 21 19 22 20 23 21 24
REMARK SMILES IDX 24 25 25 26 26 27 27 28 28 29 29 30 81 31 30 32 80 33 31 34
REMARK SMILES IDX 32 35 33 36 74 37 34 38 79 39 73 40 75 41 35 42 78 43 72 44
REMARK SMILES IDX 71 45 36 47 62 48 45 49 61 50 46 51 49 52 60 53 76 54 47 55
REMARK SMILES IDX 48 56 59 58 77 59 50 60 37 61 38 62 43 63 39 64 40 65 42 66
REMARK SMILES IDX 44 67 41 68 63 69 64 70 69 71 65 72 66 73 68 74 70 75 67 76
REMARK SMILES IDX 51 77 52 78 57 79 53 80 54 81 56 82 58 83 55 84
REMARK H PARENT 10 13 75 46 49 57
REMARK Flexibility Score: inf
ROOT
ATOM      1  C   UNL A   1      37.813  19.691  24.935  1.00  0.00     0.274 C 
ENDROOT
BRANCH   1   2
ATOM      2  O   UNL A   1      36.692  20.579  25.109  1.00  0.00    -0.462 OA
BRANCH   2   3
ATOM      3  C   UNL A   1      36.733  21.911  24.863  1.00  0.00     0.310 C 
ATOM      4  O   UNL A   1      37.055  22.324  23.751  1.00  0.00    -0.252 OA
BRANCH   3   5
ATOM      5  C   UNL A   1      36.448  22.865  26.002  1.00  0.00     0.160 C 
BRANCH   5   6
ATOM      6  C   UNL A   1      34.989  22.968  26.371  1.00  0.00    -0.013 A 
ATOM      7  C   UNL A   1      34.465  22.056  27.310  1.00  0.00     0.006 A 
ATOM      8  C   UNL A   1      34.161  23.993  25.879  1.00  0.00     0.042 A 
ATOM      9  C   UNL A   1      33.148  22.149  27.757  1.00  0.00     0.000 A 
ATOM     10  C   UNL A   1      32.825  24.041  26.318  1.00  0.00     0.026 A 
ATOM     11  C   UNL A   1      32.323  23.141  27.255  1.00  0.00     0.002 A 
BRANCH   8  12
ATOM     12  N   UNL A   1      34.674  25.005  25.028  1.00  0.00    -0.354 N 
ATOM     13  H   UNL A   1      35.651  25.117  25.006  1.00  0.00     0.167 HD
BRANCH  12  14
ATOM     14  C   UNL A   1      33.911  25.869  24.207  1.00  0.00     0.070 A 
ATOM     15  C   UNL A   1      33.735  27.209  24.610  1.00  0.00     0.065 A 
ATOM     16  C   UNL A   1      33.495  25.485  22.916  1.00  0.00     0.080 A 
ATOM     17  Cl  UNL A   1      34.067  27.689  26.239  1.00  0.00    -0.082 Cl
ATOM     18  C   UNL A   1      33.310  28.179  23.706  1.00  0.00     0.023 A 
ATOM     19  C   UNL A   1      33.133  26.485  21.994  1.00  0.00     0.015 A 
ATOM     20  C   UNL A   1      33.074  27.823  22.382  1.00  0.00     0.002 A 
BRANCH  16  21
ATOM     21  C   UNL A   1      33.350  24.039  22.496  1.00  0.00     0.418 C 
ATOM     22  F   UNL A   1      33.012  23.944  21.172  1.00  0.00    -0.166 F 
ATOM     23  F   UNL A   1      34.506  23.330  22.615  1.00  0.00    -0.166 F 
ATOM     24  F   UNL A   1      32.386  23.327  23.144  1.00  0.00    -0.166 F 
ENDBRANCH  16  21
ENDBRANCH  12  14
ENDBRANCH   8  12
ENDBRANCH   5   6
ENDBRANCH   3   5
ENDBRANCH   2   3
ENDBRANCH   1   2
BRANCH   1  25
ATOM     25  C   UNL A   1      39.123  20.289  25.454  1.00  0.00     0.275 C 
BRANCH  25  26
ATOM     26  O   UNL A   1      40.039  19.280  25.918  1.00  0.00    -0.458 OA
BRANCH  26  27
ATOM     27  C   UNL A   1      41.357  19.607  25.842  1.00  0.00     0.338 C 
ATOM     28  O   UNL A   1      42.219  18.999  25.240  1.00  0.00    -0.246 OA
BRANCH  27  29
ATOM     29  C   UNL A   1      41.596  20.917  26.496  1.00  0.00     0.060 A 
ATOM     30  C   UNL A   1      42.001  21.992  25.695  1.00  0.00     0.016 A 
ATOM     31  C   UNL A   1      41.450  21.095  27.876  1.00  0.00     0.016 A 
ATOM     32  C   UNL A   1      42.262  23.242  26.271  1.00  0.00     0.010 A 
ATOM     33  C   UNL A   1      41.732  22.341  28.453  1.00  0.00     0.010 A 
ATOM     34  C   UNL A   1      42.149  23.422  27.658  1.00  0.00    -0.014 A 
BRANCH  34  35
ATOM     35  C   UNL A   1      42.498  24.730  28.273  1.00  0.00     0.031 A 
ATOM     36  C   UNL A   1      41.438  25.746  28.564  1.00  0.00     0.074 A 
ATOM     37  C   UNL A   1      43.780  25.057  28.517  1.00  0.00     0.049 A 
ATOM     38  N   UNL A   1      41.568  26.940  29.087  1.00  0.00    -0.248 NA
ATOM     39  C   UNL A   1      40.069  25.404  28.161  1.00  0.00     0.031 C 
ATOM     40  C   UNL A   1      44.927  24.252  28.128  1.00  0.00     0.029 A 
ATOM     41  N   UNL A   1      44.333  26.160  29.128  1.00  0.00    -0.354 N 
ATOM     42  C   UNL A   1      40.312  27.521  29.017  1.00  0.00     0.074 A 
ATOM     43  C   UNL A   1      39.426  26.533  28.431  1.00  0.00     0.031 C 
ATOM     44  C   UNL A   1      46.043  24.873  28.541  1.00  0.00     0.029 A 
ATOM     45  C   UNL A   1      45.700  26.089  29.254  1.00  0.00     0.049 A 
ATOM     46  H   UNL A   1      43.801  26.926  29.443  1.00  0.00     0.167 HD
ATOM     47  C   UNL A   1      39.942  28.773  29.373  1.00  0.00     0.037 A 
ATOM     48  C   UNL A   1      46.582  26.894  29.877  1.00  0.00     0.037 A 
ATOM     49  C   UNL A   1      40.813  29.764  29.956  1.00  0.00     0.049 A 
ATOM     50  C   UNL A   1      46.106  28.197  30.446  1.00  0.00     0.074 A 
ATOM     51  C   UNL A   1      40.490  31.038  30.394  1.00  0.00     0.029 A 
ATOM     52  N   UNL A   1      42.171  29.605  30.172  1.00  0.00    -0.354 N 
ATOM     53  N   UNL A   1      44.898  28.701  30.445  1.00  0.00    -0.248 NA
ATOM     54  C   UNL A   1      47.124  29.072  31.052  1.00  0.00     0.031 C 
ATOM     55  C   UNL A   1      41.659  31.665  30.837  1.00  0.00     0.029 A 
ATOM     56  C   UNL A   1      42.703  30.765  30.718  1.00  0.00     0.049 A 
ATOM     57  H   UNL A   1      42.684  28.789  29.968  1.00  0.00     0.167 HD
ATOM     58  C   UNL A   1      45.023  29.970  30.985  1.00  0.00     0.074 A 
ATOM     59  C   UNL A   1      46.402  30.129  31.392  1.00  0.00     0.031 C 
ATOM     60  C   UNL A   1      44.084  30.939  31.081  1.00  0.00     0.037 A 
BRANCH  47  61
ATOM     61  C   UNL A   1      38.526  29.173  29.097  1.00  0.00     0.057 A 
ATOM     62  C   UNL A   1      37.552  29.188  30.101  1.00  0.00     0.134 A 
ATOM     63  C   UNL A   1      38.153  29.606  27.818  1.00  0.00     0.134 A 
ATOM     64  F   UNL A   1      37.848  28.771  31.341  1.00  0.00    -0.206 F 
ATOM     65  C   UNL A   1      36.248  29.611  29.839  1.00  0.00     0.040 A 
ATOM     66  C   UNL A   1      36.859  30.051  27.550  1.00  0.00     0.040 A 
ATOM     67  F   UNL A   1      39.044  29.615  26.814  1.00  0.00    -0.206 F 
ATOM     68  C   UNL A   1      35.903  30.053  28.563  1.00  0.00     0.006 A 
ENDBRANCH  47  61
BRANCH  48  69
ATOM     69  C   UNL A   1      48.016  26.524  30.016  1.00  0.00     0.057 A 
ATOM     70  C   UNL A   1      48.932  26.860  29.007  1.00  0.00     0.134 A 
ATOM     71  C   UNL A   1      48.493  25.765  31.089  1.00  0.00     0.134 A 
ATOM     72  F   UNL A   1      48.532  27.573  27.944  1.00  0.00    -0.206 F 
ATOM     73  C   UNL A   1      50.258  26.426  29.044  1.00  0.00     0.040 A 
ATOM     74  C   UNL A   1      49.825  25.351  31.155  1.00  0.00     0.040 A 
ATOM     75  F   UNL A   1      47.671  25.414  32.088  1.00  0.00    -0.206 F 
ATOM     76  C   UNL A   1      50.708  25.669  30.123  1.00  0.00     0.006 A 
ENDBRANCH  48  69
BRANCH  60  77
ATOM     77  C   UNL A   1      44.542  32.273  31.584  1.00  0.00     0.057 A 
ATOM     78  C   UNL A   1      44.501  32.585  32.951  1.00  0.00     0.134 A 
ATOM     79  C   UNL A   1      45.027  33.252  30.709  1.00  0.00     0.134 A 
ATOM     80  F   UNL A   1      44.028  31.697  33.837  1.00  0.00    -0.206 F 
ATOM     81  C   UNL A   1      44.905  33.833  33.427  1.00  0.00     0.040 A 
ATOM     82  C   UNL A   1      45.454  34.495  31.177  1.00  0.00     0.040 A 
ATOM     83  F   UNL A   1      45.089  33.016  29.390  1.00  0.00    -0.206 F 
ATOM     84  C   UNL A   1      45.389  34.791  32.538  1.00  0.00     0.006 A 
ENDBRANCH  60  77
ENDBRANCH  34  35
ENDBRANCH  27  29
ENDBRANCH  26  27
ENDBRANCH  25  26
ENDBRANCH   1  25
TORSDOF 15
ENDMDL
MODEL 2
REMARK VINA RESULT:     -11.1      3.755      8.574
REMARK SMILES O=C(Cc1ccccc1Nc1c(Cl)cccc1C(F)(F)F)OCCOC(=O)c1ccc(-c2c3nc(c(-c4c(F)cccc4F)c4ccc([nH]4)c(-c4c(F)cccc4F)c4nc(c(-c5c(F)cccc5F)c5ccc2[nH]5)C=C4)C=C3)cc1
REMARK SMILES IDX 23 1 22 2 2 3 1 4 3 5 4 6 5 7 9 8 6 9 8 10 7 11 10 12 11 14
REMARK SMILES IDX 12 15 17 16 13 17 14 18 16 19 15 20 18 21 19 22 20 23 21 24
REMARK SMILES IDX 24 25 25 26 26 27 27 28 28 29 29 30 81 31 30 32 80 33 31 34
REMARK SMILES IDX 32 35 33 36 74 37 34 38 79 39 73 40 75 41 35 42 78 43 72 44
REMARK SMILES IDX 71 45 36 47 62 48 45 49 61 50 46 51 49 52 60 53 76 54 47 55
REMARK SMILES IDX 48 56 59 58 77 59 50 60 37 61 38 62 43 63 39 64 40 65 42 66
REMARK SMILES IDX 44 67 41 68 63 69 64 70 69 71 65 72 66 73 68 74 70 75 67 76
REMARK SMILES IDX 51 77 52 78 57 79 53 80 54 81 56 82 58 83 55 84
REMARK H PARENT 10 13 75 46 49 57
REMARK Flexibility Score: inf
ROOT
ATOM      1  C   UNL A   1      31.443  31.937  26.644  1.00  0.00     0.274 C 
ENDROOT
BRANCH   1   2
ATOM      2  O   UNL A   1      31.859  30.775  25.900  1.00  0.00    -0.462 OA
BRANCH   2   3
ATOM      3  C   UNL A   1      32.342  29.643  26.467  1.00  0.00     0.310 C 
ATOM      4  O   UNL A   1      31.733  29.107  27.391  1.00  0.00    -0.252 OA
BRANCH   3   5
ATOM      5  C   UNL A   1      33.674  29.106  25.988  1.00  0.00     0.160 C 
BRANCH   5   6
ATOM      6  C   UNL A   1      33.591  28.298  24.717  1.00  0.00    -0.013 A 
ATOM      7  C   UNL A   1      33.646  28.977  23.482  1.00  0.00     0.006 A 
ATOM      8  C   UNL A   1      33.552  26.892  24.724  1.00  0.00     0.042 A 
ATOM      9  C   UNL A   1      33.660  28.284  22.273  1.00  0.00     0.000 A 
ATOM     10  C   UNL A   1      33.529  26.219  23.487  1.00  0.00     0.026 A 
ATOM     11  C   UNL A   1      33.595  26.901  22.275  1.00  0.00     0.002 A 
BRANCH   8  12
ATOM     12  N   UNL A   1      33.618  26.162  25.937  1.00  0.00    -0.354 N 
ATOM     13  H   UNL A   1      33.913  26.653  26.737  1.00  0.00     0.167 HD
BRANCH  12  14
ATOM     14  C   UNL A   1      33.300  24.794  26.104  1.00  0.00     0.070 A 
ATOM     15  C   UNL A   1      34.352  23.855  26.167  1.00  0.00     0.065 A 
ATOM     16  C   UNL A   1      31.990  24.371  26.405  1.00  0.00     0.080 A 
ATOM     17  Cl  UNL A   1      35.943  24.279  25.640  1.00  0.00    -0.082 Cl
ATOM     18  C   UNL A   1      34.138  22.574  26.672  1.00  0.00     0.023 A 
ATOM     19  C   UNL A   1      31.802  23.099  26.977  1.00  0.00     0.015 A 
ATOM     20  C   UNL A   1      32.875  22.224  27.137  1.00  0.00     0.002 A 
BRANCH  16  21
ATOM     21  C   UNL A   1      30.765  25.195  26.076  1.00  0.00     0.418 C 
ATOM     22  F   UNL A   1      30.605  25.315  24.721  1.00  0.00    -0.166 F 
ATOM     23  F   UNL A   1      29.608  24.630  26.518  1.00  0.00    -0.166 F 
ATOM     24  F   UNL A   1      30.773  26.479  26.531  1.00  0.00    -0.166 F 
ENDBRANCH  16  21
ENDBRANCH  12  14
ENDBRANCH   8  12
ENDBRANCH   5   6
ENDBRANCH   3   5
ENDBRANCH   2   3
ENDBRANCH   1   2
BRANCH   1  25
ATOM     25  C   UNL A   1      32.539  32.462  27.575  1.00  0.00     0.275 C 
BRANCH  25  26
ATOM     26  O   UNL A   1      32.638  33.899  27.548  1.00  0.00    -0.458 OA
BRANCH  26  27
ATOM     27  C   UNL A   1      33.038  34.479  28.711  1.00  0.00     0.338 C 
ATOM     28  O   UNL A   1      32.402  35.266  29.382  1.00  0.00    -0.246 OA
BRANCH  27  29
ATOM     29  C   UNL A   1      34.339  33.912  29.143  1.00  0.00     0.060 A 
ATOM     30  C   UNL A   1      35.462  34.149  28.341  1.00  0.00     0.016 A 
ATOM     31  C   UNL A   1      34.463  33.138  30.302  1.00  0.00     0.016 A 
ATOM     32  C   UNL A   1      36.707  33.613  28.694  1.00  0.00     0.010 A 
ATOM     33  C   UNL A   1      35.706  32.586  30.643  1.00  0.00     0.010 A 
ATOM     34  C   UNL A   1      36.836  32.810  29.838  1.00  0.00    -0.014 A 
BRANCH  34  35
ATOM     35  C   UNL A   1      38.143  32.183  30.168  1.00  0.00     0.031 A 
ATOM     36  C   UNL A   1      39.076  32.829  31.145  1.00  0.00     0.074 A 
ATOM     37  C   UNL A   1      38.547  31.061  29.546  1.00  0.00     0.049 A 
ATOM     38  N   UNL A   1      40.258  32.426  31.539  1.00  0.00    -0.248 NA
ATOM     39  C   UNL A   1      38.657  34.121  31.702  1.00  0.00     0.031 C 
ATOM     40  C   UNL A   1      37.833  30.420  28.453  1.00  0.00     0.029 A 
ATOM     41  N   UNL A   1      39.664  30.277  29.727  1.00  0.00    -0.354 N 
ATOM     42  C   UNL A   1      40.755  33.442  32.339  1.00  0.00     0.074 A 
ATOM     43  C   UNL A   1      39.730  34.466  32.401  1.00  0.00     0.031 C 
ATOM     44  C   UNL A   1      38.514  29.322  28.087  1.00  0.00     0.029 A 
ATOM     45  C   UNL A   1      39.680  29.155  28.934  1.00  0.00     0.049 A 
ATOM     46  H   UNL A   1      40.381  30.498  30.364  1.00  0.00     0.167 HD
ATOM     47  C   UNL A   1      41.968  33.527  32.935  1.00  0.00     0.037 A 
ATOM     48  C   UNL A   1      40.521  28.103  28.891  1.00  0.00     0.037 A 
ATOM     49  C   UNL A   1      42.995  32.516  32.881  1.00  0.00     0.049 A 
ATOM     50  C   UNL A   1      41.770  28.133  29.719  1.00  0.00     0.074 A 
ATOM     51  C   UNL A   1      44.230  32.514  33.510  1.00  0.00     0.029 A 
ATOM     52  N   UNL A   1      42.920  31.340  32.155  1.00  0.00    -0.354 N 
ATOM     53  N   UNL A   1      42.191  29.066  30.535  1.00  0.00    -0.248 NA
ATOM     54  C   UNL A   1      42.690  26.992  29.580  1.00  0.00     0.031 C 
ATOM     55  C   UNL A   1      44.918  31.357  33.133  1.00  0.00     0.029 A 
ATOM     56  C   UNL A   1      44.094  30.615  32.305  1.00  0.00     0.049 A 
ATOM     57  H   UNL A   1      42.148  31.059  31.613  1.00  0.00     0.167 HD
ATOM     58  C   UNL A   1      43.448  28.657  30.951  1.00  0.00     0.074 A 
ATOM     59  C   UNL A   1      43.685  27.351  30.378  1.00  0.00     0.031 C 
ATOM     60  C   UNL A   1      44.348  29.336  31.699  1.00  0.00     0.037 A 
BRANCH  47  61
ATOM     61  C   UNL A   1      42.281  34.794  33.669  1.00  0.00     0.057 A 
ATOM     62  C   UNL A   1      42.009  34.945  35.033  1.00  0.00     0.134 A 
ATOM     63  C   UNL A   1      42.920  35.852  33.010  1.00  0.00     0.134 A 
ATOM     64  F   UNL A   1      41.386  33.972  35.714  1.00  0.00    -0.206 F 
ATOM     65  C   UNL A   1      42.352  36.113  35.715  1.00  0.00     0.040 A 
ATOM     66  C   UNL A   1      43.287  37.014  33.686  1.00  0.00     0.040 A 
ATOM     67  F   UNL A   1      43.208  35.765  31.702  1.00  0.00    -0.206 F 
ATOM     68  C   UNL A   1      43.002  37.147  35.042  1.00  0.00     0.006 A 
ENDBRANCH  47  61
BRANCH  48  69
ATOM     69  C   UNL A   1      40.243  26.914  28.042  1.00  0.00     0.057 A 
ATOM     70  C   UNL A   1      39.465  25.858  28.541  1.00  0.00     0.134 A 
ATOM     71  C   UNL A   1      40.801  26.753  26.771  1.00  0.00     0.134 A 
ATOM     72  F   UNL A   1      38.914  25.944  29.761  1.00  0.00    -0.206 F 
ATOM     73  C   UNL A   1      39.282  24.676  27.822  1.00  0.00     0.040 A 
ATOM     74  C   UNL A   1      40.600  25.589  26.027  1.00  0.00     0.040 A 
ATOM     75  F   UNL A   1      41.552  27.726  26.233  1.00  0.00    -0.206 F 
ATOM     76  C   UNL A   1      39.851  24.540  26.558  1.00  0.00     0.006 A 
ENDBRANCH  48  69
BRANCH  60  77
ATOM     77  C   UNL A   1      45.693  28.700  31.875  1.00  0.00     0.057 A 
ATOM     78  C   UNL A   1      45.952  27.841  32.953  1.00  0.00     0.134 A 
ATOM     79  C   UNL A   1      46.734  28.940  30.972  1.00  0.00     0.134 A 
ATOM     80  F   UNL A   1      45.001  27.587  33.864  1.00  0.00    -0.206 F 
ATOM     81  C   UNL A   1      47.207  27.261  33.138  1.00  0.00     0.040 A 
ATOM     82  C   UNL A   1      47.987  28.349  31.135  1.00  0.00     0.040 A 
ATOM     83  F   UNL A   1      46.551  29.755  29.922  1.00  0.00    -0.206 F 
ATOM     84  C   UNL A   1      48.228  27.511  32.224  1.00  0.00     0.006 A 
ENDBRANCH  60  77
ENDBRANCH  34  35
ENDBRANCH  27  29
ENDBRANCH  26  27
ENDBRANCH  25  26
ENDBRANCH   1  25
TORSDOF 15
ENDMDL
MODEL 3
REMARK VINA RESULT:     -11.0      3.596      7.873
REMARK SMILES O=C(Cc1ccccc1Nc1c(Cl)cccc1C(F)(F)F)OCCOC(=O)c1ccc(-c2c3nc(c(-c4c(F)cccc4F)c4ccc([nH]4)c(-c4c(F)cccc4F)c4nc(c(-c5c(F)cccc5F)c5ccc2[nH]5)C=C4)C=C3)cc1
REMARK SMILES IDX 23 1 22 2 2 3 1 4 3 5 4 6 5 7 9 8 6 9 8 10 7 11 10 12 11 14
REMARK SMILES IDX 12 15 17 16 13 17 14 18 16 19 15 20 18 21 19 22 20 23 21 24
REMARK SMILES IDX 24 25 25 26 26 27 27 28 28 29 29 30 81 31 30 32 80 33 31 34
REMARK SMILES IDX 32 35 33 36 74 37 34 38 79 39 73 40 75 41 35 42 78 43 72 44
REMARK SMILES IDX 71 45 36 47 62 48 45 49 61 50 46 51 49 52 60 53 76 54 47 55
REMARK SMILES IDX 48 56 59 58 77 59 50 60 37 61 38 62 43 63 39 64 40 65 42 66
REMARK SMILES IDX 44 67 41 68 63 69 64 70 69 71 65 72 66 73 68 74 70 75 67 76
REMARK SMILES IDX 51 77 52 78 57 79 53 80 54 81 56 82 58 83 55 84
REMARK H PARENT 10 13 75 46 49 57
REMARK Flexibility Score: inf
ROOT
ATOM      1  C   UNL A   1      33.089  31.065  27.452  1.00  0.00     0.274 C 
ENDROOT
BRANCH   1   2
ATOM      2  O   UNL A   1      32.852  30.438  26.177  1.00  0.00    -0.462 OA
BRANCH   2   3
ATOM      3  C   UNL A   1      32.637  29.111  26.010  1.00  0.00     0.310 C 
ATOM      4  O   UNL A   1      31.507  28.646  26.144  1.00  0.00    -0.252 OA
BRANCH   3   5
ATOM      5  C   UNL A   1      33.827  28.217  25.735  1.00  0.00     0.160 C 
BRANCH   5   6
ATOM      6  C   UNL A   1      33.691  27.378  24.487  1.00  0.00    -0.013 A 
ATOM      7  C   UNL A   1      33.366  28.021  23.275  1.00  0.00     0.006 A 
ATOM      8  C   UNL A   1      33.965  25.999  24.478  1.00  0.00     0.042 A 
ATOM      9  C   UNL A   1      33.310  27.318  22.073  1.00  0.00     0.000 A 
ATOM     10  C   UNL A   1      33.863  25.306  23.256  1.00  0.00     0.026 A 
ATOM     11  C   UNL A   1      33.553  25.955  22.064  1.00  0.00     0.002 A 
BRANCH   8  12
ATOM     12  N   UNL A   1      34.414  25.332  25.646  1.00  0.00    -0.354 N 
ATOM     13  H   UNL A   1      34.962  25.853  26.275  1.00  0.00     0.167 HD
BRANCH  12  14
ATOM     14  C   UNL A   1      34.147  23.986  25.991  1.00  0.00     0.070 A 
ATOM     15  C   UNL A   1      35.199  23.048  25.933  1.00  0.00     0.065 A 
ATOM     16  C   UNL A   1      32.923  23.602  26.575  1.00  0.00     0.080 A 
ATOM     17  Cl  UNL A   1      36.656  23.411  25.074  1.00  0.00    -0.082 Cl
ATOM     18  C   UNL A   1      35.099  21.819  26.580  1.00  0.00     0.023 A 
ATOM     19  C   UNL A   1      32.860  22.386  27.282  1.00  0.00     0.015 A 
ATOM     20  C   UNL A   1      33.952  21.521  27.309  1.00  0.00     0.002 A 
BRANCH  16  21
ATOM     21  C   UNL A   1      31.650  24.403  26.416  1.00  0.00     0.418 C 
ATOM     22  F   UNL A   1      30.612  23.813  27.088  1.00  0.00    -0.166 F 
ATOM     23  F   UNL A   1      31.740  25.657  26.940  1.00  0.00    -0.166 F 
ATOM     24  F   UNL A   1      31.193  24.543  25.141  1.00  0.00    -0.166 F 
ENDBRANCH  16  21
ENDBRANCH  12  14
ENDBRANCH   8  12
ENDBRANCH   5   6
ENDBRANCH   3   5
ENDBRANCH   2   3
ENDBRANCH   1   2
BRANCH   1  25
ATOM     25  C   UNL A   1      34.579  31.265  27.741  1.00  0.00     0.275 C 
BRANCH  25  26
ATOM     26  O   UNL A   1      35.160  30.140  28.427  1.00  0.00    -0.458 OA
BRANCH  26  27
ATOM     27  C   UNL A   1      36.059  30.449  29.400  1.00  0.00     0.338 C 
ATOM     28  O   UNL A   1      35.815  30.964  30.471  1.00  0.00    -0.246 OA
BRANCH  27  29
ATOM     29  C   UNL A   1      37.404  29.942  29.030  1.00  0.00     0.060 A 
ATOM     30  C   UNL A   1      38.272  29.563  30.060  1.00  0.00     0.016 A 
ATOM     31  C   UNL A   1      37.824  29.855  27.698  1.00  0.00     0.016 A 
ATOM     32  C   UNL A   1      39.560  29.100  29.762  1.00  0.00     0.010 A 
ATOM     33  C   UNL A   1      39.121  29.412  27.403  1.00  0.00     0.010 A 
ATOM     34  C   UNL A   1      40.003  29.039  28.432  1.00  0.00    -0.014 A 
BRANCH  34  35
ATOM     35  C   UNL A   1      41.396  28.618  28.125  1.00  0.00     0.031 A 
ATOM     36  C   UNL A   1      41.698  27.209  27.721  1.00  0.00     0.074 A 
ATOM     37  C   UNL A   1      42.423  29.474  28.272  1.00  0.00     0.049 A 
ATOM     38  N   UNL A   1      42.855  26.670  27.429  1.00  0.00    -0.248 NA
ATOM     39  C   UNL A   1      40.567  26.273  27.701  1.00  0.00     0.031 C 
ATOM     40  C   UNL A   1      42.310  30.815  28.824  1.00  0.00     0.029 A 
ATOM     41  N   UNL A   1      43.765  29.336  27.993  1.00  0.00    -0.354 N 
ATOM     42  C   UNL A   1      42.607  25.317  27.255  1.00  0.00     0.074 A 
ATOM     43  C   UNL A   1      41.181  25.126  27.441  1.00  0.00     0.031 C 
ATOM     44  C   UNL A   1      43.525  31.385  28.809  1.00  0.00     0.029 A 
ATOM     45  C   UNL A   1      44.492  30.480  28.216  1.00  0.00     0.049 A 
ATOM     46  H   UNL A   1      44.164  28.498  27.665  1.00  0.00     0.167 HD
ATOM     47  C   UNL A   1      43.492  24.325  27.001  1.00  0.00     0.037 A 
ATOM     48  C   UNL A   1      45.781  30.782  27.967  1.00  0.00     0.037 A 
ATOM     49  C   UNL A   1      44.911  24.502  26.815  1.00  0.00     0.049 A 
ATOM     50  C   UNL A   1      46.705  29.702  27.490  1.00  0.00     0.074 A 
ATOM     51  C   UNL A   1      45.861  23.545  26.498  1.00  0.00     0.029 A 
ATOM     52  N   UNL A   1      45.588  25.704  26.937  1.00  0.00    -0.354 N 
ATOM     53  N   UNL A   1      46.440  28.443  27.252  1.00  0.00    -0.248 NA
ATOM     54  C   UNL A   1      48.119  30.068  27.303  1.00  0.00     0.031 C 
ATOM     55  C   UNL A   1      47.117  24.158  26.469  1.00  0.00     0.029 A 
ATOM     56  C   UNL A   1      46.945  25.506  26.722  1.00  0.00     0.049 A 
ATOM     57  H   UNL A   1      45.168  26.569  27.146  1.00  0.00     0.167 HD
ATOM     58  C   UNL A   1      47.660  27.857  26.953  1.00  0.00     0.074 A 
ATOM     59  C   UNL A   1      48.651  28.909  26.945  1.00  0.00     0.031 C 
ATOM     60  C   UNL A   1      47.937  26.547  26.759  1.00  0.00     0.037 A 
BRANCH  47  61
ATOM     61  C   UNL A   1      42.957  22.927  26.956  1.00  0.00     0.057 A 
ATOM     62  C   UNL A   1      42.615  22.228  28.118  1.00  0.00     0.134 A 
ATOM     63  C   UNL A   1      42.726  22.300  25.725  1.00  0.00     0.134 A 
ATOM     64  F   UNL A   1      42.826  22.772  29.326  1.00  0.00    -0.206 F 
ATOM     65  C   UNL A   1      42.070  20.945  28.058  1.00  0.00     0.040 A 
ATOM     66  C   UNL A   1      42.162  21.027  25.652  1.00  0.00     0.040 A 
ATOM     67  F   UNL A   1      43.033  22.921  24.576  1.00  0.00    -0.206 F 
ATOM     68  C   UNL A   1      41.834  20.346  26.821  1.00  0.00     0.006 A 
ENDBRANCH  47  61
BRANCH  48  69
ATOM     69  C   UNL A   1      46.311  32.159  28.152  1.00  0.00     0.057 A 
ATOM     70  C   UNL A   1      46.223  33.095  27.111  1.00  0.00     0.134 A 
ATOM     71  C   UNL A   1      46.985  32.553  29.312  1.00  0.00     0.134 A 
ATOM     72  F   UNL A   1      45.602  32.773  25.965  1.00  0.00    -0.206 F 
ATOM     73  C   UNL A   1      46.814  34.356  27.203  1.00  0.00     0.040 A 
ATOM     74  C   UNL A   1      47.554  33.822  29.431  1.00  0.00     0.040 A 
ATOM     75  F   UNL A   1      47.102  31.708  30.347  1.00  0.00    -0.206 F 
ATOM     76  C   UNL A   1      47.482  34.723  28.368  1.00  0.00     0.006 A 
ENDBRANCH  48  69
BRANCH  60  77
ATOM     77  C   UNL A   1      49.381  26.182  26.592  1.00  0.00     0.057 A 
ATOM     78  C   UNL A   1      50.015  26.291  25.346  1.00  0.00     0.134 A 
ATOM     79  C   UNL A   1      50.144  25.723  27.671  1.00  0.00     0.134 A 
ATOM     80  F   UNL A   1      49.333  26.705  24.268  1.00  0.00    -0.206 F 
ATOM     81  C   UNL A   1      51.353  25.934  25.175  1.00  0.00     0.040 A 
ATOM     82  C   UNL A   1      51.488  25.384  27.516  1.00  0.00     0.040 A 
ATOM     83  F   UNL A   1      49.595  25.595  28.888  1.00  0.00    -0.206 F 
ATOM     84  C   UNL A   1      52.095  25.483  26.264  1.00  0.00     0.006 A 
ENDBRANCH  60  77
ENDBRANCH  34  35
ENDBRANCH  27  29
ENDBRANCH  26  27
ENDBRANCH  25  26
ENDBRANCH   1  25
TORSDOF 15
ENDMDL
