MODEL 1
REMARK VINA RESULT:     -14.5      0.000      0.000
REMARK SMILES Cc1ccc(S(=O)(=O)n2cc(C(=O)C(=O)N[C@H](Cc3c[nH]c4ccccc34)C(=O)NCC(=O)OCCOC(=O)c3ccc(-c4c5nc(c(-c6c(F)cccc6F)c6ccc([nH]6)c(-c6c(F)cccc6F)c6nc(c(-c7c(F)cccc7F)c7ccc4[nH]7)C=C6)C=C5)cc3)c3ccccc32)cc1
REMARK SMILES IDX 32 1 33 2 31 3 30 4 28 5 29 6 17 8 16 9 14 10 15 11 12 13
REMARK SMILES IDX 13 14 11 15 9 16 10 17 99 18 94 19 98 20 95 21 97 22 96 23
REMARK SMILES IDX 6 24 7 25 8 26 5 27 1 28 2 29 3 30 101 31 4 32 100 33 18 34
REMARK SMILES IDX 19 35 20 36 27 37 21 38 22 39 26 40 23 42 25 43 24 44 34 45
REMARK SMILES IDX 35 46 36 47 37 48 38 49 39 50 40 51 41 52 93 53 42 54 92 55
REMARK SMILES IDX 43 56 44 57 45 58 86 59 46 60 91 61 85 62 87 63 47 64 90 65
REMARK SMILES IDX 84 66 83 67 48 69 74 70 57 71 73 72 58 73 61 74 72 75 88 76
REMARK SMILES IDX 59 77 60 78 71 80 89 81 62 82 49 83 50 84 55 85 51 86 52 87
REMARK SMILES IDX 54 88 56 89 53 90 75 91 76 92 81 93 77 94 78 95 80 96 82 97
REMARK SMILES IDX 79 98 63 99 64 100 69 101 65 102 66 103 68 104 70 105 67 106
REMARK H PARENT 30 7 16 12 21 41 87 68 61 79
REMARK Flexibility Score: inf
ROOT
ATOM      1  C   UNL A   1      44.182  22.680  24.393  1.00  0.00     0.325 C 
ATOM      2  O   UNL A   1      44.395  22.506  23.202  1.00  0.00    -0.250 OA
ENDROOT
BRANCH   1   3
ATOM      3  C   UNL A   1      42.902  22.151  25.183  1.00  0.00     0.238 C 
BRANCH   3   4
ATOM      4  N   UNL A   1      42.337  21.054  25.957  1.00  0.00    -0.343 N 
ATOM      5  C   UNL A   1      40.998  20.808  26.222  1.00  0.00     0.243 C 
ATOM      6  O   UNL A   1      40.699  19.618  26.398  1.00  0.00    -0.273 OA
ATOM      7  H   UNL A   1      42.980  20.413  26.337  1.00  0.00     0.164 HD
BRANCH   5   8
ATOM      8  C   UNL A   1      39.814  21.894  26.356  1.00  0.00     0.176 C 
BRANCH   8   9
ATOM      9  N   UNL A   1      38.589  22.081  25.212  1.00  0.00    -0.337 N 
ATOM     10  C   UNL A   1      37.239  22.568  24.887  1.00  0.00     0.293 C 
ATOM     11  O   UNL A   1      36.806  22.069  23.839  1.00  0.00    -0.265 OA
ATOM     12  H   UNL A   1      38.935  21.681  24.382  1.00  0.00     0.164 HD
BRANCH  10  13
ATOM     13  C   UNL A   1      36.228  23.785  25.668  1.00  0.00     0.252 C 
ATOM     14  O   UNL A   1      36.534  24.134  26.807  1.00  0.00    -0.283 OA
BRANCH  13  15
ATOM     15  C   UNL A   1      34.926  24.619  24.893  1.00  0.00     0.054 A 
ATOM     16  N   UNL A   1      32.269  24.191  26.332  1.00  0.00    -0.240 N 
ATOM     17  C   UNL A   1      33.943  23.523  25.952  1.00  0.00     0.117 A 
ATOM     18  C   UNL A   1      32.421  26.150  26.059  1.00  0.00     0.065 A 
ATOM     19  C   UNL A   1      33.918  26.459  24.906  1.00  0.00     0.012 A 
ATOM     20  C   UNL A   1      31.648  27.358  26.274  1.00  0.00     0.028 A 
ATOM     21  C   UNL A   1      33.616  27.527  23.957  1.00  0.00     0.011 A 
ATOM     22  C   UNL A   1      31.773  28.454  25.355  1.00  0.00     0.002 A 
ATOM     23  C   UNL A   1      32.644  28.509  24.241  1.00  0.00     0.001 A 
BRANCH  16  24
ATOM     24  S   UNL A   1      32.038  22.279  25.152  1.00  0.00     0.268 S 
ATOM     25  O   UNL A   1      31.794  22.935  23.864  1.00  0.00    -0.201 OA
ATOM     26  O   UNL A   1      30.890  21.617  25.754  1.00  0.00    -0.201 OA
BRANCH  24  27
ATOM     27  C   UNL A   1      32.762  20.409  24.473  1.00  0.00     0.088 A 
ATOM     28  C   UNL A   1      33.803  16.229  24.022  1.00  0.00     0.044 C 
ATOM     29  C   UNL A   1      33.759  17.718  23.857  1.00  0.00    -0.051 A 
ATOM     30  C   UNL A   1      32.721  18.217  23.149  1.00  0.00     0.005 A 
ATOM     31  C   UNL A   1      34.531  18.678  24.529  1.00  0.00     0.005 A 
ATOM     32  C   UNL A   1      32.316  19.537  23.426  1.00  0.00     0.022 A 
ATOM     33  C   UNL A   1      34.054  20.023  24.809  1.00  0.00     0.022 A 
ENDBRANCH  24  27
ENDBRANCH  16  24
ENDBRANCH  13  15
ENDBRANCH  10  13
ENDBRANCH   8   9
BRANCH   8  34
ATOM     34  C   UNL A   1      39.975  23.074  27.407  1.00  0.00     0.072 C 
BRANCH  34  35
ATOM     35  C   UNL A   1      41.156  23.992  27.409  1.00  0.00    -0.020 A 
ATOM     36  C   UNL A   1      41.316  25.140  26.643  1.00  0.00     0.087 A 
ATOM     37  C   UNL A   1      42.301  23.914  28.240  1.00  0.00     0.003 A 
ATOM     38  N   UNL A   1      42.600  25.587  26.799  1.00  0.00    -0.361 N 
ATOM     39  C   UNL A   1      43.213  24.871  27.794  1.00  0.00     0.046 A 
ATOM     40  C   UNL A   1      42.649  23.080  29.313  1.00  0.00     0.010 A 
ATOM     41  H   UNL A   1      43.017  26.311  26.278  1.00  0.00     0.166 HD
ATOM     42  C   UNL A   1      44.493  24.998  28.333  1.00  0.00     0.026 A 
ATOM     43  C   UNL A   1      43.906  23.225  29.895  1.00  0.00     0.001 A 
ATOM     44  C   UNL A   1      44.817  24.158  29.402  1.00  0.00     0.002 A 
ENDBRANCH  34  35
ENDBRANCH   8  34
ENDBRANCH   5   8
ENDBRANCH   3   4
ENDBRANCH   1   3
BRANCH   1  45
ATOM     45  O   UNL A   1      44.837  23.635  25.132  1.00  0.00    -0.461 OA
BRANCH  45  46
ATOM     46  C   UNL A   1      46.262  23.995  25.007  1.00  0.00     0.274 C 
BRANCH  46  47
ATOM     47  C   UNL A   1      46.798  25.391  25.487  1.00  0.00     0.275 C 
BRANCH  47  48
ATOM     48  O   UNL A   1      46.337  26.644  24.918  1.00  0.00    -0.458 OA
BRANCH  48  49
ATOM     49  C   UNL A   1      46.898  27.814  25.289  1.00  0.00     0.338 C 
ATOM     50  O   UNL A   1      47.985  28.242  24.947  1.00  0.00    -0.246 OA
BRANCH  49  51
ATOM     51  C   UNL A   1      46.126  28.333  26.423  1.00  0.00     0.060 A 
ATOM     52  C   UNL A   1      44.790  28.383  26.406  1.00  0.00     0.016 A 
ATOM     53  C   UNL A   1      46.726  28.651  27.660  1.00  0.00     0.016 A 
ATOM     54  C   UNL A   1      44.276  28.871  27.604  1.00  0.00     0.010 A 
ATOM     55  C   UNL A   1      46.144  29.189  28.838  1.00  0.00     0.010 A 
ATOM     56  C   UNL A   1      44.927  29.754  28.624  1.00  0.00    -0.014 A 
BRANCH  56  57
ATOM     57  C   UNL A   1      44.997  31.650  28.709  1.00  0.00     0.031 A 
ATOM     58  C   UNL A   1      43.398  32.026  29.266  1.00  0.00     0.074 A 
ATOM     59  C   UNL A   1      46.632  32.772  28.623  1.00  0.00     0.049 A 
ATOM     60  N   UNL A   1      43.059  33.140  29.826  1.00  0.00    -0.248 NA
ATOM     61  C   UNL A   1      42.233  31.156  29.254  1.00  0.00     0.031 C 
ATOM     62  C   UNL A   1      47.174  33.910  29.963  1.00  0.00     0.029 A 
ATOM     63  N   UNL A   1      48.058  32.657  28.315  1.00  0.00    -0.354 N 
ATOM     64  C   UNL A   1      41.900  32.975  30.555  1.00  0.00     0.074 A 
ATOM     65  C   UNL A   1      41.369  31.732  30.101  1.00  0.00     0.031 C 
ATOM     66  C   UNL A   1      48.464  33.903  30.252  1.00  0.00     0.029 A 
ATOM     67  C   UNL A   1      48.905  33.593  28.980  1.00  0.00     0.049 A 
ATOM     68  H   UNL A   1      48.408  31.980  27.690  1.00  0.00     0.167 HD
ATOM     69  C   UNL A   1      41.614  33.903  31.509  1.00  0.00     0.037 A 
ATOM     70  C   UNL A   1      49.163  34.731  28.306  1.00  0.00     0.037 A 
ATOM     71  C   UNL A   1      42.623  34.962  31.472  1.00  0.00     0.049 A 
ATOM     72  C   UNL A   1      48.005  36.124  28.775  1.00  0.00     0.074 A 
ATOM     73  C   UNL A   1      43.624  35.327  32.345  1.00  0.00     0.029 A 
ATOM     74  N   UNL A   1      42.857  35.649  30.285  1.00  0.00    -0.354 N 
ATOM     75  N   UNL A   1      46.724  36.014  29.195  1.00  0.00    -0.248 NA
ATOM     76  C   UNL A   1      48.155  37.619  28.647  1.00  0.00     0.031 C 
ATOM     77  C   UNL A   1      44.542  36.131  31.627  1.00  0.00     0.029 A 
ATOM     78  C   UNL A   1      44.060  36.331  30.344  1.00  0.00     0.049 A 
ATOM     79  H   UNL A   1      42.251  35.650  29.509  1.00  0.00     0.167 HD
ATOM     80  C   UNL A   1      45.928  37.162  29.094  1.00  0.00     0.074 A 
ATOM     81  C   UNL A   1      46.888  38.121  28.631  1.00  0.00     0.031 C 
ATOM     82  C   UNL A   1      44.541  37.172  29.250  1.00  0.00     0.037 A 
BRANCH  69  83
ATOM     83  C   UNL A   1      40.575  33.856  32.610  1.00  0.00     0.057 A 
ATOM     84  C   UNL A   1      39.305  34.435  32.369  1.00  0.00     0.134 A 
ATOM     85  C   UNL A   1      40.743  33.367  33.917  1.00  0.00     0.134 A 
ATOM     86  F   UNL A   1      38.977  34.933  31.168  1.00  0.00    -0.206 F 
ATOM     87  C   UNL A   1      38.304  34.543  33.338  1.00  0.00     0.040 A 
ATOM     88  C   UNL A   1      39.727  33.432  34.891  1.00  0.00     0.040 A 
ATOM     89  F   UNL A   1      41.896  32.832  34.334  1.00  0.00    -0.206 F 
ATOM     90  C   UNL A   1      38.506  34.029  34.606  1.00  0.00     0.006 A 
ENDBRANCH  69  83
BRANCH  70  91
ATOM     91  C   UNL A   1      49.825  33.879  26.928  1.00  0.00     0.057 A 
ATOM     92  C   UNL A   1      49.480  34.555  25.727  1.00  0.00     0.134 A 
ATOM     93  C   UNL A   1      51.114  33.274  26.795  1.00  0.00     0.134 A 
ATOM     94  F   UNL A   1      48.239  35.047  25.603  1.00  0.00    -0.206 F 
ATOM     95  C   UNL A   1      50.442  34.982  24.772  1.00  0.00     0.040 A 
ATOM     96  C   UNL A   1      52.105  33.709  25.867  1.00  0.00     0.040 A 
ATOM     97  F   UNL A   1      51.389  32.112  27.410  1.00  0.00    -0.206 F 
ATOM     98  C   UNL A   1      51.785  34.645  24.898  1.00  0.00     0.006 A 
ENDBRANCH  70  91
BRANCH  82  99
ATOM     99  C   UNL A   1      43.503  38.096  28.548  1.00  0.00     0.057 A 
ATOM    100  C   UNL A   1      42.875  37.756  27.342  1.00  0.00     0.134 A 
ATOM    101  C   UNL A   1      42.969  39.281  29.132  1.00  0.00     0.134 A 
ATOM    102  F   UNL A   1      43.139  36.592  26.745  1.00  0.00    -0.206 F 
ATOM    103  C   UNL A   1      41.926  38.579  26.698  1.00  0.00     0.040 A 
ATOM    104  C   UNL A   1      41.997  40.095  28.520  1.00  0.00     0.040 A 
ATOM    105  F   UNL A   1      43.347  39.714  30.344  1.00  0.00    -0.206 F 
ATOM    106  C   UNL A   1      41.508  39.772  27.270  1.00  0.00     0.006 A 
ENDBRANCH  82  99
ENDBRANCH  56  57
ENDBRANCH  49  51
ENDBRANCH  48  49
ENDBRANCH  47  48
ENDBRANCH  46  47
ENDBRANCH  45  46
ENDBRANCH   1  45
TORSDOF 20
ENDMDL
MODEL 2
REMARK VINA RESULT:     -14.4      4.473      8.638
REMARK SMILES Cc1ccc(S(=O)(=O)n2cc(C(=O)C(=O)N[C@H](Cc3c[nH]c4ccccc34)C(=O)NCC(=O)OCCOC(=O)c3ccc(-c4c5nc(c(-c6c(F)cccc6F)c6ccc([nH]6)c(-c6c(F)cccc6F)c6nc(c(-c7c(F)cccc7F)c7ccc4[nH]7)C=C6)C=C5)cc3)c3ccccc32)cc1
REMARK SMILES IDX 32 1 33 2 31 3 30 4 28 5 29 6 17 8 16 9 14 10 15 11 12 13
REMARK SMILES IDX 13 14 11 15 9 16 10 17 99 18 94 19 98 20 95 21 97 22 96 23
REMARK SMILES IDX 6 24 7 25 8 26 5 27 1 28 2 29 3 30 101 31 4 32 100 33 18 34
REMARK SMILES IDX 19 35 20 36 27 37 21 38 22 39 26 40 23 42 25 43 24 44 34 45
REMARK SMILES IDX 35 46 36 47 37 48 38 49 39 50 40 51 41 52 93 53 42 54 92 55
REMARK SMILES IDX 43 56 44 57 45 58 86 59 46 60 91 61 85 62 87 63 47 64 90 65
REMARK SMILES IDX 84 66 83 67 48 69 74 70 57 71 73 72 58 73 61 74 72 75 88 76
REMARK SMILES IDX 59 77 60 78 71 80 89 81 62 82 49 83 50 84 55 85 51 86 52 87
REMARK SMILES IDX 54 88 56 89 53 90 75 91 76 92 81 93 77 94 78 95 80 96 82 97
REMARK SMILES IDX 79 98 63 99 64 100 69 101 65 102 66 103 68 104 70 105 67 106
REMARK H PARENT 30 7 16 12 21 41 87 68 61 79
REMARK Flexibility Score: inf
ROOT
ATOM      1  C   UNL A   1      44.272  22.349  24.547  1.00  0.00     0.325 C 
ATOM      2  O   UNL A   1      44.172  22.354  23.329  1.00  0.00    -0.250 OA
ENDROOT
BRANCH   1   3
ATOM      3  C   UNL A   1      43.095  22.000  25.563  1.00  0.00     0.238 C 
BRANCH   3   4
ATOM      4  N   UNL A   1      42.441  20.947  26.329  1.00  0.00    -0.343 N 
ATOM      5  C   UNL A   1      41.080  20.757  26.515  1.00  0.00     0.243 C 
ATOM      6  O   UNL A   1      40.726  19.583  26.703  1.00  0.00    -0.273 OA
ATOM      7  H   UNL A   1      43.035  20.294  26.766  1.00  0.00     0.164 HD
BRANCH   5   8
ATOM      8  C   UNL A   1      39.932  21.888  26.545  1.00  0.00     0.176 C 
BRANCH   8   9
ATOM      9  N   UNL A   1      38.763  22.059  25.341  1.00  0.00    -0.337 N 
ATOM     10  C   UNL A   1      37.438  22.558  24.940  1.00  0.00     0.293 C 
ATOM     11  O   UNL A   1      37.045  22.034  23.888  1.00  0.00    -0.265 OA
ATOM     12  H   UNL A   1      39.139  21.628  24.540  1.00  0.00     0.164 HD
BRANCH  10  13
ATOM     13  C   UNL A   1      36.415  23.816  25.636  1.00  0.00     0.252 C 
ATOM     14  O   UNL A   1      36.764  24.304  26.709  1.00  0.00    -0.283 OA
BRANCH  13  15
ATOM     15  C   UNL A   1      35.038  24.503  24.848  1.00  0.00     0.054 A 
ATOM     16  N   UNL A   1      32.442  23.904  26.338  1.00  0.00    -0.240 N 
ATOM     17  C   UNL A   1      34.164  23.368  25.961  1.00  0.00     0.117 A 
ATOM     18  C   UNL A   1      32.422  25.856  25.990  1.00  0.00     0.065 A 
ATOM     19  C   UNL A   1      33.874  26.249  24.806  1.00  0.00     0.012 A 
ATOM     20  C   UNL A   1      31.549  27.001  26.171  1.00  0.00     0.028 A 
ATOM     21  C   UNL A   1      33.470  27.250  23.823  1.00  0.00     0.011 A 
ATOM     22  C   UNL A   1      31.569  28.067  25.210  1.00  0.00     0.002 A 
ATOM     23  C   UNL A   1      32.420  28.154  24.083  1.00  0.00     0.001 A 
BRANCH  16  24
ATOM     24  S   UNL A   1      32.366  21.935  25.233  1.00  0.00     0.268 S 
ATOM     25  O   UNL A   1      32.264  22.526  23.896  1.00  0.00    -0.201 OA
ATOM     26  O   UNL A   1      31.163  21.284  25.732  1.00  0.00    -0.201 OA
BRANCH  24  27
ATOM     27  C   UNL A   1      33.181  20.046  24.732  1.00  0.00     0.088 A 
ATOM     28  C   UNL A   1      34.725  16.000  24.780  1.00  0.00     0.044 C 
ATOM     29  C   UNL A   1      34.403  17.403  24.364  1.00  0.00    -0.051 A 
ATOM     30  C   UNL A   1      33.152  17.624  23.901  1.00  0.00     0.005 A 
ATOM     31  C   UNL A   1      35.158  18.562  24.600  1.00  0.00     0.005 A 
ATOM     32  C   UNL A   1      32.626  18.924  24.034  1.00  0.00     0.022 A 
ATOM     33  C   UNL A   1      34.560  19.879  24.752  1.00  0.00     0.022 A 
ENDBRANCH  24  27
ENDBRANCH  16  24
ENDBRANCH  13  15
ENDBRANCH  10  13
ENDBRANCH   8   9
BRANCH   8  34
ATOM     34  C   UNL A   1      40.091  23.112  27.544  1.00  0.00     0.072 C 
BRANCH  34  35
ATOM     35  C   UNL A   1      41.049  24.234  27.293  1.00  0.00    -0.020 A 
ATOM     36  C   UNL A   1      40.883  25.282  26.397  1.00  0.00     0.087 A 
ATOM     37  C   UNL A   1      42.269  24.486  27.969  1.00  0.00     0.003 A 
ATOM     38  N   UNL A   1      42.055  25.985  26.334  1.00  0.00    -0.361 N 
ATOM     39  C   UNL A   1      42.908  25.535  27.309  1.00  0.00     0.046 A 
ATOM     40  C   UNL A   1      42.896  23.880  29.067  1.00  0.00     0.010 A 
ATOM     41  H   UNL A   1      42.254  26.702  25.690  1.00  0.00     0.166 HD
ATOM     42  C   UNL A   1      44.185  25.975  27.657  1.00  0.00     0.026 A 
ATOM     43  C   UNL A   1      44.151  24.339  29.460  1.00  0.00     0.001 A 
ATOM     44  C   UNL A   1      44.790  25.359  28.756  1.00  0.00     0.002 A 
ENDBRANCH  34  35
ENDBRANCH   8  34
ENDBRANCH   5   8
ENDBRANCH   3   4
ENDBRANCH   1   3
BRANCH   1  45
ATOM     45  O   UNL A   1      45.304  22.970  25.209  1.00  0.00    -0.461 OA
BRANCH  45  46
ATOM     46  C   UNL A   1      46.400  23.729  24.577  1.00  0.00     0.274 C 
BRANCH  46  47
ATOM     47  C   UNL A   1      46.786  25.170  25.070  1.00  0.00     0.275 C 
BRANCH  47  48
ATOM     48  O   UNL A   1      45.964  26.336  24.799  1.00  0.00    -0.458 OA
BRANCH  48  49
ATOM     49  C   UNL A   1      46.532  27.516  24.476  1.00  0.00     0.338 C 
ATOM     50  O   UNL A   1      46.862  27.886  23.363  1.00  0.00    -0.246 OA
BRANCH  49  51
ATOM     51  C   UNL A   1      46.981  28.144  25.722  1.00  0.00     0.060 A 
ATOM     52  C   UNL A   1      48.190  27.901  26.242  1.00  0.00     0.016 A 
ATOM     53  C   UNL A   1      46.246  29.167  26.358  1.00  0.00     0.016 A 
ATOM     54  C   UNL A   1      48.412  28.639  27.401  1.00  0.00     0.010 A 
ATOM     55  C   UNL A   1      46.512  29.854  27.572  1.00  0.00     0.010 A 
ATOM     56  C   UNL A   1      47.417  29.217  28.361  1.00  0.00    -0.014 A 
BRANCH  56  57
ATOM     57  C   UNL A   1      46.603  28.419  29.879  1.00  0.00     0.031 A 
ATOM     58  C   UNL A   1      47.959  27.627  30.617  1.00  0.00     0.074 A 
ATOM     59  C   UNL A   1      44.798  28.827  30.597  1.00  0.00     0.049 A 
ATOM     60  N   UNL A   1      48.007  27.254  31.854  1.00  0.00    -0.248 NA
ATOM     61  C   UNL A   1      49.242  27.323  30.005  1.00  0.00     0.031 C 
ATOM     62  C   UNL A   1      44.483  29.476  32.290  1.00  0.00     0.029 A 
ATOM     63  N   UNL A   1      43.580  29.549  30.229  1.00  0.00    -0.354 N 
ATOM     64  C   UNL A   1      49.317  27.095  32.253  1.00  0.00     0.074 A 
ATOM     65  C   UNL A   1      50.059  27.069  31.036  1.00  0.00     0.031 C 
ATOM     66  C   UNL A   1      43.592  30.447  32.389  1.00  0.00     0.029 A 
ATOM     67  C   UNL A   1      42.809  30.048  31.322  1.00  0.00     0.049 A 
ATOM     68  H   UNL A   1      43.311  29.682  29.291  1.00  0.00     0.167 HD
ATOM     69  C   UNL A   1      49.576  27.094  33.590  1.00  0.00     0.037 A 
ATOM     70  C   UNL A   1      41.829  29.236  31.765  1.00  0.00     0.037 A 
ATOM     71  C   UNL A   1      48.315  27.183  34.327  1.00  0.00     0.049 A 
ATOM     72  C   UNL A   1      42.370  28.176  33.209  1.00  0.00     0.074 A 
ATOM     73  C   UNL A   1      47.755  28.177  35.099  1.00  0.00     0.029 A 
ATOM     74  N   UNL A   1      47.316  26.242  34.099  1.00  0.00    -0.354 N 
ATOM     75  N   UNL A   1      43.616  27.719  33.465  1.00  0.00    -0.248 NA
ATOM     76  C   UNL A   1      41.566  27.480  34.279  1.00  0.00     0.031 C 
ATOM     77  C   UNL A   1      46.373  27.895  35.215  1.00  0.00     0.029 A 
ATOM     78  C   UNL A   1      46.103  26.688  34.593  1.00  0.00     0.049 A 
ATOM     79  H   UNL A   1      47.453  25.377  33.648  1.00  0.00     0.167 HD
ATOM     80  C   UNL A   1      43.720  26.630  34.339  1.00  0.00     0.074 A 
ATOM     81  C   UNL A   1      42.352  26.464  34.734  1.00  0.00     0.031 C 
ATOM     82  C   UNL A   1      44.884  25.883  34.528  1.00  0.00     0.037 A 
BRANCH  69  83
ATOM     83  C   UNL A   1      50.906  27.189  34.309  1.00  0.00     0.057 A 
ATOM     84  C   UNL A   1      51.436  26.023  34.911  1.00  0.00     0.134 A 
ATOM     85  C   UNL A   1      51.670  28.348  34.532  1.00  0.00     0.134 A 
ATOM     86  F   UNL A   1      50.838  24.830  34.779  1.00  0.00    -0.206 F 
ATOM     87  C   UNL A   1      52.600  26.009  35.685  1.00  0.00     0.040 A 
ATOM     88  C   UNL A   1      52.867  28.339  35.275  1.00  0.00     0.040 A 
ATOM     89  F   UNL A   1      51.292  29.548  34.078  1.00  0.00    -0.206 F 
ATOM     90  C   UNL A   1      53.331  27.169  35.862  1.00  0.00     0.006 A 
ENDBRANCH  69  83
BRANCH  70  91
ATOM     91  C   UNL A   1      41.053  29.158  30.198  1.00  0.00     0.057 A 
ATOM     92  C   UNL A   1      40.923  27.806  29.786  1.00  0.00     0.134 A 
ATOM     93  C   UNL A   1      39.944  29.923  29.719  1.00  0.00     0.134 A 
ATOM     94  F   UNL A   1      41.949  26.970  30.003  1.00  0.00    -0.206 F 
ATOM     95  C   UNL A   1      39.681  27.221  29.416  1.00  0.00     0.040 A 
ATOM     96  C   UNL A   1      38.679  29.362  29.376  1.00  0.00     0.040 A 
ATOM     97  F   UNL A   1      40.102  31.211  29.370  1.00  0.00    -0.206 F 
ATOM     98  C   UNL A   1      38.525  27.988  29.311  1.00  0.00     0.006 A 
ENDBRANCH  70  91
BRANCH  82  99
ATOM     99  C   UNL A   1      45.009  24.368  34.865  1.00  0.00     0.057 A 
ATOM    100  C   UNL A   1      44.653  23.357  33.963  1.00  0.00     0.134 A 
ATOM    101  C   UNL A   1      45.643  23.863  36.037  1.00  0.00     0.134 A 
ATOM    102  F   UNL A   1      44.196  23.663  32.747  1.00  0.00    -0.206 F 
ATOM    103  C   UNL A   1      44.767  21.979  34.251  1.00  0.00     0.040 A 
ATOM    104  C   UNL A   1      45.798  22.493  36.324  1.00  0.00     0.040 A 
ATOM    105  F   UNL A   1      46.168  24.670  36.970  1.00  0.00    -0.206 F 
ATOM    106  C   UNL A   1      45.310  21.541  35.450  1.00  0.00     0.006 A 
ENDBRANCH  82  99
ENDBRANCH  56  57
ENDBRANCH  49  51
ENDBRANCH  48  49
ENDBRANCH  47  48
ENDBRANCH  46  47
ENDBRANCH  45  46
ENDBRANCH   1  45
TORSDOF 20
ENDMDL
MODEL 3
REMARK VINA RESULT:     -14.4      4.703     10.068
REMARK SMILES Cc1ccc(S(=O)(=O)n2cc(C(=O)C(=O)N[C@H](Cc3c[nH]c4ccccc34)C(=O)NCC(=O)OCCOC(=O)c3ccc(-c4c5nc(c(-c6c(F)cccc6F)c6ccc([nH]6)c(-c6c(F)cccc6F)c6nc(c(-c7c(F)cccc7F)c7ccc4[nH]7)C=C6)C=C5)cc3)c3ccccc32)cc1
REMARK SMILES IDX 32 1 33 2 31 3 30 4 28 5 29 6 17 8 16 9 14 10 15 11 12 13
REMARK SMILES IDX 13 14 11 15 9 16 10 17 99 18 94 19 98 20 95 21 97 22 96 23
REMARK SMILES IDX 6 24 7 25 8 26 5 27 1 28 2 29 3 30 101 31 4 32 100 33 18 34
REMARK SMILES IDX 19 35 20 36 27 37 21 38 22 39 26 40 23 42 25 43 24 44 34 45
REMARK SMILES IDX 35 46 36 47 37 48 38 49 39 50 40 51 41 52 93 53 42 54 92 55
REMARK SMILES IDX 43 56 44 57 45 58 86 59 46 60 91 61 85 62 87 63 47 64 90 65
REMARK SMILES IDX 84 66 83 67 48 69 74 70 57 71 73 72 58 73 61 74 72 75 88 76
REMARK SMILES IDX 59 77 60 78 71 80 89 81 62 82 49 83 50 84 55 85 51 86 52 87
REMARK SMILES IDX 54 88 56 89 53 90 75 91 76 92 81 93 77 94 78 95 80 96 82 97
REMARK SMILES IDX 79 98 63 99 64 100 69 101 65 102 66 103 68 104 70 105 67 106
REMARK H PARENT 30 7 16 12 21 41 87 68 61 79
REMARK Flexibility Score: inf
ROOT
ATOM      1  C   UNL A   1      34.357  33.389  32.415  1.00  0.00     0.325 C 
ATOM      2  O   UNL A   1      33.466  32.879  33.077  1.00  0.00    -0.250 OA
ENDROOT
BRANCH   1   3
ATOM      3  C   UNL A   1      34.964  32.785  31.071  1.00  0.00     0.238 C 
BRANCH   3   4
ATOM      4  N   UNL A   1      35.634  33.086  29.814  1.00  0.00    -0.343 N 
ATOM      5  C   UNL A   1      35.485  32.434  28.599  1.00  0.00     0.243 C 
ATOM      6  O   UNL A   1      35.688  33.130  27.592  1.00  0.00    -0.273 OA
ATOM      7  H   UNL A   1      36.268  33.840  29.828  1.00  0.00     0.164 HD
BRANCH   5   8
ATOM      8  C   UNL A   1      35.115  30.884  28.362  1.00  0.00     0.176 C 
BRANCH   8   9
ATOM      9  N   UNL A   1      33.578  30.352  27.913  1.00  0.00    -0.337 N 
ATOM     10  C   UNL A   1      32.717  29.707  26.911  1.00  0.00     0.293 C 
ATOM     11  O   UNL A   1      31.515  29.920  27.126  1.00  0.00    -0.265 OA
ATOM     12  H   UNL A   1      32.987  30.576  28.669  1.00  0.00     0.164 HD
BRANCH  10  13
ATOM     13  C   UNL A   1      33.107  28.629  25.569  1.00  0.00     0.252 C 
ATOM     14  O   UNL A   1      34.059  27.863  25.713  1.00  0.00    -0.283 OA
BRANCH  13  15
ATOM     15  C   UNL A   1      32.163  28.480  24.128  1.00  0.00     0.054 A 
ATOM     16  N   UNL A   1      29.880  26.479  24.454  1.00  0.00    -0.240 N 
ATOM     17  C   UNL A   1      31.564  27.000  24.991  1.00  0.00     0.117 A 
ATOM     18  C   UNL A   1      29.057  28.110  23.681  1.00  0.00     0.065 A 
ATOM     19  C   UNL A   1      30.476  29.294  23.181  1.00  0.00     0.012 A 
ATOM     20  C   UNL A   1      27.772  28.573  23.195  1.00  0.00     0.028 A 
ATOM     21  C   UNL A   1      30.166  29.950  21.914  1.00  0.00     0.011 A 
ATOM     22  C   UNL A   1      27.720  29.517  22.115  1.00  0.00     0.002 A 
ATOM     23  C   UNL A   1      28.835  30.112  21.477  1.00  0.00     0.001 A 
BRANCH  16  24
ATOM     24  S   UNL A   1      31.351  24.849  23.921  1.00  0.00     0.268 S 
ATOM     25  O   UNL A   1      31.352  25.123  22.481  1.00  0.00    -0.201 OA
ATOM     26  O   UNL A   1      30.693  23.617  24.332  1.00  0.00    -0.201 OA
BRANCH  24  27
ATOM     27  C   UNL A   1      33.237  23.906  24.111  1.00  0.00     0.088 A 
ATOM     28  C   UNL A   1      36.794  21.894  25.547  1.00  0.00     0.044 C 
ATOM     29  C   UNL A   1      35.838  22.680  24.703  1.00  0.00    -0.051 A 
ATOM     30  C   UNL A   1      34.913  21.972  24.016  1.00  0.00     0.005 A 
ATOM     31  C   UNL A   1      35.635  24.069  24.704  1.00  0.00     0.005 A 
ATOM     32  C   UNL A   1      33.704  22.617  23.691  1.00  0.00     0.022 A 
ATOM     33  C   UNL A   1      34.357  24.683  24.381  1.00  0.00     0.022 A 
ENDBRANCH  24  27
ENDBRANCH  16  24
ENDBRANCH  13  15
ENDBRANCH  10  13
ENDBRANCH   8   9
BRANCH   8  34
ATOM     34  C   UNL A   1      36.111  29.770  28.899  1.00  0.00     0.072 C 
BRANCH  34  35
ATOM     35  C   UNL A   1      37.442  30.102  29.498  1.00  0.00    -0.020 A 
ATOM     36  C   UNL A   1      38.568  30.548  28.819  1.00  0.00     0.087 A 
ATOM     37  C   UNL A   1      37.788  30.098  30.872  1.00  0.00     0.003 A 
ATOM     38  N   UNL A   1      39.622  30.557  29.691  1.00  0.00    -0.361 N 
ATOM     39  C   UNL A   1      39.163  30.314  30.960  1.00  0.00     0.046 A 
ATOM     40  C   UNL A   1      37.047  29.892  32.044  1.00  0.00     0.010 A 
ATOM     41  H   UNL A   1      40.563  30.713  29.446  1.00  0.00     0.166 HD
ATOM     42  C   UNL A   1      39.853  30.275  32.171  1.00  0.00     0.026 A 
ATOM     43  C   UNL A   1      37.712  29.897  33.268  1.00  0.00     0.001 A 
ATOM     44  C   UNL A   1      39.094  30.069  33.327  1.00  0.00     0.002 A 
ENDBRANCH  34  35
ENDBRANCH   8  34
ENDBRANCH   5   8
ENDBRANCH   3   4
ENDBRANCH   1   3
BRANCH   1  45
ATOM     45  O   UNL A   1      35.186  34.366  32.915  1.00  0.00    -0.461 OA
BRANCH  45  46
ATOM     46  C   UNL A   1      35.608  34.502  34.322  1.00  0.00     0.274 C 
BRANCH  46  47
ATOM     47  C   UNL A   1      36.301  33.317  35.084  1.00  0.00     0.275 C 
BRANCH  47  48
ATOM     48  O   UNL A   1      37.706  32.992  34.914  1.00  0.00    -0.458 OA
BRANCH  48  49
ATOM     49  C   UNL A   1      38.630  33.472  35.772  1.00  0.00     0.338 C 
ATOM     50  O   UNL A   1      38.423  33.966  36.866  1.00  0.00    -0.246 OA
BRANCH  49  51
ATOM     51  C   UNL A   1      39.892  33.598  35.036  1.00  0.00     0.060 A 
ATOM     52  C   UNL A   1      39.995  34.344  33.931  1.00  0.00     0.016 A 
ATOM     53  C   UNL A   1      41.109  33.085  35.533  1.00  0.00     0.016 A 
ATOM     54  C   UNL A   1      41.294  34.347  33.429  1.00  0.00     0.010 A 
ATOM     55  C   UNL A   1      42.401  33.086  34.944  1.00  0.00     0.010 A 
ATOM     56  C   UNL A   1      42.380  33.332  33.608  1.00  0.00    -0.014 A 
BRANCH  56  57
ATOM     57  C   UNL A   1      42.754  31.773  32.590  1.00  0.00     0.031 A 
ATOM     58  C   UNL A   1      42.786  32.417  30.979  1.00  0.00     0.074 A 
ATOM     59  C   UNL A   1      43.388  30.031  33.297  1.00  0.00     0.049 A 
ATOM     60  N   UNL A   1      43.352  31.841  29.970  1.00  0.00    -0.248 NA
ATOM     61  C   UNL A   1      42.256  33.694  30.530  1.00  0.00     0.031 C 
ATOM     62  C   UNL A   1      44.981  29.242  32.823  1.00  0.00     0.029 A 
ATOM     63  N   UNL A   1      43.567  29.334  34.572  1.00  0.00    -0.354 N 
ATOM     64  C   UNL A   1      43.614  32.764  28.980  1.00  0.00     0.074 A 
ATOM     65  C   UNL A   1      42.834  33.903  29.340  1.00  0.00     0.031 C 
ATOM     66  C   UNL A   1      45.685  28.705  33.804  1.00  0.00     0.029 A 
ATOM     67  C   UNL A   1      44.607  28.356  34.594  1.00  0.00     0.049 A 
ATOM     68  H   UNL A   1      43.008  29.527  35.359  1.00  0.00     0.167 HD
ATOM     69  C   UNL A   1      44.538  32.435  28.036  1.00  0.00     0.037 A 
ATOM     70  C   UNL A   1      44.229  27.095  34.307  1.00  0.00     0.037 A 
ATOM     71  C   UNL A   1      44.996  31.064  28.264  1.00  0.00     0.049 A 
ATOM     72  C   UNL A   1      44.473  26.665  32.502  1.00  0.00     0.074 A 
ATOM     73  C   UNL A   1      46.199  30.541  28.685  1.00  0.00     0.029 A 
ATOM     74  N   UNL A   1      44.070  30.027  28.315  1.00  0.00    -0.354 N 
ATOM     75  N   UNL A   1      44.416  27.508  31.447  1.00  0.00    -0.248 NA
ATOM     76  C   UNL A   1      44.620  25.329  31.816  1.00  0.00     0.031 C 
ATOM     77  C   UNL A   1      45.957  29.218  29.124  1.00  0.00     0.029 A 
ATOM     78  C   UNL A   1      44.629  28.899  28.890  1.00  0.00     0.049 A 
ATOM     79  H   UNL A   1      43.143  30.087  27.987  1.00  0.00     0.167 HD
ATOM     80  C   UNL A   1      44.218  26.927  30.188  1.00  0.00     0.074 A 
ATOM     81  C   UNL A   1      44.248  25.533  30.521  1.00  0.00     0.031 C 
ATOM     82  C   UNL A   1      43.895  27.644  29.035  1.00  0.00     0.037 A 
BRANCH  69  83
ATOM     83  C   UNL A   1      45.204  33.315  26.998  1.00  0.00     0.057 A 
ATOM     84  C   UNL A   1      46.415  33.965  27.337  1.00  0.00     0.134 A 
ATOM     85  C   UNL A   1      44.713  33.645  25.724  1.00  0.00     0.134 A 
ATOM     86  F   UNL A   1      47.026  33.745  28.510  1.00  0.00    -0.206 F 
ATOM     87  C   UNL A   1      47.066  34.878  26.503  1.00  0.00     0.040 A 
ATOM     88  C   UNL A   1      45.382  34.532  24.856  1.00  0.00     0.040 A 
ATOM     89  F   UNL A   1      43.555  33.162  25.259  1.00  0.00    -0.206 F 
ATOM     90  C   UNL A   1      46.558  35.158  25.248  1.00  0.00     0.006 A 
ENDBRANCH  69  83
BRANCH  70  91
ATOM     91  C   UNL A   1      43.050  27.050  35.599  1.00  0.00     0.057 A 
ATOM     92  C   UNL A   1      41.791  26.631  35.093  1.00  0.00     0.134 A 
ATOM     93  C   UNL A   1      43.219  26.579  36.938  1.00  0.00     0.134 A 
ATOM     94  F   UNL A   1      41.384  27.112  33.910  1.00  0.00    -0.206 F 
ATOM     95  C   UNL A   1      41.067  25.528  35.624  1.00  0.00     0.040 A 
ATOM     96  C   UNL A   1      42.530  25.455  37.480  1.00  0.00     0.040 A 
ATOM     97  F   UNL A   1      43.901  27.309  37.837  1.00  0.00    -0.206 F 
ATOM     98  C   UNL A   1      41.498  24.866  36.769  1.00  0.00     0.006 A 
ENDBRANCH  70  91
BRANCH  82  99
ATOM     99  C   UNL A   1      43.023  27.183  27.830  1.00  0.00     0.057 A 
ATOM    100  C   UNL A   1      43.557  26.534  26.709  1.00  0.00     0.134 A 
ATOM    101  C   UNL A   1      41.598  27.220  27.818  1.00  0.00     0.134 A 
ATOM    102  F   UNL A   1      44.862  26.268  26.638  1.00  0.00    -0.206 F 
ATOM    103  C   UNL A   1      42.778  26.103  25.612  1.00  0.00     0.040 A 
ATOM    104  C   UNL A   1      40.804  26.763  26.749  1.00  0.00     0.040 A 
ATOM    105  F   UNL A   1      40.887  27.690  28.853  1.00  0.00    -0.206 F 
ATOM    106  C   UNL A   1      41.398  26.248  25.614  1.00  0.00     0.006 A 
ENDBRANCH  82  99
ENDBRANCH  56  57
ENDBRANCH  49  51
ENDBRANCH  48  49
ENDBRANCH  47  48
ENDBRANCH  46  47
ENDBRANCH  45  46
ENDBRANCH   1  45
TORSDOF 20
ENDMDL
