MODEL 1
REMARK VINA RESULT:     -12.6      0.000      0.000
REMARK SMILES Cc1cc([N+](=O)[O-])ccc1NC(=O)[C@@H]1[C@@H](C(=O)OCCOC(=O)c2ccc(-c3c4nc(c(-c5c(F)cccc5F)c5ccc([nH]5)c(-c5c(F)cccc5F)c5nc(c(-c6c(F)cccc6F)c6ccc3[nH]6)C=C5)C=C4)cc2)[C@H]2C=C[C@@H]1C2
REMARK SMILES IDX 19 1 18 2 16 3 17 4 15 5 14 6 81 7 78 8 80 9 82 10 79 11
REMARK SMILES IDX 12 12 11 13 13 15 10 16 1 17 2 18 3 19 4 20 9 21 8 22 5 23
REMARK SMILES IDX 6 24 7 25 20 26 21 27 22 28 23 29 24 30 25 31 77 32 26 33
REMARK SMILES IDX 76 34 27 35 28 36 29 37 70 38 30 39 75 40 69 41 71 42 31 43
REMARK SMILES IDX 74 44 68 45 67 46 32 48 58 49 41 50 57 51 42 52 45 53 56 54
REMARK SMILES IDX 72 55 43 56 44 57 55 59 73 60 46 61 33 62 34 63 39 64 35 65
REMARK SMILES IDX 36 66 38 67 40 68 37 69 59 70 60 71 65 72 61 73 62 74 64 75
REMARK SMILES IDX 66 76 63 77 47 78 48 79 53 80 49 81 50 82 52 83 54 84 51 85
REMARK H PARENT 11 14 71 47 45 58
REMARK Flexibility Score: inf
ROOT
ATOM      1  C   UNL A   1      32.238  31.054  26.715  1.00  0.00     0.274 C 
ENDROOT
BRANCH   1   2
ATOM      2  O   UNL A   1      31.420  30.398  25.716  1.00  0.00    -0.462 OA
BRANCH   2   3
ATOM      3  C   UNL A   1      31.513  29.032  25.825  1.00  0.00     0.310 C 
ATOM      4  O   UNL A   1      31.923  28.502  26.854  1.00  0.00    -0.252 OA
BRANCH   3   5
ATOM      5  C   UNL A   1      31.238  28.250  24.539  1.00  0.00     0.119 C 
ATOM      6  C   UNL A   1      31.360  26.669  24.458  1.00  0.00     0.100 C 
ATOM      7  C   UNL A   1      32.323  26.477  23.241  1.00  0.00     0.025 C 
ATOM      8  C   UNL A   1      32.366  28.676  23.534  1.00  0.00     0.027 C 
ATOM      9  C   UNL A   1      33.701  26.792  23.752  1.00  0.00    -0.027 C 
ATOM     10  C   UNL A   1      32.080  27.722  22.389  1.00  0.00     0.017 C 
ATOM     11  C   UNL A   1      33.724  28.114  23.952  1.00  0.00    -0.027 C 
BRANCH   6  12
ATOM     12  C   UNL A   1      30.100  25.858  24.181  1.00  0.00     0.228 C 
ATOM     13  N   UNL A   1      30.092  24.476  24.129  1.00  0.00    -0.326 N 
ATOM     14  H   UNL A   1      29.200  24.122  23.909  1.00  0.00     0.169 HD
ATOM     15  O   UNL A   1      29.023  26.431  23.992  1.00  0.00    -0.274 OA
BRANCH  13  16
ATOM     16  C   UNL A   1      31.045  23.432  24.312  1.00  0.00     0.044 A 
ATOM     17  C   UNL A   1      30.296  23.013  26.769  1.00  0.00     0.047 C 
ATOM     18  C   UNL A   1      31.170  22.772  25.563  1.00  0.00    -0.021 A 
ATOM     19  C   UNL A   1      32.165  21.770  25.747  1.00  0.00     0.091 A 
ATOM     20  C   UNL A   1      33.011  21.396  24.703  1.00  0.00     0.269 A 
ATOM     21  C   UNL A   1      31.918  23.016  23.301  1.00  0.00     0.033 A 
ATOM     22  C   UNL A   1      32.865  21.997  23.465  1.00  0.00     0.088 A 
BRANCH  20  23
ATOM     23  N   UNL A   1      34.079  20.412  24.912  1.00  0.00     0.062 N 
ATOM     24  O   UNL A   1      33.823  19.226  24.661  1.00  0.00    -0.258 OA
ATOM     25  O   UNL A   1      35.166  20.821  25.342  1.00  0.00    -0.258 OA
ENDBRANCH  20  23
ENDBRANCH  13  16
ENDBRANCH   6  12
ENDBRANCH   3   5
ENDBRANCH   2   3
ENDBRANCH   1   2
BRANCH   1  26
ATOM     26  C   UNL A   1      31.761  32.433  27.199  1.00  0.00     0.275 C 
BRANCH  26  27
ATOM     27  O   UNL A   1      32.728  33.492  27.409  1.00  0.00    -0.458 OA
BRANCH  27  28
ATOM     28  C   UNL A   1      33.405  33.795  28.542  1.00  0.00     0.338 C 
ATOM     29  O   UNL A   1      32.990  34.564  29.383  1.00  0.00    -0.246 OA
BRANCH  28  30
ATOM     30  C   UNL A   1      34.679  33.104  28.742  1.00  0.00     0.060 A 
ATOM     31  C   UNL A   1      35.836  33.732  28.263  1.00  0.00     0.016 A 
ATOM     32  C   UNL A   1      34.727  31.925  29.485  1.00  0.00     0.016 A 
ATOM     33  C   UNL A   1      37.077  33.243  28.634  1.00  0.00     0.010 A 
ATOM     34  C   UNL A   1      35.959  31.455  29.873  1.00  0.00     0.010 A 
ATOM     35  C   UNL A   1      37.119  32.122  29.454  1.00  0.00    -0.014 A 
BRANCH  35  36
ATOM     36  C   UNL A   1      38.356  31.430  29.744  1.00  0.00     0.031 A 
ATOM     37  C   UNL A   1      38.706  30.172  29.060  1.00  0.00     0.074 A 
ATOM     38  C   UNL A   1      39.125  32.120  30.608  1.00  0.00     0.049 A 
ATOM     39  N   UNL A   1      39.358  29.201  29.603  1.00  0.00    -0.248 NA
ATOM     40  C   UNL A   1      38.244  29.846  27.708  1.00  0.00     0.031 C 
ATOM     41  C   UNL A   1      40.547  32.057  30.858  1.00  0.00     0.029 A 
ATOM     42  N   UNL A   1      38.666  33.034  31.551  1.00  0.00    -0.354 N 
ATOM     43  C   UNL A   1      39.716  28.349  28.570  1.00  0.00     0.074 A 
ATOM     44  C   UNL A   1      38.818  28.656  27.489  1.00  0.00     0.031 C 
ATOM     45  C   UNL A   1      40.812  32.702  32.013  1.00  0.00     0.029 A 
ATOM     46  C   UNL A   1      39.536  33.043  32.632  1.00  0.00     0.049 A 
ATOM     47  H   UNL A   1      37.856  33.585  31.465  1.00  0.00     0.167 HD
ATOM     48  C   UNL A   1      40.927  27.719  28.600  1.00  0.00     0.037 A 
ATOM     49  C   UNL A   1      39.110  32.565  33.841  1.00  0.00     0.037 A 
ATOM     50  C   UNL A   1      41.681  28.227  29.733  1.00  0.00     0.049 A 
ATOM     51  C   UNL A   1      39.860  31.306  34.215  1.00  0.00     0.074 A 
ATOM     52  C   UNL A   1      42.544  29.308  29.807  1.00  0.00     0.029 A 
ATOM     53  N   UNL A   1      41.323  27.897  31.026  1.00  0.00    -0.354 N 
ATOM     54  N   UNL A   1      40.257  30.399  33.360  1.00  0.00    -0.248 NA
ATOM     55  C   UNL A   1      40.323  31.046  35.573  1.00  0.00     0.031 C 
ATOM     56  C   UNL A   1      42.705  29.637  31.169  1.00  0.00     0.029 A 
ATOM     57  C   UNL A   1      41.930  28.763  31.911  1.00  0.00     0.049 A 
ATOM     58  H   UNL A   1      40.723  27.158  31.278  1.00  0.00     0.167 HD
ATOM     59  C   UNL A   1      41.106  29.524  34.001  1.00  0.00     0.074 A 
ATOM     60  C   UNL A   1      41.090  29.957  35.386  1.00  0.00     0.031 C 
ATOM     61  C   UNL A   1      41.810  28.556  33.338  1.00  0.00     0.037 A 
BRANCH  48  62
ATOM     62  C   UNL A   1      41.606  27.016  27.444  1.00  0.00     0.057 A 
ATOM     63  C   UNL A   1      41.786  25.614  27.461  1.00  0.00     0.134 A 
ATOM     64  C   UNL A   1      42.095  27.648  26.290  1.00  0.00     0.134 A 
ATOM     65  F   UNL A   1      41.280  24.846  28.434  1.00  0.00    -0.206 F 
ATOM     66  C   UNL A   1      42.488  24.916  26.472  1.00  0.00     0.040 A 
ATOM     67  C   UNL A   1      42.822  26.962  25.299  1.00  0.00     0.040 A 
ATOM     68  F   UNL A   1      41.858  28.945  26.049  1.00  0.00    -0.206 F 
ATOM     69  C   UNL A   1      43.034  25.593  25.396  1.00  0.00     0.006 A 
ENDBRANCH  48  62
BRANCH  49  70
ATOM     70  C   UNL A   1      37.655  32.811  34.086  1.00  0.00     0.057 A 
ATOM     71  C   UNL A   1      37.245  34.082  34.537  1.00  0.00     0.134 A 
ATOM     72  C   UNL A   1      36.674  32.018  33.491  1.00  0.00     0.134 A 
ATOM     73  F   UNL A   1      38.133  34.907  35.113  1.00  0.00    -0.206 F 
ATOM     74  C   UNL A   1      35.959  34.585  34.297  1.00  0.00     0.040 A 
ATOM     75  C   UNL A   1      35.389  32.522  33.249  1.00  0.00     0.040 A 
ATOM     76  F   UNL A   1      36.975  30.808  33.002  1.00  0.00    -0.206 F 
ATOM     77  C   UNL A   1      35.033  33.814  33.616  1.00  0.00     0.006 A 
ENDBRANCH  49  70
BRANCH  61  78
ATOM     78  C   UNL A   1      42.578  27.383  33.917  1.00  0.00     0.057 A 
ATOM     79  C   UNL A   1      43.972  27.279  33.931  1.00  0.00     0.134 A 
ATOM     80  C   UNL A   1      41.905  26.365  34.647  1.00  0.00     0.134 A 
ATOM     81  F   UNL A   1      44.757  28.219  33.392  1.00  0.00    -0.206 F 
ATOM     82  C   UNL A   1      44.641  26.224  34.567  1.00  0.00     0.040 A 
ATOM     83  C   UNL A   1      42.564  25.353  35.345  1.00  0.00     0.040 A 
ATOM     84  F   UNL A   1      40.569  26.314  34.752  1.00  0.00    -0.206 F 
ATOM     85  C   UNL A   1      43.942  25.267  35.291  1.00  0.00     0.006 A 
ENDBRANCH  61  78
ENDBRANCH  35  36
ENDBRANCH  28  30
ENDBRANCH  27  28
ENDBRANCH  26  27
ENDBRANCH   1  26
TORSDOF 14
ENDMDL
MODEL 2
REMARK VINA RESULT:     -12.3      2.075      3.875
REMARK SMILES Cc1cc([N+](=O)[O-])ccc1NC(=O)[C@@H]1[C@@H](C(=O)OCCOC(=O)c2ccc(-c3c4nc(c(-c5c(F)cccc5F)c5ccc([nH]5)c(-c5c(F)cccc5F)c5nc(c(-c6c(F)cccc6F)c6ccc3[nH]6)C=C5)C=C4)cc2)[C@H]2C=C[C@@H]1C2
REMARK SMILES IDX 19 1 18 2 16 3 17 4 15 5 14 6 81 7 78 8 80 9 82 10 79 11
REMARK SMILES IDX 12 12 11 13 13 15 10 16 1 17 2 18 3 19 4 20 9 21 8 22 5 23
REMARK SMILES IDX 6 24 7 25 20 26 21 27 22 28 23 29 24 30 25 31 77 32 26 33
REMARK SMILES IDX 76 34 27 35 28 36 29 37 70 38 30 39 75 40 69 41 71 42 31 43
REMARK SMILES IDX 74 44 68 45 67 46 32 48 58 49 41 50 57 51 42 52 45 53 56 54
REMARK SMILES IDX 72 55 43 56 44 57 55 59 73 60 46 61 33 62 34 63 39 64 35 65
REMARK SMILES IDX 36 66 38 67 40 68 37 69 59 70 60 71 65 72 61 73 62 74 64 75
REMARK SMILES IDX 66 76 63 77 47 78 48 79 53 80 49 81 50 82 52 83 54 84 51 85
REMARK H PARENT 11 14 71 47 45 58
REMARK Flexibility Score: inf
ROOT
ATOM      1  C   UNL A   1      31.394  31.656  26.783  1.00  0.00     0.274 C 
ENDROOT
BRANCH   1   2
ATOM      2  O   UNL A   1      31.404  30.962  25.514  1.00  0.00    -0.462 OA
BRANCH   2   3
ATOM      3  C   UNL A   1      31.449  29.601  25.698  1.00  0.00     0.310 C 
ATOM      4  O   UNL A   1      31.428  29.110  26.822  1.00  0.00    -0.252 OA
BRANCH   3   5
ATOM      5  C   UNL A   1      31.697  28.775  24.434  1.00  0.00     0.119 C 
ATOM      6  C   UNL A   1      31.562  27.193  24.407  1.00  0.00     0.100 C 
ATOM      7  C   UNL A   1      32.942  26.757  23.815  1.00  0.00     0.025 C 
ATOM      8  C   UNL A   1      33.225  28.937  24.113  1.00  0.00     0.027 C 
ATOM      9  C   UNL A   1      33.932  26.888  24.938  1.00  0.00    -0.027 C 
ATOM     10  C   UNL A   1      33.365  27.954  22.966  1.00  0.00     0.017 C 
ATOM     11  C   UNL A   1      34.088  28.201  25.137  1.00  0.00    -0.027 C 
BRANCH   6  12
ATOM     12  C   UNL A   1      30.472  26.573  23.540  1.00  0.00     0.228 C 
ATOM     13  N   UNL A   1      29.514  27.324  22.884  1.00  0.00    -0.326 N 
ATOM     14  H   UNL A   1      28.873  26.757  22.397  1.00  0.00     0.169 HD
ATOM     15  O   UNL A   1      30.416  25.348  23.398  1.00  0.00    -0.274 OA
BRANCH  13  16
ATOM     16  C   UNL A   1      29.218  28.710  22.732  1.00  0.00     0.044 A 
ATOM     17  C   UNL A   1      26.819  28.430  23.700  1.00  0.00     0.047 C 
ATOM     18  C   UNL A   1      27.940  29.224  23.077  1.00  0.00    -0.021 A 
ATOM     19  C   UNL A   1      27.643  30.601  22.868  1.00  0.00     0.091 A 
ATOM     20  C   UNL A   1      28.600  31.473  22.352  1.00  0.00     0.269 A 
ATOM     21  C   UNL A   1      30.140  29.630  22.221  1.00  0.00     0.033 A 
ATOM     22  C   UNL A   1      29.865  30.995  22.059  1.00  0.00     0.088 A 
BRANCH  20  23
ATOM     23  N   UNL A   1      28.272  32.876  22.074  1.00  0.00     0.062 N 
ATOM     24  O   UNL A   1      27.637  33.123  21.039  1.00  0.00    -0.258 OA
ATOM     25  O   UNL A   1      28.662  33.732  22.880  1.00  0.00    -0.258 OA
ENDBRANCH  20  23
ENDBRANCH  13  16
ENDBRANCH   6  12
ENDBRANCH   3   5
ENDBRANCH   2   3
ENDBRANCH   1   2
BRANCH   1  26
ATOM     26  C   UNL A   1      32.690  32.375  27.187  1.00  0.00     0.275 C 
BRANCH  26  27
ATOM     27  O   UNL A   1      32.627  33.722  27.718  1.00  0.00    -0.458 OA
BRANCH  27  28
ATOM     28  C   UNL A   1      33.285  34.233  28.787  1.00  0.00     0.338 C 
ATOM     29  O   UNL A   1      32.850  35.135  29.471  1.00  0.00    -0.246 OA
BRANCH  28  30
ATOM     30  C   UNL A   1      34.563  33.604  29.123  1.00  0.00     0.060 A 
ATOM     31  C   UNL A   1      34.521  32.405  29.846  1.00  0.00     0.016 A 
ATOM     32  C   UNL A   1      35.755  34.135  28.631  1.00  0.00     0.016 A 
ATOM     33  C   UNL A   1      35.677  31.653  29.979  1.00  0.00     0.010 A 
ATOM     34  C   UNL A   1      36.895  33.376  28.742  1.00  0.00     0.010 A 
ATOM     35  C   UNL A   1      36.844  32.140  29.404  1.00  0.00    -0.014 A 
BRANCH  35  36
ATOM     36  C   UNL A   1      38.131  31.526  29.644  1.00  0.00     0.031 A 
ATOM     37  C   UNL A   1      38.521  30.276  28.966  1.00  0.00     0.074 A 
ATOM     38  C   UNL A   1      38.899  32.276  30.458  1.00  0.00     0.049 A 
ATOM     39  N   UNL A   1      39.255  29.356  29.494  1.00  0.00    -0.248 NA
ATOM     40  C   UNL A   1      38.015  29.897  27.645  1.00  0.00     0.031 C 
ATOM     41  C   UNL A   1      40.333  32.300  30.639  1.00  0.00     0.029 A 
ATOM     42  N   UNL A   1      38.434  33.182  31.405  1.00  0.00    -0.354 N 
ATOM     43  C   UNL A   1      39.612  28.505  28.459  1.00  0.00     0.074 A 
ATOM     44  C   UNL A   1      38.646  28.738  27.419  1.00  0.00     0.031 C 
ATOM     45  C   UNL A   1      40.615  32.983  31.767  1.00  0.00     0.029 A 
ATOM     46  C   UNL A   1      39.353  33.262  32.442  1.00  0.00     0.049 A 
ATOM     47  H   UNL A   1      37.589  33.683  31.350  1.00  0.00     0.167 HD
ATOM     48  C   UNL A   1      40.858  27.947  28.441  1.00  0.00     0.037 A 
ATOM     49  C   UNL A   1      39.014  32.786  33.679  1.00  0.00     0.037 A 
ATOM     50  C   UNL A   1      41.634  28.520  29.526  1.00  0.00     0.049 A 
ATOM     51  C   UNL A   1      39.854  31.579  34.038  1.00  0.00     0.074 A 
ATOM     52  C   UNL A   1      42.435  29.651  29.539  1.00  0.00     0.029 A 
ATOM     53  N   UNL A   1      41.358  28.197  30.840  1.00  0.00    -0.354 N 
ATOM     54  N   UNL A   1      40.261  30.680  33.181  1.00  0.00    -0.248 NA
ATOM     55  C   UNL A   1      40.396  31.374  35.375  1.00  0.00     0.031 C 
ATOM     56  C   UNL A   1      42.642  30.016  30.886  1.00  0.00     0.029 A 
ATOM     57  C   UNL A   1      41.955  29.114  31.680  1.00  0.00     0.049 A 
ATOM     58  H   UNL A   1      40.816  27.429  31.135  1.00  0.00     0.167 HD
ATOM     59  C   UNL A   1      41.190  29.868  33.794  1.00  0.00     0.074 A 
ATOM     60  C   UNL A   1      41.215  30.328  35.170  1.00  0.00     0.031 C 
ATOM     61  C   UNL A   1      41.916  28.929  33.114  1.00  0.00     0.037 A 
BRANCH  48  62
ATOM     62  C   UNL A   1      41.520  27.261  27.265  1.00  0.00     0.057 A 
ATOM     63  C   UNL A   1      41.756  25.867  27.286  1.00  0.00     0.134 A 
ATOM     64  C   UNL A   1      41.940  27.901  26.088  1.00  0.00     0.134 A 
ATOM     65  F   UNL A   1      41.319  25.089  28.284  1.00  0.00    -0.206 F 
ATOM     66  C   UNL A   1      42.448  25.188  26.277  1.00  0.00     0.040 A 
ATOM     67  C   UNL A   1      42.656  27.235  25.076  1.00  0.00     0.040 A 
ATOM     68  F   UNL A   1      41.642  29.185  25.847  1.00  0.00    -0.206 F 
ATOM     69  C   UNL A   1      42.926  25.876  25.176  1.00  0.00     0.006 A 
ENDBRANCH  48  62
BRANCH  49  70
ATOM     70  C   UNL A   1      37.560  32.952  33.991  1.00  0.00     0.057 A 
ATOM     71  C   UNL A   1      37.101  34.201  34.455  1.00  0.00     0.134 A 
ATOM     72  C   UNL A   1      36.598  32.102  33.446  1.00  0.00     0.134 A 
ATOM     73  F   UNL A   1      37.968  35.079  34.985  1.00  0.00    -0.206 F 
ATOM     74  C   UNL A   1      35.780  34.631  34.274  1.00  0.00     0.040 A 
ATOM     75  C   UNL A   1      35.277  32.533  33.262  1.00  0.00     0.040 A 
ATOM     76  F   UNL A   1      36.943  30.907  32.949  1.00  0.00    -0.206 F 
ATOM     77  C   UNL A   1      34.867  33.805  33.640  1.00  0.00     0.006 A 
ENDBRANCH  49  70
BRANCH  61  78
ATOM     78  C   UNL A   1      42.779  27.815  33.675  1.00  0.00     0.057 A 
ATOM     79  C   UNL A   1      44.176  27.798  33.634  1.00  0.00     0.134 A 
ATOM     80  C   UNL A   1      42.201  26.768  34.443  1.00  0.00     0.134 A 
ATOM     81  F   UNL A   1      44.879  28.777  33.053  1.00  0.00    -0.206 F 
ATOM     82  C   UNL A   1      44.934  26.795  34.254  1.00  0.00     0.040 A 
ATOM     83  C   UNL A   1      42.949  25.808  35.126  1.00  0.00     0.040 A 
ATOM     84  F   UNL A   1      40.876  26.634  34.604  1.00  0.00    -0.206 F 
ATOM     85  C   UNL A   1      44.326  25.807  35.018  1.00  0.00     0.006 A 
ENDBRANCH  61  78
ENDBRANCH  35  36
ENDBRANCH  28  30
ENDBRANCH  27  28
ENDBRANCH  26  27
ENDBRANCH   1  26
TORSDOF 14
ENDMDL
MODEL 3
REMARK VINA RESULT:     -12.1      3.338      9.385
REMARK SMILES Cc1cc([N+](=O)[O-])ccc1NC(=O)[C@@H]1[C@@H](C(=O)OCCOC(=O)c2ccc(-c3c4nc(c(-c5c(F)cccc5F)c5ccc([nH]5)c(-c5c(F)cccc5F)c5nc(c(-c6c(F)cccc6F)c6ccc3[nH]6)C=C5)C=C4)cc2)[C@H]2C=C[C@@H]1C2
REMARK SMILES IDX 19 1 18 2 16 3 17 4 15 5 14 6 81 7 78 8 80 9 82 10 79 11
REMARK SMILES IDX 12 12 11 13 13 15 10 16 1 17 2 18 3 19 4 20 9 21 8 22 5 23
REMARK SMILES IDX 6 24 7 25 20 26 21 27 22 28 23 29 24 30 25 31 77 32 26 33
REMARK SMILES IDX 76 34 27 35 28 36 29 37 70 38 30 39 75 40 69 41 71 42 31 43
REMARK SMILES IDX 74 44 68 45 67 46 32 48 58 49 41 50 57 51 42 52 45 53 56 54
REMARK SMILES IDX 72 55 43 56 44 57 55 59 73 60 46 61 33 62 34 63 39 64 35 65
REMARK SMILES IDX 36 66 38 67 40 68 37 69 59 70 60 71 65 72 61 73 62 74 64 75
REMARK SMILES IDX 66 76 63 77 47 78 48 79 53 80 49 81 50 82 52 83 54 84 51 85
REMARK H PARENT 11 14 71 47 45 58
REMARK Flexibility Score: inf
ROOT
ATOM      1  C   UNL A   1      36.867  20.421  25.004  1.00  0.00     0.274 C 
ENDROOT
BRANCH   1   2
ATOM      2  O   UNL A   1      36.358  21.453  25.881  1.00  0.00    -0.462 OA
BRANCH   2   3
ATOM      3  C   UNL A   1      35.006  21.622  25.708  1.00  0.00     0.310 C 
ATOM      4  O   UNL A   1      34.313  20.742  25.207  1.00  0.00    -0.252 OA
BRANCH   3   5
ATOM      5  C   UNL A   1      34.474  23.022  26.021  1.00  0.00     0.119 C 
ATOM      6  C   UNL A   1      33.014  23.493  25.612  1.00  0.00     0.100 C 
ATOM      7  C   UNL A   1      33.304  24.814  24.827  1.00  0.00     0.025 C 
ATOM      8  C   UNL A   1      35.343  24.009  25.163  1.00  0.00     0.027 C 
ATOM      9  C   UNL A   1      33.801  24.390  23.474  1.00  0.00    -0.027 C 
ATOM     10  C   UNL A   1      34.615  25.312  25.432  1.00  0.00     0.017 C 
ATOM     11  C   UNL A   1      35.022  23.882  23.675  1.00  0.00    -0.027 C 
BRANCH   6  12
ATOM     12  C   UNL A   1      32.020  23.823  26.719  1.00  0.00     0.228 C 
ATOM     13  N   UNL A   1      31.164  24.908  26.663  1.00  0.00    -0.326 N 
ATOM     14  H   UNL A   1      30.616  24.984  27.476  1.00  0.00     0.169 HD
ATOM     15  O   UNL A   1      31.953  23.108  27.724  1.00  0.00    -0.274 OA
BRANCH  13  16
ATOM     16  C   UNL A   1      30.872  25.942  25.726  1.00  0.00     0.044 A 
ATOM     17  C   UNL A   1      32.287  27.692  27.034  1.00  0.00     0.047 C 
ATOM     18  C   UNL A   1      31.366  27.259  25.920  1.00  0.00    -0.021 A 
ATOM     19  C   UNL A   1      31.020  28.294  25.005  1.00  0.00     0.091 A 
ATOM     20  C   UNL A   1      30.221  28.033  23.892  1.00  0.00     0.269 A 
ATOM     21  C   UNL A   1      30.079  25.736  24.593  1.00  0.00     0.033 A 
ATOM     22  C   UNL A   1      29.777  26.742  23.665  1.00  0.00     0.088 A 
BRANCH  20  23
ATOM     23  N   UNL A   1      29.811  29.112  22.986  1.00  0.00     0.062 N 
ATOM     24  O   UNL A   1      29.441  30.179  23.497  1.00  0.00    -0.258 OA
ATOM     25  O   UNL A   1      29.843  28.889  21.768  1.00  0.00    -0.258 OA
ENDBRANCH  20  23
ENDBRANCH  13  16
ENDBRANCH   6  12
ENDBRANCH   3   5
ENDBRANCH   2   3
ENDBRANCH   1   2
BRANCH   1  26
ATOM     26  C   UNL A   1      38.385  20.182  25.027  1.00  0.00     0.275 C 
BRANCH  26  27
ATOM     27  O   UNL A   1      39.123  20.382  26.258  1.00  0.00    -0.458 OA
BRANCH  27  28
ATOM     28  C   UNL A   1      40.431  20.702  26.408  1.00  0.00     0.338 C 
ATOM     29  O   UNL A   1      41.340  19.991  26.034  1.00  0.00    -0.246 OA
BRANCH  28  30
ATOM     30  C   UNL A   1      40.716  22.001  27.018  1.00  0.00     0.060 A 
ATOM     31  C   UNL A   1      41.441  22.004  28.218  1.00  0.00     0.016 A 
ATOM     32  C   UNL A   1      40.372  23.177  26.354  1.00  0.00     0.016 A 
ATOM     33  C   UNL A   1      41.940  23.201  28.705  1.00  0.00     0.010 A 
ATOM     34  C   UNL A   1      40.889  24.360  26.825  1.00  0.00     0.010 A 
ATOM     35  C   UNL A   1      41.675  24.360  27.987  1.00  0.00    -0.014 A 
BRANCH  35  36
ATOM     36  C   UNL A   1      41.991  25.672  28.507  1.00  0.00     0.031 A 
ATOM     37  C   UNL A   1      40.931  26.647  28.820  1.00  0.00     0.074 A 
ATOM     38  C   UNL A   1      43.312  25.817  28.731  1.00  0.00     0.049 A 
ATOM     39  N   UNL A   1      41.044  27.924  28.675  1.00  0.00    -0.248 NA
ATOM     40  C   UNL A   1      39.581  26.250  29.227  1.00  0.00     0.031 C 
ATOM     41  C   UNL A   1      44.024  26.732  29.593  1.00  0.00     0.029 A 
ATOM     42  N   UNL A   1      44.326  25.124  28.079  1.00  0.00    -0.354 N 
ATOM     43  C   UNL A   1      39.959  28.485  29.329  1.00  0.00     0.074 A 
ATOM     44  C   UNL A   1      38.985  27.431  29.434  1.00  0.00     0.031 C 
ATOM     45  C   UNL A   1      45.331  26.715  29.258  1.00  0.00     0.029 A 
ATOM     46  C   UNL A   1      45.464  25.917  28.044  1.00  0.00     0.049 A 
ATOM     47  H   UNL A   1      44.249  24.218  27.702  1.00  0.00     0.167 HD
ATOM     48  C   UNL A   1      40.111  29.660  30.008  1.00  0.00     0.037 A 
ATOM     49  C   UNL A   1      45.910  26.402  26.844  1.00  0.00     0.037 A 
ATOM     50  C   UNL A   1      41.519  30.015  30.003  1.00  0.00     0.049 A 
ATOM     51  C   UNL A   1      45.777  27.908  26.792  1.00  0.00     0.074 A 
ATOM     52  C   UNL A   1      42.520  29.678  30.900  1.00  0.00     0.029 A 
ATOM     53  N   UNL A   1      42.134  30.447  28.843  1.00  0.00    -0.354 N 
ATOM     54  N   UNL A   1      44.807  28.585  27.347  1.00  0.00    -0.248 NA
ATOM     55  C   UNL A   1      46.806  28.763  26.211  1.00  0.00     0.031 C 
ATOM     56  C   UNL A   1      43.759  29.908  30.268  1.00  0.00     0.029 A 
ATOM     57  C   UNL A   1      43.503  30.370  28.988  1.00  0.00     0.049 A 
ATOM     58  H   UNL A   1      41.667  30.760  28.035  1.00  0.00     0.167 HD
ATOM     59  C   UNL A   1      45.123  29.926  27.313  1.00  0.00     0.074 A 
ATOM     60  C   UNL A   1      46.367  29.982  26.568  1.00  0.00     0.031 C 
ATOM     61  C   UNL A   1      44.380  30.878  27.955  1.00  0.00     0.037 A 
BRANCH  48  62
ATOM     62  C   UNL A   1      39.146  30.249  31.016  1.00  0.00     0.057 A 
ATOM     63  C   UNL A   1      38.450  31.446  30.729  1.00  0.00     0.134 A 
ATOM     64  C   UNL A   1      38.850  29.694  32.271  1.00  0.00     0.134 A 
ATOM     65  F   UNL A   1      38.532  32.044  29.534  1.00  0.00    -0.206 F 
ATOM     66  C   UNL A   1      37.619  32.093  31.650  1.00  0.00     0.040 A 
ATOM     67  C   UNL A   1      38.035  30.346  33.215  1.00  0.00     0.040 A 
ATOM     68  F   UNL A   1      39.301  28.483  32.623  1.00  0.00    -0.206 F 
ATOM     69  C   UNL A   1      37.428  31.557  32.912  1.00  0.00     0.006 A 
ENDBRANCH  48  62
BRANCH  49  70
ATOM     70  C   UNL A   1      45.646  25.469  25.704  1.00  0.00     0.057 A 
ATOM     71  C   UNL A   1      46.578  24.448  25.430  1.00  0.00     0.134 A 
ATOM     72  C   UNL A   1      44.361  25.289  25.195  1.00  0.00     0.134 A 
ATOM     73  F   UNL A   1      47.834  24.545  25.893  1.00  0.00    -0.206 F 
ATOM     74  C   UNL A   1      46.217  23.254  24.792  1.00  0.00     0.040 A 
ATOM     75  C   UNL A   1      43.999  24.093  24.560  1.00  0.00     0.040 A 
ATOM     76  F   UNL A   1      43.398  26.190  25.431  1.00  0.00    -0.206 F 
ATOM     77  C   UNL A   1      44.908  23.058  24.384  1.00  0.00     0.006 A 
ENDBRANCH  49  70
BRANCH  61  78
ATOM     78  C   UNL A   1      44.453  32.387  27.814  1.00  0.00     0.057 A 
ATOM     79  C   UNL A   1      44.948  33.251  28.795  1.00  0.00     0.134 A 
ATOM     80  C   UNL A   1      44.162  33.014  26.572  1.00  0.00     0.134 A 
ATOM     81  F   UNL A   1      45.379  32.803  29.980  1.00  0.00    -0.206 F 
ATOM     82  C   UNL A   1      45.089  34.629  28.581  1.00  0.00     0.040 A 
ATOM     83  C   UNL A   1      44.368  34.371  26.325  1.00  0.00     0.040 A 
ATOM     84  F   UNL A   1      43.691  32.338  25.513  1.00  0.00    -0.206 F 
ATOM     85  C   UNL A   1      44.818  35.192  27.341  1.00  0.00     0.006 A 
ENDBRANCH  61  78
ENDBRANCH  35  36
ENDBRANCH  28  30
ENDBRANCH  27  28
ENDBRANCH  26  27
ENDBRANCH   1  26
TORSDOF 14
ENDMDL
