MODEL 1
REMARK VINA RESULT:      -9.9      0.000      0.000
REMARK SMILES C[NH2+]CCCC(=O)NC[C@@H]1CC[C@H](C(=O)OCCOC(=O)c2ccc(-c3c4nc(c(-c5c(F)cccc5F)c5ccc([nH]5)c(-c5c(F)cccc5F)c5nc(c(-c6c(F)cccc6F)c6ccc3[nH]6)C=C5)C=C4)cc2)O1
REMARK SMILES IDX 14 1 15 2 13 3 10 4 11 5 76 6 12 7 9 8 8 9 6 10 7 11 5 13
REMARK SMILES IDX 4 14 3 15 2 16 1 17 16 20 17 21 18 22 19 23 20 24 21 25
REMARK SMILES IDX 22 26 23 27 75 28 24 29 74 30 25 31 26 32 27 33 68 34 28 35
REMARK SMILES IDX 73 36 67 37 69 38 29 39 72 40 66 41 65 42 30 44 56 45 39 46
REMARK SMILES IDX 55 47 40 48 43 49 54 50 70 51 41 52 42 53 53 55 71 56 44 57
REMARK SMILES IDX 31 58 32 59 37 60 33 61 34 62 36 63 38 64 35 65 57 66 58 67
REMARK SMILES IDX 63 68 59 69 60 70 62 71 64 72 61 73 45 74 46 75 51 76 47 77
REMARK SMILES IDX 48 78 50 79 52 80 49 81
REMARK H PARENT 8 12 2 18 2 19 69 43 43 54
REMARK Flexibility Score: inf
ROOT
ATOM      1  C   UNL A   1      45.329  21.610  25.707  1.00  0.00     0.335 C 
ATOM      2  O   UNL A   1      44.351  21.725  26.439  1.00  0.00    -0.249 OA
ENDROOT
BRANCH   1   3
ATOM      3  C   UNL A   1      45.444  20.497  24.649  1.00  0.00     0.228 C 
ATOM      4  C   UNL A   1      44.290  18.545  25.192  1.00  0.00     0.138 C 
ATOM      5  C   UNL A   1      45.734  18.368  25.650  1.00  0.00     0.037 C 
ATOM      6  O   UNL A   1      44.214  19.792  24.486  1.00  0.00    -0.361 OA
ATOM      7  C   UNL A   1      46.490  19.428  24.883  1.00  0.00     0.047 C 
BRANCH   4   8
ATOM      8  C   UNL A   1      43.245  18.515  26.323  1.00  0.00     0.147 C 
BRANCH   8   9
ATOM      9  N   UNL A   1      41.869  18.555  25.836  1.00  0.00    -0.353 N 
ATOM     10  C   UNL A   1      40.854  19.417  26.107  1.00  0.00     0.220 C 
ATOM     11  O   UNL A   1      39.755  19.196  25.592  1.00  0.00    -0.275 OA
ATOM     12  H   UNL A   1      41.637  17.835  25.206  1.00  0.00     0.163 HD
BRANCH  10  13
ATOM     13  C   UNL A   1      41.070  20.633  26.981  1.00  0.00     0.106 C 
BRANCH  13  14
ATOM     14  C   UNL A   1      40.753  21.951  26.270  1.00  0.00     0.071 C 
BRANCH  14  15
ATOM     15  C   UNL A   1      39.486  22.667  26.749  1.00  0.00     0.260 C 
BRANCH  15  16
ATOM     16  N   UNL A   1      38.738  23.366  25.699  1.00  0.00    -0.349 N 
ATOM     17  C   UNL A   1      37.491  23.934  26.186  1.00  0.00     0.330 C 
ATOM     18  H   UNL A   1      39.319  24.119  25.331  1.00  0.00     0.346 HD
ATOM     19  H   UNL A   1      38.506  22.683  24.978  1.00  0.00     0.346 HD
ENDBRANCH  15  16
ENDBRANCH  14  15
ENDBRANCH  13  14
ENDBRANCH  10  13
ENDBRANCH   8   9
ENDBRANCH   4   8
ENDBRANCH   1   3
BRANCH   1  20
ATOM     20  O   UNL A   1      46.418  22.426  25.733  1.00  0.00    -0.460 OA
BRANCH  20  21
ATOM     21  C   UNL A   1      46.193  23.786  26.162  1.00  0.00     0.274 C 
BRANCH  21  22
ATOM     22  C   UNL A   1      46.523  24.779  25.045  1.00  0.00     0.275 C 
BRANCH  22  23
ATOM     23  O   UNL A   1      45.406  25.639  24.756  1.00  0.00    -0.458 OA
BRANCH  23  24
ATOM     24  C   UNL A   1      44.191  25.073  24.936  1.00  0.00     0.338 C 
ATOM     25  O   UNL A   1      43.766  24.043  24.443  1.00  0.00    -0.246 OA
BRANCH  24  26
ATOM     26  C   UNL A   1      43.453  25.815  25.964  1.00  0.00     0.060 A 
ATOM     27  C   UNL A   1      43.796  27.151  26.172  1.00  0.00     0.016 A 
ATOM     28  C   UNL A   1      42.525  25.181  26.791  1.00  0.00     0.016 A 
ATOM     29  C   UNL A   1      43.243  27.858  27.230  1.00  0.00     0.010 A 
ATOM     30  C   UNL A   1      41.952  25.899  27.845  1.00  0.00     0.010 A 
ATOM     31  C   UNL A   1      42.327  27.233  28.083  1.00  0.00    -0.014 A 
BRANCH  31  32
ATOM     32  C   UNL A   1      41.822  27.979  29.258  1.00  0.00     0.031 A 
ATOM     33  C   UNL A   1      42.547  27.892  30.568  1.00  0.00     0.074 A 
ATOM     34  C   UNL A   1      40.749  28.779  29.126  1.00  0.00     0.049 A 
ATOM     35  N   UNL A   1      42.250  28.445  31.716  1.00  0.00    -0.248 NA
ATOM     36  C   UNL A   1      43.766  27.069  30.592  1.00  0.00     0.031 C 
ATOM     37  C   UNL A   1      39.986  28.972  27.893  1.00  0.00     0.029 A 
ATOM     38  N   UNL A   1      40.122  29.585  30.041  1.00  0.00    -0.354 N 
ATOM     39  C   UNL A   1      43.229  28.020  32.604  1.00  0.00     0.074 A 
ATOM     40  C   UNL A   1      44.121  27.151  31.866  1.00  0.00     0.031 C 
ATOM     41  C   UNL A   1      38.996  29.848  28.125  1.00  0.00     0.029 A 
ATOM     42  C   UNL A   1      39.035  30.248  29.529  1.00  0.00     0.049 A 
ATOM     43  H   UNL A   1      40.422  29.679  30.974  1.00  0.00     0.167 HD
ATOM     44  C   UNL A   1      43.370  28.329  33.914  1.00  0.00     0.037 A 
ATOM     45  C   UNL A   1      38.159  31.072  30.130  1.00  0.00     0.037 A 
ATOM     46  C   UNL A   1      42.494  29.211  34.639  1.00  0.00     0.049 A 
ATOM     47  C   UNL A   1      38.331  31.395  31.586  1.00  0.00     0.074 A 
ATOM     48  C   UNL A   1      42.557  29.593  35.969  1.00  0.00     0.029 A 
ATOM     49  N   UNL A   1      41.395  29.855  34.091  1.00  0.00    -0.354 N 
ATOM     50  N   UNL A   1      39.251  30.973  32.420  1.00  0.00    -0.248 NA
ATOM     51  C   UNL A   1      37.345  32.305  32.184  1.00  0.00     0.031 C 
ATOM     52  C   UNL A   1      41.479  30.449  36.230  1.00  0.00     0.029 A 
ATOM     53  C   UNL A   1      40.765  30.624  35.055  1.00  0.00     0.049 A 
ATOM     54  H   UNL A   1      41.105  29.778  33.152  1.00  0.00     0.167 HD
ATOM     55  C   UNL A   1      38.959  31.568  33.639  1.00  0.00     0.074 A 
ATOM     56  C   UNL A   1      37.790  32.398  33.430  1.00  0.00     0.031 C 
ATOM     57  C   UNL A   1      39.596  31.434  34.828  1.00  0.00     0.037 A 
BRANCH  44  58
ATOM     58  C   UNL A   1      44.500  27.677  34.650  1.00  0.00     0.057 A 
ATOM     59  C   UNL A   1      44.377  26.402  35.218  1.00  0.00     0.134 A 
ATOM     60  C   UNL A   1      45.730  28.331  34.789  1.00  0.00     0.134 A 
ATOM     61  F   UNL A   1      43.219  25.731  35.136  1.00  0.00    -0.206 F 
ATOM     62  C   UNL A   1      45.432  25.812  35.919  1.00  0.00     0.040 A 
ATOM     63  C   UNL A   1      46.798  27.744  35.469  1.00  0.00     0.040 A 
ATOM     64  F   UNL A   1      45.913  29.554  34.268  1.00  0.00    -0.206 F 
ATOM     65  C   UNL A   1      46.647  26.482  36.042  1.00  0.00     0.006 A 
ENDBRANCH  44  58
BRANCH  45  66
ATOM     66  C   UNL A   1      37.030  31.633  29.350  1.00  0.00     0.057 A 
ATOM     67  C   UNL A   1      35.871  30.888  29.112  1.00  0.00     0.134 A 
ATOM     68  C   UNL A   1      37.078  32.938  28.845  1.00  0.00     0.134 A 
ATOM     69  F   UNL A   1      35.777  29.626  29.555  1.00  0.00    -0.206 F 
ATOM     70  C   UNL A   1      34.798  31.419  28.394  1.00  0.00     0.040 A 
ATOM     71  C   UNL A   1      36.006  33.489  28.144  1.00  0.00     0.040 A 
ATOM     72  F   UNL A   1      38.163  33.701  29.044  1.00  0.00    -0.206 F 
ATOM     73  C   UNL A   1      34.862  32.727  27.914  1.00  0.00     0.006 A 
ENDBRANCH  45  66
BRANCH  57  74
ATOM     74  C   UNL A   1      39.039  32.207  35.984  1.00  0.00     0.057 A 
ATOM     75  C   UNL A   1      38.160  31.618  36.901  1.00  0.00     0.134 A 
ATOM     76  C   UNL A   1      39.394  33.545  36.189  1.00  0.00     0.134 A 
ATOM     77  F   UNL A   1      37.771  30.343  36.750  1.00  0.00    -0.206 F 
ATOM     78  C   UNL A   1      37.636  32.342  37.974  1.00  0.00     0.040 A 
ATOM     79  C   UNL A   1      38.892  34.274  37.267  1.00  0.00     0.040 A 
ATOM     80  F   UNL A   1      40.236  34.163  35.347  1.00  0.00    -0.206 F 
ATOM     81  C   UNL A   1      38.005  33.674  38.160  1.00  0.00     0.006 A 
ENDBRANCH  57  74
ENDBRANCH  31  32
ENDBRANCH  24  26
ENDBRANCH  23  24
ENDBRANCH  22  23
ENDBRANCH  21  22
ENDBRANCH  20  21
ENDBRANCH   1  20
TORSDOF 17
ENDMDL
MODEL 2
REMARK VINA RESULT:      -9.8      4.516      7.413
REMARK SMILES C[NH2+]CCCC(=O)NC[C@@H]1CC[C@H](C(=O)OCCOC(=O)c2ccc(-c3c4nc(c(-c5c(F)cccc5F)c5ccc([nH]5)c(-c5c(F)cccc5F)c5nc(c(-c6c(F)cccc6F)c6ccc3[nH]6)C=C5)C=C4)cc2)O1
REMARK SMILES IDX 14 1 15 2 13 3 10 4 11 5 76 6 12 7 9 8 8 9 6 10 7 11 5 13
REMARK SMILES IDX 4 14 3 15 2 16 1 17 16 20 17 21 18 22 19 23 20 24 21 25
REMARK SMILES IDX 22 26 23 27 75 28 24 29 74 30 25 31 26 32 27 33 68 34 28 35
REMARK SMILES IDX 73 36 67 37 69 38 29 39 72 40 66 41 65 42 30 44 56 45 39 46
REMARK SMILES IDX 55 47 40 48 43 49 54 50 70 51 41 52 42 53 53 55 71 56 44 57
REMARK SMILES IDX 31 58 32 59 37 60 33 61 34 62 36 63 38 64 35 65 57 66 58 67
REMARK SMILES IDX 63 68 59 69 60 70 62 71 64 72 61 73 45 74 46 75 51 76 47 77
REMARK SMILES IDX 48 78 50 79 52 80 49 81
REMARK H PARENT 8 12 2 18 2 19 69 43 43 54
REMARK Flexibility Score: inf
ROOT
ATOM      1  C   UNL A   1      36.514  20.952  25.001  1.00  0.00     0.335 C 
ATOM      2  O   UNL A   1      35.816  19.943  25.037  1.00  0.00    -0.249 OA
ENDROOT
BRANCH   1   3
ATOM      3  C   UNL A   1      35.977  22.345  25.380  1.00  0.00     0.228 C 
ATOM      4  C   UNL A   1      33.864  22.816  24.515  1.00  0.00     0.138 C 
ATOM      5  C   UNL A   1      34.894  23.390  23.549  1.00  0.00     0.037 C 
ATOM      6  O   UNL A   1      34.577  22.314  25.654  1.00  0.00    -0.361 OA
ATOM      7  C   UNL A   1      36.163  23.454  24.368  1.00  0.00     0.047 C 
BRANCH   4   8
ATOM      8  C   UNL A   1      32.970  21.710  23.925  1.00  0.00     0.147 C 
BRANCH   8   9
ATOM      9  N   UNL A   1      32.699  20.626  24.865  1.00  0.00    -0.353 N 
ATOM     10  C   UNL A   1      32.507  19.296  24.658  1.00  0.00     0.220 C 
ATOM     11  O   UNL A   1      32.242  18.592  25.636  1.00  0.00    -0.275 OA
ATOM     12  H   UNL A   1      32.645  20.905  25.807  1.00  0.00     0.163 HD
BRANCH  10  13
ATOM     13  C   UNL A   1      32.650  18.688  23.281  1.00  0.00     0.106 C 
BRANCH  13  14
ATOM     14  C   UNL A   1      33.059  17.214  23.312  1.00  0.00     0.071 C 
BRANCH  14  15
ATOM     15  C   UNL A   1      34.484  16.938  23.803  1.00  0.00     0.260 C 
BRANCH  15  16
ATOM     16  N   UNL A   1      34.594  16.616  25.229  1.00  0.00    -0.349 N 
ATOM     17  C   UNL A   1      35.811  15.884  25.544  1.00  0.00     0.330 C 
ATOM     18  H   UNL A   1      34.589  17.486  25.762  1.00  0.00     0.346 HD
ATOM     19  H   UNL A   1      33.804  16.020  25.473  1.00  0.00     0.346 HD
ENDBRANCH  15  16
ENDBRANCH  14  15
ENDBRANCH  13  14
ENDBRANCH  10  13
ENDBRANCH   8   9
ENDBRANCH   4   8
ENDBRANCH   1   3
BRANCH   1  20
ATOM     20  O   UNL A   1      37.823  20.976  24.628  1.00  0.00    -0.460 OA
BRANCH  20  21
ATOM     21  C   UNL A   1      38.791  21.152  25.684  1.00  0.00     0.274 C 
BRANCH  21  22
ATOM     22  C   UNL A   1      39.477  19.828  26.031  1.00  0.00     0.275 C 
BRANCH  22  23
ATOM     23  O   UNL A   1      40.711  19.668  25.307  1.00  0.00    -0.458 OA
BRANCH  23  24
ATOM     24  C   UNL A   1      41.805  19.489  26.081  1.00  0.00     0.338 C 
ATOM     25  O   UNL A   1      42.369  18.443  26.348  1.00  0.00    -0.246 OA
BRANCH  24  26
ATOM     26  C   UNL A   1      42.348  20.795  26.470  1.00  0.00     0.060 A 
ATOM     27  C   UNL A   1      42.356  21.115  27.829  1.00  0.00     0.016 A 
ATOM     28  C   UNL A   1      42.731  21.736  25.515  1.00  0.00     0.016 A 
ATOM     29  C   UNL A   1      42.713  22.391  28.243  1.00  0.00     0.010 A 
ATOM     30  C   UNL A   1      43.110  23.016  25.934  1.00  0.00     0.010 A 
ATOM     31  C   UNL A   1      43.079  23.355  27.298  1.00  0.00    -0.014 A 
BRANCH  31  32
ATOM     32  C   UNL A   1      43.365  24.733  27.758  1.00  0.00     0.031 A 
ATOM     33  C   UNL A   1      44.782  25.218  27.835  1.00  0.00     0.074 A 
ATOM     34  C   UNL A   1      42.345  25.561  28.047  1.00  0.00     0.049 A 
ATOM     35  N   UNL A   1      45.238  26.375  28.238  1.00  0.00    -0.248 NA
ATOM     36  C   UNL A   1      45.825  24.273  27.406  1.00  0.00     0.031 C 
ATOM     37  C   UNL A   1      40.927  25.213  27.973  1.00  0.00     0.029 A 
ATOM     38  N   UNL A   1      42.350  26.870  28.453  1.00  0.00    -0.354 N 
ATOM     39  C   UNL A   1      46.621  26.292  28.134  1.00  0.00     0.074 A 
ATOM     40  C   UNL A   1      46.929  24.965  27.645  1.00  0.00     0.031 C 
ATOM     41  C   UNL A   1      40.195  26.285  28.315  1.00  0.00     0.029 A 
ATOM     42  C   UNL A   1      41.094  27.381  28.665  1.00  0.00     0.049 A 
ATOM     43  H   UNL A   1      43.174  27.394  28.580  1.00  0.00     0.167 HD
ATOM     44  C   UNL A   1      47.546  27.237  28.421  1.00  0.00     0.037 A 
ATOM     45  C   UNL A   1      40.712  28.591  29.110  1.00  0.00     0.037 A 
ATOM     46  C   UNL A   1      47.234  28.564  28.886  1.00  0.00     0.049 A 
ATOM     47  C   UNL A   1      41.757  29.621  29.427  1.00  0.00     0.074 A 
ATOM     48  C   UNL A   1      48.102  29.597  29.198  1.00  0.00     0.029 A 
ATOM     49  N   UNL A   1      45.950  29.041  29.101  1.00  0.00    -0.354 N 
ATOM     50  N   UNL A   1      43.062  29.526  29.342  1.00  0.00    -0.248 NA
ATOM     51  C   UNL A   1      41.277  30.926  29.903  1.00  0.00     0.031 C 
ATOM     52  C   UNL A   1      47.341  30.693  29.626  1.00  0.00     0.029 A 
ATOM     53  C   UNL A   1      46.000  30.351  29.551  1.00  0.00     0.049 A 
ATOM     54  H   UNL A   1      45.124  28.525  28.955  1.00  0.00     0.167 HD
ATOM     55  C   UNL A   1      43.560  30.755  29.749  1.00  0.00     0.074 A 
ATOM     56  C   UNL A   1      42.416  31.588  30.059  1.00  0.00     0.031 C 
ATOM     57  C   UNL A   1      44.849  31.157  29.864  1.00  0.00     0.037 A 
BRANCH  44  58
ATOM     58  C   UNL A   1      48.985  26.852  28.266  1.00  0.00     0.057 A 
ATOM     59  C   UNL A   1      49.676  27.037  27.061  1.00  0.00     0.134 A 
ATOM     60  C   UNL A   1      49.691  26.292  29.337  1.00  0.00     0.134 A 
ATOM     61  F   UNL A   1      49.051  27.552  25.992  1.00  0.00    -0.206 F 
ATOM     62  C   UNL A   1      51.013  26.656  26.922  1.00  0.00     0.040 A 
ATOM     63  C   UNL A   1      51.032  25.926  29.217  1.00  0.00     0.040 A 
ATOM     64  F   UNL A   1      49.087  26.088  30.518  1.00  0.00    -0.206 F 
ATOM     65  C   UNL A   1      51.695  26.103  28.004  1.00  0.00     0.006 A 
ENDBRANCH  44  58
BRANCH  45  66
ATOM     66  C   UNL A   1      39.271  28.881  29.294  1.00  0.00     0.057 A 
ATOM     67  C   UNL A   1      38.631  28.636  30.513  1.00  0.00     0.134 A 
ATOM     68  C   UNL A   1      38.506  29.431  28.258  1.00  0.00     0.134 A 
ATOM     69  F   UNL A   1      39.309  28.091  31.533  1.00  0.00    -0.206 F 
ATOM     70  C   UNL A   1      37.278  28.925  30.696  1.00  0.00     0.040 A 
ATOM     71  C   UNL A   1      37.158  29.743  28.433  1.00  0.00     0.040 A 
ATOM     72  F   UNL A   1      39.066  29.690  27.067  1.00  0.00    -0.206 F 
ATOM     73  C   UNL A   1      36.539  29.488  29.655  1.00  0.00     0.006 A 
ENDBRANCH  45  66
BRANCH  57  74
ATOM     74  C   UNL A   1      45.079  32.559  30.339  1.00  0.00     0.057 A 
ATOM     75  C   UNL A   1      45.255  32.851  31.698  1.00  0.00     0.134 A 
ATOM     76  C   UNL A   1      45.140  33.623  29.432  1.00  0.00     0.134 A 
ATOM     77  F   UNL A   1      45.194  31.875  32.617  1.00  0.00    -0.206 F 
ATOM     78  C   UNL A   1      45.462  34.158  32.140  1.00  0.00     0.040 A 
ATOM     79  C   UNL A   1      45.365  34.932  29.860  1.00  0.00     0.040 A 
ATOM     80  F   UNL A   1      44.984  33.407  28.118  1.00  0.00    -0.206 F 
ATOM     81  C   UNL A   1      45.521  35.203  31.219  1.00  0.00     0.006 A 
ENDBRANCH  57  74
ENDBRANCH  31  32
ENDBRANCH  24  26
ENDBRANCH  23  24
ENDBRANCH  22  23
ENDBRANCH  21  22
ENDBRANCH  20  21
ENDBRANCH   1  20
TORSDOF 17
ENDMDL
MODEL 3
REMARK VINA RESULT:      -9.7      4.277      6.863
REMARK SMILES C[NH2+]CCCC(=O)NC[C@@H]1CC[C@H](C(=O)OCCOC(=O)c2ccc(-c3c4nc(c(-c5c(F)cccc5F)c5ccc([nH]5)c(-c5c(F)cccc5F)c5nc(c(-c6c(F)cccc6F)c6ccc3[nH]6)C=C5)C=C4)cc2)O1
REMARK SMILES IDX 14 1 15 2 13 3 10 4 11 5 76 6 12 7 9 8 8 9 6 10 7 11 5 13
REMARK SMILES IDX 4 14 3 15 2 16 1 17 16 20 17 21 18 22 19 23 20 24 21 25
REMARK SMILES IDX 22 26 23 27 75 28 24 29 74 30 25 31 26 32 27 33 68 34 28 35
REMARK SMILES IDX 73 36 67 37 69 38 29 39 72 40 66 41 65 42 30 44 56 45 39 46
REMARK SMILES IDX 55 47 40 48 43 49 54 50 70 51 41 52 42 53 53 55 71 56 44 57
REMARK SMILES IDX 31 58 32 59 37 60 33 61 34 62 36 63 38 64 35 65 57 66 58 67
REMARK SMILES IDX 63 68 59 69 60 70 62 71 64 72 61 73 45 74 46 75 51 76 47 77
REMARK SMILES IDX 48 78 50 79 52 80 49 81
REMARK H PARENT 8 12 2 18 2 19 69 43 43 54
REMARK Flexibility Score: inf
ROOT
ATOM      1  C   UNL A   1      36.229  20.927  25.059  1.00  0.00     0.335 C 
ATOM      2  O   UNL A   1      35.386  20.037  25.120  1.00  0.00    -0.249 OA
ENDROOT
BRANCH   1   3
ATOM      3  C   UNL A   1      35.866  22.420  25.164  1.00  0.00     0.228 C 
ATOM      4  C   UNL A   1      33.929  23.012  24.008  1.00  0.00     0.138 C 
ATOM      5  C   UNL A   1      35.114  23.283  23.088  1.00  0.00     0.037 C 
ATOM      6  O   UNL A   1      34.457  22.615  25.282  1.00  0.00    -0.361 OA
ATOM      7  C   UNL A   1      36.299  23.317  24.025  1.00  0.00     0.047 C 
BRANCH   4   8
ATOM      8  C   UNL A   1      32.941  21.947  23.494  1.00  0.00     0.147 C 
BRANCH   8   9
ATOM      9  N   UNL A   1      32.631  20.922  24.486  1.00  0.00    -0.353 N 
ATOM     10  C   UNL A   1      32.394  19.591  24.347  1.00  0.00     0.220 C 
ATOM     11  O   UNL A   1      32.103  18.947  25.358  1.00  0.00    -0.275 OA
ATOM     12  H   UNL A   1      32.583  21.251  25.413  1.00  0.00     0.163 HD
BRANCH  10  13
ATOM     13  C   UNL A   1      32.521  18.909  23.003  1.00  0.00     0.106 C 
BRANCH  13  14
ATOM     14  C   UNL A   1      32.920  17.435  23.110  1.00  0.00     0.071 C 
BRANCH  14  15
ATOM     15  C   UNL A   1      34.378  17.176  23.503  1.00  0.00     0.260 C 
BRANCH  15  16
ATOM     16  N   UNL A   1      34.606  16.990  24.939  1.00  0.00    -0.349 N 
ATOM     17  C   UNL A   1      33.884  15.847  25.476  1.00  0.00     0.330 C 
ATOM     18  H   UNL A   1      35.603  16.850  25.096  1.00  0.00     0.346 HD
ATOM     19  H   UNL A   1      34.263  17.824  25.417  1.00  0.00     0.346 HD
ENDBRANCH  15  16
ENDBRANCH  14  15
ENDBRANCH  13  14
ENDBRANCH  10  13
ENDBRANCH   8   9
ENDBRANCH   4   8
ENDBRANCH   1   3
BRANCH   1  20
ATOM     20  O   UNL A   1      37.564  20.721  24.890  1.00  0.00    -0.460 OA
BRANCH  20  21
ATOM     21  C   UNL A   1      37.998  19.346  24.809  1.00  0.00     0.274 C 
BRANCH  21  22
ATOM     22  C   UNL A   1      39.235  19.105  25.678  1.00  0.00     0.275 C 
BRANCH  22  23
ATOM     23  O   UNL A   1      40.315  19.985  25.314  1.00  0.00    -0.458 OA
BRANCH  23  24
ATOM     24  C   UNL A   1      41.475  19.762  25.972  1.00  0.00     0.338 C 
ATOM     25  O   UNL A   1      42.108  18.723  26.041  1.00  0.00    -0.246 OA
BRANCH  24  26
ATOM     26  C   UNL A   1      41.985  21.029  26.507  1.00  0.00     0.060 A 
ATOM     27  C   UNL A   1      41.887  21.238  27.883  1.00  0.00     0.016 A 
ATOM     28  C   UNL A   1      42.442  22.042  25.664  1.00  0.00     0.016 A 
ATOM     29  C   UNL A   1      42.210  22.474  28.426  1.00  0.00     0.010 A 
ATOM     30  C   UNL A   1      42.786  23.281  26.213  1.00  0.00     0.010 A 
ATOM     31  C   UNL A   1      42.648  23.509  27.594  1.00  0.00    -0.014 A 
BRANCH  31  32
ATOM     32  C   UNL A   1      42.897  24.843  28.185  1.00  0.00     0.031 A 
ATOM     33  C   UNL A   1      44.286  25.235  28.593  1.00  0.00     0.074 A 
ATOM     34  C   UNL A   1      41.882  25.719  28.298  1.00  0.00     0.049 A 
ATOM     35  N   UNL A   1      44.702  26.342  29.152  1.00  0.00    -0.248 NA
ATOM     36  C   UNL A   1      45.348  24.249  28.343  1.00  0.00     0.031 C 
ATOM     37  C   UNL A   1      40.498  25.464  27.901  1.00  0.00     0.029 A 
ATOM     38  N   UNL A   1      41.865  27.005  28.772  1.00  0.00    -0.354 N 
ATOM     39  C   UNL A   1      46.068  26.178  29.343  1.00  0.00     0.074 A 
ATOM     40  C   UNL A   1      46.408  24.859  28.853  1.00  0.00     0.031 C 
ATOM     41  C   UNL A   1      39.764  26.562  28.141  1.00  0.00     0.029 A 
ATOM     42  C   UNL A   1      40.620  27.583  28.740  1.00  0.00     0.049 A 
ATOM     43  H   UNL A   1      42.667  27.470  29.104  1.00  0.00     0.167 HD
ATOM     44  C   UNL A   1      46.955  27.049  29.876  1.00  0.00     0.037 A 
ATOM     45  C   UNL A   1      40.213  28.792  29.163  1.00  0.00     0.037 A 
ATOM     46  C   UNL A   1      46.618  28.369  30.342  1.00  0.00     0.049 A 
ATOM     47  C   UNL A   1      41.215  29.739  29.758  1.00  0.00     0.074 A 
ATOM     48  C   UNL A   1      47.448  29.330  30.893  1.00  0.00     0.029 A 
ATOM     49  N   UNL A   1      45.344  28.915  30.305  1.00  0.00    -0.354 N 
ATOM     50  N   UNL A   1      42.500  29.567  29.949  1.00  0.00    -0.248 NA
ATOM     51  C   UNL A   1      40.709  31.047  30.196  1.00  0.00     0.031 C 
ATOM     52  C   UNL A   1      46.669  30.450  31.212  1.00  0.00     0.029 A 
ATOM     53  C   UNL A   1      45.361  30.196  30.831  1.00  0.00     0.049 A 
ATOM     54  H   UNL A   1      44.544  28.459  29.955  1.00  0.00     0.167 HD
ATOM     55  C   UNL A   1      42.959  30.742  30.526  1.00  0.00     0.074 A 
ATOM     56  C   UNL A   1      41.819  31.630  30.632  1.00  0.00     0.031 C 
ATOM     57  C   UNL A   1      44.212  31.057  30.938  1.00  0.00     0.037 A 
BRANCH  44  58
ATOM     58  C   UNL A   1      48.372  26.582  30.011  1.00  0.00     0.057 A 
ATOM     59  C   UNL A   1      48.809  25.853  31.125  1.00  0.00     0.134 A 
ATOM     60  C   UNL A   1      49.312  26.861  29.011  1.00  0.00     0.134 A 
ATOM     61  F   UNL A   1      47.963  25.569  32.126  1.00  0.00    -0.206 F 
ATOM     62  C   UNL A   1      50.137  25.439  31.249  1.00  0.00     0.040 A 
ATOM     63  C   UNL A   1      50.637  26.436  29.114  1.00  0.00     0.040 A 
ATOM     64  F   UNL A   1      48.957  27.556  27.919  1.00  0.00    -0.206 F 
ATOM     65  C   UNL A   1      51.054  25.727  30.240  1.00  0.00     0.006 A 
ENDBRANCH  44  58
BRANCH  45  66
ATOM     66  C   UNL A   1      38.783  29.162  29.051  1.00  0.00     0.057 A 
ATOM     67  C   UNL A   1      38.238  29.597  27.838  1.00  0.00     0.134 A 
ATOM     68  C   UNL A   1      37.922  29.064  30.151  1.00  0.00     0.134 A 
ATOM     69  F   UNL A   1      39.019  29.729  26.757  1.00  0.00    -0.206 F 
ATOM     70  C   UNL A   1      36.887  29.928  27.724  1.00  0.00     0.040 A 
ATOM     71  C   UNL A   1      36.566  29.373  30.047  1.00  0.00     0.040 A 
ATOM     72  F   UNL A   1      38.387  28.650  31.340  1.00  0.00    -0.206 F 
ATOM     73  C   UNL A   1      36.045  29.809  28.830  1.00  0.00     0.006 A 
ENDBRANCH  45  66
BRANCH  57  74
ATOM     74  C   UNL A   1      44.404  32.418  31.533  1.00  0.00     0.057 A 
ATOM     75  C   UNL A   1      44.708  33.529  30.736  1.00  0.00     0.134 A 
ATOM     76  C   UNL A   1      44.269  32.624  32.911  1.00  0.00     0.134 A 
ATOM     77  F   UNL A   1      44.863  33.392  29.410  1.00  0.00    -0.206 F 
ATOM     78  C   UNL A   1      44.894  34.795  31.293  1.00  0.00     0.040 A 
ATOM     79  C   UNL A   1      44.434  33.888  33.477  1.00  0.00     0.040 A 
ATOM     80  F   UNL A   1      43.974  31.600  33.727  1.00  0.00    -0.206 F 
ATOM     81  C   UNL A   1      44.753  34.977  32.668  1.00  0.00     0.006 A 
ENDBRANCH  57  74
ENDBRANCH  31  32
ENDBRANCH  24  26
ENDBRANCH  23  24
ENDBRANCH  22  23
ENDBRANCH  21  22
ENDBRANCH  20  21
ENDBRANCH   1  20
TORSDOF 17
ENDMDL
