MODEL 1
REMARK VINA RESULT:     -11.6      0.000      0.000
REMARK SMILES CCCCCCNC(=O)Oc1cccc(-c2ccc(CC(=O)OCCOC(=O)c3ccc(-c4c5nc(c(-c6c(F)cccc6F)c6ccc([nH]6)c(-c6c(F)cccc6F)c6nc(c(-c7c(F)cccc7F)c7ccc4[nH]7)C=C6)C=C5)cc3)cc2F)c1
REMARK SMILES IDX 20 1 19 2 16 3 17 4 84 5 18 6 83 7 85 8 15 9 11 10 12 11
REMARK SMILES IDX 86 12 13 13 14 14 10 15 8 16 7 17 9 19 6 20 5 21 4 22 3 23
REMARK SMILES IDX 2 24 1 25 21 26 22 27 23 28 24 29 25 30 26 31 27 32 28 33
REMARK SMILES IDX 29 34 30 35 82 36 31 37 81 38 32 39 33 40 34 41 75 42 35 43
REMARK SMILES IDX 80 44 74 45 76 46 36 47 79 48 73 49 72 50 37 52 63 53 46 54
REMARK SMILES IDX 62 55 47 56 50 57 61 58 77 59 48 60 49 61 60 63 78 64 51 65
REMARK SMILES IDX 38 66 39 67 44 68 40 69 41 70 43 71 45 72 42 73 64 74 65 75
REMARK SMILES IDX 70 76 66 77 67 78 69 79 71 80 68 81 52 82 53 83 58 84 54 85
REMARK SMILES IDX 55 86 57 87 59 88 56 89
REMARK H PARENT 7 18 76 51 50 62
REMARK Flexibility Score: inf
ROOT
ATOM      1  C   UNL A   1      41.674  19.509  26.845  1.00  0.00     0.158 C 
ENDROOT
BRANCH   1   2
ATOM      2  C   UNL A   1      40.407  20.168  26.359  1.00  0.00    -0.034 A 
ATOM      3  C   UNL A   1      38.084  21.469  25.375  1.00  0.00     0.018 A 
ATOM      4  C   UNL A   1      38.297  20.102  25.141  1.00  0.00     0.012 A 
ATOM      5  C   UNL A   1      39.054  22.160  26.113  1.00  0.00     0.131 A 
ATOM      6  C   UNL A   1      39.446  19.464  25.621  1.00  0.00     0.005 A 
ATOM      7  C   UNL A   1      40.194  21.528  26.602  1.00  0.00     0.044 A 
ATOM      8  F   UNL A   1      38.901  23.469  26.369  1.00  0.00    -0.206 F 
BRANCH   3   9
ATOM      9  C   UNL A   1      36.894  22.153  24.859  1.00  0.00    -0.012 A 
ATOM     10  C   UNL A   1      34.607  22.907  25.147  1.00  0.00     0.133 A 
ATOM     11  C   UNL A   1      34.564  23.366  23.834  1.00  0.00     0.047 A 
ATOM     12  C   UNL A   1      35.751  22.295  25.660  1.00  0.00     0.056 A 
ATOM     13  C   UNL A   1      35.698  23.243  23.032  1.00  0.00     0.004 A 
ATOM     14  C   UNL A   1      36.855  22.647  23.543  1.00  0.00     0.009 A 
BRANCH  10  15
ATOM     15  O   UNL A   1      33.417  22.956  25.888  1.00  0.00    -0.410 OA
BRANCH  15  16
ATOM     16  C   UNL A   1      33.125  21.877  26.709  1.00  0.00     0.412 C 
ATOM     17  N   UNL A   1      32.490  20.859  26.050  1.00  0.00    -0.321 N 
ATOM     18  H   UNL A   1      32.239  20.075  26.589  1.00  0.00     0.167 HD
ATOM     19  O   UNL A   1      33.374  21.790  27.905  1.00  0.00    -0.224 OA
BRANCH  17  20
ATOM     20  C   UNL A   1      32.151  20.815  24.642  1.00  0.00     0.119 C 
BRANCH  20  21
ATOM     21  C   UNL A   1      32.651  19.535  23.972  1.00  0.00     0.021 C 
BRANCH  21  22
ATOM     22  C   UNL A   1      33.822  18.846  24.684  1.00  0.00     0.002 C 
BRANCH  22  23
ATOM     23  C   UNL A   1      34.404  17.621  23.969  1.00  0.00    -0.000 C 
BRANCH  23  24
ATOM     24  C   UNL A   1      33.690  16.296  24.243  1.00  0.00    -0.003 C 
ATOM     25  C   UNL A   1      33.047  16.231  25.619  1.00  0.00     0.004 C 
ENDBRANCH  23  24
ENDBRANCH  22  23
ENDBRANCH  21  22
ENDBRANCH  20  21
ENDBRANCH  17  20
ENDBRANCH  15  16
ENDBRANCH  10  15
ENDBRANCH   3   9
ENDBRANCH   1   2
BRANCH   1  26
ATOM     26  C   UNL A   1      42.683  19.100  25.797  1.00  0.00     0.310 C 
ATOM     27  O   UNL A   1      43.046  17.934  25.671  1.00  0.00    -0.252 OA
BRANCH  26  28
ATOM     28  O   UNL A   1      43.084  20.125  25.002  1.00  0.00    -0.462 OA
BRANCH  28  29
ATOM     29  C   UNL A   1      44.477  20.481  25.089  1.00  0.00     0.274 C 
BRANCH  29  30
ATOM     30  C   UNL A   1      44.665  21.776  25.875  1.00  0.00     0.275 C 
BRANCH  30  31
ATOM     31  O   UNL A   1      43.467  22.570  25.815  1.00  0.00    -0.458 OA
BRANCH  31  32
ATOM     32  C   UNL A   1      43.614  23.816  25.315  1.00  0.00     0.338 C 
ATOM     33  O   UNL A   1      44.106  24.147  24.251  1.00  0.00    -0.246 OA
BRANCH  32  34
ATOM     34  C   UNL A   1      43.055  24.790  26.263  1.00  0.00     0.060 A 
ATOM     35  C   UNL A   1      43.495  26.114  26.237  1.00  0.00     0.016 A 
ATOM     36  C   UNL A   1      42.187  24.347  27.262  1.00  0.00     0.016 A 
ATOM     37  C   UNL A   1      43.107  26.995  27.244  1.00  0.00     0.010 A 
ATOM     38  C   UNL A   1      41.755  25.246  28.239  1.00  0.00     0.010 A 
ATOM     39  C   UNL A   1      42.232  26.569  28.253  1.00  0.00    -0.014 A 
BRANCH  39  40
ATOM     40  C   UNL A   1      41.838  27.491  29.344  1.00  0.00     0.031 A 
ATOM     41  C   UNL A   1      42.572  27.463  30.655  1.00  0.00     0.074 A 
ATOM     42  C   UNL A   1      40.811  28.343  29.165  1.00  0.00     0.049 A 
ATOM     43  N   UNL A   1      42.292  28.081  31.774  1.00  0.00    -0.248 NA
ATOM     44  C   UNL A   1      43.778  26.623  30.716  1.00  0.00     0.031 C 
ATOM     45  C   UNL A   1      40.039  28.488  27.931  1.00  0.00     0.029 A 
ATOM     46  N   UNL A   1      40.233  29.237  30.031  1.00  0.00    -0.354 N 
ATOM     47  C   UNL A   1      43.267  27.684  32.680  1.00  0.00     0.074 A 
ATOM     48  C   UNL A   1      44.138  26.760  31.985  1.00  0.00     0.031 C 
ATOM     49  C   UNL A   1      39.087  29.417  28.118  1.00  0.00     0.029 A 
ATOM     50  C   UNL A   1      39.149  29.890  29.498  1.00  0.00     0.049 A 
ATOM     51  H   UNL A   1      40.564  29.394  30.944  1.00  0.00     0.167 HD
ATOM     52  C   UNL A   1      43.421  28.057  33.973  1.00  0.00     0.037 A 
ATOM     53  C   UNL A   1      38.281  30.745  30.068  1.00  0.00     0.037 A 
ATOM     54  C   UNL A   1      42.566  28.993  34.656  1.00  0.00     0.049 A 
ATOM     55  C   UNL A   1      38.448  31.114  31.514  1.00  0.00     0.074 A 
ATOM     56  C   UNL A   1      42.649  29.444  35.962  1.00  0.00     0.029 A 
ATOM     57  N   UNL A   1      41.474  29.627  34.083  1.00  0.00    -0.354 N 
ATOM     58  N   UNL A   1      39.361  30.717  32.366  1.00  0.00    -0.248 NA
ATOM     59  C   UNL A   1      37.460  32.043  32.079  1.00  0.00     0.031 C 
ATOM     60  C   UNL A   1      41.587  30.328  36.188  1.00  0.00     0.029 A 
ATOM     61  C   UNL A   1      40.867  30.455  35.012  1.00  0.00     0.049 A 
ATOM     62  H   UNL A   1      41.175  29.506  33.152  1.00  0.00     0.167 HD
ATOM     63  C   UNL A   1      39.068  31.357  33.562  1.00  0.00     0.074 A 
ATOM     64  C   UNL A   1      37.902  32.181  33.322  1.00  0.00     0.031 C 
ATOM     65  C   UNL A   1      39.707  31.269  34.754  1.00  0.00     0.037 A 
BRANCH  52  66
ATOM     66  C   UNL A   1      44.547  27.433  34.741  1.00  0.00     0.057 A 
ATOM     67  C   UNL A   1      45.813  28.027  34.812  1.00  0.00     0.134 A 
ATOM     68  C   UNL A   1      44.354  26.235  35.441  1.00  0.00     0.134 A 
ATOM     69  F   UNL A   1      46.066  29.167  34.153  1.00  0.00    -0.206 F 
ATOM     70  C   UNL A   1      46.853  27.443  35.538  1.00  0.00     0.040 A 
ATOM     71  C   UNL A   1      45.379  25.652  36.186  1.00  0.00     0.040 A 
ATOM     72  F   UNL A   1      43.163  25.616  35.417  1.00  0.00    -0.206 F 
ATOM     73  C   UNL A   1      46.634  26.253  36.232  1.00  0.00     0.006 A 
ENDBRANCH  52  66
BRANCH  53  74
ATOM     74  C   UNL A   1      37.156  31.290  29.269  1.00  0.00     0.057 A 
ATOM     75  C   UNL A   1      36.006  30.531  29.028  1.00  0.00     0.134 A 
ATOM     76  C   UNL A   1      37.203  32.583  28.735  1.00  0.00     0.134 A 
ATOM     77  F   UNL A   1      35.914  29.278  29.496  1.00  0.00    -0.206 F 
ATOM     78  C   UNL A   1      34.944  31.036  28.276  1.00  0.00     0.040 A 
ATOM     79  C   UNL A   1      36.140  33.108  28.001  1.00  0.00     0.040 A 
ATOM     80  F   UNL A   1      38.279  33.359  28.934  1.00  0.00    -0.206 F 
ATOM     81  C   UNL A   1      35.007  32.332  27.766  1.00  0.00     0.006 A 
ENDBRANCH  53  74
BRANCH  65  82
ATOM     82  C   UNL A   1      39.172  32.105  35.877  1.00  0.00     0.057 A 
ATOM     83  C   UNL A   1      39.578  33.432  36.064  1.00  0.00     0.134 A 
ATOM     84  C   UNL A   1      38.218  31.585  36.760  1.00  0.00     0.134 A 
ATOM     85  F   UNL A   1      40.500  33.982  35.259  1.00  0.00    -0.206 F 
ATOM     86  C   UNL A   1      39.068  34.208  37.106  1.00  0.00     0.040 A 
ATOM     87  C   UNL A   1      37.686  32.358  37.793  1.00  0.00     0.040 A 
ATOM     88  F   UNL A   1      37.785  30.323  36.631  1.00  0.00    -0.206 F 
ATOM     89  C   UNL A   1      38.114  33.673  37.971  1.00  0.00     0.006 A 
ENDBRANCH  65  82
ENDBRANCH  39  40
ENDBRANCH  32  34
ENDBRANCH  31  32
ENDBRANCH  30  31
ENDBRANCH  29  30
ENDBRANCH  28  29
ENDBRANCH  26  28
ENDBRANCH   1  26
TORSDOF 20
ENDMDL
MODEL 2
REMARK VINA RESULT:     -11.1      4.661      9.637
REMARK SMILES CCCCCCNC(=O)Oc1cccc(-c2ccc(CC(=O)OCCOC(=O)c3ccc(-c4c5nc(c(-c6c(F)cccc6F)c6ccc([nH]6)c(-c6c(F)cccc6F)c6nc(c(-c7c(F)cccc7F)c7ccc4[nH]7)C=C6)C=C5)cc3)cc2F)c1
REMARK SMILES IDX 20 1 19 2 16 3 17 4 84 5 18 6 83 7 85 8 15 9 11 10 12 11
REMARK SMILES IDX 86 12 13 13 14 14 10 15 8 16 7 17 9 19 6 20 5 21 4 22 3 23
REMARK SMILES IDX 2 24 1 25 21 26 22 27 23 28 24 29 25 30 26 31 27 32 28 33
REMARK SMILES IDX 29 34 30 35 82 36 31 37 81 38 32 39 33 40 34 41 75 42 35 43
REMARK SMILES IDX 80 44 74 45 76 46 36 47 79 48 73 49 72 50 37 52 63 53 46 54
REMARK SMILES IDX 62 55 47 56 50 57 61 58 77 59 48 60 49 61 60 63 78 64 51 65
REMARK SMILES IDX 38 66 39 67 44 68 40 69 41 70 43 71 45 72 42 73 64 74 65 75
REMARK SMILES IDX 70 76 66 77 67 78 69 79 71 80 68 81 52 82 53 83 58 84 54 85
REMARK SMILES IDX 55 86 57 87 59 88 56 89
REMARK H PARENT 7 18 76 51 50 62
REMARK Flexibility Score: inf
ROOT
ATOM      1  C   UNL A   1      34.443  32.488  29.175  1.00  0.00     0.158 C 
ENDROOT
BRANCH   1   2
ATOM      2  C   UNL A   1      34.219  31.352  28.206  1.00  0.00    -0.034 A 
ATOM      3  C   UNL A   1      33.807  29.288  26.303  1.00  0.00     0.018 A 
ATOM      4  C   UNL A   1      34.971  29.324  27.084  1.00  0.00     0.012 A 
ATOM      5  C   UNL A   1      32.860  30.301  26.502  1.00  0.00     0.131 A 
ATOM      6  C   UNL A   1      35.177  30.347  28.018  1.00  0.00     0.005 A 
ATOM      7  C   UNL A   1      33.053  31.315  27.437  1.00  0.00     0.044 A 
ATOM      8  F   UNL A   1      31.726  30.316  25.783  1.00  0.00    -0.206 F 
BRANCH   3   9
ATOM      9  C   UNL A   1      33.592  28.234  25.306  1.00  0.00    -0.012 A 
ATOM     10  C   UNL A   1      32.798  26.018  24.723  1.00  0.00     0.133 A 
ATOM     11  C   UNL A   1      33.276  26.159  23.424  1.00  0.00     0.047 A 
ATOM     12  C   UNL A   1      32.960  27.034  25.665  1.00  0.00     0.056 A 
ATOM     13  C   UNL A   1      33.892  27.352  23.051  1.00  0.00     0.004 A 
ATOM     14  C   UNL A   1      34.044  28.383  23.983  1.00  0.00     0.009 A 
BRANCH  10  15
ATOM     15  O   UNL A   1      32.275  24.768  25.087  1.00  0.00    -0.410 OA
BRANCH  15  16
ATOM     16  C   UNL A   1      31.218  24.749  25.985  1.00  0.00     0.412 C 
ATOM     17  N   UNL A   1      30.025  25.104  25.416  1.00  0.00    -0.321 N 
ATOM     18  H   UNL A   1      29.242  25.128  26.013  1.00  0.00     0.167 HD
ATOM     19  O   UNL A   1      31.284  24.462  27.174  1.00  0.00    -0.224 OA
BRANCH  17  20
ATOM     20  C   UNL A   1      29.794  25.447  24.028  1.00  0.00     0.119 C 
BRANCH  20  21
ATOM     21  C   UNL A   1      29.368  26.906  23.862  1.00  0.00     0.021 C 
BRANCH  21  22
ATOM     22  C   UNL A   1      30.129  27.683  22.780  1.00  0.00     0.002 C 
BRANCH  22  23
ATOM     23  C   UNL A   1      29.964  29.207  22.819  1.00  0.00    -0.000 C 
BRANCH  23  24
ATOM     24  C   UNL A   1      28.717  29.752  22.120  1.00  0.00    -0.003 C 
ATOM     25  C   UNL A   1      27.620  30.172  23.085  1.00  0.00     0.004 C 
ENDBRANCH  23  24
ENDBRANCH  22  23
ENDBRANCH  21  22
ENDBRANCH  20  21
ENDBRANCH  17  20
ENDBRANCH  15  16
ENDBRANCH  10  15
ENDBRANCH   3   9
ENDBRANCH   1   2
BRANCH   1  26
ATOM     26  C   UNL A   1      35.194  33.694  28.660  1.00  0.00     0.310 C 
ATOM     27  O   UNL A   1      36.399  33.831  28.847  1.00  0.00    -0.252 OA
BRANCH  26  28
ATOM     28  O   UNL A   1      34.420  34.550  27.944  1.00  0.00    -0.462 OA
BRANCH  28  29
ATOM     29  C   UNL A   1      34.154  35.824  28.560  1.00  0.00     0.274 C 
BRANCH  29  30
ATOM     30  C   UNL A   1      32.902  35.762  29.432  1.00  0.00     0.275 C 
BRANCH  30  31
ATOM     31  O   UNL A   1      33.156  36.376  30.708  1.00  0.00    -0.458 OA
BRANCH  31  32
ATOM     32  C   UNL A   1      32.775  35.661  31.789  1.00  0.00     0.338 C 
ATOM     33  O   UNL A   1      31.660  35.557  32.268  1.00  0.00    -0.246 OA
BRANCH  32  34
ATOM     34  C   UNL A   1      33.940  34.962  32.345  1.00  0.00     0.060 A 
ATOM     35  C   UNL A   1      35.214  35.516  32.204  1.00  0.00     0.016 A 
ATOM     36  C   UNL A   1      33.774  33.690  32.893  1.00  0.00     0.016 A 
ATOM     37  C   UNL A   1      36.337  34.775  32.567  1.00  0.00     0.010 A 
ATOM     38  C   UNL A   1      34.897  32.971  33.307  1.00  0.00     0.010 A 
ATOM     39  C   UNL A   1      36.188  33.497  33.123  1.00  0.00    -0.014 A 
BRANCH  39  40
ATOM     40  C   UNL A   1      37.379  32.691  33.483  1.00  0.00     0.031 A 
ATOM     41  C   UNL A   1      38.098  32.948  34.778  1.00  0.00     0.074 A 
ATOM     42  C   UNL A   1      37.824  31.738  32.643  1.00  0.00     0.049 A 
ATOM     43  N   UNL A   1      39.232  32.457  35.206  1.00  0.00    -0.248 NA
ATOM     44  C   UNL A   1      37.459  33.890  35.710  1.00  0.00     0.031 C 
ATOM     45  C   UNL A   1      37.196  31.371  31.373  1.00  0.00     0.029 A 
ATOM     46  N   UNL A   1      38.919  30.916  32.728  1.00  0.00    -0.354 N 
ATOM     47  C   UNL A   1      39.459  33.048  36.442  1.00  0.00     0.074 A 
ATOM     48  C   UNL A   1      38.351  33.947  36.689  1.00  0.00     0.031 C 
ATOM     49  C   UNL A   1      37.916  30.396  30.797  1.00  0.00     0.029 A 
ATOM     50  C   UNL A   1      39.082  30.110  31.628  1.00  0.00     0.049 A 
ATOM     51  H   UNL A   1      39.527  30.905  33.502  1.00  0.00     0.167 HD
ATOM     52  C   UNL A   1      40.495  32.858  37.293  1.00  0.00     0.037 A 
ATOM     53  C   UNL A   1      40.077  29.262  31.309  1.00  0.00     0.037 A 
ATOM     54  C   UNL A   1      41.584  31.946  37.055  1.00  0.00     0.049 A 
ATOM     55  C   UNL A   1      41.236  29.097  32.251  1.00  0.00     0.074 A 
ATOM     56  C   UNL A   1      42.674  31.674  37.864  1.00  0.00     0.029 A 
ATOM     57  N   UNL A   1      41.716  31.153  35.926  1.00  0.00    -0.354 N 
ATOM     58  N   UNL A   1      41.450  29.676  33.406  1.00  0.00    -0.248 NA
ATOM     59  C   UNL A   1      42.295  28.165  31.838  1.00  0.00     0.031 C 
ATOM     60  C   UNL A   1      43.483  30.738  37.208  1.00  0.00     0.029 A 
ATOM     61  C   UNL A   1      42.877  30.401  36.009  1.00  0.00     0.049 A 
ATOM     62  H   UNL A   1      41.079  31.128  35.175  1.00  0.00     0.167 HD
ATOM     63  C   UNL A   1      42.657  29.170  33.867  1.00  0.00     0.074 A 
ATOM     64  C   UNL A   1      43.123  28.225  32.873  1.00  0.00     0.031 C 
ATOM     65  C   UNL A   1      43.322  29.464  35.011  1.00  0.00     0.037 A 
BRANCH  52  66
ATOM     66  C   UNL A   1      40.510  33.669  38.554  1.00  0.00     0.057 A 
ATOM     67  C   UNL A   1      41.279  34.831  38.677  1.00  0.00     0.134 A 
ATOM     68  C   UNL A   1      39.721  33.295  39.649  1.00  0.00     0.134 A 
ATOM     69  F   UNL A   1      42.067  35.235  37.669  1.00  0.00    -0.206 F 
ATOM     70  C   UNL A   1      41.279  35.585  39.853  1.00  0.00     0.040 A 
ATOM     71  C   UNL A   1      39.695  34.052  40.822  1.00  0.00     0.040 A 
ATOM     72  F   UNL A   1      38.956  32.193  39.595  1.00  0.00    -0.206 F 
ATOM     73  C   UNL A   1      40.480  35.197  40.927  1.00  0.00     0.006 A 
ENDBRANCH  52  66
BRANCH  53  74
ATOM     74  C   UNL A   1      40.031  28.526  30.024  1.00  0.00     0.057 A 
ATOM     75  C   UNL A   1      40.686  29.012  28.888  1.00  0.00     0.134 A 
ATOM     76  C   UNL A   1      39.336  27.316  29.903  1.00  0.00     0.134 A 
ATOM     77  F   UNL A   1      41.350  30.176  28.937  1.00  0.00    -0.206 F 
ATOM     78  C   UNL A   1      40.645  28.325  27.672  1.00  0.00     0.040 A 
ATOM     79  C   UNL A   1      39.305  26.609  28.701  1.00  0.00     0.040 A 
ATOM     80  F   UNL A   1      38.689  26.799  30.958  1.00  0.00    -0.206 F 
ATOM     81  C   UNL A   1      39.958  27.116  27.580  1.00  0.00     0.006 A 
ENDBRANCH  53  74
BRANCH  65  82
ATOM     82  C   UNL A   1      44.609  28.735  35.256  1.00  0.00     0.057 A 
ATOM     83  C   UNL A   1      45.840  29.256  34.838  1.00  0.00     0.134 A 
ATOM     84  C   UNL A   1      44.618  27.516  35.944  1.00  0.00     0.134 A 
ATOM     85  F   UNL A   1      45.896  30.413  34.161  1.00  0.00    -0.206 F 
ATOM     86  C   UNL A   1      47.036  28.577  35.078  1.00  0.00     0.040 A 
ATOM     87  C   UNL A   1      45.809  26.838  36.208  1.00  0.00     0.040 A 
ATOM     88  F   UNL A   1      43.472  26.968  36.375  1.00  0.00    -0.206 F 
ATOM     89  C   UNL A   1      47.022  27.366  35.771  1.00  0.00     0.006 A 
ENDBRANCH  65  82
ENDBRANCH  39  40
ENDBRANCH  32  34
ENDBRANCH  31  32
ENDBRANCH  30  31
ENDBRANCH  29  30
ENDBRANCH  28  29
ENDBRANCH  26  28
ENDBRANCH   1  26
TORSDOF 20
ENDMDL
MODEL 3
REMARK VINA RESULT:     -11.1      1.456      2.747
REMARK SMILES CCCCCCNC(=O)Oc1cccc(-c2ccc(CC(=O)OCCOC(=O)c3ccc(-c4c5nc(c(-c6c(F)cccc6F)c6ccc([nH]6)c(-c6c(F)cccc6F)c6nc(c(-c7c(F)cccc7F)c7ccc4[nH]7)C=C6)C=C5)cc3)cc2F)c1
REMARK SMILES IDX 20 1 19 2 16 3 17 4 84 5 18 6 83 7 85 8 15 9 11 10 12 11
REMARK SMILES IDX 86 12 13 13 14 14 10 15 8 16 7 17 9 19 6 20 5 21 4 22 3 23
REMARK SMILES IDX 2 24 1 25 21 26 22 27 23 28 24 29 25 30 26 31 27 32 28 33
REMARK SMILES IDX 29 34 30 35 82 36 31 37 81 38 32 39 33 40 34 41 75 42 35 43
REMARK SMILES IDX 80 44 74 45 76 46 36 47 79 48 73 49 72 50 37 52 63 53 46 54
REMARK SMILES IDX 62 55 47 56 50 57 61 58 77 59 48 60 49 61 60 63 78 64 51 65
REMARK SMILES IDX 38 66 39 67 44 68 40 69 41 70 43 71 45 72 42 73 64 74 65 75
REMARK SMILES IDX 70 76 66 77 67 78 69 79 71 80 68 81 52 82 53 83 58 84 54 85
REMARK SMILES IDX 55 86 57 87 59 88 56 89
REMARK H PARENT 7 18 76 51 50 62
REMARK Flexibility Score: inf
ROOT
ATOM      1  C   UNL A   1      41.706  19.613  26.944  1.00  0.00     0.158 C 
ENDROOT
BRANCH   1   2
ATOM      2  C   UNL A   1      40.467  20.278  26.399  1.00  0.00    -0.034 A 
ATOM      3  C   UNL A   1      38.075  21.472  25.445  1.00  0.00     0.018 A 
ATOM      4  C   UNL A   1      39.035  22.232  26.130  1.00  0.00     0.012 A 
ATOM      5  C   UNL A   1      38.344  20.112  25.247  1.00  0.00     0.131 A 
ATOM      6  C   UNL A   1      40.211  21.641  26.606  1.00  0.00     0.005 A 
ATOM      7  C   UNL A   1      39.517  19.519  25.709  1.00  0.00     0.044 A 
ATOM      8  F   UNL A   1      37.462  19.336  24.596  1.00  0.00    -0.206 F 
BRANCH   3   9
ATOM      9  C   UNL A   1      36.830  22.077  24.961  1.00  0.00    -0.012 A 
ATOM     10  C   UNL A   1      34.500  22.660  25.302  1.00  0.00     0.133 A 
ATOM     11  C   UNL A   1      34.400  23.134  23.998  1.00  0.00     0.047 A 
ATOM     12  C   UNL A   1      35.694  22.123  25.784  1.00  0.00     0.056 A 
ATOM     13  C   UNL A   1      35.524  23.107  23.175  1.00  0.00     0.004 A 
ATOM     14  C   UNL A   1      36.731  22.587  23.655  1.00  0.00     0.009 A 
BRANCH  10  15
ATOM     15  O   UNL A   1      33.324  22.611  26.064  1.00  0.00    -0.410 OA
BRANCH  15  16
ATOM     16  C   UNL A   1      32.313  21.763  25.636  1.00  0.00     0.412 C 
ATOM     17  N   UNL A   1      31.065  22.193  25.995  1.00  0.00    -0.321 N 
ATOM     18  H   UNL A   1      30.309  21.618  25.736  1.00  0.00     0.167 HD
ATOM     19  O   UNL A   1      32.461  20.721  25.008  1.00  0.00    -0.224 OA
BRANCH  17  20
ATOM     20  C   UNL A   1      30.739  23.406  26.717  1.00  0.00     0.119 C 
BRANCH  20  21
ATOM     21  C   UNL A   1      30.301  24.531  25.779  1.00  0.00     0.021 C 
BRANCH  21  22
ATOM     22  C   UNL A   1      30.754  24.372  24.322  1.00  0.00     0.002 C 
BRANCH  22  23
ATOM     23  C   UNL A   1      30.620  25.624  23.446  1.00  0.00    -0.000 C 
BRANCH  23  24
ATOM     24  C   UNL A   1      29.602  26.660  23.930  1.00  0.00    -0.003 C 
ATOM     25  C   UNL A   1      29.587  27.927  23.090  1.00  0.00     0.004 C 
ENDBRANCH  23  24
ENDBRANCH  22  23
ENDBRANCH  21  22
ENDBRANCH  20  21
ENDBRANCH  17  20
ENDBRANCH  15  16
ENDBRANCH  10  15
ENDBRANCH   3   9
ENDBRANCH   1   2
BRANCH   1  26
ATOM     26  C   UNL A   1      42.556  18.835  25.967  1.00  0.00     0.310 C 
ATOM     27  O   UNL A   1      42.654  17.613  26.028  1.00  0.00    -0.252 OA
BRANCH  26  28
ATOM     28  O   UNL A   1      43.135  19.611  25.014  1.00  0.00    -0.462 OA
BRANCH  28  29
ATOM     29  C   UNL A   1      44.074  20.595  25.488  1.00  0.00     0.274 C 
BRANCH  29  30
ATOM     30  C   UNL A   1      43.977  21.883  24.675  1.00  0.00     0.275 C 
BRANCH  30  31
ATOM     31  O   UNL A   1      43.404  22.933  25.476  1.00  0.00    -0.458 OA
BRANCH  31  32
ATOM     32  C   UNL A   1      43.865  24.177  25.227  1.00  0.00     0.338 C 
ATOM     33  O   UNL A   1      44.637  24.534  24.354  1.00  0.00    -0.246 OA
BRANCH  32  34
ATOM     34  C   UNL A   1      43.272  25.117  26.187  1.00  0.00     0.060 A 
ATOM     35  C   UNL A   1      43.720  26.439  26.232  1.00  0.00     0.016 A 
ATOM     36  C   UNL A   1      42.359  24.643  27.129  1.00  0.00     0.016 A 
ATOM     37  C   UNL A   1      43.293  27.282  27.255  1.00  0.00     0.010 A 
ATOM     38  C   UNL A   1      41.890  25.506  28.121  1.00  0.00     0.010 A 
ATOM     39  C   UNL A   1      42.373  26.823  28.208  1.00  0.00    -0.014 A 
BRANCH  39  40
ATOM     40  C   UNL A   1      41.937  27.705  29.317  1.00  0.00     0.031 A 
ATOM     41  C   UNL A   1      42.661  27.673  30.633  1.00  0.00     0.074 A 
ATOM     42  C   UNL A   1      40.882  28.523  29.148  1.00  0.00     0.049 A 
ATOM     43  N   UNL A   1      42.350  28.254  31.764  1.00  0.00    -0.248 NA
ATOM     44  C   UNL A   1      43.896  26.875  30.686  1.00  0.00     0.031 C 
ATOM     45  C   UNL A   1      40.115  28.670  27.911  1.00  0.00     0.029 A 
ATOM     46  N   UNL A   1      40.265  29.376  30.029  1.00  0.00    -0.354 N 
ATOM     47  C   UNL A   1      43.331  27.871  32.669  1.00  0.00     0.074 A 
ATOM     48  C   UNL A   1      44.241  26.995  31.960  1.00  0.00     0.031 C 
ATOM     49  C   UNL A   1      39.129  29.559  28.111  1.00  0.00     0.029 A 
ATOM     50  C   UNL A   1      39.163  30.002  29.501  1.00  0.00     0.049 A 
ATOM     51  H   UNL A   1      40.583  29.524  30.949  1.00  0.00     0.167 HD
ATOM     52  C   UNL A   1      43.462  28.219  33.971  1.00  0.00     0.037 A 
ATOM     53  C   UNL A   1      38.260  30.812  30.083  1.00  0.00     0.037 A 
ATOM     54  C   UNL A   1      42.569  29.107  34.668  1.00  0.00     0.049 A 
ATOM     55  C   UNL A   1      38.403  31.153  31.539  1.00  0.00     0.074 A 
ATOM     56  C   UNL A   1      42.624  29.531  35.985  1.00  0.00     0.029 A 
ATOM     57  N   UNL A   1      41.459  29.715  34.100  1.00  0.00    -0.354 N 
ATOM     58  N   UNL A   1      39.322  30.769  32.390  1.00  0.00    -0.248 NA
ATOM     59  C   UNL A   1      37.377  32.033  32.116  1.00  0.00     0.031 C 
ATOM     60  C   UNL A   1      41.530  30.371  36.222  1.00  0.00     0.029 A 
ATOM     61  C   UNL A   1      40.815  30.499  35.043  1.00  0.00     0.049 A 
ATOM     62  H   UNL A   1      41.172  29.605  33.164  1.00  0.00     0.167 HD
ATOM     63  C   UNL A   1      38.997  31.370  33.598  1.00  0.00     0.074 A 
ATOM     64  C   UNL A   1      37.803  32.157  33.366  1.00  0.00     0.031 C 
ATOM     65  C   UNL A   1      39.629  31.277  34.793  1.00  0.00     0.037 A 
BRANCH  52  66
ATOM     66  C   UNL A   1      44.604  27.618  34.734  1.00  0.00     0.057 A 
ATOM     67  C   UNL A   1      45.847  28.255  34.830  1.00  0.00     0.134 A 
ATOM     68  C   UNL A   1      44.447  26.399  35.406  1.00  0.00     0.134 A 
ATOM     69  F   UNL A   1      46.064  29.417  34.198  1.00  0.00    -0.206 F 
ATOM     70  C   UNL A   1      46.902  27.691  35.550  1.00  0.00     0.040 A 
ATOM     71  C   UNL A   1      45.487  25.835  36.147  1.00  0.00     0.040 A 
ATOM     72  F   UNL A   1      43.280  25.739  35.359  1.00  0.00    -0.206 F 
ATOM     73  C   UNL A   1      46.720  26.480  36.217  1.00  0.00     0.006 A 
ENDBRANCH  52  66
BRANCH  53  74
ATOM     74  C   UNL A   1      37.123  31.335  29.288  1.00  0.00     0.057 A 
ATOM     75  C   UNL A   1      37.132  32.640  28.785  1.00  0.00     0.134 A 
ATOM     76  C   UNL A   1      36.005  30.540  29.007  1.00  0.00     0.134 A 
ATOM     77  F   UNL A   1      38.166  33.455  29.040  1.00  0.00    -0.206 F 
ATOM     78  C   UNL A   1      36.064  33.140  28.037  1.00  0.00     0.040 A 
ATOM     79  C   UNL A   1      34.942  31.019  28.242  1.00  0.00     0.040 A 
ATOM     80  F   UNL A   1      35.940  29.279  29.461  1.00  0.00    -0.206 F 
ATOM     81  C   UNL A   1      34.968  32.326  27.758  1.00  0.00     0.006 A 
ENDBRANCH  53  74
BRANCH  65  82
ATOM     82  C   UNL A   1      39.055  32.067  35.930  1.00  0.00     0.057 A 
ATOM     83  C   UNL A   1      38.190  31.485  36.866  1.00  0.00     0.134 A 
ATOM     84  C   UNL A   1      39.394  33.413  36.106  1.00  0.00     0.134 A 
ATOM     85  F   UNL A   1      37.816  30.203  36.743  1.00  0.00    -0.206 F 
ATOM     86  C   UNL A   1      37.666  32.224  37.928  1.00  0.00     0.040 A 
ATOM     87  C   UNL A   1      38.893  34.156  37.176  1.00  0.00     0.040 A 
ATOM     88  F   UNL A   1      40.221  34.026  35.246  1.00  0.00    -0.206 F 
ATOM     89  C   UNL A   1      38.023  33.563  38.089  1.00  0.00     0.006 A 
ENDBRANCH  65  82
ENDBRANCH  39  40
ENDBRANCH  32  34
ENDBRANCH  31  32
ENDBRANCH  30  31
ENDBRANCH  29  30
ENDBRANCH  28  29
ENDBRANCH  26  28
ENDBRANCH   1  26
TORSDOF 20
ENDMDL
