MODEL 1
REMARK VINA RESULT:     -12.0      0.000      0.000
REMARK SMILES CC1=C[C@@H]([C@@H]2N=N[C@H](S)N2/N=C/c2ccc(C(=O)OCCOC(=O)c3ccc(-c4c5nc(c(-c6c(F)cccc6F)c6ccc([nH]6)c(-c6c(F)cccc6F)c6nc(c(-c7c(F)cccc7F)c7ccc4[nH]7)C=C6)C=C5)cc3)cc2)N=N1
REMARK SMILES IDX 20 1 19 2 17 3 18 4 16 5 13 6 14 7 80 8 15 9 79 10 12 11
REMARK SMILES IDX 11 12 10 13 5 14 6 15 7 16 8 17 4 18 1 19 2 20 3 21 82 22
REMARK SMILES IDX 81 23 9 24 21 26 22 27 23 28 24 29 25 30 26 31 78 32 27 33
REMARK SMILES IDX 77 34 28 35 29 36 30 37 71 38 31 39 76 40 70 41 72 42 32 43
REMARK SMILES IDX 75 44 69 45 68 46 33 48 59 49 42 50 58 51 43 52 46 53 57 54
REMARK SMILES IDX 73 55 44 56 45 57 56 59 74 60 47 61 34 62 35 63 40 64 36 65
REMARK SMILES IDX 37 66 39 67 41 68 38 69 60 70 61 71 66 72 62 73 63 74 65 75
REMARK SMILES IDX 67 76 64 77 48 78 49 79 54 80 50 81 51 82 53 83 55 84 52 85
REMARK H PARENT 9 25 72 47 46 58
REMARK Flexibility Score: inf
ROOT
ATOM      1  C   UNL A   1      41.903  19.681  26.506  1.00  0.00     0.275 C 
ENDROOT
BRANCH   1   2
ATOM      2  O   UNL A   1      41.212  20.837  26.006  1.00  0.00    -0.458 OA
BRANCH   2   3
ATOM      3  C   UNL A   1      40.368  21.436  26.881  1.00  0.00     0.338 C 
ATOM      4  O   UNL A   1      40.581  21.643  28.068  1.00  0.00    -0.246 OA
BRANCH   3   5
ATOM      5  C   UNL A   1      39.154  21.925  26.183  1.00  0.00     0.060 A 
ATOM      6  C   UNL A   1      36.915  22.768  24.756  1.00  0.00    -0.005 A 
ATOM      7  C   UNL A   1      37.343  21.443  24.644  1.00  0.00     0.010 A 
ATOM      8  C   UNL A   1      37.569  23.662  25.610  1.00  0.00     0.010 A 
ATOM      9  C   UNL A   1      38.472  21.026  25.348  1.00  0.00     0.016 A 
ATOM     10  C   UNL A   1      38.682  23.235  26.335  1.00  0.00     0.016 A 
BRANCH   6  11
ATOM     11  C   UNL A   1      35.787  23.207  23.919  1.00  0.00     0.141 C 
ATOM     12  N   UNL A   1      35.063  24.228  24.251  1.00  0.00    -0.180 NA
BRANCH  12  13
ATOM     13  N   UNL A   1      34.057  24.605  23.418  1.00  0.00    -0.233 NA
ATOM     14  C   UNL A   1      34.086  25.954  22.836  1.00  0.00     0.274 C 
ATOM     15  N   UNL A   1      33.393  25.903  21.522  1.00  0.00    -0.161 NA
ATOM     16  N   UNL A   1      33.005  24.738  21.277  1.00  0.00    -0.153 NA
ATOM     17  C   UNL A   1      33.414  23.821  22.360  1.00  0.00     0.298 C 
BRANCH  14  18
ATOM     18  C   UNL A   1      33.416  27.004  23.759  1.00  0.00     0.201 C 
ATOM     19  C   UNL A   1      30.609  29.038  22.454  1.00  0.00     0.068 C 
ATOM     20  C   UNL A   1      31.843  28.421  23.003  1.00  0.00     0.058 C 
ATOM     21  C   UNL A   1      31.958  27.196  23.510  1.00  0.00     0.031 C 
ATOM     22  N   UNL A   1      33.035  29.102  23.000  1.00  0.00    -0.160 NA
ATOM     23  N   UNL A   1      33.957  28.367  23.460  1.00  0.00    -0.177 NA
ENDBRANCH  14  18
BRANCH  17  24
ATOM     24  S   UNL A   1      32.045  22.847  23.083  1.00  0.00    -0.128 SA
ATOM     25  H   UNL A   1      31.617  23.446  24.227  1.00  0.00     0.106 HD
ENDBRANCH  17  24
ENDBRANCH  12  13
ENDBRANCH   6  11
ENDBRANCH   3   5
ENDBRANCH   2   3
ENDBRANCH   1   2
BRANCH   1  26
ATOM     26  C   UNL A   1      43.012  19.253  25.557  1.00  0.00     0.275 C 
BRANCH  26  27
ATOM     27  O   UNL A   1      44.163  20.090  25.664  1.00  0.00    -0.458 OA
BRANCH  27  28
ATOM     28  C   UNL A   1      44.345  20.941  24.629  1.00  0.00     0.338 C 
ATOM     29  O   UNL A   1      44.648  20.666  23.481  1.00  0.00    -0.246 OA
BRANCH  28  30
ATOM     30  C   UNL A   1      44.376  22.311  25.144  1.00  0.00     0.060 A 
ATOM     31  C   UNL A   1      45.216  22.590  26.225  1.00  0.00     0.016 A 
ATOM     32  C   UNL A   1      43.394  23.216  24.717  1.00  0.00     0.016 A 
ATOM     33  C   UNL A   1      45.000  23.745  26.952  1.00  0.00     0.010 A 
ATOM     34  C   UNL A   1      43.169  24.356  25.450  1.00  0.00     0.010 A 
ATOM     35  C   UNL A   1      43.941  24.584  26.587  1.00  0.00    -0.014 A 
BRANCH  35  36
ATOM     36  C   UNL A   1      43.746  25.816  27.328  1.00  0.00     0.031 A 
ATOM     37  C   UNL A   1      44.771  26.840  27.015  1.00  0.00     0.074 A 
ATOM     38  C   UNL A   1      42.629  26.051  28.045  1.00  0.00     0.049 A 
ATOM     39  N   UNL A   1      45.602  27.408  27.822  1.00  0.00    -0.248 NA
ATOM     40  C   UNL A   1      44.993  27.175  25.595  1.00  0.00     0.031 C 
ATOM     41  C   UNL A   1      41.437  25.198  28.105  1.00  0.00     0.029 A 
ATOM     42  N   UNL A   1      42.257  27.154  28.757  1.00  0.00    -0.354 N 
ATOM     43  C   UNL A   1      46.282  28.344  27.046  1.00  0.00     0.074 A 
ATOM     44  C   UNL A   1      46.021  28.019  25.673  1.00  0.00     0.031 C 
ATOM     45  C   UNL A   1      40.406  25.911  28.606  1.00  0.00     0.029 A 
ATOM     46  C   UNL A   1      40.894  27.218  29.017  1.00  0.00     0.049 A 
ATOM     47  H   UNL A   1      42.895  27.841  29.059  1.00  0.00     0.167 HD
ATOM     48  C   UNL A   1      46.708  29.510  27.601  1.00  0.00     0.037 A 
ATOM     49  C   UNL A   1      40.201  28.288  29.473  1.00  0.00     0.037 A 
ATOM     50  C   UNL A   1      46.748  29.416  29.036  1.00  0.00     0.049 A 
ATOM     51  C   UNL A   1      41.162  29.226  30.098  1.00  0.00     0.074 A 
ATOM     52  C   UNL A   1      47.533  28.797  29.981  1.00  0.00     0.029 A 
ATOM     53  N   UNL A   1      45.576  29.772  29.643  1.00  0.00    -0.354 N 
ATOM     54  N   UNL A   1      41.811  28.976  31.200  1.00  0.00    -0.248 NA
ATOM     55  C   UNL A   1      41.662  30.360  29.326  1.00  0.00     0.031 C 
ATOM     56  C   UNL A   1      46.715  28.651  31.142  1.00  0.00     0.029 A 
ATOM     57  C   UNL A   1      45.462  29.201  30.879  1.00  0.00     0.049 A 
ATOM     58  H   UNL A   1      44.900  30.364  29.240  1.00  0.00     0.167 HD
ATOM     59  C   UNL A   1      43.023  29.615  31.035  1.00  0.00     0.074 A 
ATOM     60  C   UNL A   1      42.801  30.595  29.981  1.00  0.00     0.031 C 
ATOM     61  C   UNL A   1      44.172  29.059  31.516  1.00  0.00     0.037 A 
BRANCH  48  62
ATOM     62  C   UNL A   1      46.558  30.856  26.923  1.00  0.00     0.057 A 
ATOM     63  C   UNL A   1      47.660  31.731  26.908  1.00  0.00     0.134 A 
ATOM     64  C   UNL A   1      45.319  31.453  26.601  1.00  0.00     0.134 A 
ATOM     65  F   UNL A   1      48.888  31.292  27.225  1.00  0.00    -0.206 F 
ATOM     66  C   UNL A   1      47.526  33.102  26.657  1.00  0.00     0.040 A 
ATOM     67  C   UNL A   1      45.184  32.810  26.296  1.00  0.00     0.040 A 
ATOM     68  F   UNL A   1      44.160  30.790  26.669  1.00  0.00    -0.206 F 
ATOM     69  C   UNL A   1      46.285  33.647  26.355  1.00  0.00     0.006 A 
ENDBRANCH  48  62
BRANCH  49  70
ATOM     70  C   UNL A   1      38.793  28.669  29.216  1.00  0.00     0.057 A 
ATOM     71  C   UNL A   1      37.858  28.726  30.260  1.00  0.00     0.134 A 
ATOM     72  C   UNL A   1      38.390  29.241  27.996  1.00  0.00     0.134 A 
ATOM     73  F   UNL A   1      38.159  28.238  31.472  1.00  0.00    -0.206 F 
ATOM     74  C   UNL A   1      36.611  29.348  30.112  1.00  0.00     0.040 A 
ATOM     75  C   UNL A   1      37.144  29.853  27.831  1.00  0.00     0.040 A 
ATOM     76  F   UNL A   1      39.225  29.305  26.950  1.00  0.00    -0.206 F 
ATOM     77  C   UNL A   1      36.256  29.925  28.897  1.00  0.00     0.006 A 
ENDBRANCH  49  70
BRANCH  61  78
ATOM     78  C   UNL A   1      44.046  28.104  32.660  1.00  0.00     0.057 A 
ATOM     79  C   UNL A   1      43.911  26.716  32.527  1.00  0.00     0.134 A 
ATOM     80  C   UNL A   1      44.131  28.616  33.959  1.00  0.00     0.134 A 
ATOM     81  F   UNL A   1      43.903  26.129  31.323  1.00  0.00    -0.206 F 
ATOM     82  C   UNL A   1      43.814  25.881  33.645  1.00  0.00     0.040 A 
ATOM     83  C   UNL A   1      44.074  27.791  35.082  1.00  0.00     0.040 A 
ATOM     84  F   UNL A   1      44.304  29.933  34.158  1.00  0.00    -0.206 F 
ATOM     85  C   UNL A   1      43.900  26.419  34.927  1.00  0.00     0.006 A 
ENDBRANCH  61  78
ENDBRANCH  35  36
ENDBRANCH  28  30
ENDBRANCH  27  28
ENDBRANCH  26  27
ENDBRANCH   1  26
TORSDOF 15
ENDMDL
MODEL 2
REMARK VINA RESULT:     -12.0      1.515      2.512
REMARK SMILES CC1=C[C@@H]([C@@H]2N=N[C@H](S)N2/N=C/c2ccc(C(=O)OCCOC(=O)c3ccc(-c4c5nc(c(-c6c(F)cccc6F)c6ccc([nH]6)c(-c6c(F)cccc6F)c6nc(c(-c7c(F)cccc7F)c7ccc4[nH]7)C=C6)C=C5)cc3)cc2)N=N1
REMARK SMILES IDX 20 1 19 2 17 3 18 4 16 5 13 6 14 7 80 8 15 9 79 10 12 11
REMARK SMILES IDX 11 12 10 13 5 14 6 15 7 16 8 17 4 18 1 19 2 20 3 21 82 22
REMARK SMILES IDX 81 23 9 24 21 26 22 27 23 28 24 29 25 30 26 31 78 32 27 33
REMARK SMILES IDX 77 34 28 35 29 36 30 37 71 38 31 39 76 40 70 41 72 42 32 43
REMARK SMILES IDX 75 44 69 45 68 46 33 48 59 49 42 50 58 51 43 52 46 53 57 54
REMARK SMILES IDX 73 55 44 56 45 57 56 59 74 60 47 61 34 62 35 63 40 64 36 65
REMARK SMILES IDX 37 66 39 67 41 68 38 69 60 70 61 71 66 72 62 73 63 74 65 75
REMARK SMILES IDX 67 76 64 77 48 78 49 79 54 80 50 81 51 82 53 83 55 84 52 85
REMARK H PARENT 9 25 72 47 46 58
REMARK Flexibility Score: inf
ROOT
ATOM      1  C   UNL A   1      41.747  19.218  26.428  1.00  0.00     0.275 C 
ENDROOT
BRANCH   1   2
ATOM      2  O   UNL A   1      40.743  20.094  25.891  1.00  0.00    -0.458 OA
BRANCH   2   3
ATOM      3  C   UNL A   1      40.557  21.253  26.568  1.00  0.00     0.338 C 
ATOM      4  O   UNL A   1      41.346  21.773  27.345  1.00  0.00    -0.246 OA
BRANCH   3   5
ATOM      5  C   UNL A   1      39.283  21.895  26.162  1.00  0.00     0.060 A 
ATOM      6  C   UNL A   1      36.886  23.163  25.528  1.00  0.00    -0.005 A 
ATOM      7  C   UNL A   1      37.874  23.867  26.222  1.00  0.00     0.010 A 
ATOM      8  C   UNL A   1      37.104  21.848  25.109  1.00  0.00     0.010 A 
ATOM      9  C   UNL A   1      39.067  23.226  26.550  1.00  0.00     0.016 A 
ATOM     10  C   UNL A   1      38.311  21.218  25.415  1.00  0.00     0.016 A 
BRANCH   6  11
ATOM     11  C   UNL A   1      35.595  23.831  25.290  1.00  0.00     0.141 C 
ATOM     12  N   UNL A   1      34.681  23.872  26.206  1.00  0.00    -0.180 NA
BRANCH  12  13
ATOM     13  N   UNL A   1      33.526  24.534  25.937  1.00  0.00    -0.233 NA
ATOM     14  C   UNL A   1      32.257  23.971  26.418  1.00  0.00     0.274 C 
ATOM     15  N   UNL A   1      31.313  25.096  26.651  1.00  0.00    -0.161 NA
ATOM     16  N   UNL A   1      31.865  26.190  26.395  1.00  0.00    -0.153 NA
ATOM     17  C   UNL A   1      33.271  25.976  25.996  1.00  0.00     0.298 C 
BRANCH  14  18
ATOM     18  C   UNL A   1      31.649  22.956  25.417  1.00  0.00     0.201 C 
ATOM     19  C   UNL A   1      33.593  19.943  24.486  1.00  0.00     0.068 C 
ATOM     20  C   UNL A   1      32.824  21.205  24.638  1.00  0.00     0.058 C 
ATOM     21  C   UNL A   1      32.046  21.540  25.664  1.00  0.00     0.031 C 
ATOM     22  N   UNL A   1      32.890  22.191  23.685  1.00  0.00    -0.160 NA
ATOM     23  N   UNL A   1      32.206  23.192  24.048  1.00  0.00    -0.177 NA
ENDBRANCH  14  18
BRANCH  17  24
ATOM     24  S   UNL A   1      33.725  26.732  24.394  1.00  0.00    -0.128 SA
ATOM     25  H   UNL A   1      33.065  26.095  23.389  1.00  0.00     0.106 HD
ENDBRANCH  17  24
ENDBRANCH  12  13
ENDBRANCH   6  11
ENDBRANCH   3   5
ENDBRANCH   2   3
ENDBRANCH   1   2
BRANCH   1  26
ATOM     26  C   UNL A   1      42.960  19.150  25.514  1.00  0.00     0.275 C 
BRANCH  26  27
ATOM     27  O   UNL A   1      43.923  20.157  25.825  1.00  0.00    -0.458 OA
BRANCH  27  28
ATOM     28  C   UNL A   1      44.231  20.985  24.802  1.00  0.00     0.338 C 
ATOM     29  O   UNL A   1      44.627  20.683  23.689  1.00  0.00    -0.246 OA
BRANCH  28  30
ATOM     30  C   UNL A   1      44.267  22.361  25.302  1.00  0.00     0.060 A 
ATOM     31  C   UNL A   1      45.088  22.643  26.398  1.00  0.00     0.016 A 
ATOM     32  C   UNL A   1      43.304  23.272  24.844  1.00  0.00     0.016 A 
ATOM     33  C   UNL A   1      44.870  23.808  27.107  1.00  0.00     0.010 A 
ATOM     34  C   UNL A   1      43.077  24.422  25.560  1.00  0.00     0.010 A 
ATOM     35  C   UNL A   1      43.828  24.655  26.711  1.00  0.00    -0.014 A 
BRANCH  35  36
ATOM     36  C   UNL A   1      43.632  25.897  27.434  1.00  0.00     0.031 A 
ATOM     37  C   UNL A   1      44.646  26.924  27.093  1.00  0.00     0.074 A 
ATOM     38  C   UNL A   1      42.522  26.135  28.160  1.00  0.00     0.049 A 
ATOM     39  N   UNL A   1      45.481  27.511  27.881  1.00  0.00    -0.248 NA
ATOM     40  C   UNL A   1      44.848  27.237  25.665  1.00  0.00     0.031 C 
ATOM     41  C   UNL A   1      41.337  25.274  28.247  1.00  0.00     0.029 A 
ATOM     42  N   UNL A   1      42.149  27.246  28.858  1.00  0.00    -0.354 N 
ATOM     43  C   UNL A   1      46.145  28.440  27.083  1.00  0.00     0.074 A 
ATOM     44  C   UNL A   1      45.870  28.090  25.717  1.00  0.00     0.031 C 
ATOM     45  C   UNL A   1      40.306  25.987  28.749  1.00  0.00     0.029 A 
ATOM     46  C   UNL A   1      40.788  27.304  29.133  1.00  0.00     0.049 A 
ATOM     47  H   UNL A   1      42.785  27.943  29.142  1.00  0.00     0.167 HD
ATOM     48  C   UNL A   1      46.568  29.617  27.613  1.00  0.00     0.037 A 
ATOM     49  C   UNL A   1      40.093  28.376  29.580  1.00  0.00     0.037 A 
ATOM     50  C   UNL A   1      46.625  29.547  29.049  1.00  0.00     0.049 A 
ATOM     51  C   UNL A   1      41.053  29.331  30.178  1.00  0.00     0.074 A 
ATOM     52  C   UNL A   1      47.425  28.949  29.995  1.00  0.00     0.029 A 
ATOM     53  N   UNL A   1      45.457  29.904  29.664  1.00  0.00    -0.354 N 
ATOM     54  N   UNL A   1      41.716  29.104  31.277  1.00  0.00    -0.248 NA
ATOM     55  C   UNL A   1      41.535  30.456  29.383  1.00  0.00     0.031 C 
ATOM     56  C   UNL A   1      46.622  28.816  31.167  1.00  0.00     0.029 A 
ATOM     57  C   UNL A   1      45.362  29.353  30.911  1.00  0.00     0.049 A 
ATOM     58  H   UNL A   1      44.771  30.484  29.259  1.00  0.00     0.167 HD
ATOM     59  C   UNL A   1      42.921  29.749  31.087  1.00  0.00     0.074 A 
ATOM     60  C   UNL A   1      42.680  30.711  30.021  1.00  0.00     0.031 C 
ATOM     61  C   UNL A   1      44.080  29.211  31.564  1.00  0.00     0.037 A 
BRANCH  48  62
ATOM     62  C   UNL A   1      46.399  30.952  26.916  1.00  0.00     0.057 A 
ATOM     63  C   UNL A   1      47.492  31.836  26.879  1.00  0.00     0.134 A 
ATOM     64  C   UNL A   1      45.153  31.531  26.593  1.00  0.00     0.134 A 
ATOM     65  F   UNL A   1      48.727  31.415  27.193  1.00  0.00    -0.206 F 
ATOM     66  C   UNL A   1      47.344  33.202  26.607  1.00  0.00     0.040 A 
ATOM     67  C   UNL A   1      45.002  32.881  26.269  1.00  0.00     0.040 A 
ATOM     68  F   UNL A   1      44.000  30.858  26.681  1.00  0.00    -0.206 F 
ATOM     69  C   UNL A   1      46.094  33.730  26.306  1.00  0.00     0.006 A 
ENDBRANCH  48  62
BRANCH  49  70
ATOM     70  C   UNL A   1      38.678  28.741  29.333  1.00  0.00     0.057 A 
ATOM     71  C   UNL A   1      37.755  28.809  30.386  1.00  0.00     0.134 A 
ATOM     72  C   UNL A   1      38.257  29.290  28.109  1.00  0.00     0.134 A 
ATOM     73  F   UNL A   1      38.074  28.342  31.603  1.00  0.00    -0.206 F 
ATOM     74  C   UNL A   1      36.502  29.418  30.243  1.00  0.00     0.040 A 
ATOM     75  C   UNL A   1      37.004  29.890  27.948  1.00  0.00     0.040 A 
ATOM     76  F   UNL A   1      39.080  29.344  27.052  1.00  0.00    -0.206 F 
ATOM     77  C   UNL A   1      36.128  29.973  29.023  1.00  0.00     0.006 A 
ENDBRANCH  49  70
BRANCH  61  78
ATOM     78  C   UNL A   1      43.974  28.273  32.724  1.00  0.00     0.057 A 
ATOM     79  C   UNL A   1      43.841  28.671  34.061  1.00  0.00     0.134 A 
ATOM     80  C   UNL A   1      43.941  26.899  32.461  1.00  0.00     0.134 A 
ATOM     81  F   UNL A   1      43.779  29.966  34.399  1.00  0.00    -0.206 F 
ATOM     82  C   UNL A   1      43.731  27.736  35.095  1.00  0.00     0.040 A 
ATOM     83  C   UNL A   1      43.794  25.957  33.479  1.00  0.00     0.040 A 
ATOM     84  F   UNL A   1      44.021  26.450  31.198  1.00  0.00    -0.206 F 
ATOM     85  C   UNL A   1      43.703  26.374  34.803  1.00  0.00     0.006 A 
ENDBRANCH  61  78
ENDBRANCH  35  36
ENDBRANCH  28  30
ENDBRANCH  27  28
ENDBRANCH  26  27
ENDBRANCH   1  26
TORSDOF 15
ENDMDL
MODEL 3
REMARK VINA RESULT:     -11.8      1.379      1.956
REMARK SMILES CC1=C[C@@H]([C@@H]2N=N[C@H](S)N2/N=C/c2ccc(C(=O)OCCOC(=O)c3ccc(-c4c5nc(c(-c6c(F)cccc6F)c6ccc([nH]6)c(-c6c(F)cccc6F)c6nc(c(-c7c(F)cccc7F)c7ccc4[nH]7)C=C6)C=C5)cc3)cc2)N=N1
REMARK SMILES IDX 20 1 19 2 17 3 18 4 16 5 13 6 14 7 80 8 15 9 79 10 12 11
REMARK SMILES IDX 11 12 10 13 5 14 6 15 7 16 8 17 4 18 1 19 2 20 3 21 82 22
REMARK SMILES IDX 81 23 9 24 21 26 22 27 23 28 24 29 25 30 26 31 78 32 27 33
REMARK SMILES IDX 77 34 28 35 29 36 30 37 71 38 31 39 76 40 70 41 72 42 32 43
REMARK SMILES IDX 75 44 69 45 68 46 33 48 59 49 42 50 58 51 43 52 46 53 57 54
REMARK SMILES IDX 73 55 44 56 45 57 56 59 74 60 47 61 34 62 35 63 40 64 36 65
REMARK SMILES IDX 37 66 39 67 41 68 38 69 60 70 61 71 66 72 62 73 63 74 65 75
REMARK SMILES IDX 67 76 64 77 48 78 49 79 54 80 50 81 51 82 53 83 55 84 52 85
REMARK H PARENT 9 25 72 47 46 58
REMARK Flexibility Score: inf
ROOT
ATOM      1  C   UNL A   1      42.194  19.301  26.826  1.00  0.00     0.275 C 
ENDROOT
BRANCH   1   2
ATOM      2  O   UNL A   1      40.954  19.941  26.485  1.00  0.00    -0.458 OA
BRANCH   2   3
ATOM      3  C   UNL A   1      40.836  21.232  26.882  1.00  0.00     0.338 C 
ATOM      4  O   UNL A   1      41.654  21.869  27.531  1.00  0.00    -0.246 OA
BRANCH   3   5
ATOM      5  C   UNL A   1      39.601  21.837  26.326  1.00  0.00     0.060 A 
ATOM      6  C   UNL A   1      37.260  23.036  25.409  1.00  0.00    -0.005 A 
ATOM      7  C   UNL A   1      38.145  23.772  26.201  1.00  0.00     0.010 A 
ATOM      8  C   UNL A   1      37.558  21.723  25.033  1.00  0.00     0.010 A 
ATOM      9  C   UNL A   1      39.309  23.165  26.671  1.00  0.00     0.016 A 
ATOM     10  C   UNL A   1      38.737  21.127  25.482  1.00  0.00     0.016 A 
BRANCH   6  11
ATOM     11  C   UNL A   1      35.989  23.667  25.017  1.00  0.00     0.141 C 
ATOM     12  N   UNL A   1      34.923  22.960  24.815  1.00  0.00    -0.180 NA
BRANCH  12  13
ATOM     13  N   UNL A   1      33.772  23.605  24.490  1.00  0.00    -0.233 NA
ATOM     14  C   UNL A   1      33.511  24.928  25.075  1.00  0.00     0.274 C 
ATOM     15  N   UNL A   1      32.672  25.696  24.118  1.00  0.00    -0.161 NA
ATOM     16  N   UNL A   1      32.447  25.017  23.091  1.00  0.00    -0.153 NA
ATOM     17  C   UNL A   1      33.131  23.711  23.177  1.00  0.00     0.298 C 
BRANCH  14  18
ATOM     18  C   UNL A   1      32.808  24.831  26.452  1.00  0.00     0.201 C 
ATOM     19  C   UNL A   1      29.862  22.618  26.833  1.00  0.00     0.068 C 
ATOM     20  C   UNL A   1      30.901  23.675  26.736  1.00  0.00     0.058 C 
ATOM     21  C   UNL A   1      32.219  23.493  26.746  1.00  0.00     0.031 C 
ATOM     22  N   UNL A   1      30.555  24.995  26.589  1.00  0.00    -0.160 NA
ATOM     23  N   UNL A   1      31.594  25.707  26.470  1.00  0.00    -0.177 NA
ENDBRANCH  14  18
BRANCH  17  24
ATOM     24  S   UNL A   1      32.038  22.267  22.925  1.00  0.00    -0.128 SA
ATOM     25  H   UNL A   1      30.740  22.654  23.048  1.00  0.00     0.106 HD
ENDBRANCH  17  24
ENDBRANCH  12  13
ENDBRANCH   6  11
ENDBRANCH   3   5
ENDBRANCH   2   3
ENDBRANCH   1   2
BRANCH   1  26
ATOM     26  C   UNL A   1      43.113  19.211  25.617  1.00  0.00     0.275 C 
BRANCH  26  27
ATOM     27  O   UNL A   1      44.202  20.130  25.701  1.00  0.00    -0.458 OA
BRANCH  27  28
ATOM     28  C   UNL A   1      44.300  20.990  24.662  1.00  0.00     0.338 C 
ATOM     29  O   UNL A   1      44.528  20.728  23.494  1.00  0.00    -0.246 OA
BRANCH  28  30
ATOM     30  C   UNL A   1      44.346  22.357  25.184  1.00  0.00     0.060 A 
ATOM     31  C   UNL A   1      45.156  22.613  26.294  1.00  0.00     0.016 A 
ATOM     32  C   UNL A   1      43.400  23.287  24.729  1.00  0.00     0.016 A 
ATOM     33  C   UNL A   1      44.943  23.769  27.018  1.00  0.00     0.010 A 
ATOM     34  C   UNL A   1      43.178  24.429  25.459  1.00  0.00     0.010 A 
ATOM     35  C   UNL A   1      43.917  24.635  26.623  1.00  0.00    -0.014 A 
BRANCH  35  36
ATOM     36  C   UNL A   1      43.726  25.868  27.363  1.00  0.00     0.031 A 
ATOM     37  C   UNL A   1      44.742  26.896  27.032  1.00  0.00     0.074 A 
ATOM     38  C   UNL A   1      42.619  26.100  28.094  1.00  0.00     0.049 A 
ATOM     39  N   UNL A   1      45.581  27.470  27.826  1.00  0.00    -0.248 NA
ATOM     40  C   UNL A   1      44.942  27.227  25.608  1.00  0.00     0.031 C 
ATOM     41  C   UNL A   1      41.431  25.241  28.173  1.00  0.00     0.029 A 
ATOM     42  N   UNL A   1      42.251  27.203  28.808  1.00  0.00    -0.354 N 
ATOM     43  C   UNL A   1      46.246  28.407  27.038  1.00  0.00     0.074 A 
ATOM     44  C   UNL A   1      45.967  28.076  25.669  1.00  0.00     0.031 C 
ATOM     45  C   UNL A   1      40.404  25.951  28.687  1.00  0.00     0.029 A 
ATOM     46  C   UNL A   1      40.891  27.261  29.087  1.00  0.00     0.049 A 
ATOM     47  H   UNL A   1      42.890  27.894  29.099  1.00  0.00     0.167 HD
ATOM     48  C   UNL A   1      46.674  29.576  27.583  1.00  0.00     0.037 A 
ATOM     49  C   UNL A   1      40.200  28.329  29.550  1.00  0.00     0.037 A 
ATOM     50  C   UNL A   1      46.734  29.487  29.017  1.00  0.00     0.049 A 
ATOM     51  C   UNL A   1      41.164  29.274  30.158  1.00  0.00     0.074 A 
ATOM     52  C   UNL A   1      47.535  28.875  29.954  1.00  0.00     0.029 A 
ATOM     53  N   UNL A   1      45.569  29.839  29.640  1.00  0.00    -0.354 N 
ATOM     54  N   UNL A   1      41.830  29.030  31.252  1.00  0.00    -0.248 NA
ATOM     55  C   UNL A   1      41.648  30.408  29.376  1.00  0.00     0.031 C 
ATOM     56  C   UNL A   1      46.735  28.729  31.126  1.00  0.00     0.029 A 
ATOM     57  C   UNL A   1      45.475  29.272  30.880  1.00  0.00     0.049 A 
ATOM     58  H   UNL A   1      44.884  30.428  29.245  1.00  0.00     0.167 HD
ATOM     59  C   UNL A   1      43.036  29.674  31.067  1.00  0.00     0.074 A 
ATOM     60  C   UNL A   1      42.795  30.650  30.014  1.00  0.00     0.031 C 
ATOM     61  C   UNL A   1      44.194  29.126  31.535  1.00  0.00     0.037 A 
BRANCH  48  62
ATOM     62  C   UNL A   1      46.508  30.920  26.903  1.00  0.00     0.057 A 
ATOM     63  C   UNL A   1      47.605  31.800  26.871  1.00  0.00     0.134 A 
ATOM     64  C   UNL A   1      45.262  31.509  26.596  1.00  0.00     0.134 A 
ATOM     65  F   UNL A   1      48.839  31.369  27.173  1.00  0.00    -0.206 F 
ATOM     66  C   UNL A   1      47.461  33.170  26.617  1.00  0.00     0.040 A 
ATOM     67  C   UNL A   1      45.116  32.865  26.289  1.00  0.00     0.040 A 
ATOM     68  F   UNL A   1      44.106  30.841  26.681  1.00  0.00    -0.206 F 
ATOM     69  C   UNL A   1      46.213  33.708  26.331  1.00  0.00     0.006 A 
ENDBRANCH  48  62
BRANCH  49  70
ATOM     70  C   UNL A   1      38.786  28.702  29.311  1.00  0.00     0.057 A 
ATOM     71  C   UNL A   1      37.863  28.747  30.366  1.00  0.00     0.134 A 
ATOM     72  C   UNL A   1      38.366  29.279  28.100  1.00  0.00     0.134 A 
ATOM     73  F   UNL A   1      38.181  28.253  31.571  1.00  0.00    -0.206 F 
ATOM     74  C   UNL A   1      36.610  29.361  30.236  1.00  0.00     0.040 A 
ATOM     75  C   UNL A   1      37.114  29.884  27.953  1.00  0.00     0.040 A 
ATOM     76  F   UNL A   1      39.188  29.355  27.044  1.00  0.00    -0.206 F 
ATOM     77  C   UNL A   1      36.237  29.944  29.029  1.00  0.00     0.006 A 
ENDBRANCH  49  70
BRANCH  61  78
ATOM     78  C   UNL A   1      44.089  28.174  32.683  1.00  0.00     0.057 A 
ATOM     79  C   UNL A   1      43.959  28.554  34.025  1.00  0.00     0.134 A 
ATOM     80  C   UNL A   1      44.052  26.803  32.401  1.00  0.00     0.134 A 
ATOM     81  F   UNL A   1      43.902  29.845  34.379  1.00  0.00    -0.206 F 
ATOM     82  C   UNL A   1      43.849  27.606  35.047  1.00  0.00     0.040 A 
ATOM     83  C   UNL A   1      43.905  25.848  33.407  1.00  0.00     0.040 A 
ATOM     84  F   UNL A   1      44.128  26.370  31.133  1.00  0.00    -0.206 F 
ATOM     85  C   UNL A   1      43.817  26.248  34.737  1.00  0.00     0.006 A 
ENDBRANCH  61  78
ENDBRANCH  35  36
ENDBRANCH  28  30
ENDBRANCH  27  28
ENDBRANCH  26  27
ENDBRANCH   1  26
TORSDOF 15
ENDMDL
