MODEL 1
REMARK VINA RESULT:      -9.3      0.000      0.000
REMARK SMILES CC[C@@](C)(NC(=O)c1sc2cc(F)ccc2c1Cl)C(=O)OCCOC(=O)c1ccc(-c2c3nc(c(-c4c(F)cccc4F)c4ccc([nH]4)c(-c4c(F)cccc4F)c4nc(c(-c5c(F)cccc5F)c5ccc2[nH]5)C=C4)C=C3)cc1
REMARK SMILES IDX 22 1 21 2 19 3 20 4 3 5 4 6 2 7 1 8 5 9 6 10 7 12 8 13 9 14
REMARK SMILES IDX 17 15 10 16 16 17 18 18 11 19 15 20 12 21 14 22 13 23 23 24
REMARK SMILES IDX 24 25 25 26 26 27 27 28 28 29 80 30 29 31 79 32 30 33 31 34
REMARK SMILES IDX 32 35 73 36 33 37 78 38 72 39 74 40 34 41 77 42 71 43 70 44
REMARK SMILES IDX 35 46 61 47 44 48 60 49 45 50 48 51 59 52 75 53 46 54 47 55
REMARK SMILES IDX 58 57 76 58 49 59 36 60 37 61 42 62 38 63 39 64 41 65 43 66
REMARK SMILES IDX 40 67 62 68 63 69 68 70 64 71 65 72 67 73 69 74 66 75 50 76
REMARK SMILES IDX 51 77 56 78 52 79 53 80 55 81 57 82 54 83
REMARK H PARENT 5 11 74 45 48 56
REMARK Flexibility Score: inf
ROOT
ATOM      1  C   UNL A   1      35.890  33.075  33.496  1.00  0.00     0.274 C 
ENDROOT
BRANCH   1   2
ATOM      2  O   UNL A   1      36.512  31.863  34.007  1.00  0.00    -0.460 OA
BRANCH   2   3
ATOM      3  C   UNL A   1      37.840  31.726  33.821  1.00  0.00     0.331 C 
ATOM      4  O   UNL A   1      38.282  31.145  32.841  1.00  0.00    -0.249 OA
BRANCH   3   5
ATOM      5  C   UNL A   1      38.737  32.154  35.028  1.00  0.00     0.135 C 
ATOM      6  C   UNL A   1      38.066  31.562  36.282  1.00  0.00     0.047 C 
BRANCH   5   7
ATOM      7  C   UNL A   1      40.172  31.508  34.886  1.00  0.00     0.037 C 
ATOM      8  C   UNL A   1      41.217  31.787  35.946  1.00  0.00     0.007 C 
ENDBRANCH   5   7
BRANCH   5   9
ATOM      9  N   UNL A   1      39.078  33.598  35.257  1.00  0.00    -0.336 N 
ATOM     10  C   UNL A   1      39.517  34.721  34.621  1.00  0.00     0.263 C 
ATOM     11  H   UNL A   1      38.931  33.810  36.207  1.00  0.00     0.165 HD
ATOM     12  O   UNL A   1      39.295  35.765  35.242  1.00  0.00    -0.268 OA
BRANCH  10  13
ATOM     13  C   UNL A   1      40.324  34.702  33.434  1.00  0.00     0.112 A 
ATOM     14  S   UNL A   1      41.989  35.066  33.632  1.00  0.00    -0.128 S 
ATOM     15  C   UNL A   1      40.006  34.569  32.102  1.00  0.00     0.072 A 
ATOM     16  C   UNL A   1      42.350  34.663  32.000  1.00  0.00     0.040 A 
ATOM     17  C   UNL A   1      41.180  34.427  31.269  1.00  0.00     0.012 A 
ATOM     18  Cl  UNL A   1      38.418  34.412  31.475  1.00  0.00    -0.082 Cl
ATOM     19  C   UNL A   1      43.632  34.489  31.440  1.00  0.00     0.059 A 
ATOM     20  C   UNL A   1      41.321  34.010  29.917  1.00  0.00     0.014 A 
ATOM     21  C   UNL A   1      43.719  33.989  30.144  1.00  0.00     0.124 A 
ATOM     22  C   UNL A   1      42.588  33.753  29.383  1.00  0.00     0.040 A 
ATOM     23  F   UNL A   1      44.921  33.675  29.644  1.00  0.00    -0.207 F 
ENDBRANCH  10  13
ENDBRANCH   5   9
ENDBRANCH   3   5
ENDBRANCH   2   3
ENDBRANCH   1   2
BRANCH   1  24
ATOM     24  C   UNL A   1      34.939  32.708  32.354  1.00  0.00     0.275 C 
BRANCH  24  25
ATOM     25  O   UNL A   1      35.569  31.856  31.400  1.00  0.00    -0.458 OA
BRANCH  25  26
ATOM     26  C   UNL A   1      35.277  32.124  30.097  1.00  0.00     0.338 C 
ATOM     27  O   UNL A   1      34.605  33.030  29.663  1.00  0.00    -0.246 OA
BRANCH  26  28
ATOM     28  C   UNL A   1      36.298  31.377  29.327  1.00  0.00     0.060 A 
ATOM     29  C   UNL A   1      36.105  30.014  29.079  1.00  0.00     0.016 A 
ATOM     30  C   UNL A   1      37.571  31.936  29.302  1.00  0.00     0.016 A 
ATOM     31  C   UNL A   1      37.191  29.162  29.162  1.00  0.00     0.010 A 
ATOM     32  C   UNL A   1      38.655  31.075  29.313  1.00  0.00     0.010 A 
ATOM     33  C   UNL A   1      38.463  29.688  29.403  1.00  0.00    -0.014 A 
BRANCH  33  34
ATOM     34  C   UNL A   1      39.611  28.777  29.368  1.00  0.00     0.031 A 
ATOM     35  C   UNL A   1      39.956  28.473  30.767  1.00  0.00     0.074 A 
ATOM     36  C   UNL A   1      40.321  28.226  28.354  1.00  0.00     0.049 A 
ATOM     37  N   UNL A   1      40.821  29.144  31.449  1.00  0.00    -0.248 NA
ATOM     38  C   UNL A   1      39.074  27.616  31.568  1.00  0.00     0.031 C 
ATOM     39  C   UNL A   1      40.127  28.239  26.904  1.00  0.00     0.029 A 
ATOM     40  N   UNL A   1      41.415  27.410  28.468  1.00  0.00    -0.354 N 
ATOM     41  C   UNL A   1      40.748  28.625  32.723  1.00  0.00     0.074 A 
ATOM     42  C   UNL A   1      39.501  27.912  32.797  1.00  0.00     0.031 C 
ATOM     43  C   UNL A   1      40.850  27.256  26.316  1.00  0.00     0.029 A 
ATOM     44  C   UNL A   1      41.760  26.720  27.306  1.00  0.00     0.049 A 
ATOM     45  H   UNL A   1      41.921  27.317  29.307  1.00  0.00     0.167 HD
ATOM     46  C   UNL A   1      41.870  28.557  33.481  1.00  0.00     0.037 A 
ATOM     47  C   UNL A   1      42.779  25.838  27.143  1.00  0.00     0.037 A 
ATOM     48  C   UNL A   1      42.914  29.403  32.938  1.00  0.00     0.049 A 
ATOM     49  C   UNL A   1      43.780  26.158  28.183  1.00  0.00     0.074 A 
ATOM     50  C   UNL A   1      43.031  30.753  32.658  1.00  0.00     0.029 A 
ATOM     51  N   UNL A   1      43.895  28.784  32.201  1.00  0.00    -0.354 N 
ATOM     52  N   UNL A   1      44.497  27.245  28.174  1.00  0.00    -0.248 NA
ATOM     53  C   UNL A   1      43.674  25.485  29.465  1.00  0.00     0.031 C 
ATOM     54  C   UNL A   1      43.785  30.828  31.448  1.00  0.00     0.029 A 
ATOM     55  C   UNL A   1      44.147  29.532  31.080  1.00  0.00     0.049 A 
ATOM     56  H   UNL A   1      44.343  27.940  32.440  1.00  0.00     0.167 HD
ATOM     57  C   UNL A   1      44.526  27.646  29.499  1.00  0.00     0.074 A 
ATOM     58  C   UNL A   1      44.115  26.466  30.258  1.00  0.00     0.031 C 
ATOM     59  C   UNL A   1      44.591  28.971  29.821  1.00  0.00     0.037 A 
BRANCH  46  60
ATOM     60  C   UNL A   1      42.150  27.404  34.407  1.00  0.00     0.057 A 
ATOM     61  C   UNL A   1      42.958  26.289  34.089  1.00  0.00     0.134 A 
ATOM     62  C   UNL A   1      41.836  27.548  35.765  1.00  0.00     0.134 A 
ATOM     63  F   UNL A   1      43.428  26.050  32.860  1.00  0.00    -0.206 F 
ATOM     64  C   UNL A   1      43.428  25.396  35.050  1.00  0.00     0.040 A 
ATOM     65  C   UNL A   1      42.351  26.691  36.743  1.00  0.00     0.040 A 
ATOM     66  F   UNL A   1      41.089  28.577  36.192  1.00  0.00    -0.206 F 
ATOM     67  C   UNL A   1      43.154  25.615  36.388  1.00  0.00     0.006 A 
ENDBRANCH  46  60
BRANCH  47  68
ATOM     68  C   UNL A   1      42.901  24.625  26.304  1.00  0.00     0.057 A 
ATOM     69  C   UNL A   1      42.421  23.384  26.751  1.00  0.00     0.134 A 
ATOM     70  C   UNL A   1      43.777  24.589  25.207  1.00  0.00     0.134 A 
ATOM     71  F   UNL A   1      41.622  23.302  27.824  1.00  0.00    -0.206 F 
ATOM     72  C   UNL A   1      42.830  22.173  26.173  1.00  0.00     0.040 A 
ATOM     73  C   UNL A   1      44.195  23.386  24.620  1.00  0.00     0.040 A 
ATOM     74  F   UNL A   1      44.313  25.719  24.725  1.00  0.00    -0.206 F 
ATOM     75  C   UNL A   1      43.734  22.172  25.115  1.00  0.00     0.006 A 
ENDBRANCH  47  68
BRANCH  59  76
ATOM     76  C   UNL A   1      44.952  29.938  28.718  1.00  0.00     0.057 A 
ATOM     77  C   UNL A   1      43.917  30.557  28.009  1.00  0.00     0.134 A 
ATOM     78  C   UNL A   1      46.259  30.200  28.272  1.00  0.00     0.134 A 
ATOM     79  F   UNL A   1      42.638  30.324  28.342  1.00  0.00    -0.206 F 
ATOM     80  C   UNL A   1      44.162  31.402  26.923  1.00  0.00     0.040 A 
ATOM     81  C   UNL A   1      46.520  31.069  27.207  1.00  0.00     0.040 A 
ATOM     82  F   UNL A   1      47.315  29.590  28.821  1.00  0.00    -0.206 F 
ATOM     83  C   UNL A   1      45.468  31.671  26.525  1.00  0.00     0.006 A 
ENDBRANCH  59  76
ENDBRANCH  33  34
ENDBRANCH  26  28
ENDBRANCH  25  26
ENDBRANCH  24  25
ENDBRANCH   1  24
TORSDOF 14
ENDMDL
MODEL 2
REMARK VINA RESULT:      -9.2      5.529     10.638
REMARK SMILES CC[C@@](C)(NC(=O)c1sc2cc(F)ccc2c1Cl)C(=O)OCCOC(=O)c1ccc(-c2c3nc(c(-c4c(F)cccc4F)c4ccc([nH]4)c(-c4c(F)cccc4F)c4nc(c(-c5c(F)cccc5F)c5ccc2[nH]5)C=C4)C=C3)cc1
REMARK SMILES IDX 22 1 21 2 19 3 20 4 3 5 4 6 2 7 1 8 5 9 6 10 7 12 8 13 9 14
REMARK SMILES IDX 17 15 10 16 16 17 18 18 11 19 15 20 12 21 14 22 13 23 23 24
REMARK SMILES IDX 24 25 25 26 26 27 27 28 28 29 80 30 29 31 79 32 30 33 31 34
REMARK SMILES IDX 32 35 73 36 33 37 78 38 72 39 74 40 34 41 77 42 71 43 70 44
REMARK SMILES IDX 35 46 61 47 44 48 60 49 45 50 48 51 59 52 75 53 46 54 47 55
REMARK SMILES IDX 58 57 76 58 49 59 36 60 37 61 42 62 38 63 39 64 41 65 43 66
REMARK SMILES IDX 40 67 62 68 63 69 68 70 64 71 65 72 67 73 69 74 66 75 50 76
REMARK SMILES IDX 51 77 56 78 52 79 53 80 55 81 57 82 54 83
REMARK H PARENT 5 11 74 45 48 56
REMARK Flexibility Score: inf
ROOT
ATOM      1  C   UNL A   1      37.512  22.493  25.018  1.00  0.00     0.274 C 
ENDROOT
BRANCH   1   2
ATOM      2  O   UNL A   1      36.504  23.063  25.899  1.00  0.00    -0.460 OA
BRANCH   2   3
ATOM      3  C   UNL A   1      35.271  22.520  25.856  1.00  0.00     0.331 C 
ATOM      4  O   UNL A   1      35.107  21.317  25.990  1.00  0.00    -0.249 OA
BRANCH   3   5
ATOM      5  C   UNL A   1      34.126  23.487  25.410  1.00  0.00     0.135 C 
ATOM      6  C   UNL A   1      34.819  24.797  24.993  1.00  0.00     0.047 C 
BRANCH   5   7
ATOM      7  C   UNL A   1      33.387  22.895  24.144  1.00  0.00     0.037 C 
ATOM      8  C   UNL A   1      33.840  23.315  22.761  1.00  0.00     0.007 C 
ENDBRANCH   5   7
BRANCH   5   9
ATOM      9  N   UNL A   1      32.971  23.781  26.322  1.00  0.00    -0.336 N 
ATOM     10  C   UNL A   1      31.785  24.451  26.388  1.00  0.00     0.263 C 
ATOM     11  H   UNL A   1      33.123  23.325  27.182  1.00  0.00     0.165 HD
ATOM     12  O   UNL A   1      31.044  24.067  27.298  1.00  0.00    -0.268 OA
BRANCH  10  13
ATOM     13  C   UNL A   1      31.482  25.614  25.603  1.00  0.00     0.112 A 
ATOM     14  S   UNL A   1      30.484  25.373  24.227  1.00  0.00    -0.128 S 
ATOM     15  C   UNL A   1      31.941  26.910  25.654  1.00  0.00     0.072 A 
ATOM     16  C   UNL A   1      30.352  27.061  23.931  1.00  0.00     0.040 A 
ATOM     17  C   UNL A   1      31.209  27.787  24.767  1.00  0.00     0.012 A 
ATOM     18  Cl  UNL A   1      33.122  27.499  26.748  1.00  0.00    -0.082 Cl
ATOM     19  C   UNL A   1      29.456  27.692  23.044  1.00  0.00     0.059 A 
ATOM     20  C   UNL A   1      31.158  29.206  24.688  1.00  0.00     0.014 A 
ATOM     21  C   UNL A   1      29.377  29.081  23.072  1.00  0.00     0.124 A 
ATOM     22  C   UNL A   1      30.212  29.838  23.875  1.00  0.00     0.040 A 
ATOM     23  F   UNL A   1      28.431  29.696  22.349  1.00  0.00    -0.207 F 
ENDBRANCH  10  13
ENDBRANCH   5   9
ENDBRANCH   3   5
ENDBRANCH   2   3
ENDBRANCH   1   2
BRANCH   1  24
ATOM     24  C   UNL A   1      38.545  21.738  25.859  1.00  0.00     0.275 C 
BRANCH  24  25
ATOM     25  O   UNL A   1      39.150  22.587  26.832  1.00  0.00    -0.458 OA
BRANCH  25  26
ATOM     26  C   UNL A   1      40.509  22.519  26.901  1.00  0.00     0.338 C 
ATOM     27  O   UNL A   1      41.215  21.579  26.618  1.00  0.00    -0.246 OA
BRANCH  26  28
ATOM     28  C   UNL A   1      40.950  23.932  26.947  1.00  0.00     0.060 A 
ATOM     29  C   UNL A   1      41.929  24.312  27.872  1.00  0.00     0.016 A 
ATOM     30  C   UNL A   1      40.063  24.863  26.419  1.00  0.00     0.016 A 
ATOM     31  C   UNL A   1      41.792  25.522  28.526  1.00  0.00     0.010 A 
ATOM     32  C   UNL A   1      39.983  26.101  27.036  1.00  0.00     0.010 A 
ATOM     33  C   UNL A   1      40.735  26.373  28.188  1.00  0.00    -0.014 A 
BRANCH  33  34
ATOM     34  C   UNL A   1      40.684  27.699  28.811  1.00  0.00     0.031 A 
ATOM     35  C   UNL A   1      41.779  28.489  28.223  1.00  0.00     0.074 A 
ATOM     36  C   UNL A   1      39.867  28.251  29.741  1.00  0.00     0.049 A 
ATOM     37  N   UNL A   1      42.960  28.562  28.737  1.00  0.00    -0.248 NA
ATOM     38  C   UNL A   1      41.686  28.944  26.831  1.00  0.00     0.031 C 
ATOM     39  C   UNL A   1      38.646  27.763  30.382  1.00  0.00     0.029 A 
ATOM     40  N   UNL A   1      39.961  29.510  30.272  1.00  0.00    -0.354 N 
ATOM     41  C   UNL A   1      43.700  29.280  27.823  1.00  0.00     0.074 A 
ATOM     42  C   UNL A   1      42.964  29.241  26.588  1.00  0.00     0.031 C 
ATOM     43  C   UNL A   1      37.965  28.786  30.954  1.00  0.00     0.029 A 
ATOM     44  C   UNL A   1      38.827  29.949  30.954  1.00  0.00     0.049 A 
ATOM     45  H   UNL A   1      40.769  30.064  30.179  1.00  0.00     0.167 HD
ATOM     46  C   UNL A   1      44.679  30.109  28.262  1.00  0.00     0.037 A 
ATOM     47  C   UNL A   1      38.641  31.152  31.556  1.00  0.00     0.037 A 
ATOM     48  C   UNL A   1      45.031  29.813  29.637  1.00  0.00     0.049 A 
ATOM     49  C   UNL A   1      39.987  31.675  31.869  1.00  0.00     0.074 A 
ATOM     50  C   UNL A   1      45.501  28.697  30.306  1.00  0.00     0.029 A 
ATOM     51  N   UNL A   1      44.500  30.632  30.604  1.00  0.00    -0.354 N 
ATOM     52  N   UNL A   1      40.764  31.153  32.775  1.00  0.00    -0.248 NA
ATOM     53  C   UNL A   1      40.648  32.504  30.878  1.00  0.00     0.031 C 
ATOM     54  C   UNL A   1      44.844  28.709  31.574  1.00  0.00     0.029 A 
ATOM     55  C   UNL A   1      44.057  29.859  31.646  1.00  0.00     0.049 A 
ATOM     56  H   UNL A   1      44.447  31.614  30.556  1.00  0.00     0.167 HD
ATOM     57  C   UNL A   1      42.025  31.184  32.204  1.00  0.00     0.074 A 
ATOM     58  C   UNL A   1      41.913  32.135  31.099  1.00  0.00     0.031 C 
ATOM     59  C   UNL A   1      42.943  30.218  32.499  1.00  0.00     0.037 A 
BRANCH  46  60
ATOM     60  C   UNL A   1      44.964  31.436  27.612  1.00  0.00     0.057 A 
ATOM     61  C   UNL A   1      44.209  32.615  27.813  1.00  0.00     0.134 A 
ATOM     62  C   UNL A   1      46.204  31.620  26.985  1.00  0.00     0.134 A 
ATOM     63  F   UNL A   1      43.048  32.638  28.476  1.00  0.00    -0.206 F 
ATOM     64  C   UNL A   1      44.661  33.877  27.433  1.00  0.00     0.040 A 
ATOM     65  C   UNL A   1      46.690  32.888  26.654  1.00  0.00     0.040 A 
ATOM     66  F   UNL A   1      47.018  30.579  26.756  1.00  0.00    -0.206 F 
ATOM     67  C   UNL A   1      45.921  34.022  26.883  1.00  0.00     0.006 A 
ENDBRANCH  46  60
BRANCH  47  68
ATOM     68  C   UNL A   1      37.431  31.987  31.724  1.00  0.00     0.057 A 
ATOM     69  C   UNL A   1      36.736  32.017  32.943  1.00  0.00     0.134 A 
ATOM     70  C   UNL A   1      36.747  32.503  30.611  1.00  0.00     0.134 A 
ATOM     71  F   UNL A   1      37.277  31.500  34.055  1.00  0.00    -0.206 F 
ATOM     72  C   UNL A   1      35.418  32.487  33.039  1.00  0.00     0.040 A 
ATOM     73  C   UNL A   1      35.430  32.975  30.693  1.00  0.00     0.040 A 
ATOM     74  F   UNL A   1      37.315  32.490  29.396  1.00  0.00    -0.206 F 
ATOM     75  C   UNL A   1      34.754  32.950  31.907  1.00  0.00     0.006 A 
ENDBRANCH  47  68
BRANCH  59  76
ATOM     76  C   UNL A   1      42.660  29.327  33.685  1.00  0.00     0.057 A 
ATOM     77  C   UNL A   1      42.000  28.113  33.463  1.00  0.00     0.134 A 
ATOM     78  C   UNL A   1      42.921  29.661  35.024  1.00  0.00     0.134 A 
ATOM     79  F   UNL A   1      41.673  27.741  32.216  1.00  0.00    -0.206 F 
ATOM     80  C   UNL A   1      41.627  27.268  34.512  1.00  0.00     0.040 A 
ATOM     81  C   UNL A   1      42.584  28.809  36.082  1.00  0.00     0.040 A 
ATOM     82  F   UNL A   1      43.467  30.837  35.353  1.00  0.00    -0.206 F 
ATOM     83  C   UNL A   1      41.930  27.608  35.827  1.00  0.00     0.006 A 
ENDBRANCH  59  76
ENDBRANCH  33  34
ENDBRANCH  26  28
ENDBRANCH  25  26
ENDBRANCH  24  25
ENDBRANCH   1  24
TORSDOF 14
ENDMDL
MODEL 3
REMARK VINA RESULT:      -9.1      4.990      8.298
REMARK SMILES CC[C@@](C)(NC(=O)c1sc2cc(F)ccc2c1Cl)C(=O)OCCOC(=O)c1ccc(-c2c3nc(c(-c4c(F)cccc4F)c4ccc([nH]4)c(-c4c(F)cccc4F)c4nc(c(-c5c(F)cccc5F)c5ccc2[nH]5)C=C4)C=C3)cc1
REMARK SMILES IDX 22 1 21 2 19 3 20 4 3 5 4 6 2 7 1 8 5 9 6 10 7 12 8 13 9 14
REMARK SMILES IDX 17 15 10 16 16 17 18 18 11 19 15 20 12 21 14 22 13 23 23 24
REMARK SMILES IDX 24 25 25 26 26 27 27 28 28 29 80 30 29 31 79 32 30 33 31 34
REMARK SMILES IDX 32 35 73 36 33 37 78 38 72 39 74 40 34 41 77 42 71 43 70 44
REMARK SMILES IDX 35 46 61 47 44 48 60 49 45 50 48 51 59 52 75 53 46 54 47 55
REMARK SMILES IDX 58 57 76 58 49 59 36 60 37 61 42 62 38 63 39 64 41 65 43 66
REMARK SMILES IDX 40 67 62 68 63 69 68 70 64 71 65 72 67 73 69 74 66 75 50 76
REMARK SMILES IDX 51 77 56 78 52 79 53 80 55 81 57 82 54 83
REMARK H PARENT 5 11 74 45 48 56
REMARK Flexibility Score: inf
ROOT
ATOM      1  C   UNL A   1      32.244  30.070  26.883  1.00  0.00     0.274 C 
ENDROOT
BRANCH   1   2
ATOM      2  O   UNL A   1      32.473  29.336  25.648  1.00  0.00    -0.460 OA
BRANCH   2   3
ATOM      3  C   UNL A   1      32.787  28.030  25.757  1.00  0.00     0.331 C 
ATOM      4  O   UNL A   1      33.650  27.652  26.536  1.00  0.00    -0.249 OA
BRANCH   3   5
ATOM      5  C   UNL A   1      32.145  27.092  24.683  1.00  0.00     0.135 C 
ATOM      6  C   UNL A   1      31.587  25.884  25.460  1.00  0.00     0.047 C 
BRANCH   5   7
ATOM      7  C   UNL A   1      30.936  27.828  23.981  1.00  0.00     0.037 C 
ATOM      8  C   UNL A   1      30.647  27.549  22.521  1.00  0.00     0.007 C 
ENDBRANCH   5   7
BRANCH   5   9
ATOM      9  N   UNL A   1      32.940  26.623  23.500  1.00  0.00    -0.336 N 
ATOM     10  C   UNL A   1      33.284  25.504  22.800  1.00  0.00     0.263 C 
ATOM     11  H   UNL A   1      33.364  27.403  23.075  1.00  0.00     0.165 HD
ATOM     12  O   UNL A   1      33.709  25.737  21.664  1.00  0.00    -0.268 OA
BRANCH  10  13
ATOM     13  C   UNL A   1      33.328  24.188  23.372  1.00  0.00     0.112 A 
ATOM     14  S   UNL A   1      32.025  23.139  22.987  1.00  0.00    -0.128 S 
ATOM     15  C   UNL A   1      34.166  23.609  24.297  1.00  0.00     0.072 A 
ATOM     16  C   UNL A   1      32.784  21.794  23.741  1.00  0.00     0.040 A 
ATOM     17  C   UNL A   1      33.934  22.188  24.434  1.00  0.00     0.012 A 
ATOM     18  Cl  UNL A   1      35.461  24.403  25.092  1.00  0.00    -0.082 Cl
ATOM     19  C   UNL A   1      32.397  20.442  23.637  1.00  0.00     0.059 A 
ATOM     20  C   UNL A   1      34.712  21.170  25.051  1.00  0.00     0.014 A 
ATOM     21  C   UNL A   1      33.240  19.476  24.176  1.00  0.00     0.124 A 
ATOM     22  C   UNL A   1      34.381  19.822  24.878  1.00  0.00     0.040 A 
ATOM     23  F   UNL A   1      32.972  18.181  23.961  1.00  0.00    -0.207 F 
ENDBRANCH  10  13
ENDBRANCH   5   9
ENDBRANCH   3   5
ENDBRANCH   2   3
ENDBRANCH   1   2
BRANCH   1  24
ATOM     24  C   UNL A   1      33.210  31.255  26.950  1.00  0.00     0.275 C 
BRANCH  24  25
ATOM     25  O   UNL A   1      34.075  31.163  28.081  1.00  0.00    -0.458 OA
BRANCH  25  26
ATOM     26  C   UNL A   1      35.237  31.867  27.984  1.00  0.00     0.338 C 
ATOM     27  O   UNL A   1      35.377  33.013  27.626  1.00  0.00    -0.246 OA
BRANCH  26  28
ATOM     28  C   UNL A   1      36.199  31.113  28.821  1.00  0.00     0.060 A 
ATOM     29  C   UNL A   1      37.362  31.749  29.267  1.00  0.00     0.016 A 
ATOM     30  C   UNL A   1      36.131  29.727  28.727  1.00  0.00     0.016 A 
ATOM     31  C   UNL A   1      38.549  31.039  29.272  1.00  0.00     0.010 A 
ATOM     32  C   UNL A   1      37.316  29.016  28.806  1.00  0.00     0.010 A 
ATOM     33  C   UNL A   1      38.543  29.686  28.920  1.00  0.00    -0.014 A 
BRANCH  33  34
ATOM     34  C   UNL A   1      39.792  28.929  29.050  1.00  0.00     0.031 A 
ATOM     35  C   UNL A   1      40.070  28.810  30.491  1.00  0.00     0.074 A 
ATOM     36  C   UNL A   1      40.635  28.377  28.144  1.00  0.00     0.049 A 
ATOM     37  N   UNL A   1      40.796  29.650  31.148  1.00  0.00    -0.248 NA
ATOM     38  C   UNL A   1      39.242  27.930  31.325  1.00  0.00     0.031 C 
ATOM     39  C   UNL A   1      40.546  28.223  26.692  1.00  0.00     0.029 A 
ATOM     40  N   UNL A   1      41.809  27.722  28.409  1.00  0.00    -0.354 N 
ATOM     41  C   UNL A   1      40.694  29.253  32.464  1.00  0.00     0.074 A 
ATOM     42  C   UNL A   1      39.541  28.397  32.539  1.00  0.00     0.031 C 
ATOM     43  C   UNL A   1      41.424  27.288  26.255  1.00  0.00     0.029 A 
ATOM     44  C   UNL A   1      42.318  26.972  27.349  1.00  0.00     0.049 A 
ATOM     45  H   UNL A   1      42.260  27.777  29.282  1.00  0.00     0.167 HD
ATOM     46  C   UNL A   1      41.759  29.403  33.291  1.00  0.00     0.037 A 
ATOM     47  C   UNL A   1      43.445  26.215  27.342  1.00  0.00     0.037 A 
ATOM     48  C   UNL A   1      42.729  30.318  32.723  1.00  0.00     0.049 A 
ATOM     49  C   UNL A   1      44.322  26.760  28.399  1.00  0.00     0.074 A 
ATOM     50  C   UNL A   1      42.702  31.638  32.310  1.00  0.00     0.029 A 
ATOM     51  N   UNL A   1      43.828  29.760  32.116  1.00  0.00    -0.354 N 
ATOM     52  N   UNL A   1      44.902  27.924  28.318  1.00  0.00    -0.248 NA
ATOM     53  C   UNL A   1      44.206  26.208  29.737  1.00  0.00     0.031 C 
ATOM     54  C   UNL A   1      43.526  31.690  31.145  1.00  0.00     0.029 A 
ATOM     55  C   UNL A   1      44.069  30.421  30.939  1.00  0.00     0.049 A 
ATOM     56  H   UNL A   1      44.357  29.008  32.469  1.00  0.00     0.167 HD
ATOM     57  C   UNL A   1      44.786  28.453  29.592  1.00  0.00     0.074 A 
ATOM     58  C   UNL A   1      44.466  27.310  30.446  1.00  0.00     0.031 C 
ATOM     59  C   UNL A   1      44.667  29.801  29.775  1.00  0.00     0.037 A 
BRANCH  46  60
ATOM     60  C   UNL A   1      42.108  28.391  34.348  1.00  0.00     0.057 A 
ATOM     61  C   UNL A   1      41.789  28.510  35.720  1.00  0.00     0.134 A 
ATOM     62  C   UNL A   1      42.527  27.118  33.940  1.00  0.00     0.134 A 
ATOM     63  F   UNL A   1      41.287  29.624  36.262  1.00  0.00    -0.206 F 
ATOM     64  C   UNL A   1      41.866  27.442  36.610  1.00  0.00     0.040 A 
ATOM     65  C   UNL A   1      42.552  26.026  34.813  1.00  0.00     0.040 A 
ATOM     66  F   UNL A   1      42.842  26.877  32.658  1.00  0.00    -0.206 F 
ATOM     67  C   UNL A   1      42.215  26.185  36.152  1.00  0.00     0.006 A 
ENDBRANCH  46  60
BRANCH  47  68
ATOM     68  C   UNL A   1      43.773  24.952  26.644  1.00  0.00     0.057 A 
ATOM     69  C   UNL A   1      44.458  24.958  25.419  1.00  0.00     0.134 A 
ATOM     70  C   UNL A   1      43.136  23.748  26.989  1.00  0.00     0.134 A 
ATOM     71  F   UNL A   1      45.053  26.073  24.970  1.00  0.00    -0.206 F 
ATOM     72  C   UNL A   1      44.466  23.848  24.562  1.00  0.00     0.040 A 
ATOM     73  C   UNL A   1      43.136  22.631  26.142  1.00  0.00     0.040 A 
ATOM     74  F   UNL A   1      42.431  23.651  28.125  1.00  0.00    -0.206 F 
ATOM     75  C   UNL A   1      43.787  22.685  24.915  1.00  0.00     0.006 A 
ENDBRANCH  47  68
BRANCH  59  76
ATOM     76  C   UNL A   1      44.987  30.693  28.599  1.00  0.00     0.057 A 
ATOM     77  C   UNL A   1      43.945  31.069  27.745  1.00  0.00     0.134 A 
ATOM     78  C   UNL A   1      46.278  31.106  28.230  1.00  0.00     0.134 A 
ATOM     79  F   UNL A   1      42.687  30.677  28.001  1.00  0.00    -0.206 F 
ATOM     80  C   UNL A   1      44.167  31.825  26.590  1.00  0.00     0.040 A 
ATOM     81  C   UNL A   1      46.511  31.892  27.095  1.00  0.00     0.040 A 
ATOM     82  F   UNL A   1      47.355  30.727  28.927  1.00  0.00    -0.206 F 
ATOM     83  C   UNL A   1      45.452  32.251  26.267  1.00  0.00     0.006 A 
ENDBRANCH  59  76
ENDBRANCH  33  34
ENDBRANCH  26  28
ENDBRANCH  25  26
ENDBRANCH  24  25
ENDBRANCH   1  24
TORSDOF 14
ENDMDL
