MODEL 1
REMARK VINA RESULT:     -11.6      0.000      0.000
REMARK SMILES C=CCn1nc(C(=O)OCCOC(=O)c2ccc(-c3c4nc(c(-c5c(F)cccc5F)c5ccc([nH]5)c(-c5c(F)cccc5F)c5nc(c(-c6c(F)cccc6F)c6ccc3[nH]6)C=C5)C=C4)cc2)c2c1CC[C@@H]([NH+]1CCC(C(C)(C)O)CC1)C2
REMARK SMILES IDX 10 1 9 2 7 3 8 4 6 5 4 6 5 7 70 8 69 9 71 10 84 11 72 12
REMARK SMILES IDX 73 13 3 14 2 15 1 16 74 17 75 18 83 19 76 21 82 22 77 23
REMARK SMILES IDX 78 24 79 25 80 26 81 27 11 29 12 30 13 31 14 32 15 33 16 34
REMARK SMILES IDX 68 35 17 36 67 37 18 38 19 39 20 40 61 41 21 42 66 43 60 44
REMARK SMILES IDX 62 45 22 46 65 47 59 48 58 49 23 51 49 52 32 53 48 54 33 55
REMARK SMILES IDX 36 56 47 57 63 58 34 59 35 60 46 62 64 63 37 64 24 65 25 66
REMARK SMILES IDX 30 67 26 68 27 69 29 70 31 71 28 72 50 73 51 74 56 75 52 76
REMARK SMILES IDX 53 77 55 78 57 79 54 80 38 81 39 82 44 83 40 84 41 85 43 86
REMARK SMILES IDX 45 87 42 88
REMARK H PARENT 74 20 81 28 62 50 36 61
REMARK Flexibility Score: inf
ROOT
ATOM      1  C   UNL A   1      39.662  21.637  26.539  1.00  0.00     0.275 C 
ENDROOT
BRANCH   1   2
ATOM      2  O   UNL A   1      38.541  21.595  25.646  1.00  0.00    -0.457 OA
BRANCH   2   3
ATOM      3  C   UNL A   1      37.591  22.580  25.720  1.00  0.00     0.359 C 
ATOM      4  O   UNL A   1      37.827  23.730  26.086  1.00  0.00    -0.244 OA
BRANCH   3   5
ATOM      5  C   UNL A   1      36.282  22.082  25.267  1.00  0.00     0.174 A 
ATOM      6  N   UNL A   1      34.681  20.787  24.689  1.00  0.00    -0.265 N 
ATOM      7  N   UNL A   1      35.896  20.783  25.298  1.00  0.00    -0.165 NA
ATOM      8  C   UNL A   1      34.442  21.981  24.069  1.00  0.00     0.043 A 
ATOM      9  C   UNL A   1      35.241  22.880  24.728  1.00  0.00     0.014 A 
ATOM     10  C   UNL A   1      33.484  22.316  23.000  1.00  0.00     0.062 C 
ATOM     11  C   UNL A   1      35.041  24.355  24.667  1.00  0.00     0.105 C 
ATOM     12  C   UNL A   1      33.416  23.847  22.817  1.00  0.00     0.072 C 
ATOM     13  C   UNL A   1      33.642  24.722  24.082  1.00  0.00     0.189 C 
BRANCH   6  14
ATOM     14  C   UNL A   1      33.797  19.622  24.769  1.00  0.00     0.171 C 
BRANCH  14  15
ATOM     15  C   UNL A   1      34.523  18.313  24.548  1.00  0.00    -0.011 C 
ATOM     16  C   UNL A   1      34.193  17.377  23.645  1.00  0.00     0.006 C 
ENDBRANCH  14  15
ENDBRANCH   6  14
BRANCH  13  17
ATOM     17  N   UNL A   1      32.600  24.876  25.123  1.00  0.00    -0.332 N 
ATOM     18  C   UNL A   1      31.243  25.253  24.772  1.00  0.00     0.262 C 
ATOM     19  C   UNL A   1      32.997  25.561  26.344  1.00  0.00     0.262 C 
ATOM     20  H   UNL A   1      32.534  23.873  25.291  1.00  0.00     0.348 HD
ATOM     21  C   UNL A   1      30.999  26.754  24.616  1.00  0.00     0.068 C 
ATOM     22  C   UNL A   1      33.041  27.074  26.209  1.00  0.00     0.068 C 
ATOM     23  C   UNL A   1      31.824  27.721  25.504  1.00  0.00     0.031 C 
BRANCH  23  24
ATOM     24  C   UNL A   1      32.231  29.068  24.787  1.00  0.00     0.062 C 
ATOM     25  C   UNL A   1      33.435  29.772  25.423  1.00  0.00     0.042 C 
ATOM     26  C   UNL A   1      32.507  28.825  23.298  1.00  0.00     0.042 C 
BRANCH  24  27
ATOM     27  O   UNL A   1      31.147  30.001  24.843  1.00  0.00    -0.390 OA
ATOM     28  H   UNL A   1      31.411  30.830  24.415  1.00  0.00     0.211 HD
ENDBRANCH  24  27
ENDBRANCH  23  24
ENDBRANCH  13  17
ENDBRANCH   3   5
ENDBRANCH   2   3
ENDBRANCH   1   2
BRANCH   1  29
ATOM     29  C   UNL A   1      40.610  20.479  26.259  1.00  0.00     0.275 C 
BRANCH  29  30
ATOM     30  O   UNL A   1      41.912  20.839  26.698  1.00  0.00    -0.458 OA
BRANCH  30  31
ATOM     31  C   UNL A   1      42.870  20.928  25.748  1.00  0.00     0.338 C 
ATOM     32  O   UNL A   1      43.288  20.034  25.037  1.00  0.00    -0.246 OA
BRANCH  31  33
ATOM     33  C   UNL A   1      43.432  22.281  25.797  1.00  0.00     0.060 A 
ATOM     34  C   UNL A   1      44.428  22.530  26.745  1.00  0.00     0.016 A 
ATOM     35  C   UNL A   1      42.714  23.308  25.172  1.00  0.00     0.016 A 
ATOM     36  C   UNL A   1      44.505  23.796  27.281  1.00  0.00     0.010 A 
ATOM     37  C   UNL A   1      42.751  24.547  25.739  1.00  0.00     0.010 A 
ATOM     38  C   UNL A   1      43.573  24.738  26.847  1.00  0.00    -0.014 A 
BRANCH  38  39
ATOM     39  C   UNL A   1      43.402  25.963  27.587  1.00  0.00     0.031 A 
ATOM     40  C   UNL A   1      44.423  26.984  27.277  1.00  0.00     0.074 A 
ATOM     41  C   UNL A   1      42.273  26.159  28.294  1.00  0.00     0.049 A 
ATOM     42  N   UNL A   1      45.318  27.474  28.067  1.00  0.00    -0.248 NA
ATOM     43  C   UNL A   1      44.594  27.371  25.865  1.00  0.00     0.031 C 
ATOM     44  C   UNL A   1      41.083  25.302  28.369  1.00  0.00     0.029 A 
ATOM     45  N   UNL A   1      41.899  27.259  28.995  1.00  0.00    -0.354 N 
ATOM     46  C   UNL A   1      46.039  28.376  27.291  1.00  0.00     0.074 A 
ATOM     47  C   UNL A   1      45.713  28.088  25.923  1.00  0.00     0.031 C 
ATOM     48  C   UNL A   1      40.050  26.017  28.873  1.00  0.00     0.029 A 
ATOM     49  C   UNL A   1      40.535  27.329  29.257  1.00  0.00     0.049 A 
ATOM     50  H   UNL A   1      42.538  27.948  29.292  1.00  0.00     0.167 HD
ATOM     51  C   UNL A   1      46.632  29.468  27.842  1.00  0.00     0.037 A 
ATOM     52  C   UNL A   1      39.886  28.458  29.634  1.00  0.00     0.037 A 
ATOM     53  C   UNL A   1      46.728  29.332  29.273  1.00  0.00     0.049 A 
ATOM     54  C   UNL A   1      40.922  29.406  30.139  1.00  0.00     0.074 A 
ATOM     55  C   UNL A   1      47.360  28.438  30.116  1.00  0.00     0.029 A 
ATOM     56  N   UNL A   1      45.778  29.969  30.036  1.00  0.00    -0.354 N 
ATOM     57  N   UNL A   1      41.621  29.200  31.225  1.00  0.00    -0.248 NA
ATOM     58  C   UNL A   1      41.536  30.305  29.168  1.00  0.00     0.031 C 
ATOM     59  C   UNL A   1      46.448  28.242  31.193  1.00  0.00     0.029 A 
ATOM     60  C   UNL A   1      45.348  29.076  30.984  1.00  0.00     0.049 A 
ATOM     61  H   UNL A   1      45.464  30.896  29.924  1.00  0.00     0.167 HD
ATOM     62  C   UNL A   1      42.913  29.599  30.902  1.00  0.00     0.074 A 
ATOM     63  C   UNL A   1      42.787  30.324  29.640  1.00  0.00     0.031 C 
ATOM     64  C   UNL A   1      44.004  29.052  31.518  1.00  0.00     0.037 A 
BRANCH  51  65
ATOM     65  C   UNL A   1      46.780  30.798  27.148  1.00  0.00     0.057 A 
ATOM     66  C   UNL A   1      48.050  31.399  27.108  1.00  0.00     0.134 A 
ATOM     67  C   UNL A   1      45.711  31.640  26.769  1.00  0.00     0.134 A 
ATOM     68  F   UNL A   1      49.150  30.708  27.441  1.00  0.00    -0.206 F 
ATOM     69  C   UNL A   1      48.231  32.753  26.805  1.00  0.00     0.040 A 
ATOM     70  C   UNL A   1      45.888  32.977  26.410  1.00  0.00     0.040 A 
ATOM     71  F   UNL A   1      44.431  31.258  26.818  1.00  0.00    -0.206 F 
ATOM     72  C   UNL A   1      47.146  33.550  26.465  1.00  0.00     0.006 A 
ENDBRANCH  51  65
BRANCH  52  73
ATOM     73  C   UNL A   1      38.528  28.890  29.218  1.00  0.00     0.057 A 
ATOM     74  C   UNL A   1      37.489  29.030  30.147  1.00  0.00     0.134 A 
ATOM     75  C   UNL A   1      38.277  29.414  27.935  1.00  0.00     0.134 A 
ATOM     76  F   UNL A   1      37.646  28.609  31.410  1.00  0.00    -0.206 F 
ATOM     77  C   UNL A   1      36.277  29.659  29.822  1.00  0.00     0.040 A 
ATOM     78  C   UNL A   1      37.071  30.035  27.596  1.00  0.00     0.040 A 
ATOM     79  F   UNL A   1      39.225  29.420  26.988  1.00  0.00    -0.206 F 
ATOM     80  C   UNL A   1      36.067  30.169  28.544  1.00  0.00     0.006 A 
ENDBRANCH  52  73
BRANCH  64  81
ATOM     81  C   UNL A   1      43.781  28.142  32.694  1.00  0.00     0.057 A 
ATOM     82  C   UNL A   1      43.717  26.744  32.596  1.00  0.00     0.134 A 
ATOM     83  C   UNL A   1      43.856  28.680  33.984  1.00  0.00     0.134 A 
ATOM     84  F   UNL A   1      43.746  26.132  31.407  1.00  0.00    -0.206 F 
ATOM     85  C   UNL A   1      43.705  25.922  33.728  1.00  0.00     0.040 A 
ATOM     86  C   UNL A   1      43.879  27.870  35.121  1.00  0.00     0.040 A 
ATOM     87  F   UNL A   1      43.982  30.005  34.155  1.00  0.00    -0.206 F 
ATOM     88  C   UNL A   1      43.799  26.485  34.995  1.00  0.00     0.006 A 
ENDBRANCH  64  81
ENDBRANCH  38  39
ENDBRANCH  31  33
ENDBRANCH  30  31
ENDBRANCH  29  30
ENDBRANCH   1  29
TORSDOF 16
ENDMDL
MODEL 2
REMARK VINA RESULT:     -11.6      2.471      7.600
REMARK SMILES C=CCn1nc(C(=O)OCCOC(=O)c2ccc(-c3c4nc(c(-c5c(F)cccc5F)c5ccc([nH]5)c(-c5c(F)cccc5F)c5nc(c(-c6c(F)cccc6F)c6ccc3[nH]6)C=C5)C=C4)cc2)c2c1CC[C@@H]([NH+]1CCC(C(C)(C)O)CC1)C2
REMARK SMILES IDX 10 1 9 2 7 3 8 4 6 5 4 6 5 7 70 8 69 9 71 10 84 11 72 12
REMARK SMILES IDX 73 13 3 14 2 15 1 16 74 17 75 18 83 19 76 21 82 22 77 23
REMARK SMILES IDX 78 24 79 25 80 26 81 27 11 29 12 30 13 31 14 32 15 33 16 34
REMARK SMILES IDX 68 35 17 36 67 37 18 38 19 39 20 40 61 41 21 42 66 43 60 44
REMARK SMILES IDX 62 45 22 46 65 47 59 48 58 49 23 51 49 52 32 53 48 54 33 55
REMARK SMILES IDX 36 56 47 57 63 58 34 59 35 60 46 62 64 63 37 64 24 65 25 66
REMARK SMILES IDX 30 67 26 68 27 69 29 70 31 71 28 72 50 73 51 74 56 75 52 76
REMARK SMILES IDX 53 77 55 78 57 79 54 80 38 81 39 82 44 83 40 84 41 85 43 86
REMARK SMILES IDX 45 87 42 88
REMARK H PARENT 74 20 81 28 62 50 36 61
REMARK Flexibility Score: inf
ROOT
ATOM      1  C   UNL A   1      33.853  31.446  27.396  1.00  0.00     0.275 C 
ENDROOT
BRANCH   1   2
ATOM      2  O   UNL A   1      33.122  30.213  27.390  1.00  0.00    -0.457 OA
BRANCH   2   3
ATOM      3  C   UNL A   1      33.608  29.153  26.669  1.00  0.00     0.359 C 
ATOM      4  O   UNL A   1      34.684  28.605  26.901  1.00  0.00    -0.244 OA
BRANCH   3   5
ATOM      5  C   UNL A   1      32.654  28.747  25.623  1.00  0.00     0.174 A 
ATOM      6  N   UNL A   1      31.176  28.802  24.078  1.00  0.00    -0.265 N 
ATOM      7  N   UNL A   1      32.029  29.600  24.775  1.00  0.00    -0.165 NA
ATOM      8  C   UNL A   1      31.080  27.565  24.648  1.00  0.00     0.043 A 
ATOM      9  C   UNL A   1      32.245  27.417  25.357  1.00  0.00     0.014 A 
ATOM     10  C   UNL A   1      30.039  26.532  24.495  1.00  0.00     0.062 C 
ATOM     11  C   UNL A   1      32.761  26.099  25.822  1.00  0.00     0.105 C 
ATOM     12  C   UNL A   1      30.508  25.212  25.143  1.00  0.00     0.072 C 
ATOM     13  C   UNL A   1      32.034  24.913  25.115  1.00  0.00     0.189 C 
BRANCH   6  14
ATOM     14  C   UNL A   1      30.517  29.288  22.864  1.00  0.00     0.171 C 
BRANCH  14  15
ATOM     15  C   UNL A   1      29.181  29.943  23.140  1.00  0.00    -0.011 C 
ATOM     16  C   UNL A   1      27.985  29.337  23.080  1.00  0.00     0.006 C 
ENDBRANCH  14  15
ENDBRANCH   6  14
BRANCH  13  17
ATOM     17  N   UNL A   1      32.720  24.464  23.882  1.00  0.00    -0.332 N 
ATOM     18  C   UNL A   1      32.190  23.371  23.088  1.00  0.00     0.262 C 
ATOM     19  C   UNL A   1      34.170  24.364  23.945  1.00  0.00     0.262 C 
ATOM     20  H   UNL A   1      32.450  25.295  23.357  1.00  0.00     0.348 HD
ATOM     21  C   UNL A   1      32.584  21.970  23.555  1.00  0.00     0.068 C 
ATOM     22  C   UNL A   1      34.666  23.108  24.641  1.00  0.00     0.068 C 
ATOM     23  C   UNL A   1      33.973  21.789  24.221  1.00  0.00     0.031 C 
BRANCH  23  24
ATOM     24  C   UNL A   1      33.993  20.736  25.397  1.00  0.00     0.062 C 
ATOM     25  C   UNL A   1      33.812  21.352  26.789  1.00  0.00     0.042 C 
ATOM     26  C   UNL A   1      32.928  19.655  25.173  1.00  0.00     0.042 C 
BRANCH  24  27
ATOM     27  O   UNL A   1      35.251  20.053  25.424  1.00  0.00    -0.390 OA
ATOM     28  H   UNL A   1      35.585  20.025  26.334  1.00  0.00     0.211 HD
ENDBRANCH  24  27
ENDBRANCH  23  24
ENDBRANCH  13  17
ENDBRANCH   3   5
ENDBRANCH   2   3
ENDBRANCH   1   2
BRANCH   1  29
ATOM     29  C   UNL A   1      34.595  31.618  28.714  1.00  0.00     0.275 C 
BRANCH  29  30
ATOM     30  O   UNL A   1      35.909  31.096  28.569  1.00  0.00    -0.458 OA
BRANCH  30  31
ATOM     31  C   UNL A   1      36.463  30.532  29.665  1.00  0.00     0.338 C 
ATOM     32  O   UNL A   1      36.365  30.911  30.817  1.00  0.00    -0.246 OA
BRANCH  31  33
ATOM     33  C   UNL A   1      37.329  29.436  29.223  1.00  0.00     0.060 A 
ATOM     34  C   UNL A   1      37.797  28.552  30.200  1.00  0.00     0.016 A 
ATOM     35  C   UNL A   1      37.919  29.540  27.958  1.00  0.00     0.016 A 
ATOM     36  C   UNL A   1      39.036  27.982  30.011  1.00  0.00     0.010 A 
ATOM     37  C   UNL A   1      39.168  29.021  27.793  1.00  0.00     0.010 A 
ATOM     38  C   UNL A   1      39.742  28.337  28.862  1.00  0.00    -0.014 A 
BRANCH  38  39
ATOM     39  C   UNL A   1      41.147  28.029  28.765  1.00  0.00     0.031 A 
ATOM     40  C   UNL A   1      41.422  26.760  28.061  1.00  0.00     0.074 A 
ATOM     41  C   UNL A   1      42.056  28.963  29.103  1.00  0.00     0.049 A 
ATOM     42  N   UNL A   1      41.955  25.688  28.543  1.00  0.00    -0.248 NA
ATOM     43  C   UNL A   1      40.866  26.597  26.707  1.00  0.00     0.031 C 
ATOM     44  C   UNL A   1      41.826  30.357  29.502  1.00  0.00     0.029 A 
ATOM     45  N   UNL A   1      43.408  28.889  29.020  1.00  0.00    -0.354 N 
ATOM     46  C   UNL A   1      41.974  24.781  27.487  1.00  0.00     0.074 A 
ATOM     47  C   UNL A   1      41.087  25.303  26.486  1.00  0.00     0.031 C 
ATOM     48  C   UNL A   1      42.985  31.048  29.395  1.00  0.00     0.029 A 
ATOM     49  C   UNL A   1      44.045  30.126  29.035  1.00  0.00     0.049 A 
ATOM     50  H   UNL A   1      43.895  28.036  28.956  1.00  0.00     0.167 HD
ATOM     51  C   UNL A   1      42.925  23.815  27.401  1.00  0.00     0.037 A 
ATOM     52  C   UNL A   1      45.325  30.331  28.637  1.00  0.00     0.037 A 
ATOM     53  C   UNL A   1      43.598  23.643  28.663  1.00  0.00     0.049 A 
ATOM     54  C   UNL A   1      46.000  28.999  28.646  1.00  0.00     0.074 A 
ATOM     55  C   UNL A   1      43.191  23.269  29.929  1.00  0.00     0.029 A 
ATOM     56  N   UNL A   1      44.817  24.259  28.822  1.00  0.00    -0.354 N 
ATOM     57  N   UNL A   1      46.232  28.314  29.735  1.00  0.00    -0.248 NA
ATOM     58  C   UNL A   1      45.941  28.212  27.419  1.00  0.00     0.031 C 
ATOM     59  C   UNL A   1      43.940  24.095  30.815  1.00  0.00     0.029 A 
ATOM     60  C   UNL A   1      44.809  24.874  30.047  1.00  0.00     0.049 A 
ATOM     61  H   UNL A   1      45.560  24.258  28.175  1.00  0.00     0.167 HD
ATOM     62  C   UNL A   1      45.940  26.997  29.401  1.00  0.00     0.074 A 
ATOM     63  C   UNL A   1      45.821  26.989  27.944  1.00  0.00     0.031 C 
ATOM     64  C   UNL A   1      45.522  26.097  30.340  1.00  0.00     0.037 A 
BRANCH  51  65
ATOM     65  C   UNL A   1      43.500  23.299  26.105  1.00  0.00     0.057 A 
ATOM     66  C   UNL A   1      43.517  21.912  25.883  1.00  0.00     0.134 A 
ATOM     67  C   UNL A   1      44.279  24.057  25.204  1.00  0.00     0.134 A 
ATOM     68  F   UNL A   1      42.817  21.078  26.667  1.00  0.00    -0.206 F 
ATOM     69  C   UNL A   1      44.318  21.319  24.900  1.00  0.00     0.040 A 
ATOM     70  C   UNL A   1      45.036  23.479  24.183  1.00  0.00     0.040 A 
ATOM     71  F   UNL A   1      44.436  25.380  25.311  1.00  0.00    -0.206 F 
ATOM     72  C   UNL A   1      45.090  22.103  24.053  1.00  0.00     0.006 A 
ENDBRANCH  51  65
BRANCH  52  73
ATOM     73  C   UNL A   1      45.854  31.502  27.895  1.00  0.00     0.057 A 
ATOM     74  C   UNL A   1      45.164  32.050  26.806  1.00  0.00     0.134 A 
ATOM     75  C   UNL A   1      46.928  32.268  28.387  1.00  0.00     0.134 A 
ATOM     76  F   UNL A   1      44.095  31.423  26.294  1.00  0.00    -0.206 F 
ATOM     77  C   UNL A   1      45.517  33.287  26.244  1.00  0.00     0.040 A 
ATOM     78  C   UNL A   1      47.296  33.497  27.831  1.00  0.00     0.040 A 
ATOM     79  F   UNL A   1      47.607  31.893  29.480  1.00  0.00    -0.206 F 
ATOM     80  C   UNL A   1      46.583  34.017  26.761  1.00  0.00     0.006 A 
ENDBRANCH  52  73
BRANCH  64  81
ATOM     81  C   UNL A   1      45.564  26.502  31.788  1.00  0.00     0.057 A 
ATOM     82  C   UNL A   1      44.484  27.092  32.463  1.00  0.00     0.134 A 
ATOM     83  C   UNL A   1      46.643  26.082  32.573  1.00  0.00     0.134 A 
ATOM     84  F   UNL A   1      43.365  27.433  31.813  1.00  0.00    -0.206 F 
ATOM     85  C   UNL A   1      44.489  27.276  33.849  1.00  0.00     0.040 A 
ATOM     86  C   UNL A   1      46.647  26.229  33.962  1.00  0.00     0.040 A 
ATOM     87  F   UNL A   1      47.685  25.454  32.005  1.00  0.00    -0.206 F 
ATOM     88  C   UNL A   1      45.568  26.832  34.604  1.00  0.00     0.006 A 
ENDBRANCH  64  81
ENDBRANCH  38  39
ENDBRANCH  31  33
ENDBRANCH  30  31
ENDBRANCH  29  30
ENDBRANCH   1  29
TORSDOF 16
ENDMDL
MODEL 3
REMARK VINA RESULT:     -11.4      2.981      7.002
REMARK SMILES C=CCn1nc(C(=O)OCCOC(=O)c2ccc(-c3c4nc(c(-c5c(F)cccc5F)c5ccc([nH]5)c(-c5c(F)cccc5F)c5nc(c(-c6c(F)cccc6F)c6ccc3[nH]6)C=C5)C=C4)cc2)c2c1CC[C@@H]([NH+]1CCC(C(C)(C)O)CC1)C2
REMARK SMILES IDX 10 1 9 2 7 3 8 4 6 5 4 6 5 7 70 8 69 9 71 10 84 11 72 12
REMARK SMILES IDX 73 13 3 14 2 15 1 16 74 17 75 18 83 19 76 21 82 22 77 23
REMARK SMILES IDX 78 24 79 25 80 26 81 27 11 29 12 30 13 31 14 32 15 33 16 34
REMARK SMILES IDX 68 35 17 36 67 37 18 38 19 39 20 40 61 41 21 42 66 43 60 44
REMARK SMILES IDX 62 45 22 46 65 47 59 48 58 49 23 51 49 52 32 53 48 54 33 55
REMARK SMILES IDX 36 56 47 57 63 58 34 59 35 60 46 62 64 63 37 64 24 65 25 66
REMARK SMILES IDX 30 67 26 68 27 69 29 70 31 71 28 72 50 73 51 74 56 75 52 76
REMARK SMILES IDX 53 77 55 78 57 79 54 80 38 81 39 82 44 83 40 84 41 85 43 86
REMARK SMILES IDX 45 87 42 88
REMARK H PARENT 74 20 81 28 62 50 36 61
REMARK Flexibility Score: inf
ROOT
ATOM      1  C   UNL A   1      38.116  23.366  26.075  1.00  0.00     0.275 C 
ENDROOT
BRANCH   1   2
ATOM      2  O   UNL A   1      37.130  22.325  26.106  1.00  0.00    -0.457 OA
BRANCH   2   3
ATOM      3  C   UNL A   1      36.893  21.596  24.969  1.00  0.00     0.359 C 
ATOM      4  O   UNL A   1      37.781  21.163  24.238  1.00  0.00    -0.244 OA
BRANCH   3   5
ATOM      5  C   UNL A   1      35.450  21.376  24.778  1.00  0.00     0.174 A 
ATOM      6  N   UNL A   1      33.541  20.436  24.555  1.00  0.00    -0.265 N 
ATOM      7  N   UNL A   1      34.820  20.187  24.944  1.00  0.00    -0.165 NA
ATOM      8  C   UNL A   1      33.443  21.644  23.924  1.00  0.00     0.043 A 
ATOM      9  C   UNL A   1      34.513  22.366  24.386  1.00  0.00     0.014 A 
ATOM     10  C   UNL A   1      32.395  22.156  23.021  1.00  0.00     0.062 C 
ATOM     11  C   UNL A   1      34.610  23.849  24.283  1.00  0.00     0.105 C 
ATOM     12  C   UNL A   1      32.608  23.664  22.772  1.00  0.00     0.072 C 
ATOM     13  C   UNL A   1      33.232  24.492  23.931  1.00  0.00     0.189 C 
BRANCH   6  14
ATOM     14  C   UNL A   1      32.469  19.484  24.849  1.00  0.00     0.171 C 
BRANCH  14  15
ATOM     15  C   UNL A   1      32.558  18.220  24.022  1.00  0.00    -0.011 C 
ATOM     16  C   UNL A   1      32.495  18.154  22.683  1.00  0.00     0.006 C 
ENDBRANCH  14  15
ENDBRANCH   6  14
BRANCH  13  17
ATOM     17  N   UNL A   1      32.448  24.877  25.127  1.00  0.00    -0.332 N 
ATOM     18  C   UNL A   1      31.040  25.211  25.022  1.00  0.00     0.262 C 
ATOM     19  C   UNL A   1      33.096  25.781  26.065  1.00  0.00     0.262 C 
ATOM     20  H   UNL A   1      32.443  23.929  25.503  1.00  0.00     0.348 HD
ATOM     21  C   UNL A   1      30.736  26.656  24.628  1.00  0.00     0.068 C 
ATOM     22  C   UNL A   1      33.078  27.235  25.623  1.00  0.00     0.068 C 
ATOM     23  C   UNL A   1      31.720  27.759  25.096  1.00  0.00     0.031 C 
BRANCH  23  24
ATOM     24  C   UNL A   1      31.927  28.925  24.052  1.00  0.00     0.062 C 
ATOM     25  C   UNL A   1      33.359  29.033  23.515  1.00  0.00     0.042 C 
ATOM     26  C   UNL A   1      30.950  28.780  22.879  1.00  0.00     0.042 C 
BRANCH  24  27
ATOM     27  O   UNL A   1      31.633  30.187  24.660  1.00  0.00    -0.390 OA
ATOM     28  H   UNL A   1      31.914  30.904  24.069  1.00  0.00     0.211 HD
ENDBRANCH  24  27
ENDBRANCH  23  24
ENDBRANCH  13  17
ENDBRANCH   3   5
ENDBRANCH   2   3
ENDBRANCH   1   2
BRANCH   1  29
ATOM     29  C   UNL A   1      39.468  22.831  26.528  1.00  0.00     0.275 C 
BRANCH  29  30
ATOM     30  O   UNL A   1      40.034  23.748  27.454  1.00  0.00    -0.458 OA
BRANCH  30  31
ATOM     31  C   UNL A   1      40.666  24.823  26.933  1.00  0.00     0.338 C 
ATOM     32  O   UNL A   1      41.679  24.828  26.259  1.00  0.00    -0.246 OA
BRANCH  31  33
ATOM     33  C   UNL A   1      39.993  26.028  27.426  1.00  0.00     0.060 A 
ATOM     34  C   UNL A   1      40.382  27.253  26.877  1.00  0.00     0.016 A 
ATOM     35  C   UNL A   1      39.290  25.934  28.633  1.00  0.00     0.016 A 
ATOM     36  C   UNL A   1      40.321  28.368  27.683  1.00  0.00     0.010 A 
ATOM     37  C   UNL A   1      39.278  27.025  29.450  1.00  0.00     0.010 A 
ATOM     38  C   UNL A   1      39.885  28.193  28.995  1.00  0.00    -0.014 A 
BRANCH  38  39
ATOM     39  C   UNL A   1      40.097  29.241  29.962  1.00  0.00     0.031 A 
ATOM     40  C   UNL A   1      38.908  30.091  30.177  1.00  0.00     0.074 A 
ATOM     41  C   UNL A   1      41.215  29.237  30.712  1.00  0.00     0.049 A 
ATOM     42  N   UNL A   1      38.774  31.346  29.911  1.00  0.00    -0.248 NA
ATOM     43  C   UNL A   1      37.652  29.421  30.557  1.00  0.00     0.031 C 
ATOM     44  C   UNL A   1      42.278  28.225  30.759  1.00  0.00     0.029 A 
ATOM     45  N   UNL A   1      41.563  30.089  31.709  1.00  0.00    -0.354 N 
ATOM     46  C   UNL A   1      37.469  31.662  30.277  1.00  0.00     0.074 A 
ATOM     47  C   UNL A   1      36.776  30.414  30.428  1.00  0.00     0.031 C 
ATOM     48  C   UNL A   1      43.012  28.401  31.882  1.00  0.00     0.029 A 
ATOM     49  C   UNL A   1      42.544  29.593  32.562  1.00  0.00     0.049 A 
ATOM     50  H   UNL A   1      41.156  30.979  31.819  1.00  0.00     0.167 HD
ATOM     51  C   UNL A   1      37.133  32.910  30.697  1.00  0.00     0.037 A 
ATOM     52  C   UNL A   1      42.813  30.097  33.792  1.00  0.00     0.037 A 
ATOM     53  C   UNL A   1      38.156  33.861  30.347  1.00  0.00     0.049 A 
ATOM     54  C   UNL A   1      42.228  31.470  33.835  1.00  0.00     0.074 A 
ATOM     55  C   UNL A   1      38.698  34.299  29.154  1.00  0.00     0.029 A 
ATOM     56  N   UNL A   1      39.055  34.216  31.326  1.00  0.00    -0.354 N 
ATOM     57  N   UNL A   1      42.667  32.464  33.107  1.00  0.00    -0.248 NA
ATOM     58  C   UNL A   1      40.848  31.595  34.289  1.00  0.00     0.031 C 
ATOM     59  C   UNL A   1      40.089  34.455  29.417  1.00  0.00     0.029 A 
ATOM     60  C   UNL A   1      40.307  34.173  30.768  1.00  0.00     0.049 A 
ATOM     61  H   UNL A   1      38.840  34.457  32.256  1.00  0.00     0.167 HD
ATOM     62  C   UNL A   1      41.522  33.123  32.672  1.00  0.00     0.074 A 
ATOM     63  C   UNL A   1      40.434  32.576  33.480  1.00  0.00     0.031 C 
ATOM     64  C   UNL A   1      41.504  33.825  31.500  1.00  0.00     0.037 A 
BRANCH  51  65
ATOM     65  C   UNL A   1      36.081  33.204  31.737  1.00  0.00     0.057 A 
ATOM     66  C   UNL A   1      35.051  34.103  31.415  1.00  0.00     0.134 A 
ATOM     67  C   UNL A   1      36.180  32.878  33.107  1.00  0.00     0.134 A 
ATOM     68  F   UNL A   1      34.846  34.494  30.148  1.00  0.00    -0.206 F 
ATOM     69  C   UNL A   1      34.242  34.700  32.390  1.00  0.00     0.040 A 
ATOM     70  C   UNL A   1      35.341  33.424  34.080  1.00  0.00     0.040 A 
ATOM     71  F   UNL A   1      37.145  32.096  33.602  1.00  0.00    -0.206 F 
ATOM     72  C   UNL A   1      34.394  34.368  33.729  1.00  0.00     0.006 A 
ENDBRANCH  51  65
BRANCH  52  73
ATOM     73  C   UNL A   1      43.175  29.333  35.011  1.00  0.00     0.057 A 
ATOM     74  C   UNL A   1      42.386  28.269  35.469  1.00  0.00     0.134 A 
ATOM     75  C   UNL A   1      44.436  29.467  35.622  1.00  0.00     0.134 A 
ATOM     76  F   UNL A   1      41.189  28.024  34.917  1.00  0.00    -0.206 F 
ATOM     77  C   UNL A   1      42.828  27.388  36.469  1.00  0.00     0.040 A 
ATOM     78  C   UNL A   1      44.885  28.603  36.626  1.00  0.00     0.040 A 
ATOM     79  F   UNL A   1      45.316  30.390  35.209  1.00  0.00    -0.206 F 
ATOM     80  C   UNL A   1      44.084  27.551  37.047  1.00  0.00     0.006 A 
ENDBRANCH  52  73
BRANCH  64  81
ATOM     81  C   UNL A   1      42.804  34.037  30.772  1.00  0.00     0.057 A 
ATOM     82  C   UNL A   1      43.271  33.194  29.752  1.00  0.00     0.134 A 
ATOM     83  C   UNL A   1      43.486  35.245  30.954  1.00  0.00     0.134 A 
ATOM     84  F   UNL A   1      42.624  32.067  29.435  1.00  0.00    -0.206 F 
ATOM     85  C   UNL A   1      44.380  33.526  28.967  1.00  0.00     0.040 A 
ATOM     86  C   UNL A   1      44.574  35.604  30.155  1.00  0.00     0.040 A 
ATOM     87  F   UNL A   1      43.060  36.129  31.868  1.00  0.00    -0.206 F 
ATOM     88  C   UNL A   1      45.027  34.742  29.160  1.00  0.00     0.006 A 
ENDBRANCH  64  81
ENDBRANCH  38  39
ENDBRANCH  31  33
ENDBRANCH  30  31
ENDBRANCH  29  30
ENDBRANCH   1  29
TORSDOF 16
ENDMDL
