MODEL 1
REMARK VINA RESULT:     -11.9      0.000      0.000
REMARK SMILES CC[C@@H](C)c1ccccc1NC(=O)[C@@H]1[C@@H](C(=O)OCCOC(=O)c2ccc(-c3c4nc(c(-c5c(F)cccc5F)c5ccc([nH]5)c(-c5c(F)cccc5F)c5nc(c(-c6c(F)cccc6F)c6ccc3[nH]6)C=C5)C=C4)cc2)[C@@H]2C=C[C@H]1C2
REMARK SMILES IDX 19 1 18 2 16 3 17 4 15 5 14 6 81 7 78 8 80 9 82 10 79 11
REMARK SMILES IDX 12 12 11 13 13 15 10 16 5 17 6 18 7 19 9 20 8 21 3 22 4 23
REMARK SMILES IDX 2 24 1 25 20 26 21 27 22 28 23 29 24 30 25 31 77 32 26 33
REMARK SMILES IDX 76 34 27 35 28 36 29 37 70 38 30 39 75 40 69 41 71 42 31 43
REMARK SMILES IDX 74 44 68 45 67 46 32 48 58 49 41 50 57 51 42 52 45 53 56 54
REMARK SMILES IDX 72 55 43 56 44 57 55 59 73 60 46 61 33 62 34 63 39 64 35 65
REMARK SMILES IDX 36 66 38 67 40 68 37 69 59 70 60 71 65 72 61 73 62 74 64 75
REMARK SMILES IDX 66 76 63 77 47 78 48 79 53 80 49 81 50 82 52 83 54 84 51 85
REMARK H PARENT 11 14 71 47 45 58
REMARK Flexibility Score: inf
ROOT
ATOM      1  C   UNL A   1      32.237  28.659  25.236  1.00  0.00     0.274 C 
ENDROOT
BRANCH   1   2
ATOM      2  O   UNL A   1      31.104  27.767  25.132  1.00  0.00    -0.462 OA
BRANCH   2   3
ATOM      3  C   UNL A   1      31.090  26.722  25.997  1.00  0.00     0.310 C 
ATOM      4  O   UNL A   1      31.083  26.844  27.218  1.00  0.00    -0.252 OA
BRANCH   3   5
ATOM      5  C   UNL A   1      31.033  25.362  25.332  1.00  0.00     0.119 C 
ATOM      6  C   UNL A   1      32.211  24.364  25.659  1.00  0.00     0.100 C 
ATOM      7  C   UNL A   1      32.615  23.916  24.222  1.00  0.00     0.025 C 
ATOM      8  C   UNL A   1      31.073  25.439  23.786  1.00  0.00     0.027 C 
ATOM      9  C   UNL A   1      31.475  23.201  23.537  1.00  0.00    -0.027 C 
ATOM     10  C   UNL A   1      32.549  25.248  23.482  1.00  0.00     0.017 C 
ATOM     11  C   UNL A   1      30.545  24.123  23.263  1.00  0.00    -0.027 C 
BRANCH   6  12
ATOM     12  C   UNL A   1      31.743  23.291  26.648  1.00  0.00     0.228 C 
ATOM     13  N   UNL A   1      32.460  22.155  26.904  1.00  0.00    -0.326 N 
ATOM     14  H   UNL A   1      32.036  21.521  27.527  1.00  0.00     0.169 HD
ATOM     15  O   UNL A   1      30.689  23.436  27.278  1.00  0.00    -0.274 OA
BRANCH  13  16
ATOM     16  C   UNL A   1      33.710  21.763  26.407  1.00  0.00     0.044 A 
ATOM     17  C   UNL A   1      33.787  20.765  25.416  1.00  0.00    -0.022 A 
ATOM     18  C   UNL A   1      34.993  20.663  24.697  1.00  0.00     0.006 A 
ATOM     19  C   UNL A   1      36.121  21.404  25.059  1.00  0.00     0.000 A 
ATOM     20  C   UNL A   1      34.874  22.406  26.850  1.00  0.00     0.026 A 
ATOM     21  C   UNL A   1      36.079  22.229  26.174  1.00  0.00     0.002 A 
BRANCH  17  22
ATOM     22  C   UNL A   1      32.616  19.832  25.101  1.00  0.00     0.018 C 
ATOM     23  C   UNL A   1      32.760  18.466  25.795  1.00  0.00     0.013 C 
BRANCH  22  24
ATOM     24  C   UNL A   1      32.370  19.686  23.588  1.00  0.00     0.005 C 
ATOM     25  C   UNL A   1      32.476  18.243  23.102  1.00  0.00     0.004 C 
ENDBRANCH  22  24
ENDBRANCH  17  22
ENDBRANCH  13  16
ENDBRANCH   6  12
ENDBRANCH   3   5
ENDBRANCH   2   3
ENDBRANCH   1   2
BRANCH   1  26
ATOM     26  C   UNL A   1      31.848  30.080  25.657  1.00  0.00     0.275 C 
BRANCH  26  27
ATOM     27  O   UNL A   1      32.226  30.367  27.015  1.00  0.00    -0.458 OA
BRANCH  27  28
ATOM     28  C   UNL A   1      32.864  31.544  27.179  1.00  0.00     0.338 C 
ATOM     29  O   UNL A   1      32.384  32.666  27.055  1.00  0.00    -0.246 OA
BRANCH  28  30
ATOM     30  C   UNL A   1      34.231  31.339  27.672  1.00  0.00     0.060 A 
ATOM     31  C   UNL A   1      34.590  30.035  27.998  1.00  0.00     0.016 A 
ATOM     32  C   UNL A   1      35.095  32.392  27.960  1.00  0.00     0.016 A 
ATOM     33  C   UNL A   1      35.728  29.773  28.738  1.00  0.00     0.010 A 
ATOM     34  C   UNL A   1      36.308  32.116  28.607  1.00  0.00     0.010 A 
ATOM     35  C   UNL A   1      36.615  30.808  29.032  1.00  0.00    -0.014 A 
BRANCH  35  36
ATOM     36  C   UNL A   1      37.851  30.488  29.787  1.00  0.00     0.031 A 
ATOM     37  C   UNL A   1      38.940  29.680  29.144  1.00  0.00     0.074 A 
ATOM     38  C   UNL A   1      38.013  30.981  31.031  1.00  0.00     0.049 A 
ATOM     39  N   UNL A   1      40.038  29.207  29.673  1.00  0.00    -0.248 NA
ATOM     40  C   UNL A   1      38.771  29.356  27.719  1.00  0.00     0.031 C 
ATOM     41  C   UNL A   1      37.054  31.837  31.735  1.00  0.00     0.029 A 
ATOM     42  N   UNL A   1      39.047  30.846  31.920  1.00  0.00    -0.354 N 
ATOM     43  C   UNL A   1      40.668  28.493  28.663  1.00  0.00     0.074 A 
ATOM     44  C   UNL A   1      39.826  28.588  27.489  1.00  0.00     0.031 C 
ATOM     45  C   UNL A   1      37.557  32.174  32.931  1.00  0.00     0.029 A 
ATOM     46  C   UNL A   1      38.830  31.490  33.114  1.00  0.00     0.049 A 
ATOM     47  H   UNL A   1      39.867  30.337  31.723  1.00  0.00     0.167 HD
ATOM     48  C   UNL A   1      41.841  27.820  28.716  1.00  0.00     0.037 A 
ATOM     49  C   UNL A   1      39.554  31.494  34.247  1.00  0.00     0.037 A 
ATOM     50  C   UNL A   1      42.686  27.766  29.880  1.00  0.00     0.049 A 
ATOM     51  C   UNL A   1      40.823  30.694  34.297  1.00  0.00     0.074 A 
ATOM     52  C   UNL A   1      43.897  27.114  30.039  1.00  0.00     0.029 A 
ATOM     53  N   UNL A   1      42.412  28.399  31.084  1.00  0.00    -0.354 N 
ATOM     54  N   UNL A   1      41.386  29.984  33.351  1.00  0.00    -0.248 NA
ATOM     55  C   UNL A   1      41.548  30.684  35.574  1.00  0.00     0.031 C 
ATOM     56  C   UNL A   1      44.335  27.322  31.351  1.00  0.00     0.029 A 
ATOM     57  C   UNL A   1      43.420  28.140  31.996  1.00  0.00     0.049 A 
ATOM     58  H   UNL A   1      41.615  28.952  31.263  1.00  0.00     0.167 HD
ATOM     59  C   UNL A   1      42.542  29.457  33.910  1.00  0.00     0.074 A 
ATOM     60  C   UNL A   1      42.604  29.943  35.274  1.00  0.00     0.031 C 
ATOM     61  C   UNL A   1      43.467  28.643  33.345  1.00  0.00     0.037 A 
BRANCH  48  62
ATOM     62  C   UNL A   1      42.257  27.056  27.493  1.00  0.00     0.057 A 
ATOM     63  C   UNL A   1      43.033  27.633  26.480  1.00  0.00     0.134 A 
ATOM     64  C   UNL A   1      41.889  25.713  27.341  1.00  0.00     0.134 A 
ATOM     65  F   UNL A   1      43.404  28.919  26.556  1.00  0.00    -0.206 F 
ATOM     66  C   UNL A   1      43.410  26.906  25.348  1.00  0.00     0.040 A 
ATOM     67  C   UNL A   1      42.281  24.970  26.226  1.00  0.00     0.040 A 
ATOM     68  F   UNL A   1      41.149  25.099  28.275  1.00  0.00    -0.206 F 
ATOM     69  C   UNL A   1      43.039  25.569  25.223  1.00  0.00     0.006 A 
ENDBRANCH  48  62
BRANCH  49  70
ATOM     70  C   UNL A   1      39.070  32.244  35.433  1.00  0.00     0.057 A 
ATOM     71  C   UNL A   1      38.280  31.629  36.409  1.00  0.00     0.134 A 
ATOM     72  C   UNL A   1      39.395  33.594  35.624  1.00  0.00     0.134 A 
ATOM     73  F   UNL A   1      37.919  30.343  36.273  1.00  0.00    -0.206 F 
ATOM     74  C   UNL A   1      37.821  32.329  37.526  1.00  0.00     0.040 A 
ATOM     75  C   UNL A   1      38.967  34.298  36.749  1.00  0.00     0.040 A 
ATOM     76  F   UNL A   1      40.154  34.241  34.726  1.00  0.00    -0.206 F 
ATOM     77  C   UNL A   1      38.172  33.666  37.702  1.00  0.00     0.006 A 
ENDBRANCH  49  70
BRANCH  61  78
ATOM     78  C   UNL A   1      44.643  28.264  34.191  1.00  0.00     0.057 A 
ATOM     79  C   UNL A   1      44.651  27.098  34.965  1.00  0.00     0.134 A 
ATOM     80  C   UNL A   1      45.795  29.060  34.203  1.00  0.00     0.134 A 
ATOM     81  F   UNL A   1      43.570  26.303  35.008  1.00  0.00    -0.206 F 
ATOM     82  C   UNL A   1      45.758  26.745  35.737  1.00  0.00     0.040 A 
ATOM     83  C   UNL A   1      46.917  28.706  34.951  1.00  0.00     0.040 A 
ATOM     84  F   UNL A   1      45.852  30.187  33.477  1.00  0.00    -0.206 F 
ATOM     85  C   UNL A   1      46.898  27.547  35.725  1.00  0.00     0.006 A 
ENDBRANCH  61  78
ENDBRANCH  35  36
ENDBRANCH  28  30
ENDBRANCH  27  28
ENDBRANCH  26  27
ENDBRANCH   1  26
TORSDOF 15
ENDMDL
MODEL 2
REMARK VINA RESULT:     -11.8      3.690      8.806
REMARK SMILES CC[C@@H](C)c1ccccc1NC(=O)[C@@H]1[C@@H](C(=O)OCCOC(=O)c2ccc(-c3c4nc(c(-c5c(F)cccc5F)c5ccc([nH]5)c(-c5c(F)cccc5F)c5nc(c(-c6c(F)cccc6F)c6ccc3[nH]6)C=C5)C=C4)cc2)[C@@H]2C=C[C@H]1C2
REMARK SMILES IDX 19 1 18 2 16 3 17 4 15 5 14 6 81 7 78 8 80 9 82 10 79 11
REMARK SMILES IDX 12 12 11 13 13 15 10 16 5 17 6 18 7 19 9 20 8 21 3 22 4 23
REMARK SMILES IDX 2 24 1 25 20 26 21 27 22 28 23 29 24 30 25 31 77 32 26 33
REMARK SMILES IDX 76 34 27 35 28 36 29 37 70 38 30 39 75 40 69 41 71 42 31 43
REMARK SMILES IDX 74 44 68 45 67 46 32 48 58 49 41 50 57 51 42 52 45 53 56 54
REMARK SMILES IDX 72 55 43 56 44 57 55 59 73 60 46 61 33 62 34 63 39 64 35 65
REMARK SMILES IDX 36 66 38 67 40 68 37 69 59 70 60 71 65 72 61 73 62 74 64 75
REMARK SMILES IDX 66 76 63 77 47 78 48 79 53 80 49 81 50 82 52 83 54 84 51 85
REMARK H PARENT 11 14 71 47 45 58
REMARK Flexibility Score: inf
ROOT
ATOM      1  C   UNL A   1      35.082  20.777  25.604  1.00  0.00     0.274 C 
ENDROOT
BRANCH   1   2
ATOM      2  O   UNL A   1      33.969  20.361  24.781  1.00  0.00    -0.462 OA
BRANCH   2   3
ATOM      3  C   UNL A   1      33.201  21.357  24.273  1.00  0.00     0.310 C 
ATOM      4  O   UNL A   1      32.275  21.176  23.490  1.00  0.00    -0.252 OA
BRANCH   3   5
ATOM      5  C   UNL A   1      33.549  22.738  24.791  1.00  0.00     0.119 C 
ATOM      6  C   UNL A   1      32.410  23.829  24.723  1.00  0.00     0.100 C 
ATOM      7  C   UNL A   1      33.179  25.004  24.049  1.00  0.00     0.025 C 
ATOM      8  C   UNL A   1      34.706  23.408  24.011  1.00  0.00     0.027 C 
ATOM      9  C   UNL A   1      34.323  25.472  24.918  1.00  0.00    -0.027 C 
ATOM     10  C   UNL A   1      33.970  24.252  22.985  1.00  0.00     0.017 C 
ATOM     11  C   UNL A   1      35.253  24.510  24.887  1.00  0.00    -0.027 C 
BRANCH   6  12
ATOM     12  C   UNL A   1      31.806  24.058  26.112  1.00  0.00     0.228 C 
ATOM     13  N   UNL A   1      31.020  25.137  26.410  1.00  0.00    -0.326 N 
ATOM     14  H   UNL A   1      30.725  25.197  27.348  1.00  0.00     0.169 HD
ATOM     15  O   UNL A   1      31.996  23.242  27.021  1.00  0.00    -0.274 OA
BRANCH  13  16
ATOM     16  C   UNL A   1      30.574  26.169  25.573  1.00  0.00     0.044 A 
ATOM     17  C   UNL A   1      31.254  27.401  25.560  1.00  0.00    -0.022 A 
ATOM     18  C   UNL A   1      31.012  28.259  24.470  1.00  0.00     0.006 A 
ATOM     19  C   UNL A   1      30.017  27.977  23.530  1.00  0.00     0.000 A 
ATOM     20  C   UNL A   1      29.492  25.952  24.709  1.00  0.00     0.026 A 
ATOM     21  C   UNL A   1      29.216  26.855  23.685  1.00  0.00     0.002 A 
BRANCH  17  22
ATOM     22  C   UNL A   1      32.237  27.806  26.660  1.00  0.00     0.018 C 
ATOM     23  C   UNL A   1      31.524  28.409  27.882  1.00  0.00     0.013 C 
BRANCH  22  24
ATOM     24  C   UNL A   1      33.360  28.723  26.138  1.00  0.00     0.005 C 
ATOM     25  C   UNL A   1      34.470  28.948  27.161  1.00  0.00     0.004 C 
ENDBRANCH  22  24
ENDBRANCH  17  22
ENDBRANCH  13  16
ENDBRANCH   6  12
ENDBRANCH   3   5
ENDBRANCH   2   3
ENDBRANCH   1   2
BRANCH   1  26
ATOM     26  C   UNL A   1      36.445  20.411  25.004  1.00  0.00     0.275 C 
BRANCH  26  27
ATOM     27  O   UNL A   1      37.406  21.471  25.155  1.00  0.00    -0.458 OA
BRANCH  27  28
ATOM     28  C   UNL A   1      38.569  21.091  25.724  1.00  0.00     0.338 C 
ATOM     29  O   UNL A   1      39.107  19.993  25.639  1.00  0.00    -0.246 OA
BRANCH  28  30
ATOM     30  C   UNL A   1      39.226  22.226  26.385  1.00  0.00     0.060 A 
ATOM     31  C   UNL A   1      38.738  23.494  26.086  1.00  0.00     0.016 A 
ATOM     32  C   UNL A   1      40.380  22.086  27.151  1.00  0.00     0.016 A 
ATOM     33  C   UNL A   1      39.456  24.628  26.411  1.00  0.00     0.010 A 
ATOM     34  C   UNL A   1      41.050  23.239  27.584  1.00  0.00     0.010 A 
ATOM     35  C   UNL A   1      40.611  24.518  27.186  1.00  0.00    -0.014 A 
BRANCH  35  36
ATOM     36  C   UNL A   1      41.336  25.757  27.559  1.00  0.00     0.031 A 
ATOM     37  C   UNL A   1      40.675  26.784  28.430  1.00  0.00     0.074 A 
ATOM     38  C   UNL A   1      42.612  25.923  27.158  1.00  0.00     0.049 A 
ATOM     39  N   UNL A   1      41.099  27.973  28.772  1.00  0.00    -0.248 NA
ATOM     40  C   UNL A   1      39.360  26.431  28.989  1.00  0.00     0.031 C 
ATOM     41  C   UNL A   1      43.384  24.962  26.366  1.00  0.00     0.029 A 
ATOM     42  N   UNL A   1      43.491  26.953  27.374  1.00  0.00    -0.354 N 
ATOM     43  C   UNL A   1      40.089  28.527  29.546  1.00  0.00     0.074 A 
ATOM     44  C   UNL A   1      39.025  27.549  29.619  1.00  0.00     0.031 C 
ATOM     45  C   UNL A   1      44.627  25.432  26.188  1.00  0.00     0.029 A 
ATOM     46  C   UNL A   1      44.714  26.762  26.777  1.00  0.00     0.049 A 
ATOM     47  H   UNL A   1      43.269  27.751  27.905  1.00  0.00     0.167 HD
ATOM     48  C   UNL A   1      40.057  29.744  30.137  1.00  0.00     0.037 A 
ATOM     49  C   UNL A   1      45.773  27.585  26.676  1.00  0.00     0.037 A 
ATOM     50  C   UNL A   1      41.139  30.693  30.087  1.00  0.00     0.049 A 
ATOM     51  C   UNL A   1      45.689  28.949  27.294  1.00  0.00     0.074 A 
ATOM     52  C   UNL A   1      41.209  31.954  30.655  1.00  0.00     0.029 A 
ATOM     53  N   UNL A   1      42.346  30.478  29.438  1.00  0.00    -0.354 N 
ATOM     54  N   UNL A   1      44.711  29.483  27.983  1.00  0.00    -0.248 NA
ATOM     55  C   UNL A   1      46.848  29.831  27.108  1.00  0.00     0.031 C 
ATOM     56  C   UNL A   1      42.444  32.515  30.317  1.00  0.00     0.029 A 
ATOM     57  C   UNL A   1      43.161  31.588  29.577  1.00  0.00     0.049 A 
ATOM     58  H   UNL A   1      42.587  29.657  28.951  1.00  0.00     0.167 HD
ATOM     59  C   UNL A   1      45.142  30.755  28.331  1.00  0.00     0.074 A 
ATOM     60  C   UNL A   1      46.477  30.906  27.787  1.00  0.00     0.031 C 
ATOM     61  C   UNL A   1      44.490  31.712  29.036  1.00  0.00     0.037 A 
BRANCH  48  62
ATOM     62  C   UNL A   1      38.797  30.132  30.854  1.00  0.00     0.057 A 
ATOM     63  C   UNL A   1      38.603  29.876  32.216  1.00  0.00     0.134 A 
ATOM     64  C   UNL A   1      37.769  30.793  30.168  1.00  0.00     0.134 A 
ATOM     65  F   UNL A   1      39.539  29.232  32.928  1.00  0.00    -0.206 F 
ATOM     66  C   UNL A   1      37.422  30.245  32.867  1.00  0.00     0.040 A 
ATOM     67  C   UNL A   1      36.596  31.188  30.813  1.00  0.00     0.040 A 
ATOM     68  F   UNL A   1      37.891  31.072  28.862  1.00  0.00    -0.206 F 
ATOM     69  C   UNL A   1      36.418  30.908  32.166  1.00  0.00     0.006 A 
ENDBRANCH  48  62
BRANCH  49  70
ATOM     70  C   UNL A   1      46.978  27.152  25.925  1.00  0.00     0.057 A 
ATOM     71  C   UNL A   1      47.103  27.393  24.553  1.00  0.00     0.134 A 
ATOM     72  C   UNL A   1      48.038  26.496  26.564  1.00  0.00     0.134 A 
ATOM     73  F   UNL A   1      46.114  28.000  23.881  1.00  0.00    -0.206 F 
ATOM     74  C   UNL A   1      48.234  26.989  23.841  1.00  0.00     0.040 A 
ATOM     75  C   UNL A   1      49.185  26.110  25.871  1.00  0.00     0.040 A 
ATOM     76  F   UNL A   1      47.981  26.239  27.880  1.00  0.00    -0.206 F 
ATOM     77  C   UNL A   1      49.282  26.352  24.503  1.00  0.00     0.006 A 
ENDBRANCH  49  70
BRANCH  61  78
ATOM     78  C   UNL A   1      45.232  32.988  29.291  1.00  0.00     0.057 A 
ATOM     79  C   UNL A   1      46.084  33.140  30.392  1.00  0.00     0.134 A 
ATOM     80  C   UNL A   1      45.116  34.066  28.405  1.00  0.00     0.134 A 
ATOM     81  F   UNL A   1      46.224  32.149  31.286  1.00  0.00    -0.206 F 
ATOM     82  C   UNL A   1      46.783  34.327  30.611  1.00  0.00     0.040 A 
ATOM     83  C   UNL A   1      45.828  35.249  28.600  1.00  0.00     0.040 A 
ATOM     84  F   UNL A   1      44.320  33.980  27.329  1.00  0.00    -0.206 F 
ATOM     85  C   UNL A   1      46.661  35.383  29.710  1.00  0.00     0.006 A 
ENDBRANCH  61  78
ENDBRANCH  35  36
ENDBRANCH  28  30
ENDBRANCH  27  28
ENDBRANCH  26  27
ENDBRANCH   1  26
TORSDOF 15
ENDMDL
MODEL 3
REMARK VINA RESULT:     -11.8      1.264      2.454
REMARK SMILES CC[C@@H](C)c1ccccc1NC(=O)[C@@H]1[C@@H](C(=O)OCCOC(=O)c2ccc(-c3c4nc(c(-c5c(F)cccc5F)c5ccc([nH]5)c(-c5c(F)cccc5F)c5nc(c(-c6c(F)cccc6F)c6ccc3[nH]6)C=C5)C=C4)cc2)[C@@H]2C=C[C@H]1C2
REMARK SMILES IDX 19 1 18 2 16 3 17 4 15 5 14 6 81 7 78 8 80 9 82 10 79 11
REMARK SMILES IDX 12 12 11 13 13 15 10 16 5 17 6 18 7 19 9 20 8 21 3 22 4 23
REMARK SMILES IDX 2 24 1 25 20 26 21 27 22 28 23 29 24 30 25 31 77 32 26 33
REMARK SMILES IDX 76 34 27 35 28 36 29 37 70 38 30 39 75 40 69 41 71 42 31 43
REMARK SMILES IDX 74 44 68 45 67 46 32 48 58 49 41 50 57 51 42 52 45 53 56 54
REMARK SMILES IDX 72 55 43 56 44 57 55 59 73 60 46 61 33 62 34 63 39 64 35 65
REMARK SMILES IDX 36 66 38 67 40 68 37 69 59 70 60 71 65 72 61 73 62 74 64 75
REMARK SMILES IDX 66 76 63 77 47 78 48 79 53 80 49 81 50 82 52 83 54 84 51 85
REMARK H PARENT 11 14 71 47 45 58
REMARK Flexibility Score: inf
ROOT
ATOM      1  C   UNL A   1      31.303  29.336  23.981  1.00  0.00     0.274 C 
ENDROOT
BRANCH   1   2
ATOM      2  O   UNL A   1      30.016  28.698  23.822  1.00  0.00    -0.462 OA
BRANCH   2   3
ATOM      3  C   UNL A   1      30.010  27.344  23.902  1.00  0.00     0.310 C 
ATOM      4  O   UNL A   1      29.081  26.639  23.521  1.00  0.00    -0.252 OA
BRANCH   3   5
ATOM      5  C   UNL A   1      31.283  26.747  24.468  1.00  0.00     0.119 C 
ATOM      6  C   UNL A   1      31.676  25.305  23.962  1.00  0.00     0.100 C 
ATOM      7  C   UNL A   1      31.950  24.590  25.320  1.00  0.00     0.025 C 
ATOM      8  C   UNL A   1      31.240  26.567  26.005  1.00  0.00     0.027 C 
ATOM      9  C   UNL A   1      33.101  25.238  26.051  1.00  0.00    -0.027 C 
ATOM     10  C   UNL A   1      30.793  25.124  26.158  1.00  0.00     0.017 C 
ATOM     11  C   UNL A   1      32.669  26.432  26.477  1.00  0.00    -0.027 C 
BRANCH   6  12
ATOM     12  C   UNL A   1      32.818  25.389  22.944  1.00  0.00     0.228 C 
ATOM     13  N   UNL A   1      33.585  24.311  22.598  1.00  0.00    -0.326 N 
ATOM     14  H   UNL A   1      34.315  24.499  21.965  1.00  0.00     0.169 HD
ATOM     15  O   UNL A   1      33.071  26.456  22.371  1.00  0.00    -0.274 OA
BRANCH  13  16
ATOM     16  C   UNL A   1      33.481  22.977  23.017  1.00  0.00     0.044 A 
ATOM     17  C   UNL A   1      34.394  22.467  23.960  1.00  0.00    -0.022 A 
ATOM     18  C   UNL A   1      34.043  21.271  24.614  1.00  0.00     0.006 A 
ATOM     19  C   UNL A   1      32.922  20.533  24.228  1.00  0.00     0.000 A 
ATOM     20  C   UNL A   1      32.436  22.173  22.543  1.00  0.00     0.026 A 
ATOM     21  C   UNL A   1      32.154  20.953  23.151  1.00  0.00     0.002 A 
BRANCH  17  22
ATOM     22  C   UNL A   1      35.709  23.176  24.294  1.00  0.00     0.018 C 
ATOM     23  C   UNL A   1      36.844  22.770  23.339  1.00  0.00     0.013 C 
BRANCH  22  24
ATOM     24  C   UNL A   1      36.110  23.006  25.771  1.00  0.00     0.005 C 
ATOM     25  C   UNL A   1      37.413  23.719  26.121  1.00  0.00     0.004 C 
ENDBRANCH  22  24
ENDBRANCH  17  22
ENDBRANCH  13  16
ENDBRANCH   6  12
ENDBRANCH   3   5
ENDBRANCH   2   3
ENDBRANCH   1   2
BRANCH   1  26
ATOM     26  C   UNL A   1      31.405  30.178  25.258  1.00  0.00     0.275 C 
BRANCH  26  27
ATOM     27  O   UNL A   1      32.684  30.037  25.900  1.00  0.00    -0.458 OA
BRANCH  27  28
ATOM     28  C   UNL A   1      32.977  31.018  26.778  1.00  0.00     0.338 C 
ATOM     29  O   UNL A   1      32.223  31.897  27.180  1.00  0.00    -0.246 OA
BRANCH  28  30
ATOM     30  C   UNL A   1      34.325  30.843  27.333  1.00  0.00     0.060 A 
ATOM     31  C   UNL A   1      34.714  29.541  27.634  1.00  0.00     0.016 A 
ATOM     32  C   UNL A   1      35.135  31.914  27.699  1.00  0.00     0.016 A 
ATOM     33  C   UNL A   1      35.822  29.293  28.422  1.00  0.00     0.010 A 
ATOM     34  C   UNL A   1      36.324  31.658  28.397  1.00  0.00     0.010 A 
ATOM     35  C   UNL A   1      36.656  30.348  28.794  1.00  0.00    -0.014 A 
BRANCH  35  36
ATOM     36  C   UNL A   1      37.864  30.045  29.600  1.00  0.00     0.031 A 
ATOM     37  C   UNL A   1      38.955  29.188  29.030  1.00  0.00     0.074 A 
ATOM     38  C   UNL A   1      37.999  30.595  30.823  1.00  0.00     0.049 A 
ATOM     39  N   UNL A   1      40.030  28.723  29.613  1.00  0.00    -0.248 NA
ATOM     40  C   UNL A   1      38.822  28.797  27.618  1.00  0.00     0.031 C 
ATOM     41  C   UNL A   1      37.036  31.502  31.456  1.00  0.00     0.029 A 
ATOM     42  N   UNL A   1      39.005  30.487  31.747  1.00  0.00    -0.354 N 
ATOM     43  C   UNL A   1      40.675  27.950  28.658  1.00  0.00     0.074 A 
ATOM     44  C   UNL A   1      39.869  28.001  27.457  1.00  0.00     0.031 C 
ATOM     45  C   UNL A   1      37.511  31.889  32.648  1.00  0.00     0.029 A 
ATOM     46  C   UNL A   1      38.765  31.193  32.902  1.00  0.00     0.049 A 
ATOM     47  H   UNL A   1      39.820  29.955  31.600  1.00  0.00     0.167 HD
ATOM     48  C   UNL A   1      41.834  27.260  28.779  1.00  0.00     0.037 A 
ATOM     49  C   UNL A   1      39.456  31.240  34.054  1.00  0.00     0.037 A 
ATOM     50  C   UNL A   1      42.644  27.249  29.969  1.00  0.00     0.049 A 
ATOM     51  C   UNL A   1      40.708  30.423  34.180  1.00  0.00     0.074 A 
ATOM     52  C   UNL A   1      43.837  26.586  30.195  1.00  0.00     0.029 A 
ATOM     53  N   UNL A   1      42.346  27.946  31.132  1.00  0.00    -0.354 N 
ATOM     54  N   UNL A   1      41.286  29.657  33.287  1.00  0.00    -0.248 NA
ATOM     55  C   UNL A   1      41.396  30.463  35.477  1.00  0.00     0.031 C 
ATOM     56  C   UNL A   1      44.241  26.851  31.508  1.00  0.00     0.029 A 
ATOM     57  C   UNL A   1      43.324  27.715  32.084  1.00  0.00     0.049 A 
ATOM     58  H   UNL A   1      41.556  28.520  31.260  1.00  0.00     0.167 HD
ATOM     59  C   UNL A   1      42.415  29.139  33.905  1.00  0.00     0.074 A 
ATOM     60  C   UNL A   1      42.447  29.690  35.245  1.00  0.00     0.031 C 
ATOM     61  C   UNL A   1      43.340  28.283  33.408  1.00  0.00     0.037 A 
BRANCH  48  62
ATOM     62  C   UNL A   1      42.270  26.430  27.608  1.00  0.00     0.057 A 
ATOM     63  C   UNL A   1      41.879  25.095  27.451  1.00  0.00     0.134 A 
ATOM     64  C   UNL A   1      43.079  26.988  26.609  1.00  0.00     0.134 A 
ATOM     65  F   UNL A   1      41.119  24.495  28.380  1.00  0.00    -0.206 F 
ATOM     66  C   UNL A   1      42.295  24.337  26.354  1.00  0.00     0.040 A 
ATOM     67  C   UNL A   1      43.481  26.248  25.496  1.00  0.00     0.040 A 
ATOM     68  F   UNL A   1      43.488  28.262  26.695  1.00  0.00    -0.206 F 
ATOM     69  C   UNL A   1      43.093  24.915  25.370  1.00  0.00     0.006 A 
ENDBRANCH  48  62
BRANCH  49  70
ATOM     70  C   UNL A   1      38.953  32.056  35.187  1.00  0.00     0.057 A 
ATOM     71  C   UNL A   1      38.242  31.474  36.241  1.00  0.00     0.134 A 
ATOM     72  C   UNL A   1      39.178  33.437  35.247  1.00  0.00     0.134 A 
ATOM     73  F   UNL A   1      37.976  30.159  36.232  1.00  0.00    -0.206 F 
ATOM     74  C   UNL A   1      37.765  32.236  37.310  1.00  0.00     0.040 A 
ATOM     75  C   UNL A   1      38.732  34.207  36.322  1.00  0.00     0.040 A 
ATOM     76  F   UNL A   1      39.858  34.056  34.270  1.00  0.00    -0.206 F 
ATOM     77  C   UNL A   1      38.017  33.606  37.355  1.00  0.00     0.006 A 
ENDBRANCH  49  70
BRANCH  61  78
ATOM     78  C   UNL A   1      44.485  27.926  34.306  1.00  0.00     0.057 A 
ATOM     79  C   UNL A   1      44.436  26.818  35.160  1.00  0.00     0.134 A 
ATOM     80  C   UNL A   1      45.663  28.683  34.289  1.00  0.00     0.134 A 
ATOM     81  F   UNL A   1      43.328  26.064  35.233  1.00  0.00    -0.206 F 
ATOM     82  C   UNL A   1      45.514  26.485  35.980  1.00  0.00     0.040 A 
ATOM     83  C   UNL A   1      46.756  28.346  35.086  1.00  0.00     0.040 A 
ATOM     84  F   UNL A   1      45.774  29.753  33.488  1.00  0.00    -0.206 F 
ATOM     85  C   UNL A   1      46.681  27.245  35.939  1.00  0.00     0.006 A 
ENDBRANCH  61  78
ENDBRANCH  35  36
ENDBRANCH  28  30
ENDBRANCH  27  28
ENDBRANCH  26  27
ENDBRANCH   1  26
TORSDOF 15
ENDMDL
