MODEL 1
REMARK VINA RESULT:      -9.2      0.000      0.000
REMARK SMILES C[C@H]1[C@H](C(=O)OCCOC(=O)c2ccc(-c3c4nc(c(-c5c(F)cccc5F)c5ccc([nH]5)c(-c5c(F)cccc5F)c5nc(c(-c6c(F)cccc6F)c6ccc3[nH]6)C=C5)C=C4)cc2)CCN1S(=O)(=O)[C@@H](C)C#N
REMARK SMILES IDX 7 1 6 2 4 3 5 4 3 5 1 6 2 7 68 8 66 9 67 10 69 11 70 12
REMARK SMILES IDX 71 13 72 14 73 15 74 16 75 17 8 18 9 19 10 20 11 21 12 22
REMARK SMILES IDX 13 23 65 24 14 25 64 26 15 27 16 28 17 29 58 30 18 31 63 32
REMARK SMILES IDX 57 33 59 34 19 35 62 36 56 37 55 38 20 40 46 41 29 42 45 43
REMARK SMILES IDX 30 44 33 45 44 46 60 47 31 48 32 49 43 51 61 52 34 53 21 54
REMARK SMILES IDX 22 55 27 56 23 57 24 58 26 59 28 60 25 61 47 62 48 63 53 64
REMARK SMILES IDX 49 65 50 66 52 67 54 68 51 69 35 70 36 71 41 72 37 73 38 74
REMARK SMILES IDX 40 75 42 76 39 77
REMARK H PARENT 59 39 33 50
REMARK Flexibility Score: inf
ROOT
ATOM      1  C   UNL A   1      41.904  20.363  26.926  1.00  0.00     0.274 C 
ENDROOT
BRANCH   1   2
ATOM      2  O   UNL A   1      42.671  20.338  25.707  1.00  0.00    -0.462 OA
BRANCH   2   3
ATOM      3  C   UNL A   1      43.726  21.177  25.593  1.00  0.00     0.310 C 
ATOM      4  O   UNL A   1      44.869  20.830  25.316  1.00  0.00    -0.252 OA
BRANCH   3   5
ATOM      5  C   UNL A   1      43.368  22.627  25.867  1.00  0.00     0.118 C 
ATOM      6  C   UNL A   1      43.611  23.797  28.125  1.00  0.00     0.027 C 
ATOM      7  C   UNL A   1      44.316  23.340  26.846  1.00  0.00     0.084 C 
ATOM      8  N   UNL A   1      44.814  24.572  26.137  1.00  0.00    -0.197 NA
ATOM      9  C   UNL A   1      43.401  23.450  24.588  1.00  0.00     0.034 C 
ATOM     10  C   UNL A   1      43.818  24.829  25.057  1.00  0.00     0.103 C 
BRANCH   8  11
ATOM     11  S   UNL A   1      46.433  24.545  25.602  1.00  0.00     0.230 S 
ATOM     12  O   UNL A   1      47.152  23.552  26.369  1.00  0.00    -0.211 OA
ATOM     13  O   UNL A   1      46.380  24.414  24.156  1.00  0.00    -0.211 OA
BRANCH  11  14
ATOM     14  C   UNL A   1      47.099  26.166  25.930  1.00  0.00     0.223 C 
ATOM     15  C   UNL A   1      48.607  26.159  26.127  1.00  0.00     0.043 C 
BRANCH  14  16
ATOM     16  C   UNL A   1      46.706  27.132  24.824  1.00  0.00     0.083 C 
ATOM     17  N   UNL A   1      46.380  27.933  23.906  1.00  0.00    -0.197 NA
ENDBRANCH  14  16
ENDBRANCH  11  14
ENDBRANCH   8  11
ENDBRANCH   3   5
ENDBRANCH   2   3
ENDBRANCH   1   2
BRANCH   1  18
ATOM     18  C   UNL A   1      40.431  20.686  26.649  1.00  0.00     0.275 C 
BRANCH  18  19
ATOM     19  O   UNL A   1      39.994  21.837  27.396  1.00  0.00    -0.458 OA
BRANCH  19  20
ATOM     20  C   UNL A   1      39.420  22.802  26.648  1.00  0.00     0.338 C 
ATOM     21  O   UNL A   1      38.472  22.702  25.893  1.00  0.00    -0.246 OA
BRANCH  20  22
ATOM     22  C   UNL A   1      39.969  24.114  26.977  1.00  0.00     0.060 A 
ATOM     23  C   UNL A   1      40.093  24.429  28.334  1.00  0.00     0.016 A 
ATOM     24  C   UNL A   1      40.222  25.062  25.989  1.00  0.00     0.016 A 
ATOM     25  C   UNL A   1      40.456  25.707  28.721  1.00  0.00     0.010 A 
ATOM     26  C   UNL A   1      40.605  26.344  26.377  1.00  0.00     0.010 A 
ATOM     27  C   UNL A   1      40.714  26.669  27.741  1.00  0.00    -0.014 A 
BRANCH  27  28
ATOM     28  C   UNL A   1      41.092  28.035  28.145  1.00  0.00     0.031 A 
ATOM     29  C   UNL A   1      42.535  28.424  28.176  1.00  0.00     0.074 A 
ATOM     30  C   UNL A   1      40.125  28.900  28.495  1.00  0.00     0.049 A 
ATOM     31  N   UNL A   1      43.088  29.491  28.687  1.00  0.00    -0.248 NA
ATOM     32  C   UNL A   1      43.482  27.488  27.551  1.00  0.00     0.031 C 
ATOM     33  C   UNL A   1      38.687  28.633  28.427  1.00  0.00     0.029 A 
ATOM     34  N   UNL A   1      40.210  30.171  28.997  1.00  0.00    -0.354 N 
ATOM     35  C   UNL A   1      44.450  29.341  28.478  1.00  0.00     0.074 A 
ATOM     36  C   UNL A   1      44.642  28.083  27.788  1.00  0.00     0.031 C 
ATOM     37  C   UNL A   1      38.024  29.703  28.893  1.00  0.00     0.029 A 
ATOM     38  C   UNL A   1      38.991  30.695  29.347  1.00  0.00     0.049 A 
ATOM     39  H   UNL A   1      41.059  30.659  29.097  1.00  0.00     0.167 HD
ATOM     40  C   UNL A   1      45.446  30.181  28.846  1.00  0.00     0.037 A 
ATOM     41  C   UNL A   1      38.698  31.827  30.012  1.00  0.00     0.037 A 
ATOM     42  C   UNL A   1      45.227  31.431  29.523  1.00  0.00     0.049 A 
ATOM     43  C   UNL A   1      39.823  32.708  30.470  1.00  0.00     0.074 A 
ATOM     44  C   UNL A   1      46.161  32.359  29.949  1.00  0.00     0.029 A 
ATOM     45  N   UNL A   1      43.979  31.927  29.871  1.00  0.00    -0.354 N 
ATOM     46  N   UNL A   1      41.114  32.546  30.308  1.00  0.00    -0.248 NA
ATOM     47  C   UNL A   1      39.454  33.919  31.215  1.00  0.00     0.031 C 
ATOM     48  C   UNL A   1      45.478  33.404  30.580  1.00  0.00     0.029 A 
ATOM     49  C   UNL A   1      44.118  33.143  30.517  1.00  0.00     0.049 A 
ATOM     50  H   UNL A   1      43.122  31.482  29.685  1.00  0.00     0.167 HD
ATOM     51  C   UNL A   1      41.713  33.643  30.910  1.00  0.00     0.074 A 
ATOM     52  C   UNL A   1      40.643  34.464  31.439  1.00  0.00     0.031 C 
ATOM     53  C   UNL A   1      43.030  33.944  31.016  1.00  0.00     0.037 A 
BRANCH  40  54
ATOM     54  C   UNL A   1      46.852  29.752  28.562  1.00  0.00     0.057 A 
ATOM     55  C   UNL A   1      47.492  30.056  27.355  1.00  0.00     0.134 A 
ATOM     56  C   UNL A   1      47.585  29.042  29.523  1.00  0.00     0.134 A 
ATOM     57  F   UNL A   1      46.838  30.717  26.387  1.00  0.00    -0.206 F 
ATOM     58  C   UNL A   1      48.807  29.659  27.107  1.00  0.00     0.040 A 
ATOM     59  C   UNL A   1      48.906  28.656  29.295  1.00  0.00     0.040 A 
ATOM     60  F   UNL A   1      47.028  28.719  30.700  1.00  0.00    -0.206 F 
ATOM     61  C   UNL A   1      49.520  28.961  28.083  1.00  0.00     0.006 A 
ENDBRANCH  40  54
BRANCH  41  62
ATOM     62  C   UNL A   1      37.285  32.153  30.316  1.00  0.00     0.057 A 
ATOM     63  C   UNL A   1      36.689  31.737  31.511  1.00  0.00     0.134 A 
ATOM     64  C   UNL A   1      36.506  32.910  29.433  1.00  0.00     0.134 A 
ATOM     65  F   UNL A   1      37.382  30.996  32.387  1.00  0.00    -0.206 F 
ATOM     66  C   UNL A   1      35.366  32.057  31.815  1.00  0.00     0.040 A 
ATOM     67  C   UNL A   1      35.188  33.256  29.733  1.00  0.00     0.040 A 
ATOM     68  F   UNL A   1      37.024  33.343  28.273  1.00  0.00    -0.206 F 
ATOM     69  C   UNL A   1      34.613  32.826  30.927  1.00  0.00     0.006 A 
ENDBRANCH  41  62
BRANCH  53  70
ATOM     70  C   UNL A   1      43.379  35.234  31.690  1.00  0.00     0.057 A 
ATOM     71  C   UNL A   1      43.640  36.398  30.958  1.00  0.00     0.134 A 
ATOM     72  C   UNL A   1      43.394  35.322  33.086  1.00  0.00     0.134 A 
ATOM     73  F   UNL A   1      43.653  36.370  29.617  1.00  0.00    -0.206 F 
ATOM     74  C   UNL A   1      43.913  37.608  31.597  1.00  0.00     0.040 A 
ATOM     75  C   UNL A   1      43.647  36.530  33.736  1.00  0.00     0.040 A 
ATOM     76  F   UNL A   1      43.146  34.239  33.840  1.00  0.00    -0.206 F 
ATOM     77  C   UNL A   1      43.909  37.677  32.989  1.00  0.00     0.006 A 
ENDBRANCH  53  70
ENDBRANCH  27  28
ENDBRANCH  20  22
ENDBRANCH  19  20
ENDBRANCH  18  19
ENDBRANCH   1  18
TORSDOF 14
ENDMDL
MODEL 2
REMARK VINA RESULT:      -9.1      5.802      9.131
REMARK SMILES C[C@H]1[C@H](C(=O)OCCOC(=O)c2ccc(-c3c4nc(c(-c5c(F)cccc5F)c5ccc([nH]5)c(-c5c(F)cccc5F)c5nc(c(-c6c(F)cccc6F)c6ccc3[nH]6)C=C5)C=C4)cc2)CCN1S(=O)(=O)[C@@H](C)C#N
REMARK SMILES IDX 7 1 6 2 4 3 5 4 3 5 1 6 2 7 68 8 66 9 67 10 69 11 70 12
REMARK SMILES IDX 71 13 72 14 73 15 74 16 75 17 8 18 9 19 10 20 11 21 12 22
REMARK SMILES IDX 13 23 65 24 14 25 64 26 15 27 16 28 17 29 58 30 18 31 63 32
REMARK SMILES IDX 57 33 59 34 19 35 62 36 56 37 55 38 20 40 46 41 29 42 45 43
REMARK SMILES IDX 30 44 33 45 44 46 60 47 31 48 32 49 43 51 61 52 34 53 21 54
REMARK SMILES IDX 22 55 27 56 23 57 24 58 26 59 28 60 25 61 47 62 48 63 53 64
REMARK SMILES IDX 49 65 50 66 52 67 54 68 51 69 35 70 36 71 41 72 37 73 38 74
REMARK SMILES IDX 40 75 42 76 39 77
REMARK H PARENT 59 39 33 50
REMARK Flexibility Score: inf
ROOT
ATOM      1  C   UNL A   1      31.198  29.265  24.496  1.00  0.00     0.274 C 
ENDROOT
BRANCH   1   2
ATOM      2  O   UNL A   1      32.286  28.759  23.698  1.00  0.00    -0.462 OA
BRANCH   2   3
ATOM      3  C   UNL A   1      32.128  27.570  23.074  1.00  0.00     0.310 C 
ATOM      4  O   UNL A   1      31.194  27.287  22.331  1.00  0.00    -0.252 OA
BRANCH   3   5
ATOM      5  C   UNL A   1      33.230  26.576  23.396  1.00  0.00     0.118 C 
ATOM      6  C   UNL A   1      34.018  25.974  25.751  1.00  0.00     0.027 C 
ATOM      7  C   UNL A   1      32.974  25.734  24.658  1.00  0.00     0.084 C 
ATOM      8  N   UNL A   1      33.080  24.291  24.238  1.00  0.00    -0.197 NA
ATOM      9  C   UNL A   1      33.415  25.577  22.265  1.00  0.00     0.034 C 
ATOM     10  C   UNL A   1      33.864  24.313  22.970  1.00  0.00     0.103 C 
BRANCH   8  11
ATOM     11  S   UNL A   1      31.621  23.414  24.142  1.00  0.00     0.230 S 
ATOM     12  O   UNL A   1      30.522  24.354  24.106  1.00  0.00    -0.211 OA
ATOM     13  O   UNL A   1      31.783  22.477  23.044  1.00  0.00    -0.211 OA
BRANCH  11  14
ATOM     14  C   UNL A   1      31.529  22.429  25.626  1.00  0.00     0.223 C 
ATOM     15  C   UNL A   1      32.856  22.345  26.365  1.00  0.00     0.043 C 
BRANCH  14  16
ATOM     16  C   UNL A   1      30.437  22.956  26.542  1.00  0.00     0.083 C 
ATOM     17  N   UNL A   1      29.530  23.393  27.302  1.00  0.00    -0.197 NA
ENDBRANCH  14  16
ENDBRANCH  11  14
ENDBRANCH   8  11
ENDBRANCH   3   5
ENDBRANCH   2   3
ENDBRANCH   1   2
BRANCH   1  18
ATOM     18  C   UNL A   1      31.669  29.631  25.908  1.00  0.00     0.275 C 
BRANCH  18  19
ATOM     19  O   UNL A   1      33.019  30.131  25.900  1.00  0.00    -0.458 OA
BRANCH  19  20
ATOM     20  C   UNL A   1      33.271  31.072  26.834  1.00  0.00     0.338 C 
ATOM     21  O   UNL A   1      32.510  31.910  27.279  1.00  0.00    -0.246 OA
BRANCH  20  22
ATOM     22  C   UNL A   1      34.587  30.874  27.434  1.00  0.00     0.060 A 
ATOM     23  C   UNL A   1      34.934  29.565  27.787  1.00  0.00     0.016 A 
ATOM     24  C   UNL A   1      35.399  31.953  27.771  1.00  0.00     0.016 A 
ATOM     25  C   UNL A   1      36.095  29.323  28.500  1.00  0.00     0.010 A 
ATOM     26  C   UNL A   1      36.578  31.708  28.473  1.00  0.00     0.010 A 
ATOM     27  C   UNL A   1      36.921  30.395  28.845  1.00  0.00    -0.014 A 
BRANCH  27  28
ATOM     28  C   UNL A   1      38.154  30.145  29.612  1.00  0.00     0.031 A 
ATOM     29  C   UNL A   1      39.209  29.252  29.046  1.00  0.00     0.074 A 
ATOM     30  C   UNL A   1      38.295  30.718  30.821  1.00  0.00     0.049 A 
ATOM     31  N   UNL A   1      40.261  28.746  29.633  1.00  0.00    -0.248 NA
ATOM     32  C   UNL A   1      39.062  28.876  27.631  1.00  0.00     0.031 C 
ATOM     33  C   UNL A   1      37.351  31.660  31.424  1.00  0.00     0.029 A 
ATOM     34  N   UNL A   1      39.276  30.571  31.763  1.00  0.00    -0.354 N 
ATOM     35  C   UNL A   1      40.884  27.963  28.673  1.00  0.00     0.074 A 
ATOM     36  C   UNL A   1      40.097  28.065  27.461  1.00  0.00     0.031 C 
ATOM     37  C   UNL A   1      37.790  31.992  32.648  1.00  0.00     0.029 A 
ATOM     38  C   UNL A   1      39.005  31.237  32.932  1.00  0.00     0.049 A 
ATOM     39  H   UNL A   1      40.093  30.042  31.618  1.00  0.00     0.167 HD
ATOM     40  C   UNL A   1      42.006  27.219  28.806  1.00  0.00     0.037 A 
ATOM     41  C   UNL A   1      39.640  31.194  34.117  1.00  0.00     0.037 A 
ATOM     42  C   UNL A   1      42.775  27.144  30.019  1.00  0.00     0.049 A 
ATOM     43  C   UNL A   1      40.843  30.308  34.260  1.00  0.00     0.074 A 
ATOM     44  C   UNL A   1      43.925  26.417  30.270  1.00  0.00     0.029 A 
ATOM     45  N   UNL A   1      42.466  27.825  31.188  1.00  0.00    -0.354 N 
ATOM     46  N   UNL A   1      41.409  29.536  33.363  1.00  0.00    -0.248 NA
ATOM     47  C   UNL A   1      41.487  30.274  35.579  1.00  0.00     0.031 C 
ATOM     48  C   UNL A   1      44.297  26.637  31.600  1.00  0.00     0.029 A 
ATOM     49  C   UNL A   1      43.397  27.527  32.167  1.00  0.00     0.049 A 
ATOM     50  H   UNL A   1      41.699  28.430  31.303  1.00  0.00     0.167 HD
ATOM     51  C   UNL A   1      42.488  28.940  34.000  1.00  0.00     0.074 A 
ATOM     52  C   UNL A   1      42.498  29.443  35.359  1.00  0.00     0.031 C 
ATOM     53  C   UNL A   1      43.388  28.058  33.506  1.00  0.00     0.037 A 
BRANCH  40  54
ATOM     54  C   UNL A   1      42.437  26.402  27.627  1.00  0.00     0.057 A 
ATOM     55  C   UNL A   1      42.005  25.083  27.440  1.00  0.00     0.134 A 
ATOM     56  C   UNL A   1      43.278  26.952  26.652  1.00  0.00     0.134 A 
ATOM     57  F   UNL A   1      41.213  24.493  28.348  1.00  0.00    -0.206 F 
ATOM     58  C   UNL A   1      42.406  24.336  26.332  1.00  0.00     0.040 A 
ATOM     59  C   UNL A   1      43.671  26.222  25.530  1.00  0.00     0.040 A 
ATOM     60  F   UNL A   1      43.727  28.211  26.773  1.00  0.00    -0.206 F 
ATOM     61  C   UNL A   1      43.238  24.908  25.369  1.00  0.00     0.006 A 
ENDBRANCH  40  54
BRANCH  41  62
ATOM     62  C   UNL A   1      39.116  31.978  35.259  1.00  0.00     0.057 A 
ATOM     63  C   UNL A   1      39.386  33.345  35.381  1.00  0.00     0.134 A 
ATOM     64  C   UNL A   1      38.310  31.387  36.240  1.00  0.00     0.134 A 
ATOM     65  F   UNL A   1      40.164  33.961  34.480  1.00  0.00    -0.206 F 
ATOM     66  C   UNL A   1      38.879  34.096  36.441  1.00  0.00     0.040 A 
ATOM     67  C   UNL A   1      37.778  32.130  37.294  1.00  0.00     0.040 A 
ATOM     68  F   UNL A   1      38.011  30.081  36.174  1.00  0.00    -0.206 F 
ATOM     69  C   UNL A   1      38.066  33.489  37.399  1.00  0.00     0.006 A 
ENDBRANCH  41  62
BRANCH  53  70
ATOM     70  C   UNL A   1      44.483  27.617  34.427  1.00  0.00     0.057 A 
ATOM     71  C   UNL A   1      45.670  28.345  34.559  1.00  0.00     0.134 A 
ATOM     72  C   UNL A   1      44.317  26.485  35.232  1.00  0.00     0.134 A 
ATOM     73  F   UNL A   1      45.890  29.431  33.802  1.00  0.00    -0.206 F 
ATOM     74  C   UNL A   1      46.662  27.955  35.459  1.00  0.00     0.040 A 
ATOM     75  C   UNL A   1      45.293  26.095  36.149  1.00  0.00     0.040 A 
ATOM     76  F   UNL A   1      43.196  25.750  35.153  1.00  0.00    -0.206 F 
ATOM     77  C   UNL A   1      46.470  26.832  36.262  1.00  0.00     0.006 A 
ENDBRANCH  53  70
ENDBRANCH  27  28
ENDBRANCH  20  22
ENDBRANCH  19  20
ENDBRANCH  18  19
ENDBRANCH   1  18
TORSDOF 14
ENDMDL
MODEL 3
REMARK VINA RESULT:      -9.0      0.675      6.471
REMARK SMILES C[C@H]1[C@H](C(=O)OCCOC(=O)c2ccc(-c3c4nc(c(-c5c(F)cccc5F)c5ccc([nH]5)c(-c5c(F)cccc5F)c5nc(c(-c6c(F)cccc6F)c6ccc3[nH]6)C=C5)C=C4)cc2)CCN1S(=O)(=O)[C@@H](C)C#N
REMARK SMILES IDX 7 1 6 2 4 3 5 4 3 5 1 6 2 7 68 8 66 9 67 10 69 11 70 12
REMARK SMILES IDX 71 13 72 14 73 15 74 16 75 17 8 18 9 19 10 20 11 21 12 22
REMARK SMILES IDX 13 23 65 24 14 25 64 26 15 27 16 28 17 29 58 30 18 31 63 32
REMARK SMILES IDX 57 33 59 34 19 35 62 36 56 37 55 38 20 40 46 41 29 42 45 43
REMARK SMILES IDX 30 44 33 45 44 46 60 47 31 48 32 49 43 51 61 52 34 53 21 54
REMARK SMILES IDX 22 55 27 56 23 57 24 58 26 59 28 60 25 61 47 62 48 63 53 64
REMARK SMILES IDX 49 65 50 66 52 67 54 68 51 69 35 70 36 71 41 72 37 73 38 74
REMARK SMILES IDX 40 75 42 76 39 77
REMARK H PARENT 59 39 33 50
REMARK Flexibility Score: inf
ROOT
ATOM      1  C   UNL A   1      41.654  20.118  26.508  1.00  0.00     0.274 C 
ENDROOT
BRANCH   1   2
ATOM      2  O   UNL A   1      42.496  20.465  25.392  1.00  0.00    -0.462 OA
BRANCH   2   3
ATOM      3  C   UNL A   1      43.608  21.199  25.629  1.00  0.00     0.310 C 
ATOM      4  O   UNL A   1      44.757  20.800  25.471  1.00  0.00    -0.252 OA
BRANCH   3   5
ATOM      5  C   UNL A   1      43.303  22.596  26.142  1.00  0.00     0.118 C 
ATOM      6  C   UNL A   1      43.891  23.462  28.473  1.00  0.00     0.027 C 
ATOM      7  C   UNL A   1      44.392  23.187  27.053  1.00  0.00     0.084 C 
ATOM      8  N   UNL A   1      44.785  24.509  26.446  1.00  0.00    -0.197 NA
ATOM      9  C   UNL A   1      43.148  23.579  24.992  1.00  0.00     0.034 C 
ATOM     10  C   UNL A   1      43.639  24.891  25.571  1.00  0.00     0.103 C 
BRANCH   8  11
ATOM     11  S   UNL A   1      46.305  24.575  25.675  1.00  0.00     0.230 S 
ATOM     12  O   UNL A   1      47.161  23.568  26.262  1.00  0.00    -0.211 OA
ATOM     13  O   UNL A   1      46.038  24.526  24.248  1.00  0.00    -0.211 OA
BRANCH  11  14
ATOM     14  C   UNL A   1      46.964  26.199  26.002  1.00  0.00     0.223 C 
ATOM     15  C   UNL A   1      48.454  26.182  26.312  1.00  0.00     0.043 C 
BRANCH  14  16
ATOM     16  C   UNL A   1      46.668  27.133  24.841  1.00  0.00     0.083 C 
ATOM     17  N   UNL A   1      46.422  27.908  23.877  1.00  0.00    -0.197 NA
ENDBRANCH  14  16
ENDBRANCH  11  14
ENDBRANCH   8  11
ENDBRANCH   3   5
ENDBRANCH   2   3
ENDBRANCH   1   2
BRANCH   1  18
ATOM     18  C   UNL A   1      40.236  20.672  26.327  1.00  0.00     0.275 C 
BRANCH  18  19
ATOM     19  O   UNL A   1      40.004  21.814  27.173  1.00  0.00    -0.458 OA
BRANCH  19  20
ATOM     20  C   UNL A   1      39.385  22.845  26.562  1.00  0.00     0.338 C 
ATOM     21  O   UNL A   1      38.389  22.815  25.865  1.00  0.00    -0.246 OA
BRANCH  20  22
ATOM     22  C   UNL A   1      39.958  24.122  26.978  1.00  0.00     0.060 A 
ATOM     23  C   UNL A   1      40.343  24.238  28.318  1.00  0.00     0.016 A 
ATOM     24  C   UNL A   1      39.988  25.217  26.119  1.00  0.00     0.016 A 
ATOM     25  C   UNL A   1      40.747  25.462  28.821  1.00  0.00     0.010 A 
ATOM     26  C   UNL A   1      40.412  26.446  26.621  1.00  0.00     0.010 A 
ATOM     27  C   UNL A   1      40.783  26.571  27.972  1.00  0.00    -0.014 A 
BRANCH  27  28
ATOM     28  C   UNL A   1      41.203  27.879  28.503  1.00  0.00     0.031 A 
ATOM     29  C   UNL A   1      40.170  28.860  28.955  1.00  0.00     0.074 A 
ATOM     30  C   UNL A   1      42.515  28.170  28.554  1.00  0.00     0.049 A 
ATOM     31  N   UNL A   1      40.311  30.122  29.259  1.00  0.00    -0.248 NA
ATOM     32  C   UNL A   1      38.794  28.355  29.079  1.00  0.00     0.031 C 
ATOM     33  C   UNL A   1      43.598  27.250  28.203  1.00  0.00     0.029 A 
ATOM     34  N   UNL A   1      43.154  29.330  28.900  1.00  0.00    -0.354 N 
ATOM     35  C   UNL A   1      39.039  30.574  29.577  1.00  0.00     0.074 A 
ATOM     36  C   UNL A   1      38.138  29.449  29.436  1.00  0.00     0.031 C 
ATOM     37  C   UNL A   1      44.770  27.890  28.332  1.00  0.00     0.029 A 
ATOM     38  C   UNL A   1      44.512  29.274  28.710  1.00  0.00     0.049 A 
ATOM     39  H   UNL A   1      42.687  30.123  29.251  1.00  0.00     0.167 HD
ATOM     40  C   UNL A   1      38.667  31.822  29.941  1.00  0.00     0.037 A 
ATOM     41  C   UNL A   1      45.433  30.252  28.781  1.00  0.00     0.037 A 
ATOM     42  C   UNL A   1      39.585  32.920  30.084  1.00  0.00     0.049 A 
ATOM     43  C   UNL A   1      44.986  31.643  29.120  1.00  0.00     0.074 A 
ATOM     44  C   UNL A   1      39.318  34.230  30.442  1.00  0.00     0.029 A 
ATOM     45  N   UNL A   1      40.954  32.831  29.874  1.00  0.00    -0.354 N 
ATOM     46  N   UNL A   1      43.777  32.079  29.382  1.00  0.00    -0.248 NA
ATOM     47  C   UNL A   1      46.024  32.681  29.159  1.00  0.00     0.031 C 
ATOM     48  C   UNL A   1      40.523  34.940  30.421  1.00  0.00     0.029 A 
ATOM     49  C   UNL A   1      41.544  34.064  30.084  1.00  0.00     0.049 A 
ATOM     50  H   UNL A   1      41.433  32.012  29.616  1.00  0.00     0.167 HD
ATOM     51  C   UNL A   1      43.909  33.436  29.638  1.00  0.00     0.074 A 
ATOM     52  C   UNL A   1      45.317  33.750  29.502  1.00  0.00     0.031 C 
ATOM     53  C   UNL A   1      42.952  34.340  29.957  1.00  0.00     0.037 A 
BRANCH  40  54
ATOM     54  C   UNL A   1      37.207  32.070  30.166  1.00  0.00     0.057 A 
ATOM     55  C   UNL A   1      36.594  31.827  31.401  1.00  0.00     0.134 A 
ATOM     56  C   UNL A   1      36.407  32.582  29.136  1.00  0.00     0.134 A 
ATOM     57  F   UNL A   1      37.301  31.319  32.422  1.00  0.00    -0.206 F 
ATOM     58  C   UNL A   1      35.234  32.072  31.600  1.00  0.00     0.040 A 
ATOM     59  C   UNL A   1      35.051  32.849  29.328  1.00  0.00     0.040 A 
ATOM     60  F   UNL A   1      36.935  32.836  27.928  1.00  0.00    -0.206 F 
ATOM     61  C   UNL A   1      34.460  32.590  30.562  1.00  0.00     0.006 A 
ENDBRANCH  40  54
BRANCH  41  62
ATOM     62  C   UNL A   1      46.851  29.946  28.479  1.00  0.00     0.057 A 
ATOM     63  C   UNL A   1      47.738  29.561  29.489  1.00  0.00     0.134 A 
ATOM     64  C   UNL A   1      47.345  30.004  27.170  1.00  0.00     0.134 A 
ATOM     65  F   UNL A   1      47.324  29.503  30.762  1.00  0.00    -0.206 F 
ATOM     66  C   UNL A   1      49.069  29.251  29.210  1.00  0.00     0.040 A 
ATOM     67  C   UNL A   1      48.669  29.676  26.873  1.00  0.00     0.040 A 
ATOM     68  F   UNL A   1      46.541  30.361  26.157  1.00  0.00    -0.206 F 
ATOM     69  C   UNL A   1      49.536  29.301  27.897  1.00  0.00     0.006 A 
ENDBRANCH  41  62
BRANCH  53  70
ATOM     70  C   UNL A   1      43.405  35.742  30.224  1.00  0.00     0.057 A 
ATOM     71  C   UNL A   1      43.405  36.718  29.222  1.00  0.00     0.134 A 
ATOM     72  C   UNL A   1      43.785  36.129  31.515  1.00  0.00     0.134 A 
ATOM     73  F   UNL A   1      43.064  36.401  27.964  1.00  0.00    -0.206 F 
ATOM     74  C   UNL A   1      43.778  38.034  29.494  1.00  0.00     0.040 A 
ATOM     75  C   UNL A   1      44.142  37.445  31.803  1.00  0.00     0.040 A 
ATOM     76  F   UNL A   1      43.798  35.237  32.517  1.00  0.00    -0.206 F 
ATOM     77  C   UNL A   1      44.140  38.402  30.789  1.00  0.00     0.006 A 
ENDBRANCH  53  70
ENDBRANCH  27  28
ENDBRANCH  20  22
ENDBRANCH  19  20
ENDBRANCH  18  19
ENDBRANCH   1  18
TORSDOF 14
ENDMDL
