MODEL 1
REMARK VINA RESULT:     -11.5      0.000      0.000
REMARK SMILES COc1ccc2c(c1)CC[C@@](C)(CCC(=O)OCCOC(=O)c1ccc(-c3c4nc(c(-c5c(F)cccc5F)c5ccc([nH]5)c(-c5c(F)cccc5F)c5nc(c(-c6c(F)cccc6F)c6ccc3[nH]6)C=C5)C=C4)cc1)C2=O
REMARK SMILES IDX 18 1 17 2 15 3 16 4 14 5 13 6 11 7 3 8 4 9 8 10 5 11 7 12
REMARK SMILES IDX 6 13 9 14 77 15 10 16 78 17 12 18 2 19 1 20 19 21 20 22
REMARK SMILES IDX 21 23 22 24 23 25 24 26 76 27 25 28 75 29 26 30 27 31 28 32
REMARK SMILES IDX 69 33 29 34 74 35 68 36 70 37 30 38 73 39 67 40 66 41 31 43
REMARK SMILES IDX 57 44 40 45 56 46 41 47 44 48 55 49 71 50 42 51 43 52 54 54
REMARK SMILES IDX 72 55 45 56 32 57 33 58 38 59 34 60 35 61 37 62 39 63 36 64
REMARK SMILES IDX 58 65 59 66 64 67 60 68 61 69 63 70 65 71 62 72 46 73 47 74
REMARK SMILES IDX 52 75 48 76 49 77 51 78 53 79 50 80
REMARK H PARENT 70 42 44 53
REMARK Flexibility Score: inf
ROOT
ATOM      1  C   UNL A   1      35.481  21.106  25.486  1.00  0.00     0.274 C 
ENDROOT
BRANCH   1   2
ATOM      2  O   UNL A   1      34.384  20.380  24.899  1.00  0.00    -0.462 OA
BRANCH   2   3
ATOM      3  C   UNL A   1      33.165  20.567  25.450  1.00  0.00     0.305 C 
ATOM      4  O   UNL A   1      32.149  19.956  25.138  1.00  0.00    -0.252 OA
BRANCH   3   5
ATOM      5  C   UNL A   1      33.159  21.686  26.464  1.00  0.00     0.124 C 
BRANCH   5   6
ATOM      6  C   UNL A   1      32.034  22.729  26.353  1.00  0.00     0.026 C 
BRANCH   6   7
ATOM      7  C   UNL A   1      32.335  24.113  25.697  1.00  0.00     0.032 C 
ATOM      8  C   UNL A   1      33.113  29.160  26.827  1.00  0.00     0.119 A 
ATOM      9  C   UNL A   1      31.865  28.842  27.361  1.00  0.00     0.047 A 
ATOM     10  C   UNL A   1      33.846  28.183  26.147  1.00  0.00     0.050 A 
ATOM     11  C   UNL A   1      31.352  27.553  27.199  1.00  0.00     0.016 A 
ATOM     12  C   UNL A   1      33.357  26.877  26.007  1.00  0.00    -0.033 A 
ATOM     13  C   UNL A   1      32.089  26.577  26.516  1.00  0.00     0.022 A 
ATOM     14  C   UNL A   1      34.164  25.848  25.270  1.00  0.00     0.037 C 
ATOM     15  C   UNL A   1      31.477  25.242  26.288  1.00  0.00     0.169 C 
ATOM     16  C   UNL A   1      33.834  24.453  25.784  1.00  0.00     0.020 C 
ATOM     17  O   UNL A   1      30.270  25.127  26.481  1.00  0.00    -0.294 OA
ATOM     18  C   UNL A   1      31.877  24.025  24.220  1.00  0.00     0.020 C 
BRANCH   8  19
ATOM     19  O   UNL A   1      33.683  30.402  26.847  1.00  0.00    -0.497 OA
ATOM     20  C   UNL A   1      34.925  30.500  27.534  1.00  0.00     0.278 C 
ENDBRANCH   8  19
ENDBRANCH   6   7
ENDBRANCH   5   6
ENDBRANCH   3   5
ENDBRANCH   2   3
ENDBRANCH   1   2
BRANCH   1  21
ATOM     21  C   UNL A   1      36.829  20.579  24.986  1.00  0.00     0.275 C 
BRANCH  21  22
ATOM     22  O   UNL A   1      37.854  21.571  25.158  1.00  0.00    -0.458 OA
BRANCH  22  23
ATOM     23  C   UNL A   1      38.937  21.192  25.873  1.00  0.00     0.338 C 
ATOM     24  O   UNL A   1      39.402  20.083  26.032  1.00  0.00    -0.246 OA
BRANCH  23  25
ATOM     25  C   UNL A   1      39.580  22.391  26.402  1.00  0.00     0.060 A 
ATOM     26  C   UNL A   1      39.114  23.640  26.005  1.00  0.00     0.016 A 
ATOM     27  C   UNL A   1      40.624  22.255  27.324  1.00  0.00     0.016 A 
ATOM     28  C   UNL A   1      39.745  24.774  26.497  1.00  0.00     0.010 A 
ATOM     29  C   UNL A   1      41.241  23.392  27.831  1.00  0.00     0.010 A 
ATOM     30  C   UNL A   1      40.818  24.655  27.399  1.00  0.00    -0.014 A 
BRANCH  30  31
ATOM     31  C   UNL A   1      41.484  25.885  27.870  1.00  0.00     0.031 A 
ATOM     32  C   UNL A   1      42.882  26.197  27.435  1.00  0.00     0.074 A 
ATOM     33  C   UNL A   1      40.780  26.745  28.624  1.00  0.00     0.049 A 
ATOM     34  N   UNL A   1      43.554  27.312  27.565  1.00  0.00    -0.248 NA
ATOM     35  C   UNL A   1      43.628  25.115  26.775  1.00  0.00     0.031 C 
ATOM     36  C   UNL A   1      39.427  26.506  29.131  1.00  0.00     0.029 A 
ATOM     37  N   UNL A   1      41.086  28.005  29.061  1.00  0.00    -0.354 N 
ATOM     38  C   UNL A   1      44.791  27.074  26.983  1.00  0.00     0.074 A 
ATOM     39  C   UNL A   1      44.803  25.689  26.564  1.00  0.00     0.031 C 
ATOM     40  C   UNL A   1      38.996  27.610  29.761  1.00  0.00     0.029 A 
ATOM     41  C   UNL A   1      40.049  28.619  29.718  1.00  0.00     0.049 A 
ATOM     42  H   UNL A   1      41.964  28.429  28.919  1.00  0.00     0.167 HD
ATOM     43  C   UNL A   1      45.812  27.944  26.794  1.00  0.00     0.037 A 
ATOM     44  C   UNL A   1      39.957  29.869  30.204  1.00  0.00     0.037 A 
ATOM     45  C   UNL A   1      45.790  29.312  27.244  1.00  0.00     0.049 A 
ATOM     46  C   UNL A   1      41.113  30.806  30.003  1.00  0.00     0.074 A 
ATOM     47  C   UNL A   1      46.758  30.291  27.097  1.00  0.00     0.029 A 
ATOM     48  N   UNL A   1      44.742  29.891  27.948  1.00  0.00    -0.354 N 
ATOM     49  N   UNL A   1      42.251  30.601  29.382  1.00  0.00    -0.248 NA
ATOM     50  C   UNL A   1      40.964  32.157  30.555  1.00  0.00     0.031 C 
ATOM     51  C   UNL A   1      46.316  31.443  27.758  1.00  0.00     0.029 A 
ATOM     52  C   UNL A   1      45.048  31.204  28.264  1.00  0.00     0.049 A 
ATOM     53  H   UNL A   1      43.904  29.434  28.189  1.00  0.00     0.167 HD
ATOM     54  C   UNL A   1      42.943  31.803  29.445  1.00  0.00     0.074 A 
ATOM     55  C   UNL A   1      42.081  32.737  30.143  1.00  0.00     0.031 C 
ATOM     56  C   UNL A   1      44.176  32.110  28.972  1.00  0.00     0.037 A 
BRANCH  43  57
ATOM     57  C   UNL A   1      47.032  27.422  26.088  1.00  0.00     0.057 A 
ATOM     58  C   UNL A   1      48.080  26.832  26.805  1.00  0.00     0.134 A 
ATOM     59  C   UNL A   1      47.165  27.484  24.693  1.00  0.00     0.134 A 
ATOM     60  F   UNL A   1      48.026  26.743  28.143  1.00  0.00    -0.206 F 
ATOM     61  C   UNL A   1      49.207  26.315  26.162  1.00  0.00     0.040 A 
ATOM     62  C   UNL A   1      48.272  26.943  24.036  1.00  0.00     0.040 A 
ATOM     63  F   UNL A   1      46.194  28.025  23.941  1.00  0.00    -0.206 F 
ATOM     64  C   UNL A   1      49.299  26.358  24.773  1.00  0.00     0.006 A 
ENDBRANCH  43  57
BRANCH  44  65
ATOM     65  C   UNL A   1      38.716  30.312  30.886  1.00  0.00     0.057 A 
ATOM     66  C   UNL A   1      37.707  30.988  30.190  1.00  0.00     0.134 A 
ATOM     67  C   UNL A   1      38.502  30.059  32.246  1.00  0.00     0.134 A 
ATOM     68  F   UNL A   1      37.855  31.272  28.888  1.00  0.00    -0.206 F 
ATOM     69  C   UNL A   1      36.531  31.397  30.820  1.00  0.00     0.040 A 
ATOM     70  C   UNL A   1      37.319  30.437  32.883  1.00  0.00     0.040 A 
ATOM     71  F   UNL A   1      39.426  29.405  32.966  1.00  0.00    -0.206 F 
ATOM     72  C   UNL A   1      36.330  31.112  32.170  1.00  0.00     0.006 A 
ENDBRANCH  44  65
BRANCH  56  73
ATOM     73  C   UNL A   1      44.637  33.527  29.174  1.00  0.00     0.057 A 
ATOM     74  C   UNL A   1      44.333  34.514  28.227  1.00  0.00     0.134 A 
ATOM     75  C   UNL A   1      45.361  33.921  30.307  1.00  0.00     0.134 A 
ATOM     76  F   UNL A   1      43.653  34.204  27.112  1.00  0.00    -0.206 F 
ATOM     77  C   UNL A   1      44.719  35.842  28.407  1.00  0.00     0.040 A 
ATOM     78  C   UNL A   1      45.722  35.253  30.516  1.00  0.00     0.040 A 
ATOM     79  F   UNL A   1      45.674  33.028  31.259  1.00  0.00    -0.206 F 
ATOM     80  C   UNL A   1      45.402  36.217  29.563  1.00  0.00     0.006 A 
ENDBRANCH  56  73
ENDBRANCH  30  31
ENDBRANCH  23  25
ENDBRANCH  22  23
ENDBRANCH  21  22
ENDBRANCH   1  21
TORSDOF 14
ENDMDL
MODEL 2
REMARK VINA RESULT:     -11.4      3.739      8.942
REMARK SMILES COc1ccc2c(c1)CC[C@@](C)(CCC(=O)OCCOC(=O)c1ccc(-c3c4nc(c(-c5c(F)cccc5F)c5ccc([nH]5)c(-c5c(F)cccc5F)c5nc(c(-c6c(F)cccc6F)c6ccc3[nH]6)C=C5)C=C4)cc1)C2=O
REMARK SMILES IDX 18 1 17 2 15 3 16 4 14 5 13 6 11 7 3 8 4 9 8 10 5 11 7 12
REMARK SMILES IDX 6 13 9 14 77 15 10 16 78 17 12 18 2 19 1 20 19 21 20 22
REMARK SMILES IDX 21 23 22 24 23 25 24 26 76 27 25 28 75 29 26 30 27 31 28 32
REMARK SMILES IDX 69 33 29 34 74 35 68 36 70 37 30 38 73 39 67 40 66 41 31 43
REMARK SMILES IDX 57 44 40 45 56 46 41 47 44 48 55 49 71 50 42 51 43 52 54 54
REMARK SMILES IDX 72 55 45 56 32 57 33 58 38 59 34 60 35 61 37 62 39 63 36 64
REMARK SMILES IDX 58 65 59 66 64 67 60 68 61 69 63 70 65 71 62 72 46 73 47 74
REMARK SMILES IDX 52 75 48 76 49 77 51 78 53 79 50 80
REMARK H PARENT 70 42 44 53
REMARK Flexibility Score: inf
ROOT
ATOM      1  C   UNL A   1      31.066  29.944  24.632  1.00  0.00     0.274 C 
ENDROOT
BRANCH   1   2
ATOM      2  O   UNL A   1      31.570  29.129  23.557  1.00  0.00    -0.462 OA
BRANCH   2   3
ATOM      3  C   UNL A   1      30.659  28.624  22.696  1.00  0.00     0.305 C 
ATOM      4  O   UNL A   1      29.902  29.290  21.999  1.00  0.00    -0.252 OA
BRANCH   3   5
ATOM      5  C   UNL A   1      30.611  27.115  22.732  1.00  0.00     0.124 C 
BRANCH   5   6
ATOM      6  C   UNL A   1      31.925  26.363  22.464  1.00  0.00     0.026 C 
BRANCH   6   7
ATOM      7  C   UNL A   1      32.558  25.498  23.600  1.00  0.00     0.032 C 
ATOM      8  C   UNL A   1      36.989  23.106  25.013  1.00  0.00     0.119 A 
ATOM      9  C   UNL A   1      36.654  22.574  23.769  1.00  0.00     0.047 A 
ATOM     10  C   UNL A   1      36.162  24.067  25.603  1.00  0.00     0.050 A 
ATOM     11  C   UNL A   1      35.487  22.997  23.128  1.00  0.00     0.016 A 
ATOM     12  C   UNL A   1      35.007  24.524  24.954  1.00  0.00    -0.033 A 
ATOM     13  C   UNL A   1      34.661  23.961  23.721  1.00  0.00     0.022 A 
ATOM     14  C   UNL A   1      34.137  25.557  25.610  1.00  0.00     0.037 C 
ATOM     15  C   UNL A   1      33.385  24.325  23.052  1.00  0.00     0.169 C 
ATOM     16  C   UNL A   1      33.395  26.368  24.556  1.00  0.00     0.020 C 
ATOM     17  O   UNL A   1      32.986  23.596  22.148  1.00  0.00    -0.294 OA
ATOM     18  C   UNL A   1      31.391  24.817  24.356  1.00  0.00     0.020 C 
BRANCH   8  19
ATOM     19  O   UNL A   1      38.054  22.713  25.775  1.00  0.00    -0.497 OA
ATOM     20  C   UNL A   1      38.700  23.746  26.510  1.00  0.00     0.278 C 
ENDBRANCH   8  19
ENDBRANCH   6   7
ENDBRANCH   5   6
ENDBRANCH   3   5
ENDBRANCH   2   3
ENDBRANCH   1   2
BRANCH   1  21
ATOM     21  C   UNL A   1      31.746  29.599  25.959  1.00  0.00     0.275 C 
BRANCH  21  22
ATOM     22  O   UNL A   1      33.070  30.154  26.008  1.00  0.00    -0.458 OA
BRANCH  22  23
ATOM     23  C   UNL A   1      33.275  31.127  26.922  1.00  0.00     0.338 C 
ATOM     24  O   UNL A   1      32.545  32.038  27.251  1.00  0.00    -0.246 OA
BRANCH  23  25
ATOM     25  C   UNL A   1      34.555  30.877  27.581  1.00  0.00     0.060 A 
ATOM     26  C   UNL A   1      34.906  29.570  27.899  1.00  0.00     0.016 A 
ATOM     27  C   UNL A   1      35.411  31.952  27.840  1.00  0.00     0.016 A 
ATOM     28  C   UNL A   1      36.114  29.342  28.543  1.00  0.00     0.010 A 
ATOM     29  C   UNL A   1      36.629  31.720  28.467  1.00  0.00     0.010 A 
ATOM     30  C   UNL A   1      36.973  30.416  28.842  1.00  0.00    -0.014 A 
BRANCH  30  31
ATOM     31  C   UNL A   1      38.231  30.134  29.560  1.00  0.00     0.031 A 
ATOM     32  C   UNL A   1      38.428  30.633  30.958  1.00  0.00     0.074 A 
ATOM     33  C   UNL A   1      39.151  29.359  28.961  1.00  0.00     0.049 A 
ATOM     34  N   UNL A   1      39.358  30.316  31.821  1.00  0.00    -0.248 NA
ATOM     35  C   UNL A   1      37.458  31.623  31.451  1.00  0.00     0.031 C 
ATOM     36  C   UNL A   1      39.064  28.863  27.585  1.00  0.00     0.029 A 
ATOM     37  N   UNL A   1      40.313  28.822  29.441  1.00  0.00    -0.354 N 
ATOM     38  C   UNL A   1      39.074  31.048  32.965  1.00  0.00     0.074 A 
ATOM     39  C   UNL A   1      37.927  31.877  32.663  1.00  0.00     0.031 C 
ATOM     40  C   UNL A   1      40.101  28.044  27.352  1.00  0.00     0.029 A 
ATOM     41  C   UNL A   1      40.929  27.978  28.551  1.00  0.00     0.049 A 
ATOM     42  H   UNL A   1      40.672  29.021  30.336  1.00  0.00     0.167 HD
ATOM     43  C   UNL A   1      39.700  31.008  34.166  1.00  0.00     0.037 A 
ATOM     44  C   UNL A   1      42.027  27.217  28.705  1.00  0.00     0.037 A 
ATOM     45  C   UNL A   1      40.857  30.195  34.437  1.00  0.00     0.049 A 
ATOM     46  C   UNL A   1      42.717  27.209  30.038  1.00  0.00     0.074 A 
ATOM     47  C   UNL A   1      41.567  30.060  35.617  1.00  0.00     0.029 A 
ATOM     48  N   UNL A   1      41.486  29.385  33.499  1.00  0.00    -0.354 N 
ATOM     49  N   UNL A   1      42.397  27.843  31.143  1.00  0.00    -0.248 NA
ATOM     50  C   UNL A   1      43.911  26.365  30.153  1.00  0.00     0.031 C 
ATOM     51  C   UNL A   1      42.655  29.211  35.377  1.00  0.00     0.029 A 
ATOM     52  C   UNL A   1      42.588  28.767  34.065  1.00  0.00     0.049 A 
ATOM     53  H   UNL A   1      41.191  29.268  32.567  1.00  0.00     0.167 HD
ATOM     54  C   UNL A   1      43.335  27.453  32.090  1.00  0.00     0.074 A 
ATOM     55  C   UNL A   1      44.216  26.509  31.433  1.00  0.00     0.031 C 
ATOM     56  C   UNL A   1      43.459  27.840  33.385  1.00  0.00     0.037 A 
BRANCH  43  57
ATOM     57  C   UNL A   1      39.146  31.885  35.254  1.00  0.00     0.057 A 
ATOM     58  C   UNL A   1      38.279  31.366  36.224  1.00  0.00     0.134 A 
ATOM     59  C   UNL A   1      39.483  33.243  35.355  1.00  0.00     0.134 A 
ATOM     60  F   UNL A   1      37.908  30.078  36.188  1.00  0.00    -0.206 F 
ATOM     61  C   UNL A   1      37.779  32.161  37.258  1.00  0.00     0.040 A 
ATOM     62  C   UNL A   1      39.014  34.040  36.401  1.00  0.00     0.040 A 
ATOM     63  F   UNL A   1      40.317  33.804  34.467  1.00  0.00    -0.206 F 
ATOM     64  C   UNL A   1      38.157  33.498  37.355  1.00  0.00     0.006 A 
ENDBRANCH  43  57
BRANCH  44  65
ATOM     65  C   UNL A   1      42.510  26.374  27.582  1.00  0.00     0.057 A 
ATOM     66  C   UNL A   1      42.139  25.028  27.473  1.00  0.00     0.134 A 
ATOM     67  C   UNL A   1      43.342  26.896  26.585  1.00  0.00     0.134 A 
ATOM     68  F   UNL A   1      41.353  24.465  28.402  1.00  0.00    -0.206 F 
ATOM     69  C   UNL A   1      42.578  24.232  26.415  1.00  0.00     0.040 A 
ATOM     70  C   UNL A   1      43.766  26.119  25.506  1.00  0.00     0.040 A 
ATOM     71  F   UNL A   1      43.723  28.182  26.627  1.00  0.00    -0.206 F 
ATOM     72  C   UNL A   1      43.386  24.781  25.421  1.00  0.00     0.006 A 
ENDBRANCH  44  65
BRANCH  56  73
ATOM     73  C   UNL A   1      44.574  27.206  34.169  1.00  0.00     0.057 A 
ATOM     74  C   UNL A   1      44.372  25.989  34.832  1.00  0.00     0.134 A 
ATOM     75  C   UNL A   1      45.848  27.784  34.253  1.00  0.00     0.134 A 
ATOM     76  F   UNL A   1      43.173  25.385  34.803  1.00  0.00    -0.206 F 
ATOM     77  C   UNL A   1      45.400  25.363  35.537  1.00  0.00     0.040 A 
ATOM     78  C   UNL A   1      46.894  27.150  34.925  1.00  0.00     0.040 A 
ATOM     79  F   UNL A   1      46.112  28.942  33.629  1.00  0.00    -0.206 F 
ATOM     80  C   UNL A   1      46.670  25.936  35.572  1.00  0.00     0.006 A 
ENDBRANCH  56  73
ENDBRANCH  30  31
ENDBRANCH  23  25
ENDBRANCH  22  23
ENDBRANCH  21  22
ENDBRANCH   1  21
TORSDOF 14
ENDMDL
MODEL 3
REMARK VINA RESULT:     -11.3      3.216      7.486
REMARK SMILES COc1ccc2c(c1)CC[C@@](C)(CCC(=O)OCCOC(=O)c1ccc(-c3c4nc(c(-c5c(F)cccc5F)c5ccc([nH]5)c(-c5c(F)cccc5F)c5nc(c(-c6c(F)cccc6F)c6ccc3[nH]6)C=C5)C=C4)cc1)C2=O
REMARK SMILES IDX 18 1 17 2 15 3 16 4 14 5 13 6 11 7 3 8 4 9 8 10 5 11 7 12
REMARK SMILES IDX 6 13 9 14 77 15 10 16 78 17 12 18 2 19 1 20 19 21 20 22
REMARK SMILES IDX 21 23 22 24 23 25 24 26 76 27 25 28 75 29 26 30 27 31 28 32
REMARK SMILES IDX 69 33 29 34 74 35 68 36 70 37 30 38 73 39 67 40 66 41 31 43
REMARK SMILES IDX 57 44 40 45 56 46 41 47 44 48 55 49 71 50 42 51 43 52 54 54
REMARK SMILES IDX 72 55 45 56 32 57 33 58 38 59 34 60 35 61 37 62 39 63 36 64
REMARK SMILES IDX 58 65 59 66 64 67 60 68 61 69 63 70 65 71 62 72 46 73 47 74
REMARK SMILES IDX 52 75 48 76 49 77 51 78 53 79 50 80
REMARK H PARENT 70 42 44 53
REMARK Flexibility Score: inf
ROOT
ATOM      1  C   UNL A   1      33.308  30.143  26.610  1.00  0.00     0.274 C 
ENDROOT
BRANCH   1   2
ATOM      2  O   UNL A   1      32.084  29.704  27.229  1.00  0.00    -0.462 OA
BRANCH   2   3
ATOM      3  C   UNL A   1      31.887  28.370  27.316  1.00  0.00     0.305 C 
ATOM      4  O   UNL A   1      31.028  27.827  28.000  1.00  0.00    -0.252 OA
BRANCH   3   5
ATOM      5  C   UNL A   1      32.907  27.588  26.522  1.00  0.00     0.124 C 
BRANCH   5   6
ATOM      6  C   UNL A   1      32.374  26.522  25.551  1.00  0.00     0.026 C 
BRANCH   6   7
ATOM      7  C   UNL A   1      31.849  26.959  24.147  1.00  0.00     0.032 C 
ATOM      8  C   UNL A   1      28.413  30.132  21.806  1.00  0.00     0.119 A 
ATOM      9  C   UNL A   1      27.663  29.335  22.670  1.00  0.00     0.047 A 
ATOM     10  C   UNL A   1      29.796  29.949  21.719  1.00  0.00     0.050 A 
ATOM     11  C   UNL A   1      28.298  28.351  23.430  1.00  0.00     0.016 A 
ATOM     12  C   UNL A   1      30.450  28.989  22.503  1.00  0.00    -0.033 A 
ATOM     13  C   UNL A   1      29.685  28.171  23.341  1.00  0.00     0.022 A 
ATOM     14  C   UNL A   1      31.937  28.813  22.388  1.00  0.00     0.037 C 
ATOM     15  C   UNL A   1      30.316  27.061  24.099  1.00  0.00     0.169 C 
ATOM     16  C   UNL A   1      32.506  28.276  23.695  1.00  0.00     0.020 C 
ATOM     17  O   UNL A   1      29.579  26.198  24.570  1.00  0.00    -0.294 OA
ATOM     18  C   UNL A   1      32.181  25.813  23.160  1.00  0.00     0.020 C 
BRANCH   8  19
ATOM     19  O   UNL A   1      27.898  31.066  20.952  1.00  0.00    -0.497 OA
ATOM     20  C   UNL A   1      28.025  32.420  21.369  1.00  0.00     0.278 C 
ENDBRANCH   8  19
ENDBRANCH   6   7
ENDBRANCH   5   6
ENDBRANCH   3   5
ENDBRANCH   2   3
ENDBRANCH   1   2
BRANCH   1  21
ATOM     21  C   UNL A   1      34.209  30.869  27.612  1.00  0.00     0.275 C 
BRANCH  21  22
ATOM     22  O   UNL A   1      35.305  30.027  28.009  1.00  0.00    -0.458 OA
BRANCH  22  23
ATOM     23  C   UNL A   1      36.035  30.457  29.062  1.00  0.00     0.338 C 
ATOM     24  O   UNL A   1      35.686  31.105  30.026  1.00  0.00    -0.246 OA
BRANCH  23  25
ATOM     25  C   UNL A   1      37.389  29.926  28.928  1.00  0.00     0.060 A 
ATOM     26  C   UNL A   1      38.076  29.530  30.070  1.00  0.00     0.016 A 
ATOM     27  C   UNL A   1      37.948  29.795  27.652  1.00  0.00     0.016 A 
ATOM     28  C   UNL A   1      39.370  29.047  29.936  1.00  0.00     0.010 A 
ATOM     29  C   UNL A   1      39.236  29.293  27.518  1.00  0.00     0.010 A 
ATOM     30  C   UNL A   1      39.960  28.940  28.663  1.00  0.00    -0.014 A 
BRANCH  30  31
ATOM     31  C   UNL A   1      41.350  28.456  28.568  1.00  0.00     0.031 A 
ATOM     32  C   UNL A   1      41.627  27.022  28.236  1.00  0.00     0.074 A 
ATOM     33  C   UNL A   1      42.349  29.344  28.708  1.00  0.00     0.049 A 
ATOM     34  N   UNL A   1      42.760  26.459  27.903  1.00  0.00    -0.248 NA
ATOM     35  C   UNL A   1      40.486  26.097  28.291  1.00  0.00     0.031 C 
ATOM     36  C   UNL A   1      42.176  30.752  29.074  1.00  0.00     0.029 A 
ATOM     37  N   UNL A   1      43.697  29.207  28.519  1.00  0.00    -0.354 N 
ATOM     38  C   UNL A   1      42.464  25.121  27.686  1.00  0.00     0.074 A 
ATOM     39  C   UNL A   1      41.062  24.942  27.994  1.00  0.00     0.031 C 
ATOM     40  C   UNL A   1      43.369  31.364  29.026  1.00  0.00     0.029 A 
ATOM     41  C   UNL A   1      44.385  30.388  28.647  1.00  0.00     0.049 A 
ATOM     42  H   UNL A   1      44.130  28.347  28.313  1.00  0.00     0.167 HD
ATOM     43  C   UNL A   1      43.287  24.139  27.244  1.00  0.00     0.037 A 
ATOM     44  C   UNL A   1      45.689  30.650  28.451  1.00  0.00     0.037 A 
ATOM     45  C   UNL A   1      44.687  24.333  26.969  1.00  0.00     0.049 A 
ATOM     46  C   UNL A   1      46.585  29.538  27.985  1.00  0.00     0.074 A 
ATOM     47  C   UNL A   1      45.616  23.419  26.504  1.00  0.00     0.029 A 
ATOM     48  N   UNL A   1      45.365  25.532  27.153  1.00  0.00    -0.354 N 
ATOM     49  N   UNL A   1      46.284  28.291  27.705  1.00  0.00    -0.248 NA
ATOM     50  C   UNL A   1      47.999  29.875  27.789  1.00  0.00     0.031 C 
ATOM     51  C   UNL A   1      46.865  24.052  26.458  1.00  0.00     0.029 A 
ATOM     52  C   UNL A   1      46.704  25.376  26.835  1.00  0.00     0.049 A 
ATOM     53  H   UNL A   1      44.954  26.370  27.466  1.00  0.00     0.167 HD
ATOM     54  C   UNL A   1      47.466  27.702  27.275  1.00  0.00     0.074 A 
ATOM     55  C   UNL A   1      48.478  28.739  27.307  1.00  0.00     0.031 C 
ATOM     56  C   UNL A   1      47.696  26.422  26.888  1.00  0.00     0.037 A 
BRANCH  43  57
ATOM     57  C   UNL A   1      42.682  22.776  27.055  1.00  0.00     0.057 A 
ATOM     58  C   UNL A   1      42.373  21.968  28.156  1.00  0.00     0.134 A 
ATOM     59  C   UNL A   1      42.388  22.266  25.782  1.00  0.00     0.134 A 
ATOM     60  F   UNL A   1      42.631  22.388  29.404  1.00  0.00    -0.206 F 
ATOM     61  C   UNL A   1      41.783  20.712  28.000  1.00  0.00     0.040 A 
ATOM     62  C   UNL A   1      41.771  21.024  25.614  1.00  0.00     0.040 A 
ATOM     63  F   UNL A   1      42.648  22.989  24.682  1.00  0.00    -0.206 F 
ATOM     64  C   UNL A   1      41.470  20.243  26.726  1.00  0.00     0.006 A 
ENDBRANCH  43  57
BRANCH  44  65
ATOM     65  C   UNL A   1      46.210  32.025  28.655  1.00  0.00     0.057 A 
ATOM     66  C   UNL A   1      46.251  32.948  27.603  1.00  0.00     0.134 A 
ATOM     67  C   UNL A   1      46.667  32.453  29.907  1.00  0.00     0.134 A 
ATOM     68  F   UNL A   1      45.839  32.597  26.377  1.00  0.00    -0.206 F 
ATOM     69  C   UNL A   1      46.727  34.246  27.789  1.00  0.00     0.040 A 
ATOM     70  C   UNL A   1      47.119  33.756  30.114  1.00  0.00     0.040 A 
ATOM     71  F   UNL A   1      46.642  31.618  30.957  1.00  0.00    -0.206 F 
ATOM     72  C   UNL A   1      47.153  34.657  29.051  1.00  0.00     0.006 A 
ENDBRANCH  44  65
BRANCH  56  73
ATOM     73  C   UNL A   1      49.094  26.098  26.443  1.00  0.00     0.057 A 
ATOM     74  C   UNL A   1      49.534  26.463  25.163  1.00  0.00     0.134 A 
ATOM     75  C   UNL A   1      50.012  25.448  27.279  1.00  0.00     0.134 A 
ATOM     76  F   UNL A   1      48.705  27.079  24.306  1.00  0.00    -0.206 F 
ATOM     77  C   UNL A   1      50.837  26.205  24.738  1.00  0.00     0.040 A 
ATOM     78  C   UNL A   1      51.329  25.217  26.878  1.00  0.00     0.040 A 
ATOM     79  F   UNL A   1      49.660  25.084  28.522  1.00  0.00    -0.206 F 
ATOM     80  C   UNL A   1      51.744  25.595  25.603  1.00  0.00     0.006 A 
ENDBRANCH  56  73
ENDBRANCH  30  31
ENDBRANCH  23  25
ENDBRANCH  22  23
ENDBRANCH  21  22
ENDBRANCH   1  21
TORSDOF 14
ENDMDL
