MODEL 1
REMARK VINA RESULT:      -9.9      0.000      0.000
REMARK SMILES CC[N@H+](CC(C)(C)C(=O)OCCOC(=O)c1ccc(-c2c3nc(c(-c4c(F)cccc4F)c4ccc([nH]4)c(-c4c(F)cccc4F)c4nc(c(-c5c(F)cccc5F)c5ccc2[nH]5)C=C4)C=C3)cc1)[C@H]1CC[NH2+]C1
REMARK SMILES IDX 11 1 10 2 8 3 9 4 5 5 6 6 7 7 4 8 3 9 2 11 1 12 70 13 71 14
REMARK SMILES IDX 74 15 72 16 73 17 12 20 13 21 14 22 15 23 16 24 17 25 69 26
REMARK SMILES IDX 18 27 68 28 19 29 20 30 21 31 62 32 22 33 67 34 61 35 63 36
REMARK SMILES IDX 23 37 66 38 60 39 59 40 24 42 50 43 33 44 49 45 34 46 37 47
REMARK SMILES IDX 48 48 64 49 35 50 36 51 47 53 65 54 38 55 25 56 26 57 31 58
REMARK SMILES IDX 27 59 28 60 30 61 32 62 29 63 51 64 52 65 57 66 53 67 54 68
REMARK SMILES IDX 56 69 58 70 55 71 39 72 40 73 45 74 41 75 42 76 44 77 46 78
REMARK SMILES IDX 43 79
REMARK H PARENT 3 10 73 18 73 19 63 41 37 52
REMARK Flexibility Score: inf
ROOT
ATOM      1  C   UNL A   1      31.930  31.790  27.245  1.00  0.00     0.274 C 
ENDROOT
BRANCH   1   2
ATOM      2  O   UNL A   1      32.141  30.873  26.148  1.00  0.00    -0.461 OA
BRANCH   2   3
ATOM      3  C   UNL A   1      33.017  29.868  26.424  1.00  0.00     0.317 C 
ATOM      4  O   UNL A   1      34.180  30.090  26.720  1.00  0.00    -0.251 OA
BRANCH   3   5
ATOM      5  C   UNL A   1      32.403  28.470  26.331  1.00  0.00     0.111 C 
ATOM      6  C   UNL A   1      31.465  28.181  27.509  1.00  0.00     0.029 C 
ATOM      7  C   UNL A   1      33.581  27.465  26.381  1.00  0.00     0.029 C 
BRANCH   5   8
ATOM      8  C   UNL A   1      31.652  28.243  24.965  1.00  0.00     0.280 C 
BRANCH   8   9
ATOM      9  N   UNL A   1      31.364  29.313  23.962  1.00  0.00    -0.327 N 
ATOM     10  H   UNL A   1      31.724  30.186  24.348  1.00  0.00     0.348 HD
BRANCH   9  11
ATOM     11  C   UNL A   1      32.086  29.093  22.692  1.00  0.00     0.259 C 
ATOM     12  C   UNL A   1      33.572  28.753  22.718  1.00  0.00     0.071 C 
ENDBRANCH   9  11
BRANCH   9  13
ATOM     13  C   UNL A   1      29.891  29.522  23.764  1.00  0.00     0.245 C 
ATOM     14  C   UNL A   1      29.395  30.963  23.664  1.00  0.00     0.132 C 
ATOM     15  C   UNL A   1      29.180  28.855  22.553  1.00  0.00     0.326 C 
ATOM     16  C   UNL A   1      28.041  30.873  22.991  1.00  0.00     0.267 C 
ATOM     17  N   UNL A   1      28.128  29.759  22.055  1.00  0.00    -0.341 N 
ATOM     18  H   UNL A   1      28.373  30.101  21.125  1.00  0.00     0.346 HD
ATOM     19  H   UNL A   1      27.235  29.272  21.985  1.00  0.00     0.346 HD
ENDBRANCH   9  13
ENDBRANCH   8   9
ENDBRANCH   5   8
ENDBRANCH   3   5
ENDBRANCH   2   3
ENDBRANCH   1   2
BRANCH   1  20
ATOM     20  C   UNL A   1      32.760  33.088  27.183  1.00  0.00     0.275 C 
BRANCH  20  21
ATOM     21  O   UNL A   1      32.209  34.181  27.957  1.00  0.00    -0.458 OA
BRANCH  21  22
ATOM     22  C   UNL A   1      33.118  34.969  28.586  1.00  0.00     0.338 C 
ATOM     23  O   UNL A   1      33.003  36.175  28.779  1.00  0.00    -0.246 OA
BRANCH  22  24
ATOM     24  C   UNL A   1      34.216  34.180  29.208  1.00  0.00     0.060 A 
ATOM     25  C   UNL A   1      35.515  34.473  28.777  1.00  0.00     0.016 A 
ATOM     26  C   UNL A   1      34.033  33.177  30.165  1.00  0.00     0.016 A 
ATOM     27  C   UNL A   1      36.618  33.811  29.321  1.00  0.00     0.010 A 
ATOM     28  C   UNL A   1      35.148  32.485  30.692  1.00  0.00     0.010 A 
ATOM     29  C   UNL A   1      36.454  32.809  30.287  1.00  0.00    -0.014 A 
BRANCH  29  30
ATOM     30  C   UNL A   1      37.672  32.078  30.758  1.00  0.00     0.031 A 
ATOM     31  C   UNL A   1      38.110  32.243  32.191  1.00  0.00     0.074 A 
ATOM     32  C   UNL A   1      38.305  31.164  29.994  1.00  0.00     0.049 A 
ATOM     33  N   UNL A   1      39.067  31.634  32.846  1.00  0.00    -0.248 NA
ATOM     34  C   UNL A   1      37.360  33.222  32.991  1.00  0.00     0.031 C 
ATOM     35  C   UNL A   1      37.940  30.814  28.624  1.00  0.00     0.029 A 
ATOM     36  N   UNL A   1      39.337  30.299  30.291  1.00  0.00    -0.354 N 
ATOM     37  C   UNL A   1      39.056  32.178  34.123  1.00  0.00     0.074 A 
ATOM     38  C   UNL A   1      37.966  33.132  34.164  1.00  0.00     0.031 C 
ATOM     39  C   UNL A   1      38.671  29.753  28.234  1.00  0.00     0.029 A 
ATOM     40  C   UNL A   1      39.613  29.389  29.293  1.00  0.00     0.049 A 
ATOM     41  H   UNL A   1      39.834  30.329  31.141  1.00  0.00     0.167 HD
ATOM     42  C   UNL A   1      39.901  31.947  35.156  1.00  0.00     0.037 A 
ATOM     43  C   UNL A   1      40.516  28.384  29.236  1.00  0.00     0.037 A 
ATOM     44  C   UNL A   1      41.012  31.034  35.124  1.00  0.00     0.049 A 
ATOM     45  C   UNL A   1      41.478  28.181  30.386  1.00  0.00     0.074 A 
ATOM     46  C   UNL A   1      41.967  30.808  36.101  1.00  0.00     0.029 A 
ATOM     47  N   UNL A   1      41.326  30.205  34.060  1.00  0.00    -0.354 N 
ATOM     48  N   UNL A   1      41.494  28.746  31.568  1.00  0.00    -0.248 NA
ATOM     49  C   UNL A   1      42.577  27.222  30.173  1.00  0.00     0.031 C 
ATOM     50  C   UNL A   1      42.895  29.888  35.604  1.00  0.00     0.029 A 
ATOM     51  C   UNL A   1      42.478  29.488  34.345  1.00  0.00     0.049 A 
ATOM     52  H   UNL A   1      40.808  30.135  33.225  1.00  0.00     0.167 HD
ATOM     53  C   UNL A   1      42.596  28.215  32.233  1.00  0.00     0.074 A 
ATOM     54  C   UNL A   1      43.198  27.247  31.343  1.00  0.00     0.031 C 
ATOM     55  C   UNL A   1      43.080  28.521  33.462  1.00  0.00     0.037 A 
BRANCH  42  56
ATOM     56  C   UNL A   1      39.722  32.800  36.375  1.00  0.00     0.057 A 
ATOM     57  C   UNL A   1      38.806  32.490  37.386  1.00  0.00     0.134 A 
ATOM     58  C   UNL A   1      40.487  33.965  36.527  1.00  0.00     0.134 A 
ATOM     59  F   UNL A   1      38.026  31.403  37.287  1.00  0.00    -0.206 F 
ATOM     60  C   UNL A   1      38.639  33.323  38.494  1.00  0.00     0.040 A 
ATOM     61  C   UNL A   1      40.349  34.790  37.642  1.00  0.00     0.040 A 
ATOM     62  F   UNL A   1      41.382  34.320  35.592  1.00  0.00    -0.206 F 
ATOM     63  C   UNL A   1      39.415  34.473  38.627  1.00  0.00     0.006 A 
ENDBRANCH  42  56
BRANCH  43  64
ATOM     64  C   UNL A   1      40.625  27.504  28.033  1.00  0.00     0.057 A 
ATOM     65  C   UNL A   1      40.024  26.236  28.001  1.00  0.00     0.134 A 
ATOM     66  C   UNL A   1      41.409  27.860  26.929  1.00  0.00     0.134 A 
ATOM     67  F   UNL A   1      39.292  25.809  29.040  1.00  0.00    -0.206 F 
ATOM     68  C   UNL A   1      40.222  25.352  26.936  1.00  0.00     0.040 A 
ATOM     69  C   UNL A   1      41.582  27.002  25.839  1.00  0.00     0.040 A 
ATOM     70  F   UNL A   1      42.033  29.046  26.894  1.00  0.00    -0.206 F 
ATOM     71  C   UNL A   1      40.999  25.738  25.847  1.00  0.00     0.006 A 
ENDBRANCH  43  64
BRANCH  55  72
ATOM     72  C   UNL A   1      44.316  27.806  33.934  1.00  0.00     0.057 A 
ATOM     73  C   UNL A   1      44.253  26.570  34.591  1.00  0.00     0.134 A 
ATOM     74  C   UNL A   1      45.590  28.328  33.674  1.00  0.00     0.134 A 
ATOM     75  F   UNL A   1      43.066  26.011  34.877  1.00  0.00    -0.206 F 
ATOM     76  C   UNL A   1      45.407  25.893  34.993  1.00  0.00     0.040 A 
ATOM     77  C   UNL A   1      46.752  27.647  34.045  1.00  0.00     0.040 A 
ATOM     78  F   UNL A   1      45.729  29.500  33.036  1.00  0.00    -0.206 F 
ATOM     79  C   UNL A   1      46.662  26.429  34.713  1.00  0.00     0.006 A 
ENDBRANCH  55  72
ENDBRANCH  29  30
ENDBRANCH  22  24
ENDBRANCH  21  22
ENDBRANCH  20  21
ENDBRANCH   1  20
TORSDOF 15
ENDMDL
MODEL 2
REMARK VINA RESULT:      -9.8      6.047     10.678
REMARK SMILES CC[N@H+](CC(C)(C)C(=O)OCCOC(=O)c1ccc(-c2c3nc(c(-c4c(F)cccc4F)c4ccc([nH]4)c(-c4c(F)cccc4F)c4nc(c(-c5c(F)cccc5F)c5ccc2[nH]5)C=C4)C=C3)cc1)[C@H]1CC[NH2+]C1
REMARK SMILES IDX 11 1 10 2 8 3 9 4 5 5 6 6 7 7 4 8 3 9 2 11 1 12 70 13 71 14
REMARK SMILES IDX 74 15 72 16 73 17 12 20 13 21 14 22 15 23 16 24 17 25 69 26
REMARK SMILES IDX 18 27 68 28 19 29 20 30 21 31 62 32 22 33 67 34 61 35 63 36
REMARK SMILES IDX 23 37 66 38 60 39 59 40 24 42 50 43 33 44 49 45 34 46 37 47
REMARK SMILES IDX 48 48 64 49 35 50 36 51 47 53 65 54 38 55 25 56 26 57 31 58
REMARK SMILES IDX 27 59 28 60 30 61 32 62 29 63 51 64 52 65 57 66 53 67 54 68
REMARK SMILES IDX 56 69 58 70 55 71 39 72 40 73 45 74 41 75 42 76 44 77 46 78
REMARK SMILES IDX 43 79
REMARK H PARENT 3 10 73 18 73 19 63 41 37 52
REMARK Flexibility Score: inf
ROOT
ATOM      1  C   UNL A   1      38.649  21.095  25.700  1.00  0.00     0.274 C 
ENDROOT
BRANCH   1   2
ATOM      2  O   UNL A   1      37.248  21.214  25.365  1.00  0.00    -0.461 OA
BRANCH   2   3
ATOM      3  C   UNL A   1      36.769  22.487  25.419  1.00  0.00     0.317 C 
ATOM      4  O   UNL A   1      37.196  23.302  26.222  1.00  0.00    -0.251 OA
BRANCH   3   5
ATOM      5  C   UNL A   1      35.674  22.781  24.393  1.00  0.00     0.111 C 
ATOM      6  C   UNL A   1      36.253  23.012  22.992  1.00  0.00     0.029 C 
ATOM      7  C   UNL A   1      34.970  24.081  24.856  1.00  0.00     0.029 C 
BRANCH   5   8
ATOM      8  C   UNL A   1      34.582  21.646  24.352  1.00  0.00     0.280 C 
BRANCH   8   9
ATOM      9  N   UNL A   1      34.393  20.605  25.408  1.00  0.00    -0.327 N 
ATOM     10  H   UNL A   1      35.300  20.471  25.857  1.00  0.00     0.348 HD
BRANCH   9  11
ATOM     11  C   UNL A   1      33.468  21.052  26.470  1.00  0.00     0.259 C 
ATOM     12  C   UNL A   1      34.014  21.799  27.682  1.00  0.00     0.071 C 
ENDBRANCH   9  11
BRANCH   9  13
ATOM     13  C   UNL A   1      34.014  19.274  24.830  1.00  0.00     0.245 C 
ATOM     14  C   UNL A   1      35.143  18.287  24.542  1.00  0.00     0.132 C 
ATOM     15  C   UNL A   1      32.990  18.376  25.581  1.00  0.00     0.326 C 
ATOM     16  C   UNL A   1      34.476  16.930  24.458  1.00  0.00     0.267 C 
ATOM     17  N   UNL A   1      33.371  16.964  25.409  1.00  0.00    -0.341 N 
ATOM     18  H   UNL A   1      33.666  16.570  26.303  1.00  0.00     0.346 HD
ATOM     19  H   UNL A   1      32.582  16.415  25.068  1.00  0.00     0.346 HD
ENDBRANCH   9  13
ENDBRANCH   8   9
ENDBRANCH   5   8
ENDBRANCH   3   5
ENDBRANCH   2   3
ENDBRANCH   1   2
BRANCH   1  20
ATOM     20  C   UNL A   1      39.302  19.751  25.321  1.00  0.00     0.275 C 
BRANCH  20  21
ATOM     21  O   UNL A   1      40.327  19.309  26.243  1.00  0.00    -0.458 OA
BRANCH  21  22
ATOM     22  C   UNL A   1      41.588  19.724  25.959  1.00  0.00     0.338 C 
ATOM     23  O   UNL A   1      42.367  19.165  25.195  1.00  0.00    -0.246 OA
BRANCH  22  24
ATOM     24  C   UNL A   1      41.884  21.067  26.529  1.00  0.00     0.060 A 
ATOM     25  C   UNL A   1      42.007  22.119  25.615  1.00  0.00     0.016 A 
ATOM     26  C   UNL A   1      42.058  21.334  27.891  1.00  0.00     0.016 A 
ATOM     27  C   UNL A   1      42.253  23.423  26.049  1.00  0.00     0.010 A 
ATOM     28  C   UNL A   1      42.339  22.649  28.327  1.00  0.00     0.010 A 
ATOM     29  C   UNL A   1      42.422  23.710  27.411  1.00  0.00    -0.014 A 
BRANCH  29  30
ATOM     30  C   UNL A   1      42.775  25.112  27.797  1.00  0.00     0.031 A 
ATOM     31  C   UNL A   1      44.122  25.658  27.399  1.00  0.00     0.074 A 
ATOM     32  C   UNL A   1      41.880  25.952  28.356  1.00  0.00     0.049 A 
ATOM     33  N   UNL A   1      44.604  26.869  27.533  1.00  0.00    -0.248 NA
ATOM     34  C   UNL A   1      45.044  24.711  26.756  1.00  0.00     0.031 C 
ATOM     35  C   UNL A   1      40.506  25.607  28.707  1.00  0.00     0.029 A 
ATOM     36  N   UNL A   1      41.967  27.298  28.650  1.00  0.00    -0.354 N 
ATOM     37  C   UNL A   1      45.894  26.821  27.022  1.00  0.00     0.074 A 
ATOM     38  C   UNL A   1      46.103  25.473  26.533  1.00  0.00     0.031 C 
ATOM     39  C   UNL A   1      39.855  26.725  29.080  1.00  0.00     0.029 A 
ATOM     40  C   UNL A   1      40.781  27.859  29.071  1.00  0.00     0.049 A 
ATOM     41  H   UNL A   1      42.804  27.812  28.567  1.00  0.00     0.167 HD
ATOM     42  C   UNL A   1      46.841  27.789  27.003  1.00  0.00     0.037 A 
ATOM     43  C   UNL A   1      40.475  29.131  29.411  1.00  0.00     0.037 A 
ATOM     44  C   UNL A   1      46.668  29.121  27.520  1.00  0.00     0.049 A 
ATOM     45  C   UNL A   1      41.565  30.181  29.426  1.00  0.00     0.074 A 
ATOM     46  C   UNL A   1      47.608  30.134  27.616  1.00  0.00     0.029 A 
ATOM     47  N   UNL A   1      45.486  29.624  28.035  1.00  0.00    -0.354 N 
ATOM     48  N   UNL A   1      42.800  30.105  28.995  1.00  0.00    -0.248 NA
ATOM     49  C   UNL A   1      41.222  31.488  30.014  1.00  0.00     0.031 C 
ATOM     50  C   UNL A   1      47.011  31.229  28.248  1.00  0.00     0.029 A 
ATOM     51  C   UNL A   1      45.680  30.923  28.480  1.00  0.00     0.049 A 
ATOM     52  H   UNL A   1      44.634  29.133  28.080  1.00  0.00     0.167 HD
ATOM     53  C   UNL A   1      43.376  31.344  29.262  1.00  0.00     0.074 A 
ATOM     54  C   UNL A   1      42.345  32.171  29.847  1.00  0.00     0.031 C 
ATOM     55  C   UNL A   1      44.654  31.751  29.062  1.00  0.00     0.037 A 
BRANCH  42  56
ATOM     56  C   UNL A   1      48.201  27.392  26.513  1.00  0.00     0.057 A 
ATOM     57  C   UNL A   1      49.204  26.922  27.369  1.00  0.00     0.134 A 
ATOM     58  C   UNL A   1      48.505  27.493  25.149  1.00  0.00     0.134 A 
ATOM     59  F   UNL A   1      48.982  26.827  28.689  1.00  0.00    -0.206 F 
ATOM     60  C   UNL A   1      50.471  26.590  26.886  1.00  0.00     0.040 A 
ATOM     61  C   UNL A   1      49.758  27.139  24.652  1.00  0.00     0.040 A 
ATOM     62  F   UNL A   1      47.587  27.939  24.277  1.00  0.00    -0.206 F 
ATOM     63  C   UNL A   1      50.749  26.694  25.524  1.00  0.00     0.006 A 
ENDBRANCH  42  56
BRANCH  43  64
ATOM     64  C   UNL A   1      39.092  29.513  29.830  1.00  0.00     0.057 A 
ATOM     65  C   UNL A   1      38.667  29.367  31.159  1.00  0.00     0.134 A 
ATOM     66  C   UNL A   1      38.134  29.940  28.903  1.00  0.00     0.134 A 
ATOM     67  F   UNL A   1      39.518  28.924  32.097  1.00  0.00    -0.206 F 
ATOM     68  C   UNL A   1      37.342  29.601  31.541  1.00  0.00     0.040 A 
ATOM     69  C   UNL A   1      36.816  30.216  29.278  1.00  0.00     0.040 A 
ATOM     70  F   UNL A   1      38.457  30.083  27.610  1.00  0.00    -0.206 F 
ATOM     71  C   UNL A   1      36.413  30.033  30.598  1.00  0.00     0.006 A 
ENDBRANCH  43  64
BRANCH  55  72
ATOM     72  C   UNL A   1      45.022  33.152  29.467  1.00  0.00     0.057 A 
ATOM     73  C   UNL A   1      44.869  34.240  28.597  1.00  0.00     0.134 A 
ATOM     74  C   UNL A   1      45.477  33.428  30.764  1.00  0.00     0.134 A 
ATOM     75  F   UNL A   1      44.443  34.051  27.339  1.00  0.00    -0.206 F 
ATOM     76  C   UNL A   1      45.177  35.544  28.993  1.00  0.00     0.040 A 
ATOM     77  C   UNL A   1      45.760  34.730  31.180  1.00  0.00     0.040 A 
ATOM     78  F   UNL A   1      45.634  32.438  31.655  1.00  0.00    -0.206 F 
ATOM     79  C   UNL A   1      45.617  35.793  30.291  1.00  0.00     0.006 A 
ENDBRANCH  55  72
ENDBRANCH  29  30
ENDBRANCH  22  24
ENDBRANCH  21  22
ENDBRANCH  20  21
ENDBRANCH   1  20
TORSDOF 15
ENDMDL
MODEL 3
REMARK VINA RESULT:      -9.7      5.172      9.243
REMARK SMILES CC[N@H+](CC(C)(C)C(=O)OCCOC(=O)c1ccc(-c2c3nc(c(-c4c(F)cccc4F)c4ccc([nH]4)c(-c4c(F)cccc4F)c4nc(c(-c5c(F)cccc5F)c5ccc2[nH]5)C=C4)C=C3)cc1)[C@H]1CC[NH2+]C1
REMARK SMILES IDX 11 1 10 2 8 3 9 4 5 5 6 6 7 7 4 8 3 9 2 11 1 12 70 13 71 14
REMARK SMILES IDX 74 15 72 16 73 17 12 20 13 21 14 22 15 23 16 24 17 25 69 26
REMARK SMILES IDX 18 27 68 28 19 29 20 30 21 31 62 32 22 33 67 34 61 35 63 36
REMARK SMILES IDX 23 37 66 38 60 39 59 40 24 42 50 43 33 44 49 45 34 46 37 47
REMARK SMILES IDX 48 48 64 49 35 50 36 51 47 53 65 54 38 55 25 56 26 57 31 58
REMARK SMILES IDX 27 59 28 60 30 61 32 62 29 63 51 64 52 65 57 66 53 67 54 68
REMARK SMILES IDX 56 69 58 70 55 71 39 72 40 73 45 74 41 75 42 76 44 77 46 78
REMARK SMILES IDX 43 79
REMARK H PARENT 3 10 73 18 73 19 63 41 37 52
REMARK Flexibility Score: inf
ROOT
ATOM      1  C   UNL A   1      37.406  19.814  25.001  1.00  0.00     0.274 C 
ENDROOT
BRANCH   1   2
ATOM      2  O   UNL A   1      36.715  20.904  25.653  1.00  0.00    -0.461 OA
BRANCH   2   3
ATOM      3  C   UNL A   1      35.721  21.458  24.906  1.00  0.00     0.317 C 
ATOM      4  O   UNL A   1      34.708  20.839  24.620  1.00  0.00    -0.251 OA
BRANCH   3   5
ATOM      5  C   UNL A   1      36.000  22.900  24.479  1.00  0.00     0.111 C 
ATOM      6  C   UNL A   1      36.606  22.971  23.073  1.00  0.00     0.029 C 
ATOM      7  C   UNL A   1      37.028  23.470  25.488  1.00  0.00     0.029 C 
BRANCH   5   8
ATOM      8  C   UNL A   1      34.711  23.802  24.564  1.00  0.00     0.280 C 
BRANCH   8   9
ATOM      9  N   UNL A   1      33.456  23.431  25.288  1.00  0.00    -0.327 N 
ATOM     10  H   UNL A   1      33.303  22.435  25.124  1.00  0.00     0.348 HD
BRANCH   9  11
ATOM     11  C   UNL A   1      33.589  23.594  26.750  1.00  0.00     0.259 C 
ATOM     12  C   UNL A   1      33.275  22.422  27.673  1.00  0.00     0.071 C 
ENDBRANCH   9  11
BRANCH   9  13
ATOM     13  C   UNL A   1      32.253  24.133  24.732  1.00  0.00     0.245 C 
ATOM     14  C   UNL A   1      32.457  24.997  23.490  1.00  0.00     0.132 C 
ATOM     15  C   UNL A   1      30.995  23.305  24.343  1.00  0.00     0.326 C 
ATOM     16  C   UNL A   1      31.077  25.156  22.883  1.00  0.00     0.267 C 
ATOM     17  N   UNL A   1      30.372  23.909  23.152  1.00  0.00    -0.341 N 
ATOM     18  H   UNL A   1      30.459  23.278  22.355  1.00  0.00     0.346 HD
ATOM     19  H   UNL A   1      29.379  24.080  23.311  1.00  0.00     0.346 HD
ENDBRANCH   9  13
ENDBRANCH   8   9
ENDBRANCH   5   8
ENDBRANCH   3   5
ENDBRANCH   2   3
ENDBRANCH   1   2
BRANCH   1  20
ATOM     20  C   UNL A   1      38.941  19.953  24.942  1.00  0.00     0.275 C 
BRANCH  20  21
ATOM     21  O   UNL A   1      39.615  19.610  26.177  1.00  0.00    -0.458 OA
BRANCH  21  22
ATOM     22  C   UNL A   1      40.970  19.671  26.139  1.00  0.00     0.338 C 
ATOM     23  O   UNL A   1      41.710  18.796  25.700  1.00  0.00    -0.246 OA
BRANCH  22  24
ATOM     24  C   UNL A   1      41.489  21.014  26.516  1.00  0.00     0.060 A 
ATOM     25  C   UNL A   1      41.378  21.369  27.864  1.00  0.00     0.016 A 
ATOM     26  C   UNL A   1      42.054  21.929  25.622  1.00  0.00     0.016 A 
ATOM     27  C   UNL A   1      41.862  22.594  28.326  1.00  0.00     0.010 A 
ATOM     28  C   UNL A   1      42.515  23.183  26.084  1.00  0.00     0.010 A 
ATOM     29  C   UNL A   1      42.439  23.521  27.446  1.00  0.00    -0.014 A 
BRANCH  29  30
ATOM     30  C   UNL A   1      42.852  24.851  27.993  1.00  0.00     0.031 A 
ATOM     31  C   UNL A   1      41.786  25.867  28.315  1.00  0.00     0.074 A 
ATOM     32  C   UNL A   1      44.125  25.120  28.347  1.00  0.00     0.049 A 
ATOM     33  N   UNL A   1      41.898  27.038  28.890  1.00  0.00    -0.248 NA
ATOM     34  C   UNL A   1      40.410  25.505  27.946  1.00  0.00     0.031 C 
ATOM     35  C   UNL A   1      45.253  24.206  28.196  1.00  0.00     0.029 A 
ATOM     36  N   UNL A   1      44.671  26.214  28.988  1.00  0.00    -0.354 N 
ATOM     37  C   UNL A   1      40.614  27.567  28.921  1.00  0.00     0.074 A 
ATOM     38  C   UNL A   1      39.734  26.568  28.350  1.00  0.00     0.031 C 
ATOM     39  C   UNL A   1      46.330  24.734  28.807  1.00  0.00     0.029 A 
ATOM     40  C   UNL A   1      45.997  26.060  29.330  1.00  0.00     0.049 A 
ATOM     41  H   UNL A   1      44.158  27.032  29.183  1.00  0.00     0.167 HD
ATOM     42  C   UNL A   1      40.205  28.789  29.339  1.00  0.00     0.037 A 
ATOM     43  C   UNL A   1      46.845  26.887  29.983  1.00  0.00     0.037 A 
ATOM     44  C   UNL A   1      41.067  29.810  29.871  1.00  0.00     0.049 A 
ATOM     45  C   UNL A   1      46.372  28.264  30.395  1.00  0.00     0.074 A 
ATOM     46  C   UNL A   1      40.742  31.106  30.236  1.00  0.00     0.029 A 
ATOM     47  N   UNL A   1      42.423  29.658  30.106  1.00  0.00    -0.354 N 
ATOM     48  N   UNL A   1      45.165  28.774  30.363  1.00  0.00    -0.248 NA
ATOM     49  C   UNL A   1      47.396  29.196  30.899  1.00  0.00     0.031 C 
ATOM     50  C   UNL A   1      41.913  31.758  30.632  1.00  0.00     0.029 A 
ATOM     51  C   UNL A   1      42.955  30.847  30.582  1.00  0.00     0.049 A 
ATOM     52  H   UNL A   1      42.935  28.830  29.957  1.00  0.00     0.167 HD
ATOM     53  C   UNL A   1      45.287  30.078  30.838  1.00  0.00     0.074 A 
ATOM     54  C   UNL A   1      46.674  30.267  31.197  1.00  0.00     0.031 C 
ATOM     55  C   UNL A   1      44.337  31.039  30.943  1.00  0.00     0.037 A 
BRANCH  42  56
ATOM     56  C   UNL A   1      38.763  29.130  29.112  1.00  0.00     0.057 A 
ATOM     57  C   UNL A   1      38.268  29.525  27.864  1.00  0.00     0.134 A 
ATOM     58  C   UNL A   1      37.856  29.064  30.179  1.00  0.00     0.134 A 
ATOM     59  F   UNL A   1      39.091  29.633  26.809  1.00  0.00    -0.206 F 
ATOM     60  C   UNL A   1      36.926  29.867  27.692  1.00  0.00     0.040 A 
ATOM     61  C   UNL A   1      36.508  29.377  30.013  1.00  0.00     0.040 A 
ATOM     62  F   UNL A   1      38.268  28.694  31.402  1.00  0.00    -0.206 F 
ATOM     63  C   UNL A   1      36.041  29.789  28.767  1.00  0.00     0.006 A 
ENDBRANCH  42  56
BRANCH  43  64
ATOM     64  C   UNL A   1      48.260  26.493  30.257  1.00  0.00     0.057 A 
ATOM     65  C   UNL A   1      49.274  26.711  29.311  1.00  0.00     0.134 A 
ATOM     66  C   UNL A   1      48.620  25.803  31.421  1.00  0.00     0.134 A 
ATOM     67  F   UNL A   1      48.996  27.329  28.153  1.00  0.00    -0.206 F 
ATOM     68  C   UNL A   1      50.575  26.235  29.500  1.00  0.00     0.040 A 
ATOM     69  C   UNL A   1      49.926  25.357  31.641  1.00  0.00     0.040 A 
ATOM     70  F   UNL A   1      47.703  25.537  32.362  1.00  0.00    -0.206 F 
ATOM     71  C   UNL A   1      50.905  25.561  30.672  1.00  0.00     0.006 A 
ENDBRANCH  43  64
BRANCH  55  72
ATOM     72  C   UNL A   1      44.749  32.386  31.473  1.00  0.00     0.057 A 
ATOM     73  C   UNL A   1      45.119  33.436  30.622  1.00  0.00     0.134 A 
ATOM     74  C   UNL A   1      44.717  32.655  32.848  1.00  0.00     0.134 A 
ATOM     75  F   UNL A   1      45.176  33.249  29.295  1.00  0.00    -0.206 F 
ATOM     76  C   UNL A   1      45.464  34.695  31.120  1.00  0.00     0.040 A 
ATOM     77  C   UNL A   1      45.032  33.918  33.355  1.00  0.00     0.040 A 
ATOM     78  F   UNL A   1      44.360  31.702  33.721  1.00  0.00    -0.206 F 
ATOM     79  C   UNL A   1      45.413  34.941  32.490  1.00  0.00     0.006 A 
ENDBRANCH  55  72
ENDBRANCH  29  30
ENDBRANCH  22  24
ENDBRANCH  21  22
ENDBRANCH  20  21
ENDBRANCH   1  20
TORSDOF 15
ENDMDL
