MODEL 1
REMARK VINA RESULT:     -12.7      0.000      0.000
REMARK SMILES CC(C)CCn1nc(C(=O)OCCOC(=O)c2ccc(-c3c4nc(c(-c5c(F)cccc5F)c5ccc([nH]5)c(-c5c(F)cccc5F)c5nc(c(-c6c(F)cccc6F)c6ccc3[nH]6)C=C5)C=C4)cc2)c2c1CCN(C(=O)[C@@H]1CCc3nn(C)c(=O)n3C1)C2
REMARK SMILES IDX 12 1 11 2 9 3 10 4 8 5 6 6 7 7 72 8 71 9 73 10 89 11 74 12
REMARK SMILES IDX 75 13 5 14 4 15 2 16 1 17 3 18 76 19 77 20 78 21 79 22 88 23
REMARK SMILES IDX 80 24 87 25 81 26 85 27 82 28 83 29 86 30 84 31 13 32 14 33
REMARK SMILES IDX 15 34 16 35 17 36 18 37 70 38 19 39 69 40 20 41 21 42 22 43
REMARK SMILES IDX 63 44 23 45 68 46 62 47 64 48 24 49 67 50 61 51 60 52 25 54
REMARK SMILES IDX 51 55 34 56 50 57 35 58 38 59 49 60 65 61 36 62 37 63 48 65
REMARK SMILES IDX 66 66 39 67 26 68 27 69 32 70 28 71 29 72 31 73 33 74 30 75
REMARK SMILES IDX 52 76 53 77 58 78 54 79 55 80 57 81 59 82 56 83 40 84 41 85
REMARK SMILES IDX 46 86 42 87 43 88 45 89 47 90 44 91
REMARK H PARENT 64 53 38 64
REMARK Flexibility Score: inf
ROOT
ATOM      1  C   UNL A   1      38.453  21.777  25.282  1.00  0.00     0.275 C 
ENDROOT
BRANCH   1   2
ATOM      2  O   UNL A   1      37.127  21.505  25.752  1.00  0.00    -0.457 OA
BRANCH   2   3
ATOM      3  C   UNL A   1      36.195  22.506  25.745  1.00  0.00     0.359 C 
ATOM      4  O   UNL A   1      36.416  23.654  26.127  1.00  0.00    -0.244 OA
BRANCH   3   5
ATOM      5  C   UNL A   1      34.922  22.018  25.189  1.00  0.00     0.175 A 
ATOM      6  N   UNL A   1      33.254  20.764  24.711  1.00  0.00    -0.268 N 
ATOM      7  N   UNL A   1      34.332  20.847  25.528  1.00  0.00    -0.165 NA
ATOM      8  C   UNL A   1      33.272  21.735  23.761  1.00  0.00     0.046 A 
ATOM      9  C   UNL A   1      34.147  22.697  24.209  1.00  0.00     0.028 A 
ATOM     10  C   UNL A   1      32.557  21.825  22.474  1.00  0.00     0.078 C 
ATOM     11  C   UNL A   1      34.300  24.057  23.599  1.00  0.00     0.159 C 
ATOM     12  C   UNL A   1      33.245  22.962  21.685  1.00  0.00     0.126 C 
ATOM     13  N   UNL A   1      33.359  24.196  22.469  1.00  0.00    -0.338 N 
BRANCH   6  14
ATOM     14  C   UNL A   1      32.199  19.801  24.975  1.00  0.00     0.145 C 
BRANCH  14  15
ATOM     15  C   UNL A   1      32.608  18.331  24.858  1.00  0.00     0.027 C 
BRANCH  15  16
ATOM     16  C   UNL A   1      33.297  17.982  23.529  1.00  0.00    -0.016 C 
ATOM     17  C   UNL A   1      33.917  16.586  23.579  1.00  0.00     0.007 C 
ATOM     18  C   UNL A   1      32.300  18.078  22.374  1.00  0.00     0.007 C 
ENDBRANCH  15  16
ENDBRANCH  14  15
ENDBRANCH   6  14
BRANCH  13  19
ATOM     19  C   UNL A   1      32.856  25.456  22.216  1.00  0.00     0.227 C 
ATOM     20  O   UNL A   1      33.607  26.323  21.744  1.00  0.00    -0.274 OA
BRANCH  19  21
ATOM     21  C   UNL A   1      31.409  25.915  22.513  1.00  0.00     0.099 C 
ATOM     22  C   UNL A   1      31.021  27.305  22.001  1.00  0.00     0.023 C 
ATOM     23  C   UNL A   1      30.852  25.638  23.901  1.00  0.00     0.142 C 
ATOM     24  C   UNL A   1      31.278  28.448  22.971  1.00  0.00     0.078 C 
ATOM     25  N   UNL A   1      30.945  26.782  24.777  1.00  0.00    -0.278 N 
ATOM     26  C   UNL A   1      31.224  28.051  24.417  1.00  0.00     0.133 A 
ATOM     27  C   UNL A   1      31.180  26.702  26.128  1.00  0.00     0.345 A 
ATOM     28  N   UNL A   1      31.608  28.822  25.393  1.00  0.00    -0.155 NA
ATOM     29  N   UNL A   1      31.597  27.987  26.494  1.00  0.00    -0.216 N 
ATOM     30  O   UNL A   1      31.186  25.694  26.816  1.00  0.00    -0.246 OA
ATOM     31  C   UNL A   1      32.311  28.294  27.705  1.00  0.00     0.179 C 
ENDBRANCH  19  21
ENDBRANCH  13  19
ENDBRANCH   3   5
ENDBRANCH   2   3
ENDBRANCH   1   2
BRANCH   1  32
ATOM     32  C   UNL A   1      39.466  21.419  26.355  1.00  0.00     0.275 C 
BRANCH  32  33
ATOM     33  O   UNL A   1      39.678  22.547  27.194  1.00  0.00    -0.458 OA
BRANCH  33  34
ATOM     34  C   UNL A   1      40.944  22.761  27.614  1.00  0.00     0.338 C 
ATOM     35  O   UNL A   1      41.711  21.945  28.089  1.00  0.00    -0.246 OA
BRANCH  34  36
ATOM     36  C   UNL A   1      41.184  24.207  27.582  1.00  0.00     0.060 A 
ATOM     37  C   UNL A   1      42.237  24.708  28.349  1.00  0.00     0.016 A 
ATOM     38  C   UNL A   1      40.195  25.041  27.038  1.00  0.00     0.016 A 
ATOM     39  C   UNL A   1      42.169  26.024  28.752  1.00  0.00     0.010 A 
ATOM     40  C   UNL A   1      40.116  26.341  27.457  1.00  0.00     0.010 A 
ATOM     41  C   UNL A   1      41.055  26.787  28.376  1.00  0.00    -0.014 A 
BRANCH  41  42
ATOM     42  C   UNL A   1      40.947  28.140  28.867  1.00  0.00     0.031 A 
ATOM     43  C   UNL A   1      42.009  29.012  28.327  1.00  0.00     0.074 A 
ATOM     44  C   UNL A   1      39.923  28.564  29.629  1.00  0.00     0.049 A 
ATOM     45  N   UNL A   1      43.016  29.497  28.968  1.00  0.00    -0.248 NA
ATOM     46  C   UNL A   1      42.071  29.199  26.868  1.00  0.00     0.031 C 
ATOM     47  C   UNL A   1      38.683  27.870  29.981  1.00  0.00     0.029 A 
ATOM     48  N   UNL A   1      39.759  29.785  30.200  1.00  0.00    -0.354 N 
ATOM     49  C   UNL A   1      43.726  30.239  28.033  1.00  0.00     0.074 A 
ATOM     50  C   UNL A   1      43.225  29.856  26.742  1.00  0.00     0.031 C 
ATOM     51  C   UNL A   1      37.809  28.758  30.514  1.00  0.00     0.029 A 
ATOM     52  C   UNL A   1      38.477  30.039  30.672  1.00  0.00     0.049 A 
ATOM     53  H   UNL A   1      40.491  30.439  30.274  1.00  0.00     0.167 HD
ATOM     54  C   UNL A   1      44.468  31.307  28.427  1.00  0.00     0.037 A 
ATOM     55  C   UNL A   1      38.018  31.244  31.096  1.00  0.00     0.037 A 
ATOM     56  C   UNL A   1      44.761  31.241  29.839  1.00  0.00     0.049 A 
ATOM     57  C   UNL A   1      39.205  32.080  31.421  1.00  0.00     0.074 A 
ATOM     58  C   UNL A   1      45.404  30.325  30.651  1.00  0.00     0.029 A 
ATOM     59  N   UNL A   1      44.009  32.021  30.684  1.00  0.00    -0.354 N 
ATOM     60  N   UNL A   1      40.001  31.840  32.427  1.00  0.00    -0.248 NA
ATOM     61  C   UNL A   1      39.781  32.875  30.346  1.00  0.00     0.031 C 
ATOM     62  C   UNL A   1      44.632  30.288  31.850  1.00  0.00     0.029 A 
ATOM     63  C   UNL A   1      43.613  31.233  31.734  1.00  0.00     0.049 A 
ATOM     64  H   UNL A   1      43.793  32.974  30.559  1.00  0.00     0.167 HD
ATOM     65  C   UNL A   1      41.276  32.063  31.928  1.00  0.00     0.074 A 
ATOM     66  C   UNL A   1      41.075  32.766  30.662  1.00  0.00     0.031 C 
ATOM     67  C   UNL A   1      42.358  31.399  32.432  1.00  0.00     0.037 A 
BRANCH  54  68
ATOM     68  C   UNL A   1      44.559  32.587  27.636  1.00  0.00     0.057 A 
ATOM     69  C   UNL A   1      45.672  32.790  26.803  1.00  0.00     0.134 A 
ATOM     70  C   UNL A   1      43.778  33.737  27.881  1.00  0.00     0.134 A 
ATOM     71  F   UNL A   1      46.499  31.777  26.502  1.00  0.00    -0.206 F 
ATOM     72  C   UNL A   1      46.028  34.055  26.323  1.00  0.00     0.040 A 
ATOM     73  C   UNL A   1      44.096  34.994  27.364  1.00  0.00     0.040 A 
ATOM     74  F   UNL A   1      42.729  33.741  28.710  1.00  0.00    -0.206 F 
ATOM     75  C   UNL A   1      45.245  35.164  26.612  1.00  0.00     0.006 A 
ENDBRANCH  54  68
BRANCH  55  76
ATOM     76  C   UNL A   1      36.674  31.839  30.909  1.00  0.00     0.057 A 
ATOM     77  C   UNL A   1      35.894  32.229  32.008  1.00  0.00     0.134 A 
ATOM     78  C   UNL A   1      36.248  32.309  29.654  1.00  0.00     0.134 A 
ATOM     79  F   UNL A   1      36.243  31.866  33.252  1.00  0.00    -0.206 F 
ATOM     80  C   UNL A   1      34.775  33.062  31.873  1.00  0.00     0.040 A 
ATOM     81  C   UNL A   1      35.131  33.139  29.505  1.00  0.00     0.040 A 
ATOM     82  F   UNL A   1      36.956  32.059  28.544  1.00  0.00    -0.206 F 
ATOM     83  C   UNL A   1      34.398  33.531  30.618  1.00  0.00     0.006 A 
ENDBRANCH  55  76
BRANCH  67  84
ATOM     84  C   UNL A   1      42.169  30.596  33.691  1.00  0.00     0.057 A 
ATOM     85  C   UNL A   1      41.776  29.249  33.720  1.00  0.00     0.134 A 
ATOM     86  C   UNL A   1      42.543  31.169  34.912  1.00  0.00     0.134 A 
ATOM     87  F   UNL A   1      41.495  28.582  32.594  1.00  0.00    -0.206 F 
ATOM     88  C   UNL A   1      41.718  28.522  34.914  1.00  0.00     0.040 A 
ATOM     89  C   UNL A   1      42.522  30.445  36.106  1.00  0.00     0.040 A 
ATOM     90  F   UNL A   1      42.983  32.436  34.956  1.00  0.00    -0.206 F 
ATOM     91  C   UNL A   1      42.098  29.119  36.112  1.00  0.00     0.006 A 
ENDBRANCH  67  84
ENDBRANCH  41  42
ENDBRANCH  34  36
ENDBRANCH  33  34
ENDBRANCH  32  33
ENDBRANCH   1  32
TORSDOF 16
ENDMDL
MODEL 2
REMARK VINA RESULT:     -12.7      2.742      8.479
REMARK SMILES CC(C)CCn1nc(C(=O)OCCOC(=O)c2ccc(-c3c4nc(c(-c5c(F)cccc5F)c5ccc([nH]5)c(-c5c(F)cccc5F)c5nc(c(-c6c(F)cccc6F)c6ccc3[nH]6)C=C5)C=C4)cc2)c2c1CCN(C(=O)[C@@H]1CCc3nn(C)c(=O)n3C1)C2
REMARK SMILES IDX 12 1 11 2 9 3 10 4 8 5 6 6 7 7 72 8 71 9 73 10 89 11 74 12
REMARK SMILES IDX 75 13 5 14 4 15 2 16 1 17 3 18 76 19 77 20 78 21 79 22 88 23
REMARK SMILES IDX 80 24 87 25 81 26 85 27 82 28 83 29 86 30 84 31 13 32 14 33
REMARK SMILES IDX 15 34 16 35 17 36 18 37 70 38 19 39 69 40 20 41 21 42 22 43
REMARK SMILES IDX 63 44 23 45 68 46 62 47 64 48 24 49 67 50 61 51 60 52 25 54
REMARK SMILES IDX 51 55 34 56 50 57 35 58 38 59 49 60 65 61 36 62 37 63 48 65
REMARK SMILES IDX 66 66 39 67 26 68 27 69 32 70 28 71 29 72 31 73 33 74 30 75
REMARK SMILES IDX 52 76 53 77 58 78 54 79 55 80 57 81 59 82 56 83 40 84 41 85
REMARK SMILES IDX 46 86 42 87 43 88 45 89 47 90 44 91
REMARK H PARENT 64 53 38 64
REMARK Flexibility Score: inf
ROOT
ATOM      1  C   UNL A   1      32.432  31.353  26.872  1.00  0.00     0.275 C 
ENDROOT
BRANCH   1   2
ATOM      2  O   UNL A   1      32.699  29.980  27.182  1.00  0.00    -0.457 OA
BRANCH   2   3
ATOM      3  C   UNL A   1      33.327  29.194  26.255  1.00  0.00     0.359 C 
ATOM      4  O   UNL A   1      34.535  28.965  26.255  1.00  0.00    -0.244 OA
BRANCH   3   5
ATOM      5  C   UNL A   1      32.350  28.646  25.300  1.00  0.00     0.175 A 
ATOM      6  N   UNL A   1      30.878  28.490  23.754  1.00  0.00    -0.268 N 
ATOM      7  N   UNL A   1      31.761  29.355  24.308  1.00  0.00    -0.165 NA
ATOM      8  C   UNL A   1      30.765  27.353  24.489  1.00  0.00     0.046 A 
ATOM      9  C   UNL A   1      31.876  27.305  25.298  1.00  0.00     0.028 A 
ATOM     10  C   UNL A   1      29.705  26.328  24.506  1.00  0.00     0.078 C 
ATOM     11  C   UNL A   1      32.290  26.111  26.103  1.00  0.00     0.159 C 
ATOM     12  C   UNL A   1      29.951  25.484  25.776  1.00  0.00     0.126 C 
ATOM     13  N   UNL A   1      31.335  25.009  25.872  1.00  0.00    -0.338 N 
BRANCH   6  14
ATOM     14  C   UNL A   1      30.269  28.778  22.467  1.00  0.00     0.145 C 
BRANCH  14  15
ATOM     15  C   UNL A   1      29.464  30.078  22.398  1.00  0.00     0.027 C 
BRANCH  15  16
ATOM     16  C   UNL A   1      28.314  30.151  23.415  1.00  0.00    -0.016 C 
ATOM     17  C   UNL A   1      27.653  31.528  23.402  1.00  0.00     0.007 C 
ATOM     18  C   UNL A   1      27.280  29.063  23.126  1.00  0.00     0.007 C 
ENDBRANCH  15  16
ENDBRANCH  14  15
ENDBRANCH   6  14
BRANCH  13  19
ATOM     19  C   UNL A   1      31.827  23.721  25.933  1.00  0.00     0.227 C 
ATOM     20  O   UNL A   1      32.220  23.276  27.023  1.00  0.00    -0.274 OA
BRANCH  19  21
ATOM     21  C   UNL A   1      31.977  22.765  24.727  1.00  0.00     0.099 C 
ATOM     22  C   UNL A   1      31.778  21.274  25.016  1.00  0.00     0.023 C 
ATOM     23  C   UNL A   1      33.130  23.015  23.767  1.00  0.00     0.142 C 
ATOM     24  C   UNL A   1      33.038  20.516  25.407  1.00  0.00     0.078 C 
ATOM     25  N   UNL A   1      34.272  22.174  24.037  1.00  0.00    -0.278 N 
ATOM     26  C   UNL A   1      34.302  21.091  24.840  1.00  0.00     0.133 A 
ATOM     27  C   UNL A   1      35.577  22.567  23.867  1.00  0.00     0.345 A 
ATOM     28  N   UNL A   1      35.494  20.720  25.208  1.00  0.00    -0.155 NA
ATOM     29  N   UNL A   1      36.326  21.647  24.610  1.00  0.00    -0.216 N 
ATOM     30  O   UNL A   1      35.974  23.587  23.329  1.00  0.00    -0.246 OA
ATOM     31  C   UNL A   1      37.679  21.867  25.046  1.00  0.00     0.179 C 
ENDBRANCH  19  21
ENDBRANCH  13  19
ENDBRANCH   3   5
ENDBRANCH   2   3
ENDBRANCH   1   2
BRANCH   1  32
ATOM     32  C   UNL A   1      33.230  32.257  27.796  1.00  0.00     0.275 C 
BRANCH  32  33
ATOM     33  O   UNL A   1      34.370  31.552  28.270  1.00  0.00    -0.458 OA
BRANCH  33  34
ATOM     34  C   UNL A   1      35.546  32.217  28.251  1.00  0.00     0.338 C 
ATOM     35  O   UNL A   1      35.814  33.224  27.621  1.00  0.00    -0.246 OA
BRANCH  34  36
ATOM     36  C   UNL A   1      36.527  31.407  28.979  1.00  0.00     0.060 A 
ATOM     37  C   UNL A   1      37.709  32.027  29.384  1.00  0.00     0.016 A 
ATOM     38  C   UNL A   1      36.378  30.012  28.980  1.00  0.00     0.016 A 
ATOM     39  C   UNL A   1      38.818  31.232  29.578  1.00  0.00     0.010 A 
ATOM     40  C   UNL A   1      37.484  29.224  29.151  1.00  0.00     0.010 A 
ATOM     41  C   UNL A   1      38.704  29.852  29.361  1.00  0.00    -0.014 A 
BRANCH  41  42
ATOM     42  C   UNL A   1      39.885  29.033  29.487  1.00  0.00     0.031 A 
ATOM     43  C   UNL A   1      40.268  28.824  30.897  1.00  0.00     0.074 A 
ATOM     44  C   UNL A   1      40.481  28.439  28.437  1.00  0.00     0.049 A 
ATOM     45  N   UNL A   1      41.283  29.330  31.509  1.00  0.00    -0.248 NA
ATOM     46  C   UNL A   1      39.305  28.144  31.780  1.00  0.00     0.031 C 
ATOM     47  C   UNL A   1      40.026  28.342  27.049  1.00  0.00     0.029 A 
ATOM     48  N   UNL A   1      41.627  27.712  28.432  1.00  0.00    -0.354 N 
ATOM     49  C   UNL A   1      41.208  28.849  32.809  1.00  0.00     0.074 A 
ATOM     50  C   UNL A   1      39.886  28.308  32.969  1.00  0.00     0.031 C 
ATOM     51  C   UNL A   1      40.773  27.418  26.397  1.00  0.00     0.029 A 
ATOM     52  C   UNL A   1      41.841  26.971  27.275  1.00  0.00     0.049 A 
ATOM     53  H   UNL A   1      42.259  27.710  29.186  1.00  0.00     0.167 HD
ATOM     54  C   UNL A   1      42.337  28.690  33.548  1.00  0.00     0.037 A 
ATOM     55  C   UNL A   1      42.799  26.023  27.113  1.00  0.00     0.037 A 
ATOM     56  C   UNL A   1      43.423  29.473  33.007  1.00  0.00     0.049 A 
ATOM     57  C   UNL A   1      43.836  26.261  28.152  1.00  0.00     0.074 A 
ATOM     58  C   UNL A   1      43.613  30.820  32.762  1.00  0.00     0.029 A 
ATOM     59  N   UNL A   1      44.365  28.822  32.249  1.00  0.00    -0.354 N 
ATOM     60  N   UNL A   1      44.626  27.299  28.157  1.00  0.00    -0.248 NA
ATOM     61  C   UNL A   1      43.658  25.607  29.441  1.00  0.00     0.031 C 
ATOM     62  C   UNL A   1      44.309  30.875  31.518  1.00  0.00     0.029 A 
ATOM     63  C   UNL A   1      44.571  29.566  31.115  1.00  0.00     0.049 A 
ATOM     64  H   UNL A   1      44.812  27.974  32.477  1.00  0.00     0.167 HD
ATOM     65  C   UNL A   1      44.688  27.690  29.486  1.00  0.00     0.074 A 
ATOM     66  C   UNL A   1      44.127  26.569  30.241  1.00  0.00     0.031 C 
ATOM     67  C   UNL A   1      44.905  28.993  29.831  1.00  0.00     0.037 A 
BRANCH  54  68
ATOM     68  C   UNL A   1      42.559  27.525  34.478  1.00  0.00     0.057 A 
ATOM     69  C   UNL A   1      42.426  27.729  35.862  1.00  0.00     0.134 A 
ATOM     70  C   UNL A   1      43.183  26.313  34.110  1.00  0.00     0.134 A 
ATOM     71  F   UNL A   1      41.859  28.847  36.340  1.00  0.00    -0.206 F 
ATOM     72  C   UNL A   1      42.951  26.838  36.805  1.00  0.00     0.040 A 
ATOM     73  C   UNL A   1      43.664  25.394  35.043  1.00  0.00     0.040 A 
ATOM     74  F   UNL A   1      43.458  25.993  32.841  1.00  0.00    -0.206 F 
ATOM     75  C   UNL A   1      43.582  25.671  36.396  1.00  0.00     0.006 A 
ENDBRANCH  54  68
BRANCH  55  76
ATOM     76  C   UNL A   1      42.714  24.741  26.374  1.00  0.00     0.057 A 
ATOM     77  C   UNL A   1      43.652  24.413  25.383  1.00  0.00     0.134 A 
ATOM     78  C   UNL A   1      41.898  23.688  26.823  1.00  0.00     0.134 A 
ATOM     79  F   UNL A   1      44.506  25.338  24.921  1.00  0.00    -0.206 F 
ATOM     80  C   UNL A   1      43.791  23.108  24.889  1.00  0.00     0.040 A 
ATOM     81  C   UNL A   1      42.024  22.383  26.335  1.00  0.00     0.040 A 
ATOM     82  F   UNL A   1      41.017  23.870  27.815  1.00  0.00    -0.206 F 
ATOM     83  C   UNL A   1      42.983  22.084  25.375  1.00  0.00     0.006 A 
ENDBRANCH  55  76
BRANCH  67  84
ATOM     84  C   UNL A   1      45.307  29.952  28.742  1.00  0.00     0.057 A 
ATOM     85  C   UNL A   1      46.623  30.124  28.283  1.00  0.00     0.134 A 
ATOM     86  C   UNL A   1      44.301  30.618  28.033  1.00  0.00     0.134 A 
ATOM     87  F   UNL A   1      47.643  29.453  28.831  1.00  0.00    -0.206 F 
ATOM     88  C   UNL A   1      46.924  30.953  27.197  1.00  0.00     0.040 A 
ATOM     89  C   UNL A   1      44.585  31.422  26.927  1.00  0.00     0.040 A 
ATOM     90  F   UNL A   1      43.014  30.459  28.379  1.00  0.00    -0.206 F 
ATOM     91  C   UNL A   1      45.901  31.601  26.511  1.00  0.00     0.006 A 
ENDBRANCH  67  84
ENDBRANCH  41  42
ENDBRANCH  34  36
ENDBRANCH  33  34
ENDBRANCH  32  33
ENDBRANCH   1  32
TORSDOF 16
ENDMDL
MODEL 3
REMARK VINA RESULT:     -12.5      2.694      8.465
REMARK SMILES CC(C)CCn1nc(C(=O)OCCOC(=O)c2ccc(-c3c4nc(c(-c5c(F)cccc5F)c5ccc([nH]5)c(-c5c(F)cccc5F)c5nc(c(-c6c(F)cccc6F)c6ccc3[nH]6)C=C5)C=C4)cc2)c2c1CCN(C(=O)[C@@H]1CCc3nn(C)c(=O)n3C1)C2
REMARK SMILES IDX 12 1 11 2 9 3 10 4 8 5 6 6 7 7 72 8 71 9 73 10 89 11 74 12
REMARK SMILES IDX 75 13 5 14 4 15 2 16 1 17 3 18 76 19 77 20 78 21 79 22 88 23
REMARK SMILES IDX 80 24 87 25 81 26 85 27 82 28 83 29 86 30 84 31 13 32 14 33
REMARK SMILES IDX 15 34 16 35 17 36 18 37 70 38 19 39 69 40 20 41 21 42 22 43
REMARK SMILES IDX 63 44 23 45 68 46 62 47 64 48 24 49 67 50 61 51 60 52 25 54
REMARK SMILES IDX 51 55 34 56 50 57 35 58 38 59 49 60 65 61 36 62 37 63 48 65
REMARK SMILES IDX 66 66 39 67 26 68 27 69 32 70 28 71 29 72 31 73 33 74 30 75
REMARK SMILES IDX 52 76 53 77 58 78 54 79 55 80 57 81 59 82 56 83 40 84 41 85
REMARK SMILES IDX 46 86 42 87 43 88 45 89 47 90 44 91
REMARK H PARENT 64 53 38 64
REMARK Flexibility Score: inf
ROOT
ATOM      1  C   UNL A   1      32.381  30.998  26.943  1.00  0.00     0.275 C 
ENDROOT
BRANCH   1   2
ATOM      2  O   UNL A   1      32.751  29.633  27.172  1.00  0.00    -0.457 OA
BRANCH   2   3
ATOM      3  C   UNL A   1      31.836  28.643  26.940  1.00  0.00     0.359 C 
ATOM      4  O   UNL A   1      31.252  28.025  27.828  1.00  0.00    -0.244 OA
BRANCH   3   5
ATOM      5  C   UNL A   1      31.635  28.459  25.493  1.00  0.00     0.175 A 
ATOM      6  N   UNL A   1      30.906  28.680  23.493  1.00  0.00    -0.268 N 
ATOM      7  N   UNL A   1      30.894  29.277  24.708  1.00  0.00    -0.165 NA
ATOM      8  C   UNL A   1      31.457  27.440  23.552  1.00  0.00     0.046 A 
ATOM      9  C   UNL A   1      32.174  27.392  24.724  1.00  0.00     0.028 A 
ATOM     10  C   UNL A   1      31.355  26.304  22.617  1.00  0.00     0.078 C 
ATOM     11  C   UNL A   1      33.137  26.303  25.087  1.00  0.00     0.159 C 
ATOM     12  C   UNL A   1      31.888  25.073  23.384  1.00  0.00     0.126 C 
ATOM     13  N   UNL A   1      33.202  25.319  23.988  1.00  0.00    -0.338 N 
BRANCH   6  14
ATOM     14  C   UNL A   1      30.476  29.404  22.309  1.00  0.00     0.145 C 
BRANCH  14  15
ATOM     15  C   UNL A   1      28.974  29.686  22.221  1.00  0.00     0.027 C 
BRANCH  15  16
ATOM     16  C   UNL A   1      28.622  31.182  22.227  1.00  0.00    -0.016 C 
ATOM     17  C   UNL A   1      28.050  31.619  20.879  1.00  0.00     0.007 C 
ATOM     18  C   UNL A   1      27.629  31.489  23.348  1.00  0.00     0.007 C 
ENDBRANCH  15  16
ENDBRANCH  14  15
ENDBRANCH   6  14
BRANCH  13  19
ATOM     19  C   UNL A   1      34.404  24.671  23.788  1.00  0.00     0.227 C 
ATOM     20  O   UNL A   1      34.806  24.489  22.628  1.00  0.00    -0.274 OA
BRANCH  19  21
ATOM     21  C   UNL A   1      35.305  24.099  24.906  1.00  0.00     0.099 C 
ATOM     22  C   UNL A   1      36.584  23.390  24.450  1.00  0.00     0.023 C 
ATOM     23  C   UNL A   1      34.626  23.372  26.057  1.00  0.00     0.142 C 
ATOM     24  C   UNL A   1      36.441  21.897  24.194  1.00  0.00     0.078 C 
ATOM     25  N   UNL A   1      34.637  21.937  25.895  1.00  0.00    -0.278 N 
ATOM     26  C   UNL A   1      35.370  21.234  25.008  1.00  0.00     0.133 A 
ATOM     27  C   UNL A   1      33.625  21.106  26.307  1.00  0.00     0.345 A 
ATOM     28  N   UNL A   1      34.953  20.018  24.801  1.00  0.00    -0.155 NA
ATOM     29  N   UNL A   1      33.837  19.911  25.609  1.00  0.00    -0.216 N 
ATOM     30  O   UNL A   1      32.662  21.404  26.996  1.00  0.00    -0.246 OA
ATOM     31  C   UNL A   1      32.838  18.895  25.417  1.00  0.00     0.179 C 
ENDBRANCH  19  21
ENDBRANCH  13  19
ENDBRANCH   3   5
ENDBRANCH   2   3
ENDBRANCH   1   2
BRANCH   1  32
ATOM     32  C   UNL A   1      33.350  31.924  27.658  1.00  0.00     0.275 C 
BRANCH  32  33
ATOM     33  O   UNL A   1      34.612  31.282  27.772  1.00  0.00    -0.458 OA
BRANCH  33  34
ATOM     34  C   UNL A   1      35.676  32.075  28.029  1.00  0.00     0.338 C 
ATOM     35  O   UNL A   1      35.886  33.191  27.591  1.00  0.00    -0.246 OA
BRANCH  34  36
ATOM     36  C   UNL A   1      36.650  31.283  28.785  1.00  0.00     0.060 A 
ATOM     37  C   UNL A   1      37.787  31.935  29.262  1.00  0.00     0.016 A 
ATOM     38  C   UNL A   1      36.553  29.883  28.745  1.00  0.00     0.016 A 
ATOM     39  C   UNL A   1      38.914  31.175  29.492  1.00  0.00     0.010 A 
ATOM     40  C   UNL A   1      37.678  29.132  28.952  1.00  0.00     0.010 A 
ATOM     41  C   UNL A   1      38.862  29.798  29.237  1.00  0.00    -0.014 A 
BRANCH  41  42
ATOM     42  C   UNL A   1      40.066  29.019  29.401  1.00  0.00     0.031 A 
ATOM     43  C   UNL A   1      40.469  28.914  30.818  1.00  0.00     0.074 A 
ATOM     44  C   UNL A   1      40.665  28.372  28.386  1.00  0.00     0.049 A 
ATOM     45  N   UNL A   1      41.478  29.485  31.382  1.00  0.00    -0.248 NA
ATOM     46  C   UNL A   1      39.534  28.271  31.756  1.00  0.00     0.031 C 
ATOM     47  C   UNL A   1      40.197  28.171  27.013  1.00  0.00     0.029 A 
ATOM     48  N   UNL A   1      41.830  27.675  28.414  1.00  0.00    -0.354 N 
ATOM     49  C   UNL A   1      41.429  29.090  32.712  1.00  0.00     0.074 A 
ATOM     50  C   UNL A   1      40.124  28.527  32.924  1.00  0.00     0.031 C 
ATOM     51  C   UNL A   1      40.960  27.225  26.414  1.00  0.00     0.029 A 
ATOM     52  C   UNL A   1      42.049  26.865  27.307  1.00  0.00     0.049 A 
ATOM     53  H   UNL A   1      42.470  27.739  29.159  1.00  0.00     0.167 HD
ATOM     54  C   UNL A   1      42.571  29.009  33.444  1.00  0.00     0.037 A 
ATOM     55  C   UNL A   1      43.030  25.932  27.195  1.00  0.00     0.037 A 
ATOM     56  C   UNL A   1      43.630  29.782  32.839  1.00  0.00     0.049 A 
ATOM     57  C   UNL A   1      44.072  26.264  28.202  1.00  0.00     0.074 A 
ATOM     58  C   UNL A   1      43.782  31.114  32.503  1.00  0.00     0.029 A 
ATOM     59  N   UNL A   1      44.580  29.105  32.113  1.00  0.00    -0.354 N 
ATOM     60  N   UNL A   1      44.835  27.320  28.128  1.00  0.00    -0.248 NA
ATOM     61  C   UNL A   1      43.925  25.693  29.534  1.00  0.00     0.031 C 
ATOM     62  C   UNL A   1      44.463  31.103  31.249  1.00  0.00     0.029 A 
ATOM     63  C   UNL A   1      44.754  29.777  30.930  1.00  0.00     0.049 A 
ATOM     64  H   UNL A   1      45.051  28.286  32.392  1.00  0.00     0.167 HD
ATOM     65  C   UNL A   1      44.901  27.800  29.428  1.00  0.00     0.074 A 
ATOM     66  C   UNL A   1      44.378  26.718  30.262  1.00  0.00     0.031 C 
ATOM     67  C   UNL A   1      45.089  29.128  29.683  1.00  0.00     0.037 A 
BRANCH  54  68
ATOM     68  C   UNL A   1      42.834  27.915  34.447  1.00  0.00     0.057 A 
ATOM     69  C   UNL A   1      43.053  26.607  33.980  1.00  0.00     0.134 A 
ATOM     70  C   UNL A   1      42.585  28.021  35.833  1.00  0.00     0.134 A 
ATOM     71  F   UNL A   1      43.291  26.372  32.681  1.00  0.00    -0.206 F 
ATOM     72  C   UNL A   1      42.945  25.487  34.812  1.00  0.00     0.040 A 
ATOM     73  C   UNL A   1      42.527  26.914  36.680  1.00  0.00     0.040 A 
ATOM     74  F   UNL A   1      42.283  29.178  36.431  1.00  0.00    -0.206 F 
ATOM     75  C   UNL A   1      42.671  25.637  36.165  1.00  0.00     0.006 A 
ENDBRANCH  54  68
BRANCH  55  76
ATOM     76  C   UNL A   1      42.970  24.602  26.544  1.00  0.00     0.057 A 
ATOM     77  C   UNL A   1      43.780  24.300  25.438  1.00  0.00     0.134 A 
ATOM     78  C   UNL A   1      42.344  23.508  27.166  1.00  0.00     0.134 A 
ATOM     79  F   UNL A   1      44.454  25.270  24.804  1.00  0.00    -0.206 F 
ATOM     80  C   UNL A   1      43.979  22.985  24.996  1.00  0.00     0.040 A 
ATOM     81  C   UNL A   1      42.531  22.191  26.732  1.00  0.00     0.040 A 
ATOM     82  F   UNL A   1      41.606  23.670  28.272  1.00  0.00    -0.206 F 
ATOM     83  C   UNL A   1      43.363  21.923  25.651  1.00  0.00     0.006 A 
ENDBRANCH  55  76
BRANCH  67  84
ATOM     84  C   UNL A   1      45.454  30.023  28.528  1.00  0.00     0.057 A 
ATOM     85  C   UNL A   1      44.521  30.681  27.711  1.00  0.00     0.134 A 
ATOM     86  C   UNL A   1      46.801  30.346  28.332  1.00  0.00     0.134 A 
ATOM     87  F   UNL A   1      43.205  30.517  27.886  1.00  0.00    -0.206 F 
ATOM     88  C   UNL A   1      44.917  31.584  26.717  1.00  0.00     0.040 A 
ATOM     89  C   UNL A   1      47.206  31.269  27.367  1.00  0.00     0.040 A 
ATOM     90  F   UNL A   1      47.746  29.798  29.112  1.00  0.00    -0.206 F 
ATOM     91  C   UNL A   1      46.265  31.885  26.547  1.00  0.00     0.006 A 
ENDBRANCH  67  84
ENDBRANCH  41  42
ENDBRANCH  34  36
ENDBRANCH  33  34
ENDBRANCH  32  33
ENDBRANCH   1  32
TORSDOF 16
ENDMDL
