MODEL 1
REMARK VINA RESULT:     -11.5      0.000      0.000
REMARK SMILES C#Cc1cccc(NS(=O)(=O)c2cc(C)c(C(=O)OCCOC(=O)c3ccc(-c4c5nc(c(-c6c(F)cccc6F)c6ccc([nH]6)c(-c6c(F)cccc6F)c6nc(c(-c7c(F)cccc7F)c7ccc4[nH]7)C=C6)C=C5)cc3)s2)c1
REMARK SMILES IDX 20 1 19 2 17 3 18 4 16 5 12 6 13 7 79 8 14 9 15 10 9 11
REMARK SMILES IDX 10 12 11 13 8 14 7 16 3 17 4 18 80 19 5 20 6 21 2 22 1 23
REMARK SMILES IDX 21 24 22 25 23 26 24 27 25 28 26 29 78 30 27 31 77 32 28 33
REMARK SMILES IDX 29 34 30 35 71 36 31 37 76 38 70 39 72 40 32 41 75 42 69 43
REMARK SMILES IDX 68 44 33 46 59 47 42 48 58 49 43 50 46 51 57 52 73 53 44 54
REMARK SMILES IDX 45 55 56 57 74 58 47 59 34 60 35 61 40 62 36 63 37 64 39 65
REMARK SMILES IDX 41 66 38 67 60 68 61 69 66 70 62 71 63 72 65 73 67 74 64 75
REMARK SMILES IDX 48 76 49 77 54 78 50 79 51 80 53 81 55 82 52 83
REMARK H PARENT 8 15 72 45 46 56
REMARK Flexibility Score: inf
ROOT
ATOM      1  C   UNL A   1      42.457  21.274  26.125  1.00  0.00     0.275 C 
ENDROOT
BRANCH   1   2
ATOM      2  O   UNL A   1      41.093  21.512  25.716  1.00  0.00    -0.458 OA
BRANCH   2   3
ATOM      3  C   UNL A   1      40.181  21.715  26.713  1.00  0.00     0.348 C 
ATOM      4  O   UNL A   1      40.408  21.481  27.896  1.00  0.00    -0.245 OA
BRANCH   3   5
ATOM      5  C   UNL A   1      38.922  22.235  26.189  1.00  0.00     0.116 A 
ATOM      6  C   UNL A   1      36.644  22.352  25.186  1.00  0.00     0.141 A 
ATOM      7  C   UNL A   1      37.236  23.589  25.340  1.00  0.00     0.038 A 
ATOM      8  S   UNL A   1      37.844  21.156  25.376  1.00  0.00    -0.115 S 
ATOM      9  C   UNL A   1      38.386  23.515  26.204  1.00  0.00    -0.024 A 
ATOM     10  C   UNL A   1      38.893  24.692  26.968  1.00  0.00     0.046 C 
BRANCH   6  11
ATOM     11  S   UNL A   1      34.995  21.770  24.818  1.00  0.00     0.271 S 
ATOM     12  O   UNL A   1      35.094  20.326  24.832  1.00  0.00    -0.200 OA
ATOM     13  O   UNL A   1      34.604  22.487  23.623  1.00  0.00    -0.200 OA
BRANCH  11  14
ATOM     14  N   UNL A   1      33.837  22.179  25.987  1.00  0.00    -0.279 N 
ATOM     15  H   UNL A   1      33.724  21.581  26.762  1.00  0.00     0.180 HD
BRANCH  14  16
ATOM     16  C   UNL A   1      33.021  23.343  25.907  1.00  0.00     0.050 A 
ATOM     17  C   UNL A   1      32.826  25.746  26.124  1.00  0.00     0.026 A 
ATOM     18  C   UNL A   1      31.437  25.634  26.082  1.00  0.00     0.017 A 
ATOM     19  C   UNL A   1      33.621  24.596  26.070  1.00  0.00     0.044 A 
ATOM     20  C   UNL A   1      30.855  24.408  25.786  1.00  0.00     0.003 A 
ATOM     21  C   UNL A   1      31.660  23.281  25.607  1.00  0.00     0.027 A 
BRANCH  17  22
ATOM     22  C   UNL A   1      33.396  27.055  26.120  1.00  0.00    -0.070 C 
ATOM     23  C   UNL A   1      33.829  28.167  26.283  1.00  0.00     0.010 C 
ENDBRANCH  17  22
ENDBRANCH  14  16
ENDBRANCH  11  14
ENDBRANCH   6  11
ENDBRANCH   3   5
ENDBRANCH   2   3
ENDBRANCH   1   2
BRANCH   1  24
ATOM     24  C   UNL A   1      43.480  21.945  25.201  1.00  0.00     0.275 C 
BRANCH  24  25
ATOM     25  O   UNL A   1      43.021  23.226  24.738  1.00  0.00    -0.458 OA
BRANCH  25  26
ATOM     26  C   UNL A   1      43.794  24.263  25.125  1.00  0.00     0.338 C 
ATOM     27  O   UNL A   1      44.849  24.625  24.628  1.00  0.00    -0.246 OA
BRANCH  26  28
ATOM     28  C   UNL A   1      43.109  25.050  26.156  1.00  0.00     0.060 A 
ATOM     29  C   UNL A   1      43.214  26.430  26.053  1.00  0.00     0.016 A 
ATOM     30  C   UNL A   1      42.527  24.476  27.280  1.00  0.00     0.016 A 
ATOM     31  C   UNL A   1      42.841  27.257  27.095  1.00  0.00     0.010 A 
ATOM     32  C   UNL A   1      42.055  25.315  28.298  1.00  0.00     0.010 A 
ATOM     33  C   UNL A   1      42.233  26.713  28.225  1.00  0.00    -0.014 A 
BRANCH  33  34
ATOM     34  C   UNL A   1      41.824  27.617  29.327  1.00  0.00     0.031 A 
ATOM     35  C   UNL A   1      42.591  27.620  30.618  1.00  0.00     0.074 A 
ATOM     36  C   UNL A   1      40.787  28.461  29.152  1.00  0.00     0.049 A 
ATOM     37  N   UNL A   1      42.305  28.213  31.748  1.00  0.00    -0.248 NA
ATOM     38  C   UNL A   1      43.834  26.835  30.648  1.00  0.00     0.031 C 
ATOM     39  C   UNL A   1      40.011  28.609  27.917  1.00  0.00     0.029 A 
ATOM     40  N   UNL A   1      40.208  29.359  30.013  1.00  0.00    -0.354 N 
ATOM     41  C   UNL A   1      43.306  27.839  32.634  1.00  0.00     0.074 A 
ATOM     42  C   UNL A   1      44.191  26.945  31.920  1.00  0.00     0.031 C 
ATOM     43  C   UNL A   1      39.077  29.554  28.092  1.00  0.00     0.029 A 
ATOM     44  C   UNL A   1      39.123  30.008  29.476  1.00  0.00     0.049 A 
ATOM     45  H   UNL A   1      40.538  29.523  30.926  1.00  0.00     0.167 HD
ATOM     46  C   UNL A   1      43.467  28.210  33.926  1.00  0.00     0.037 A 
ATOM     47  C   UNL A   1      38.227  30.834  30.046  1.00  0.00     0.037 A 
ATOM     48  C   UNL A   1      42.588  29.123  34.613  1.00  0.00     0.049 A 
ATOM     49  C   UNL A   1      38.377  31.162  31.504  1.00  0.00     0.074 A 
ATOM     50  C   UNL A   1      42.663  29.576  35.918  1.00  0.00     0.029 A 
ATOM     51  N   UNL A   1      41.472  29.723  34.045  1.00  0.00    -0.354 N 
ATOM     52  N   UNL A   1      39.306  30.778  32.346  1.00  0.00    -0.248 NA
ATOM     53  C   UNL A   1      37.351  32.031  32.093  1.00  0.00     0.031 C 
ATOM     54  C   UNL A   1      41.553  30.389  36.162  1.00  0.00     0.029 A 
ATOM     55  C   UNL A   1      40.830  30.513  34.985  1.00  0.00     0.049 A 
ATOM     56  H   UNL A   1      41.179  29.605  33.112  1.00  0.00     0.167 HD
ATOM     57  C   UNL A   1      38.995  31.384  33.556  1.00  0.00     0.074 A 
ATOM     58  C   UNL A   1      37.801  32.171  33.331  1.00  0.00     0.031 C 
ATOM     59  C   UNL A   1      39.644  31.297  34.744  1.00  0.00     0.037 A 
BRANCH  46  60
ATOM     60  C   UNL A   1      44.601  27.588  34.693  1.00  0.00     0.057 A 
ATOM     61  C   UNL A   1      45.867  28.182  34.781  1.00  0.00     0.134 A 
ATOM     62  C   UNL A   1      44.413  26.374  35.367  1.00  0.00     0.134 A 
ATOM     63  F   UNL A   1      46.122  29.338  34.151  1.00  0.00    -0.206 F 
ATOM     64  C   UNL A   1      46.913  27.573  35.479  1.00  0.00     0.040 A 
ATOM     65  C   UNL A   1      45.441  25.774  36.098  1.00  0.00     0.040 A 
ATOM     66  F   UNL A   1      43.225  25.751  35.334  1.00  0.00    -0.206 F 
ATOM     67  C   UNL A   1      46.699  26.369  36.146  1.00  0.00     0.006 A 
ENDBRANCH  46  60
BRANCH  47  68
ATOM     68  C   UNL A   1      37.090  31.365  29.250  1.00  0.00     0.057 A 
ATOM     69  C   UNL A   1      35.962  30.582  28.982  1.00  0.00     0.134 A 
ATOM     70  C   UNL A   1      37.104  32.671  28.737  1.00  0.00     0.134 A 
ATOM     71  F   UNL A   1      35.896  29.319  29.428  1.00  0.00    -0.206 F 
ATOM     72  C   UNL A   1      34.900  31.068  28.217  1.00  0.00     0.040 A 
ATOM     73  C   UNL A   1      36.033  33.180  28.001  1.00  0.00     0.040 A 
ATOM     74  F   UNL A   1      38.151  33.478  28.962  1.00  0.00    -0.206 F 
ATOM     75  C   UNL A   1      34.931  32.373  27.730  1.00  0.00     0.006 A 
ENDBRANCH  47  68
BRANCH  59  76
ATOM     76  C   UNL A   1      39.105  32.119  35.878  1.00  0.00     0.057 A 
ATOM     77  C   UNL A   1      39.467  33.458  36.070  1.00  0.00     0.134 A 
ATOM     78  C   UNL A   1      38.177  31.568  36.772  1.00  0.00     0.134 A 
ATOM     79  F   UNL A   1      40.361  34.045  35.259  1.00  0.00    -0.206 F 
ATOM     80  C   UNL A   1      38.950  34.209  37.127  1.00  0.00     0.040 A 
ATOM     81  C   UNL A   1      37.626  32.318  37.810  1.00  0.00     0.040 A 
ATOM     82  F   UNL A   1      37.779  30.293  36.641  1.00  0.00    -0.206 F 
ATOM     83  C   UNL A   1      38.019  33.641  37.996  1.00  0.00     0.006 A 
ENDBRANCH  59  76
ENDBRANCH  33  34
ENDBRANCH  26  28
ENDBRANCH  25  26
ENDBRANCH  24  25
ENDBRANCH   1  24
TORSDOF 15
ENDMDL
MODEL 2
REMARK VINA RESULT:     -11.2      3.962      8.049
REMARK SMILES C#Cc1cccc(NS(=O)(=O)c2cc(C)c(C(=O)OCCOC(=O)c3ccc(-c4c5nc(c(-c6c(F)cccc6F)c6ccc([nH]6)c(-c6c(F)cccc6F)c6nc(c(-c7c(F)cccc7F)c7ccc4[nH]7)C=C6)C=C5)cc3)s2)c1
REMARK SMILES IDX 20 1 19 2 17 3 18 4 16 5 12 6 13 7 79 8 14 9 15 10 9 11
REMARK SMILES IDX 10 12 11 13 8 14 7 16 3 17 4 18 80 19 5 20 6 21 2 22 1 23
REMARK SMILES IDX 21 24 22 25 23 26 24 27 25 28 26 29 78 30 27 31 77 32 28 33
REMARK SMILES IDX 29 34 30 35 71 36 31 37 76 38 70 39 72 40 32 41 75 42 69 43
REMARK SMILES IDX 68 44 33 46 59 47 42 48 58 49 43 50 46 51 57 52 73 53 44 54
REMARK SMILES IDX 45 55 56 57 74 58 47 59 34 60 35 61 40 62 36 63 37 64 39 65
REMARK SMILES IDX 41 66 38 67 60 68 61 69 66 70 62 71 63 72 65 73 67 74 64 75
REMARK SMILES IDX 48 76 49 77 54 78 50 79 51 80 53 81 55 82 52 83
REMARK H PARENT 8 15 72 45 46 56
REMARK Flexibility Score: inf
ROOT
ATOM      1  C   UNL A   1      34.953  21.236  24.711  1.00  0.00     0.275 C 
ENDROOT
BRANCH   1   2
ATOM      2  O   UNL A   1      33.976  20.875  25.712  1.00  0.00    -0.458 OA
BRANCH   2   3
ATOM      3  C   UNL A   1      32.705  20.640  25.268  1.00  0.00     0.348 C 
ATOM      4  O   UNL A   1      32.190  19.527  25.246  1.00  0.00    -0.245 OA
BRANCH   3   5
ATOM      5  C   UNL A   1      32.056  21.872  24.828  1.00  0.00     0.116 A 
ATOM      6  C   UNL A   1      31.012  24.134  24.845  1.00  0.00     0.141 A 
ATOM      7  C   UNL A   1      30.899  23.490  23.630  1.00  0.00     0.038 A 
ATOM      8  S   UNL A   1      31.484  22.988  26.017  1.00  0.00    -0.115 S 
ATOM      9  C   UNL A   1      31.778  22.352  23.556  1.00  0.00    -0.024 A 
ATOM     10  C   UNL A   1      32.270  21.800  22.260  1.00  0.00     0.046 C 
BRANCH   6  11
ATOM     11  S   UNL A   1      30.753  25.803  25.427  1.00  0.00     0.271 S 
ATOM     12  O   UNL A   1      31.091  25.767  26.835  1.00  0.00    -0.200 OA
ATOM     13  O   UNL A   1      29.421  26.152  24.981  1.00  0.00    -0.200 OA
BRANCH  11  14
ATOM     14  N   UNL A   1      31.780  26.952  24.721  1.00  0.00    -0.279 N 
ATOM     15  H   UNL A   1      32.095  26.795  23.801  1.00  0.00     0.180 HD
BRANCH  14  16
ATOM     16  C   UNL A   1      32.212  28.133  25.389  1.00  0.00     0.050 A 
ATOM     17  C   UNL A   1      33.838  29.220  26.814  1.00  0.00     0.026 A 
ATOM     18  C   UNL A   1      32.968  30.297  26.982  1.00  0.00     0.017 A 
ATOM     19  C   UNL A   1      33.449  28.120  26.042  1.00  0.00     0.044 A 
ATOM     20  C   UNL A   1      31.804  30.363  26.226  1.00  0.00     0.003 A 
ATOM     21  C   UNL A   1      31.477  29.318  25.359  1.00  0.00     0.027 A 
BRANCH  17  22
ATOM     22  C   UNL A   1      35.153  29.328  27.360  1.00  0.00    -0.070 C 
ATOM     23  C   UNL A   1      36.193  29.360  27.968  1.00  0.00     0.010 C 
ENDBRANCH  17  22
ENDBRANCH  14  16
ENDBRANCH  11  14
ENDBRANCH   6  11
ENDBRANCH   3   5
ENDBRANCH   2   3
ENDBRANCH   1   2
BRANCH   1  24
ATOM     24  C   UNL A   1      36.349  20.680  25.015  1.00  0.00     0.275 C 
BRANCH  24  25
ATOM     25  O   UNL A   1      37.303  21.731  25.244  1.00  0.00    -0.458 OA
BRANCH  25  26
ATOM     26  C   UNL A   1      38.461  21.314  25.800  1.00  0.00     0.338 C 
ATOM     27  O   UNL A   1      38.986  20.217  25.680  1.00  0.00    -0.246 OA
BRANCH  26  28
ATOM     28  C   UNL A   1      39.139  22.433  26.463  1.00  0.00     0.060 A 
ATOM     29  C   UNL A   1      38.700  23.707  26.128  1.00  0.00     0.016 A 
ATOM     30  C   UNL A   1      40.271  22.269  27.251  1.00  0.00     0.016 A 
ATOM     31  C   UNL A   1      39.424  24.829  26.480  1.00  0.00     0.010 A 
ATOM     32  C   UNL A   1      40.955  23.409  27.695  1.00  0.00     0.010 A 
ATOM     33  C   UNL A   1      40.551  24.699  27.289  1.00  0.00    -0.014 A 
BRANCH  33  34
ATOM     34  C   UNL A   1      41.308  25.916  27.670  1.00  0.00     0.031 A 
ATOM     35  C   UNL A   1      40.657  26.969  28.521  1.00  0.00     0.074 A 
ATOM     36  C   UNL A   1      42.592  26.056  27.282  1.00  0.00     0.049 A 
ATOM     37  N   UNL A   1      41.087  28.165  28.829  1.00  0.00    -0.248 NA
ATOM     38  C   UNL A   1      39.339  26.639  29.082  1.00  0.00     0.031 C 
ATOM     39  C   UNL A   1      43.361  25.069  26.519  1.00  0.00     0.029 A 
ATOM     40  N   UNL A   1      43.480  27.082  27.479  1.00  0.00    -0.354 N 
ATOM     41  C   UNL A   1      40.076  28.746  29.582  1.00  0.00     0.074 A 
ATOM     42  C   UNL A   1      38.999  27.783  29.661  1.00  0.00     0.031 C 
ATOM     43  C   UNL A   1      44.607  25.526  26.334  1.00  0.00     0.029 A 
ATOM     44  C   UNL A   1      44.697  26.875  26.876  1.00  0.00     0.049 A 
ATOM     45  H   UNL A   1      43.267  27.889  28.002  1.00  0.00     0.167 HD
ATOM     46  C   UNL A   1      40.054  29.973  30.154  1.00  0.00     0.037 A 
ATOM     47  C   UNL A   1      45.751  27.697  26.725  1.00  0.00     0.037 A 
ATOM     48  C   UNL A   1      41.148  30.908  30.087  1.00  0.00     0.049 A 
ATOM     49  C   UNL A   1      45.668  29.085  27.294  1.00  0.00     0.074 A 
ATOM     50  C   UNL A   1      41.236  32.174  30.638  1.00  0.00     0.029 A 
ATOM     51  N   UNL A   1      42.347  30.676  29.426  1.00  0.00    -0.354 N 
ATOM     52  N   UNL A   1      44.695  29.642  27.975  1.00  0.00    -0.248 NA
ATOM     53  C   UNL A   1      46.823  29.961  27.066  1.00  0.00     0.031 C 
ATOM     54  C   UNL A   1      42.455  32.736  30.249  1.00  0.00     0.029 A 
ATOM     55  C   UNL A   1      43.166  31.790  29.526  1.00  0.00     0.049 A 
ATOM     56  H   UNL A   1      42.581  29.843  28.956  1.00  0.00     0.167 HD
ATOM     57  C   UNL A   1      45.134  30.922  28.285  1.00  0.00     0.074 A 
ATOM     58  C   UNL A   1      46.465  31.051  27.729  1.00  0.00     0.031 C 
ATOM     59  C   UNL A   1      44.492  31.900  28.972  1.00  0.00     0.037 A 
BRANCH  46  60
ATOM     60  C   UNL A   1      38.790  30.392  30.853  1.00  0.00     0.057 A 
ATOM     61  C   UNL A   1      38.456  29.948  32.139  1.00  0.00     0.134 A 
ATOM     62  C   UNL A   1      37.896  31.270  30.225  1.00  0.00     0.134 A 
ATOM     63  F   UNL A   1      39.259  29.098  32.795  1.00  0.00    -0.206 F 
ATOM     64  C   UNL A   1      37.264  30.331  32.758  1.00  0.00     0.040 A 
ATOM     65  C   UNL A   1      36.718  31.688  30.848  1.00  0.00     0.040 A 
ATOM     66  F   UNL A   1      38.153  31.742  28.995  1.00  0.00    -0.206 F 
ATOM     67  C   UNL A   1      36.395  31.210  32.115  1.00  0.00     0.006 A 
ENDBRANCH  46  60
BRANCH  47  68
ATOM     68  C   UNL A   1      46.947  27.246  25.968  1.00  0.00     0.057 A 
ATOM     69  C   UNL A   1      47.038  27.419  24.583  1.00  0.00     0.134 A 
ATOM     70  C   UNL A   1      48.030  26.629  26.612  1.00  0.00     0.134 A 
ATOM     71  F   UNL A   1      46.029  27.985  23.905  1.00  0.00    -0.206 F 
ATOM     72  C   UNL A   1      48.150  26.978  23.862  1.00  0.00     0.040 A 
ATOM     73  C   UNL A   1      49.162  26.216  25.908  1.00  0.00     0.040 A 
ATOM     74  F   UNL A   1      48.012  26.437  27.939  1.00  0.00    -0.206 F 
ATOM     75  C   UNL A   1      49.219  26.380  24.526  1.00  0.00     0.006 A 
ENDBRANCH  47  68
BRANCH  59  76
ATOM     76  C   UNL A   1      45.246  33.177  29.207  1.00  0.00     0.057 A 
ATOM     77  C   UNL A   1      45.150  34.272  28.341  1.00  0.00     0.134 A 
ATOM     78  C   UNL A   1      46.053  33.322  30.344  1.00  0.00     0.134 A 
ATOM     79  F   UNL A   1      44.406  34.197  27.226  1.00  0.00    -0.206 F 
ATOM     80  C   UNL A   1      45.854  35.454  28.579  1.00  0.00     0.040 A 
ATOM     81  C   UNL A   1      46.731  34.510  30.613  1.00  0.00     0.040 A 
ATOM     82  F   UNL A   1      46.181  32.315  31.221  1.00  0.00    -0.206 F 
ATOM     83  C   UNL A   1      46.640  35.578  29.724  1.00  0.00     0.006 A 
ENDBRANCH  59  76
ENDBRANCH  33  34
ENDBRANCH  26  28
ENDBRANCH  25  26
ENDBRANCH  24  25
ENDBRANCH   1  24
TORSDOF 15
ENDMDL
MODEL 3
REMARK VINA RESULT:     -11.2      5.326      9.930
REMARK SMILES C#Cc1cccc(NS(=O)(=O)c2cc(C)c(C(=O)OCCOC(=O)c3ccc(-c4c5nc(c(-c6c(F)cccc6F)c6ccc([nH]6)c(-c6c(F)cccc6F)c6nc(c(-c7c(F)cccc7F)c7ccc4[nH]7)C=C6)C=C5)cc3)s2)c1
REMARK SMILES IDX 20 1 19 2 17 3 18 4 16 5 12 6 13 7 79 8 14 9 15 10 9 11
REMARK SMILES IDX 10 12 11 13 8 14 7 16 3 17 4 18 80 19 5 20 6 21 2 22 1 23
REMARK SMILES IDX 21 24 22 25 23 26 24 27 25 28 26 29 78 30 27 31 77 32 28 33
REMARK SMILES IDX 29 34 30 35 71 36 31 37 76 38 70 39 72 40 32 41 75 42 69 43
REMARK SMILES IDX 68 44 33 46 59 47 42 48 58 49 43 50 46 51 57 52 73 53 44 54
REMARK SMILES IDX 45 55 56 57 74 58 47 59 34 60 35 61 40 62 36 63 37 64 39 65
REMARK SMILES IDX 41 66 38 67 60 68 61 69 66 70 62 71 63 72 65 73 67 74 64 75
REMARK SMILES IDX 48 76 49 77 54 78 50 79 51 80 53 81 55 82 52 83
REMARK H PARENT 8 15 72 45 46 56
REMARK Flexibility Score: inf
ROOT
ATOM      1  C   UNL A   1      34.162  33.935  29.892  1.00  0.00     0.275 C 
ENDROOT
BRANCH   1   2
ATOM      2  O   UNL A   1      34.029  32.591  29.380  1.00  0.00    -0.458 OA
BRANCH   2   3
ATOM      3  C   UNL A   1      34.582  32.345  28.154  1.00  0.00     0.348 C 
ATOM      4  O   UNL A   1      35.329  33.130  27.579  1.00  0.00    -0.245 OA
BRANCH   3   5
ATOM      5  C   UNL A   1      34.166  31.048  27.630  1.00  0.00     0.116 A 
ATOM      6  C   UNL A   1      32.876  29.277  26.444  1.00  0.00     0.141 A 
ATOM      7  C   UNL A   1      33.899  28.777  27.223  1.00  0.00     0.038 A 
ATOM      8  S   UNL A   1      32.616  30.905  26.881  1.00  0.00    -0.115 S 
ATOM      9  C   UNL A   1      34.810  29.818  27.624  1.00  0.00    -0.024 A 
ATOM     10  C   UNL A   1      36.230  29.545  27.989  1.00  0.00     0.046 C 
BRANCH   6  11
ATOM     11  S   UNL A   1      31.808  28.617  25.173  1.00  0.00     0.271 S 
ATOM     12  O   UNL A   1      31.086  29.761  24.656  1.00  0.00    -0.200 OA
ATOM     13  O   UNL A   1      31.116  27.513  25.804  1.00  0.00    -0.200 OA
BRANCH  11  14
ATOM     14  N   UNL A   1      32.631  27.938  23.856  1.00  0.00    -0.279 N 
ATOM     15  H   UNL A   1      32.930  28.537  23.133  1.00  0.00     0.180 HD
BRANCH  14  16
ATOM     16  C   UNL A   1      32.913  26.547  23.741  1.00  0.00     0.050 A 
ATOM     17  C   UNL A   1      34.397  24.696  24.219  1.00  0.00     0.026 A 
ATOM     18  C   UNL A   1      33.704  23.907  23.302  1.00  0.00     0.017 A 
ATOM     19  C   UNL A   1      34.023  26.029  24.417  1.00  0.00     0.044 A 
ATOM     20  C   UNL A   1      32.527  24.383  22.738  1.00  0.00     0.003 A 
ATOM     21  C   UNL A   1      32.086  25.674  23.035  1.00  0.00     0.027 A 
BRANCH  17  22
ATOM     22  C   UNL A   1      35.413  24.076  25.007  1.00  0.00    -0.070 C 
ATOM     23  C   UNL A   1      36.360  23.699  25.650  1.00  0.00     0.010 C 
ENDBRANCH  17  22
ENDBRANCH  14  16
ENDBRANCH  11  14
ENDBRANCH   6  11
ENDBRANCH   3   5
ENDBRANCH   2   3
ENDBRANCH   1   2
BRANCH   1  24
ATOM     24  C   UNL A   1      34.496  33.970  31.388  1.00  0.00     0.275 C 
BRANCH  24  25
ATOM     25  O   UNL A   1      35.909  33.848  31.622  1.00  0.00    -0.458 OA
BRANCH  25  26
ATOM     26  C   UNL A   1      36.267  32.716  32.266  1.00  0.00     0.338 C 
ATOM     27  O   UNL A   1      35.751  32.241  33.266  1.00  0.00    -0.246 OA
BRANCH  26  28
ATOM     28  C   UNL A   1      37.288  31.996  31.499  1.00  0.00     0.060 A 
ATOM     29  C   UNL A   1      38.159  31.196  32.227  1.00  0.00     0.016 A 
ATOM     30  C   UNL A   1      37.508  32.215  30.145  1.00  0.00     0.016 A 
ATOM     31  C   UNL A   1      39.308  30.684  31.657  1.00  0.00     0.010 A 
ATOM     32  C   UNL A   1      38.620  31.616  29.537  1.00  0.00     0.010 A 
ATOM     33  C   UNL A   1      39.544  30.867  30.296  1.00  0.00    -0.014 A 
BRANCH  33  34
ATOM     34  C   UNL A   1      40.776  30.298  29.697  1.00  0.00     0.031 A 
ATOM     35  C   UNL A   1      41.995  31.158  29.528  1.00  0.00     0.074 A 
ATOM     36  C   UNL A   1      40.809  28.998  29.340  1.00  0.00     0.049 A 
ATOM     37  N   UNL A   1      43.107  30.900  28.891  1.00  0.00    -0.248 NA
ATOM     38  C   UNL A   1      41.949  32.494  30.142  1.00  0.00     0.031 C 
ATOM     39  C   UNL A   1      39.716  28.039  29.524  1.00  0.00     0.029 A 
ATOM     40  N   UNL A   1      41.800  28.256  28.750  1.00  0.00    -0.354 N 
ATOM     41  C   UNL A   1      43.874  32.054  28.988  1.00  0.00     0.074 A 
ATOM     42  C   UNL A   1      43.089  33.023  29.722  1.00  0.00     0.031 C 
ATOM     43  C   UNL A   1      40.104  26.835  29.080  1.00  0.00     0.029 A 
ATOM     44  C   UNL A   1      41.431  26.958  28.492  1.00  0.00     0.049 A 
ATOM     45  H   UNL A   1      42.691  28.617  28.534  1.00  0.00     0.167 HD
ATOM     46  C   UNL A   1      45.119  32.278  28.507  1.00  0.00     0.037 A 
ATOM     47  C   UNL A   1      42.064  25.988  27.808  1.00  0.00     0.037 A 
ATOM     48  C   UNL A   1      45.896  31.290  27.802  1.00  0.00     0.049 A 
ATOM     49  C   UNL A   1      43.407  26.289  27.209  1.00  0.00     0.074 A 
ATOM     50  C   UNL A   1      47.171  31.408  27.280  1.00  0.00     0.029 A 
ATOM     51  N   UNL A   1      45.466  30.000  27.521  1.00  0.00    -0.354 N 
ATOM     52  N   UNL A   1      44.113  27.392  27.274  1.00  0.00    -0.248 NA
ATOM     53  C   UNL A   1      44.040  25.214  26.435  1.00  0.00     0.031 C 
ATOM     54  C   UNL A   1      47.484  30.216  26.619  1.00  0.00     0.029 A 
ATOM     55  C   UNL A   1      46.438  29.324  26.800  1.00  0.00     0.049 A 
ATOM     56  H   UNL A   1      44.598  29.622  27.792  1.00  0.00     0.167 HD
ATOM     57  C   UNL A   1      45.286  27.135  26.578  1.00  0.00     0.074 A 
ATOM     58  C   UNL A   1      45.200  25.767  26.112  1.00  0.00     0.031 C 
ATOM     59  C   UNL A   1      46.339  27.958  26.349  1.00  0.00     0.037 A 
BRANCH  46  60
ATOM     60  C   UNL A   1      45.694  33.657  28.681  1.00  0.00     0.057 A 
ATOM     61  C   UNL A   1      45.498  34.679  27.743  1.00  0.00     0.134 A 
ATOM     62  C   UNL A   1      46.449  33.968  29.820  1.00  0.00     0.134 A 
ATOM     63  F   UNL A   1      44.797  34.450  26.623  1.00  0.00    -0.206 F 
ATOM     64  C   UNL A   1      46.063  35.946  27.913  1.00  0.00     0.040 A 
ATOM     65  C   UNL A   1      46.988  35.240  30.019  1.00  0.00     0.040 A 
ATOM     66  F   UNL A   1      46.671  33.041  30.766  1.00  0.00    -0.206 F 
ATOM     67  C   UNL A   1      46.803  36.231  29.057  1.00  0.00     0.006 A 
ENDBRANCH  46  60
BRANCH  47  68
ATOM     68  C   UNL A   1      41.415  24.665  27.617  1.00  0.00     0.057 A 
ATOM     69  C   UNL A   1      40.401  24.484  26.669  1.00  0.00     0.134 A 
ATOM     70  C   UNL A   1      41.791  23.549  28.378  1.00  0.00     0.134 A 
ATOM     71  F   UNL A   1      39.982  25.516  25.923  1.00  0.00    -0.206 F 
ATOM     72  C   UNL A   1      39.772  23.249  26.499  1.00  0.00     0.040 A 
ATOM     73  C   UNL A   1      41.194  22.301  28.193  1.00  0.00     0.040 A 
ATOM     74  F   UNL A   1      42.759  23.650  29.300  1.00  0.00    -0.206 F 
ATOM     75  C   UNL A   1      40.173  22.151  27.258  1.00  0.00     0.006 A 
ENDBRANCH  47  68
BRANCH  59  76
ATOM     76  C   UNL A   1      47.509  27.380  25.606  1.00  0.00     0.057 A 
ATOM     77  C   UNL A   1      47.621  27.455  24.212  1.00  0.00     0.134 A 
ATOM     78  C   UNL A   1      48.559  26.771  26.305  1.00  0.00     0.134 A 
ATOM     79  F   UNL A   1      46.644  28.013  23.479  1.00  0.00    -0.206 F 
ATOM     80  C   UNL A   1      48.718  26.917  23.539  1.00  0.00     0.040 A 
ATOM     81  C   UNL A   1      49.679  26.263  25.647  1.00  0.00     0.040 A 
ATOM     82  F   UNL A   1      48.522  26.674  27.643  1.00  0.00    -0.206 F 
ATOM     83  C   UNL A   1      49.757  26.327  24.258  1.00  0.00     0.006 A 
ENDBRANCH  59  76
ENDBRANCH  33  34
ENDBRANCH  26  28
ENDBRANCH  25  26
ENDBRANCH  24  25
ENDBRANCH   1  24
TORSDOF 15
ENDMDL
