MODEL 1
REMARK VINA RESULT:      -9.8      0.000      0.000
REMARK SMILES CC(C)[C@@H]1SC[C@@H](C(=O)OCCOC(=O)c2ccc(-c3c4nc(c(-c5c(F)cccc5F)c5ccc([nH]5)c(-c5c(F)cccc5F)c5nc(c(-c6c(F)cccc6F)c6ccc3[nH]6)C=C5)C=C4)cc2)N1C(=O)COCC[NH3+]
REMARK SMILES IDX 8 1 9 2 7 3 4 4 5 5 70 6 6 7 2 8 1 9 3 10 71 11 72 12 73 13
REMARK SMILES IDX 74 14 75 15 76 16 77 17 10 21 11 22 12 23 13 24 14 25 15 26
REMARK SMILES IDX 16 27 17 28 69 29 18 30 68 31 19 32 20 33 21 34 62 35 22 36
REMARK SMILES IDX 67 37 61 38 63 39 23 40 66 41 60 42 59 43 24 45 50 46 33 47
REMARK SMILES IDX 49 48 34 49 37 50 48 51 64 52 35 53 36 54 47 56 65 57 38 58
REMARK SMILES IDX 25 59 26 60 31 61 27 62 28 63 30 64 32 65 29 66 51 67 52 68
REMARK SMILES IDX 57 69 53 70 54 71 56 72 58 73 55 74 39 75 40 76 45 77 41 78
REMARK SMILES IDX 42 79 44 80 46 81 43 82
REMARK H PARENT 77 18 77 19 77 20 63 44 37 55
REMARK Flexibility Score: inf
ROOT
ATOM      1  C   UNL A   1      31.775  29.411  25.453  1.00  0.00     0.329 C 
ATOM      2  O   UNL A   1      30.987  30.277  25.081  1.00  0.00    -0.250 OA
ENDROOT
BRANCH   1   3
ATOM      3  C   UNL A   1      31.506  27.916  25.211  1.00  0.00     0.206 C 
ATOM      4  C   UNL A   1      32.400  26.967  23.100  1.00  0.00     0.146 C 
ATOM      5  S   UNL A   1      33.747  26.828  24.347  1.00  0.00    -0.134 SA
ATOM      6  N   UNL A   1      31.240  27.500  23.822  1.00  0.00    -0.314 N 
ATOM      7  C   UNL A   1      32.684  27.137  25.768  1.00  0.00     0.109 C 
BRANCH   4   8
ATOM      8  C   UNL A   1      32.187  25.634  22.324  1.00  0.00     0.016 C 
ATOM      9  C   UNL A   1      32.535  25.708  20.830  1.00  0.00     0.010 C 
ATOM     10  C   UNL A   1      32.883  24.413  22.940  1.00  0.00     0.010 C 
ENDBRANCH   4   8
BRANCH   6  11
ATOM     11  C   UNL A   1      29.982  27.785  23.325  1.00  0.00     0.250 C 
ATOM     12  O   UNL A   1      29.012  27.104  23.671  1.00  0.00    -0.272 OA
BRANCH  11  13
ATOM     13  C   UNL A   1      29.763  28.901  22.299  1.00  0.00     0.260 C 
BRANCH  13  14
ATOM     14  O   UNL A   1      28.744  29.841  22.576  1.00  0.00    -0.366 OA
BRANCH  14  15
ATOM     15  C   UNL A   1      28.153  30.404  21.398  1.00  0.00     0.222 C 
BRANCH  15  16
ATOM     16  C   UNL A   1      28.308  31.935  21.297  1.00  0.00     0.287 C 
BRANCH  16  17
ATOM     17  N   UNL A   1      29.320  32.506  22.187  1.00  0.00    -0.356 N 
ATOM     18  H   UNL A   1      30.194  32.629  21.674  1.00  0.00     0.344 HD
ATOM     19  H   UNL A   1      29.474  31.878  22.975  1.00  0.00     0.344 HD
ATOM     20  H   UNL A   1      28.999  33.411  22.531  1.00  0.00     0.344 HD
ENDBRANCH  16  17
ENDBRANCH  15  16
ENDBRANCH  14  15
ENDBRANCH  13  14
ENDBRANCH  11  13
ENDBRANCH   6  11
ENDBRANCH   1   3
BRANCH   1  21
ATOM     21  O   UNL A   1      32.911  29.655  26.164  1.00  0.00    -0.461 OA
BRANCH  21  22
ATOM     22  C   UNL A   1      32.789  30.676  27.175  1.00  0.00     0.274 C 
BRANCH  22  23
ATOM     23  C   UNL A   1      34.157  31.232  27.557  1.00  0.00     0.275 C 
BRANCH  23  24
ATOM     24  O   UNL A   1      34.930  30.207  28.201  1.00  0.00    -0.458 OA
BRANCH  24  25
ATOM     25  C   UNL A   1      35.759  30.643  29.175  1.00  0.00     0.338 C 
ATOM     26  O   UNL A   1      35.529  31.517  30.000  1.00  0.00    -0.246 OA
BRANCH  25  27
ATOM     27  C   UNL A   1      37.064  29.975  29.054  1.00  0.00     0.060 A 
ATOM     28  C   UNL A   1      37.708  29.441  30.171  1.00  0.00     0.016 A 
ATOM     29  C   UNL A   1      37.693  29.976  27.810  1.00  0.00     0.016 A 
ATOM     30  C   UNL A   1      39.022  28.985  30.066  1.00  0.00     0.010 A 
ATOM     31  C   UNL A   1      38.977  29.446  27.687  1.00  0.00     0.010 A 
ATOM     32  C   UNL A   1      39.664  28.981  28.821  1.00  0.00    -0.014 A 
BRANCH  32  33
ATOM     33  C   UNL A   1      41.069  28.525  28.692  1.00  0.00     0.031 A 
ATOM     34  C   UNL A   1      42.194  29.502  28.881  1.00  0.00     0.074 A 
ATOM     35  C   UNL A   1      41.330  27.243  28.379  1.00  0.00     0.049 A 
ATOM     36  N   UNL A   1      43.472  29.349  28.647  1.00  0.00    -0.248 NA
ATOM     37  C   UNL A   1      41.830  30.834  29.390  1.00  0.00     0.031 C 
ATOM     38  C   UNL A   1      40.327  26.191  28.214  1.00  0.00     0.029 A 
ATOM     39  N   UNL A   1      42.522  26.612  28.137  1.00  0.00    -0.354 N 
ATOM     40  C   UNL A   1      44.059  30.574  28.936  1.00  0.00     0.074 A 
ATOM     41  C   UNL A   1      42.996  31.462  29.360  1.00  0.00     0.031 C 
ATOM     42  C   UNL A   1      40.946  25.039  27.916  1.00  0.00     0.029 A 
ATOM     43  C   UNL A   1      42.380  25.288  27.803  1.00  0.00     0.049 A 
ATOM     44  H   UNL A   1      43.395  27.063  28.196  1.00  0.00     0.167 HD
ATOM     45  C   UNL A   1      45.365  30.924  28.851  1.00  0.00     0.037 A 
ATOM     46  C   UNL A   1      43.298  24.385  27.416  1.00  0.00     0.037 A 
ATOM     47  C   UNL A   1      46.419  30.024  28.465  1.00  0.00     0.049 A 
ATOM     48  C   UNL A   1      44.732  24.808  27.286  1.00  0.00     0.074 A 
ATOM     49  C   UNL A   1      47.779  30.269  28.381  1.00  0.00     0.029 A 
ATOM     50  N   UNL A   1      46.229  28.699  28.101  1.00  0.00    -0.354 N 
ATOM     51  N   UNL A   1      45.275  25.974  27.536  1.00  0.00    -0.248 NA
ATOM     52  C   UNL A   1      45.677  23.793  26.799  1.00  0.00     0.031 C 
ATOM     53  C   UNL A   1      48.408  29.101  27.933  1.00  0.00     0.029 A 
ATOM     54  C   UNL A   1      47.444  28.118  27.773  1.00  0.00     0.049 A 
ATOM     55  H   UNL A   1      45.360  28.238  28.079  1.00  0.00     0.167 HD
ATOM     56  C   UNL A   1      46.626  25.833  27.255  1.00  0.00     0.074 A 
ATOM     57  C   UNL A   1      46.822  24.463  26.823  1.00  0.00     0.031 C 
ATOM     58  C   UNL A   1      47.616  26.754  27.346  1.00  0.00     0.037 A 
BRANCH  45  59
ATOM     59  C   UNL A   1      45.714  32.352  29.147  1.00  0.00     0.057 A 
ATOM     60  C   UNL A   1      46.062  32.783  30.432  1.00  0.00     0.134 A 
ATOM     61  C   UNL A   1      45.711  33.308  28.123  1.00  0.00     0.134 A 
ATOM     62  F   UNL A   1      46.071  31.922  31.460  1.00  0.00    -0.206 F 
ATOM     63  C   UNL A   1      46.369  34.120  30.694  1.00  0.00     0.040 A 
ATOM     64  C   UNL A   1      46.037  34.642  28.368  1.00  0.00     0.040 A 
ATOM     65  F   UNL A   1      45.389  32.960  26.867  1.00  0.00    -0.206 F 
ATOM     66  C   UNL A   1      46.361  35.053  29.659  1.00  0.00     0.006 A 
ENDBRANCH  45  59
BRANCH  46  67
ATOM     67  C   UNL A   1      42.880  22.995  27.116  1.00  0.00     0.057 A 
ATOM     68  C   UNL A   1      42.621  22.088  28.148  1.00  0.00     0.134 A 
ATOM     69  C   UNL A   1      42.699  22.552  25.801  1.00  0.00     0.134 A 
ATOM     70  F   UNL A   1      42.796  22.452  29.427  1.00  0.00    -0.206 F 
ATOM     71  C   UNL A   1      42.197  20.785  27.883  1.00  0.00     0.040 A 
ATOM     72  C   UNL A   1      42.255  21.258  25.522  1.00  0.00     0.040 A 
ATOM     73  F   UNL A   1      42.928  23.378  24.769  1.00  0.00    -0.206 F 
ATOM     74  C   UNL A   1      42.006  20.370  26.566  1.00  0.00     0.006 A 
ENDBRANCH  46  67
BRANCH  58  75
ATOM     75  C   UNL A   1      49.000  26.296  26.998  1.00  0.00     0.057 A 
ATOM     76  C   UNL A   1      49.515  26.429  25.703  1.00  0.00     0.134 A 
ATOM     77  C   UNL A   1      49.832  25.737  27.977  1.00  0.00     0.134 A 
ATOM     78  F   UNL A   1      48.760  26.942  24.720  1.00  0.00    -0.206 F 
ATOM     79  C   UNL A   1      50.806  26.005  25.389  1.00  0.00     0.040 A 
ATOM     80  C   UNL A   1      51.131  25.327  27.677  1.00  0.00     0.040 A 
ATOM     81  F   UNL A   1      49.397  25.587  29.236  1.00  0.00    -0.206 F 
ATOM     82  C   UNL A   1      51.620  25.456  26.379  1.00  0.00     0.006 A 
ENDBRANCH  58  75
ENDBRANCH  32  33
ENDBRANCH  25  27
ENDBRANCH  24  25
ENDBRANCH  23  24
ENDBRANCH  22  23
ENDBRANCH  21  22
ENDBRANCH   1  21
TORSDOF 18
ENDMDL
MODEL 2
REMARK VINA RESULT:      -9.7      4.702      8.400
REMARK SMILES CC(C)[C@@H]1SC[C@@H](C(=O)OCCOC(=O)c2ccc(-c3c4nc(c(-c5c(F)cccc5F)c5ccc([nH]5)c(-c5c(F)cccc5F)c5nc(c(-c6c(F)cccc6F)c6ccc3[nH]6)C=C5)C=C4)cc2)N1C(=O)COCC[NH3+]
REMARK SMILES IDX 8 1 9 2 7 3 4 4 5 5 70 6 6 7 2 8 1 9 3 10 71 11 72 12 73 13
REMARK SMILES IDX 74 14 75 15 76 16 77 17 10 21 11 22 12 23 13 24 14 25 15 26
REMARK SMILES IDX 16 27 17 28 69 29 18 30 68 31 19 32 20 33 21 34 62 35 22 36
REMARK SMILES IDX 67 37 61 38 63 39 23 40 66 41 60 42 59 43 24 45 50 46 33 47
REMARK SMILES IDX 49 48 34 49 37 50 48 51 64 52 35 53 36 54 47 56 65 57 38 58
REMARK SMILES IDX 25 59 26 60 31 61 27 62 28 63 30 64 32 65 29 66 51 67 52 68
REMARK SMILES IDX 57 69 53 70 54 71 56 72 58 73 55 74 39 75 40 76 45 77 41 78
REMARK SMILES IDX 42 79 44 80 46 81 43 82
REMARK H PARENT 77 18 77 19 77 20 63 44 37 55
REMARK Flexibility Score: inf
ROOT
ATOM      1  C   UNL A   1      32.122  29.386  25.445  1.00  0.00     0.329 C 
ATOM      2  O   UNL A   1      32.928  29.605  24.544  1.00  0.00    -0.250 OA
ENDROOT
BRANCH   1   3
ATOM      3  C   UNL A   1      31.599  27.969  25.736  1.00  0.00     0.206 C 
ATOM      4  C   UNL A   1      32.514  26.149  24.319  1.00  0.00     0.146 C 
ATOM      5  S   UNL A   1      33.669  26.337  25.738  1.00  0.00    -0.134 SA
ATOM      6  N   UNL A   1      31.407  27.076  24.579  1.00  0.00    -0.314 N 
ATOM      7  C   UNL A   1      32.541  27.325  26.737  1.00  0.00     0.109 C 
BRANCH   4   8
ATOM      8  C   UNL A   1      32.132  24.660  24.073  1.00  0.00     0.016 C 
ATOM      9  C   UNL A   1      31.075  24.109  25.042  1.00  0.00     0.010 C 
ATOM     10  C   UNL A   1      31.709  24.334  22.634  1.00  0.00     0.010 C 
ENDBRANCH   4   8
BRANCH   6  11
ATOM     11  C   UNL A   1      30.286  27.307  23.803  1.00  0.00     0.250 C 
ATOM     12  O   UNL A   1      29.184  26.890  24.171  1.00  0.00    -0.272 OA
BRANCH  11  13
ATOM     13  C   UNL A   1      30.383  28.028  22.455  1.00  0.00     0.260 C 
BRANCH  13  14
ATOM     14  O   UNL A   1      30.419  29.440  22.480  1.00  0.00    -0.366 OA
BRANCH  14  15
ATOM     15  C   UNL A   1      29.207  30.033  22.963  1.00  0.00     0.222 C 
BRANCH  15  16
ATOM     16  C   UNL A   1      27.958  29.643  22.147  1.00  0.00     0.287 C 
BRANCH  16  17
ATOM     17  N   UNL A   1      27.006  28.787  22.857  1.00  0.00    -0.356 N 
ATOM     18  H   UNL A   1      26.753  29.224  23.744  1.00  0.00     0.344 HD
ATOM     19  H   UNL A   1      27.433  27.879  23.035  1.00  0.00     0.344 HD
ATOM     20  H   UNL A   1      26.169  28.664  22.288  1.00  0.00     0.344 HD
ENDBRANCH  16  17
ENDBRANCH  15  16
ENDBRANCH  14  15
ENDBRANCH  13  14
ENDBRANCH  11  13
ENDBRANCH   6  11
ENDBRANCH   1   3
BRANCH   1  21
ATOM     21  O   UNL A   1      31.558  30.350  26.226  1.00  0.00    -0.461 OA
BRANCH  21  22
ATOM     22  C   UNL A   1      32.489  31.111  27.022  1.00  0.00     0.274 C 
BRANCH  22  23
ATOM     23  C   UNL A   1      31.985  32.534  27.239  1.00  0.00     0.275 C 
BRANCH  23  24
ATOM     24  O   UNL A   1      33.100  33.439  27.272  1.00  0.00    -0.458 OA
BRANCH  24  25
ATOM     25  C   UNL A   1      33.216  34.164  28.406  1.00  0.00     0.338 C 
ATOM     26  O   UNL A   1      32.497  35.088  28.765  1.00  0.00    -0.246 OA
BRANCH  25  27
ATOM     27  C   UNL A   1      34.422  33.752  29.140  1.00  0.00     0.060 A 
ATOM     28  C   UNL A   1      35.668  34.311  28.854  1.00  0.00     0.016 A 
ATOM     29  C   UNL A   1      34.309  32.713  30.063  1.00  0.00     0.016 A 
ATOM     30  C   UNL A   1      36.820  33.773  29.426  1.00  0.00     0.010 A 
ATOM     31  C   UNL A   1      35.452  32.228  30.697  1.00  0.00     0.010 A 
ATOM     32  C   UNL A   1      36.720  32.730  30.355  1.00  0.00    -0.014 A 
BRANCH  32  33
ATOM     33  C   UNL A   1      37.934  32.127  30.955  1.00  0.00     0.031 A 
ATOM     34  C   UNL A   1      38.685  31.060  30.212  1.00  0.00     0.074 A 
ATOM     35  C   UNL A   1      38.343  32.518  32.175  1.00  0.00     0.049 A 
ATOM     36  N   UNL A   1      39.660  30.292  30.626  1.00  0.00    -0.248 NA
ATOM     37  C   UNL A   1      38.276  30.816  28.819  1.00  0.00     0.031 C 
ATOM     38  C   UNL A   1      37.724  33.574  32.976  1.00  0.00     0.029 A 
ATOM     39  N   UNL A   1      39.373  32.065  32.956  1.00  0.00    -0.354 N 
ATOM     40  C   UNL A   1      39.951  29.445  29.565  1.00  0.00     0.074 A 
ATOM     41  C   UNL A   1      39.047  29.790  28.487  1.00  0.00     0.031 C 
ATOM     42  C   UNL A   1      38.399  33.701  34.129  1.00  0.00     0.029 A 
ATOM     43  C   UNL A   1      39.452  32.692  34.174  1.00  0.00     0.049 A 
ATOM     44  H   UNL A   1      39.997  31.357  32.672  1.00  0.00     0.167 HD
ATOM     45  C   UNL A   1      40.886  28.466  29.499  1.00  0.00     0.037 A 
ATOM     46  C   UNL A   1      40.260  32.457  35.223  1.00  0.00     0.037 A 
ATOM     47  C   UNL A   1      41.805  28.154  30.562  1.00  0.00     0.049 A 
ATOM     48  C   UNL A   1      41.257  31.339  35.145  1.00  0.00     0.074 A 
ATOM     49  C   UNL A   1      42.813  27.206  30.584  1.00  0.00     0.029 A 
ATOM     50  N   UNL A   1      41.830  28.791  31.794  1.00  0.00    -0.354 N 
ATOM     51  N   UNL A   1      41.508  30.526  34.148  1.00  0.00    -0.248 NA
ATOM     52  C   UNL A   1      42.067  31.092  36.345  1.00  0.00     0.031 C 
ATOM     53  C   UNL A   1      43.425  27.246  31.842  1.00  0.00     0.029 A 
ATOM     54  C   UNL A   1      42.822  28.244  32.591  1.00  0.00     0.049 A 
ATOM     55  H   UNL A   1      41.231  29.524  32.063  1.00  0.00     0.167 HD
ATOM     56  C   UNL A   1      42.517  29.682  34.591  1.00  0.00     0.074 A 
ATOM     57  C   UNL A   1      42.836  30.088  35.946  1.00  0.00     0.031 C 
ATOM     58  C   UNL A   1      43.123  28.662  33.936  1.00  0.00     0.037 A 
BRANCH  45  59
ATOM     59  C   UNL A   1      40.931  27.641  28.248  1.00  0.00     0.057 A 
ATOM     60  C   UNL A   1      41.706  28.006  27.142  1.00  0.00     0.134 A 
ATOM     61  C   UNL A   1      40.190  26.455  28.156  1.00  0.00     0.134 A 
ATOM     62  F   UNL A   1      42.427  29.136  27.159  1.00  0.00    -0.206 F 
ATOM     63  C   UNL A   1      41.724  27.234  25.978  1.00  0.00     0.040 A 
ATOM     64  C   UNL A   1      40.217  25.664  27.007  1.00  0.00     0.040 A 
ATOM     65  F   UNL A   1      39.428  26.046  29.183  1.00  0.00    -0.206 F 
ATOM     66  C   UNL A   1      40.980  26.057  25.910  1.00  0.00     0.006 A 
ENDBRANCH  45  59
BRANCH  46  67
ATOM     67  C   UNL A   1      40.146  33.297  36.439  1.00  0.00     0.057 A 
ATOM     68  C   UNL A   1      40.940  34.437  36.598  1.00  0.00     0.134 A 
ATOM     69  C   UNL A   1      39.225  33.001  37.451  1.00  0.00     0.134 A 
ATOM     70  F   UNL A   1      41.852  34.759  35.670  1.00  0.00    -0.206 F 
ATOM     71  C   UNL A   1      40.823  35.255  37.723  1.00  0.00     0.040 A 
ATOM     72  C   UNL A   1      39.084  33.822  38.571  1.00  0.00     0.040 A 
ATOM     73  F   UNL A   1      38.434  31.923  37.354  1.00  0.00    -0.206 F 
ATOM     74  C   UNL A   1      39.887  34.951  38.710  1.00  0.00     0.006 A 
ENDBRANCH  46  67
BRANCH  58  75
ATOM     75  C   UNL A   1      44.211  27.940  34.670  1.00  0.00     0.057 A 
ATOM     76  C   UNL A   1      43.951  26.790  35.425  1.00  0.00     0.134 A 
ATOM     77  C   UNL A   1      45.537  28.387  34.600  1.00  0.00     0.134 A 
ATOM     78  F   UNL A   1      42.699  26.323  35.543  1.00  0.00    -0.206 F 
ATOM     79  C   UNL A   1      44.970  26.120  36.102  1.00  0.00     0.040 A 
ATOM     80  C   UNL A   1      46.567  27.714  35.257  1.00  0.00     0.040 A 
ATOM     81  F   UNL A   1      45.850  29.480  33.890  1.00  0.00    -0.206 F 
ATOM     82  C   UNL A   1      46.284  26.579  36.014  1.00  0.00     0.006 A 
ENDBRANCH  58  75
ENDBRANCH  32  33
ENDBRANCH  25  27
ENDBRANCH  24  25
ENDBRANCH  23  24
ENDBRANCH  22  23
ENDBRANCH  21  22
ENDBRANCH   1  21
TORSDOF 18
ENDMDL
MODEL 3
REMARK VINA RESULT:      -9.4      3.377      7.486
REMARK SMILES CC(C)[C@@H]1SC[C@@H](C(=O)OCCOC(=O)c2ccc(-c3c4nc(c(-c5c(F)cccc5F)c5ccc([nH]5)c(-c5c(F)cccc5F)c5nc(c(-c6c(F)cccc6F)c6ccc3[nH]6)C=C5)C=C4)cc2)N1C(=O)COCC[NH3+]
REMARK SMILES IDX 8 1 9 2 7 3 4 4 5 5 70 6 6 7 2 8 1 9 3 10 71 11 72 12 73 13
REMARK SMILES IDX 74 14 75 15 76 16 77 17 10 21 11 22 12 23 13 24 14 25 15 26
REMARK SMILES IDX 16 27 17 28 69 29 18 30 68 31 19 32 20 33 21 34 62 35 22 36
REMARK SMILES IDX 67 37 61 38 63 39 23 40 66 41 60 42 59 43 24 45 50 46 33 47
REMARK SMILES IDX 49 48 34 49 37 50 48 51 64 52 35 53 36 54 47 56 65 57 38 58
REMARK SMILES IDX 25 59 26 60 31 61 27 62 28 63 30 64 32 65 29 66 51 67 52 68
REMARK SMILES IDX 57 69 53 70 54 71 56 72 58 73 55 74 39 75 40 76 45 77 41 78
REMARK SMILES IDX 42 79 44 80 46 81 43 82
REMARK H PARENT 77 18 77 19 77 20 63 44 37 55
REMARK Flexibility Score: inf
ROOT
ATOM      1  C   UNL A   1      33.841  23.726  25.995  1.00  0.00     0.329 C 
ATOM      2  O   UNL A   1      33.011  23.540  26.881  1.00  0.00    -0.250 OA
ENDROOT
BRANCH   1   3
ATOM      3  C   UNL A   1      33.511  24.551  24.739  1.00  0.00     0.206 C 
ATOM      4  C   UNL A   1      31.327  25.727  24.740  1.00  0.00     0.146 C 
ATOM      5  S   UNL A   1      32.533  26.866  25.536  1.00  0.00    -0.134 SA
ATOM      6  N   UNL A   1      32.106  24.565  24.297  1.00  0.00    -0.314 N 
ATOM      7  C   UNL A   1      33.993  25.970  24.978  1.00  0.00     0.109 C 
BRANCH   4   8
ATOM      8  C   UNL A   1      30.474  26.449  23.655  1.00  0.00     0.016 C 
ATOM      9  C   UNL A   1      28.957  26.352  23.874  1.00  0.00     0.010 C 
ATOM     10  C   UNL A   1      30.851  27.916  23.412  1.00  0.00     0.010 C 
ENDBRANCH   4   8
BRANCH   6  11
ATOM     11  C   UNL A   1      31.654  23.432  23.645  1.00  0.00     0.250 C 
ATOM     12  O   UNL A   1      30.483  23.366  23.262  1.00  0.00    -0.272 OA
BRANCH  11  13
ATOM     13  C   UNL A   1      32.563  22.218  23.433  1.00  0.00     0.260 C 
BRANCH  13  14
ATOM     14  O   UNL A   1      32.440  21.151  24.352  1.00  0.00    -0.366 OA
BRANCH  14  15
ATOM     15  C   UNL A   1      32.506  19.859  23.736  1.00  0.00     0.222 C 
BRANCH  15  16
ATOM     16  C   UNL A   1      32.703  18.703  24.738  1.00  0.00     0.287 C 
BRANCH  16  17
ATOM     17  N   UNL A   1      32.904  19.125  26.125  1.00  0.00    -0.356 N 
ATOM     18  H   UNL A   1      31.999  19.201  26.591  1.00  0.00     0.344 HD
ATOM     19  H   UNL A   1      33.371  20.031  26.141  1.00  0.00     0.344 HD
ATOM     20  H   UNL A   1      33.479  18.437  26.610  1.00  0.00     0.344 HD
ENDBRANCH  16  17
ENDBRANCH  15  16
ENDBRANCH  14  15
ENDBRANCH  13  14
ENDBRANCH  11  13
ENDBRANCH   6  11
ENDBRANCH   1   3
BRANCH   1  21
ATOM     21  O   UNL A   1      35.091  23.184  25.983  1.00  0.00    -0.461 OA
BRANCH  21  22
ATOM     22  C   UNL A   1      35.161  21.804  26.395  1.00  0.00     0.274 C 
BRANCH  22  23
ATOM     23  C   UNL A   1      35.979  20.980  25.406  1.00  0.00     0.275 C 
BRANCH  23  24
ATOM     24  O   UNL A   1      37.128  21.734  24.987  1.00  0.00    -0.458 OA
BRANCH  24  25
ATOM     25  C   UNL A   1      38.296  21.358  25.550  1.00  0.00     0.338 C 
ATOM     26  O   UNL A   1      38.742  20.221  25.628  1.00  0.00    -0.246 OA
BRANCH  25  27
ATOM     27  C   UNL A   1      38.948  22.521  26.170  1.00  0.00     0.060 A 
ATOM     28  C   UNL A   1      38.393  23.798  26.073  1.00  0.00     0.016 A 
ATOM     29  C   UNL A   1      40.191  22.337  26.774  1.00  0.00     0.016 A 
ATOM     30  C   UNL A   1      39.120  24.908  26.502  1.00  0.00     0.010 A 
ATOM     31  C   UNL A   1      40.883  23.437  27.276  1.00  0.00     0.010 A 
ATOM     32  C   UNL A   1      40.370  24.735  27.111  1.00  0.00    -0.014 A 
BRANCH  32  33
ATOM     33  C   UNL A   1      41.169  25.903  27.550  1.00  0.00     0.031 A 
ATOM     34  C   UNL A   1      40.541  26.957  28.417  1.00  0.00     0.074 A 
ATOM     35  C   UNL A   1      42.446  26.030  27.147  1.00  0.00     0.049 A 
ATOM     36  N   UNL A   1      41.007  28.128  28.766  1.00  0.00    -0.248 NA
ATOM     37  C   UNL A   1      39.203  26.656  28.952  1.00  0.00     0.031 C 
ATOM     38  C   UNL A   1      43.180  25.054  26.342  1.00  0.00     0.029 A 
ATOM     39  N   UNL A   1      43.349  27.039  27.356  1.00  0.00    -0.354 N 
ATOM     40  C   UNL A   1      40.006  28.723  29.523  1.00  0.00     0.074 A 
ATOM     41  C   UNL A   1      38.905  27.784  29.580  1.00  0.00     0.031 C 
ATOM     42  C   UNL A   1      44.428  25.503  26.140  1.00  0.00     0.029 A 
ATOM     43  C   UNL A   1      44.558  26.826  26.744  1.00  0.00     0.049 A 
ATOM     44  H   UNL A   1      43.149  27.841  27.894  1.00  0.00     0.167 HD
ATOM     45  C   UNL A   1      40.008  29.943  30.112  1.00  0.00     0.037 A 
ATOM     46  C   UNL A   1      45.639  27.621  26.650  1.00  0.00     0.037 A 
ATOM     47  C   UNL A   1      41.122  30.854  30.082  1.00  0.00     0.049 A 
ATOM     48  C   UNL A   1      45.601  28.986  27.272  1.00  0.00     0.074 A 
ATOM     49  C   UNL A   1      41.238  32.099  30.676  1.00  0.00     0.029 A 
ATOM     50  N   UNL A   1      42.317  30.614  29.421  1.00  0.00    -0.354 N 
ATOM     51  N   UNL A   1      44.641  29.551  27.964  1.00  0.00    -0.248 NA
ATOM     52  C   UNL A   1      46.787  29.831  27.083  1.00  0.00     0.031 C 
ATOM     53  C   UNL A   1      42.492  32.626  30.346  1.00  0.00     0.029 A 
ATOM     54  C   UNL A   1      43.170  31.694  29.576  1.00  0.00     0.049 A 
ATOM     55  H   UNL A   1      42.530  29.796  28.916  1.00  0.00     0.167 HD
ATOM     56  C   UNL A   1      45.112  30.810  28.308  1.00  0.00     0.074 A 
ATOM     57  C   UNL A   1      46.448  30.922  27.755  1.00  0.00     0.031 C 
ATOM     58  C   UNL A   1      44.494  31.786  29.018  1.00  0.00     0.037 A 
BRANCH  45  59
ATOM     59  C   UNL A   1      38.750  30.372  30.807  1.00  0.00     0.057 A 
ATOM     60  C   UNL A   1      37.739  31.082  30.148  1.00  0.00     0.134 A 
ATOM     61  C   UNL A   1      38.545  30.058  32.157  1.00  0.00     0.134 A 
ATOM     62  F   UNL A   1      37.879  31.426  28.860  1.00  0.00    -0.206 F 
ATOM     63  C   UNL A   1      36.581  31.488  30.815  1.00  0.00     0.040 A 
ATOM     64  C   UNL A   1      37.382  30.439  32.828  1.00  0.00     0.040 A 
ATOM     65  F   UNL A   1      39.473  29.376  32.846  1.00  0.00    -0.206 F 
ATOM     66  C   UNL A   1      36.399  31.163  32.157  1.00  0.00     0.006 A 
ENDBRANCH  45  59
BRANCH  46  67
ATOM     67  C   UNL A   1      46.841  27.142  25.928  1.00  0.00     0.057 A 
ATOM     68  C   UNL A   1      47.003  27.396  24.562  1.00  0.00     0.134 A 
ATOM     69  C   UNL A   1      47.866  26.453  26.587  1.00  0.00     0.134 A 
ATOM     70  F   UNL A   1      46.045  28.036  23.876  1.00  0.00    -0.206 F 
ATOM     71  C   UNL A   1      48.144  26.979  23.875  1.00  0.00     0.040 A 
ATOM     72  C   UNL A   1      49.021  26.048  25.915  1.00  0.00     0.040 A 
ATOM     73  F   UNL A   1      47.769  26.183  27.896  1.00  0.00    -0.206 F 
ATOM     74  C   UNL A   1      49.160  26.309  24.554  1.00  0.00     0.006 A 
ENDBRANCH  46  67
BRANCH  58  75
ATOM     75  C   UNL A   1      45.273  33.043  29.257  1.00  0.00     0.057 A 
ATOM     76  C   UNL A   1      46.147  33.171  30.343  1.00  0.00     0.134 A 
ATOM     77  C   UNL A   1      45.165  34.127  28.376  1.00  0.00     0.134 A 
ATOM     78  F   UNL A   1      46.281  32.173  31.230  1.00  0.00    -0.206 F 
ATOM     79  C   UNL A   1      46.873  34.344  30.556  1.00  0.00     0.040 A 
ATOM     80  C   UNL A   1      45.900  35.296  28.569  1.00  0.00     0.040 A 
ATOM     81  F   UNL A   1      44.348  34.063  27.315  1.00  0.00    -0.206 F 
ATOM     82  C   UNL A   1      46.754  35.409  29.664  1.00  0.00     0.006 A 
ENDBRANCH  58  75
ENDBRANCH  32  33
ENDBRANCH  25  27
ENDBRANCH  24  25
ENDBRANCH  23  24
ENDBRANCH  22  23
ENDBRANCH  21  22
ENDBRANCH   1  21
TORSDOF 18
ENDMDL
