MODEL 1
REMARK VINA RESULT:     -11.3      0.000      0.000
REMARK SMILES O=C(N[C@@H]1C=C[C@@H](C(=O)OCCOC(=O)c2ccc(-c3c4nc(c(-c5c(F)cccc5F)c5ccc([nH]5)c(-c5c(F)cccc5F)c5nc(c(-c6c(F)cccc6F)c6ccc3[nH]6)C=C5)C=C4)cc2)C1)Oc1ccccc1
REMARK SMILES IDX 11 1 10 2 8 3 9 4 7 5 4 6 5 7 70 8 6 9 3 10 1 11 2 12 71 14
REMARK SMILES IDX 72 15 73 16 77 17 74 18 76 19 75 20 12 21 13 22 14 23 15 24
REMARK SMILES IDX 16 25 17 26 69 27 18 28 68 29 19 30 20 31 21 32 62 33 22 34
REMARK SMILES IDX 67 35 61 36 63 37 23 38 66 39 60 40 59 41 24 43 50 44 33 45
REMARK SMILES IDX 49 46 34 47 37 48 48 49 64 50 35 51 36 52 47 54 65 55 38 56
REMARK SMILES IDX 25 57 26 58 31 59 27 60 28 61 30 62 32 63 29 64 51 65 52 66
REMARK SMILES IDX 57 67 53 68 54 69 56 70 58 71 55 72 39 73 40 74 45 75 41 76
REMARK SMILES IDX 42 77 44 78 46 79 43 80
REMARK H PARENT 3 13 63 42 37 53
REMARK Flexibility Score: inf
ROOT
ATOM      1  C   UNL A   1      39.958  21.188  26.520  1.00  0.00     0.274 C 
ENDROOT
BRANCH   1   2
ATOM      2  O   UNL A   1      38.925  21.766  25.687  1.00  0.00    -0.462 OA
BRANCH   2   3
ATOM      3  C   UNL A   1      38.063  20.871  25.118  1.00  0.00     0.312 C 
ATOM      4  O   UNL A   1      38.271  19.664  25.055  1.00  0.00    -0.252 OA
BRANCH   3   5
ATOM      5  C   UNL A   1      36.744  21.531  24.706  1.00  0.00     0.124 C 
ATOM      6  C   UNL A   1      34.847  22.948  25.321  1.00  0.00     0.109 C 
ATOM      7  C   UNL A   1      35.885  23.715  24.539  1.00  0.00    -0.006 C 
ATOM      8  C   UNL A   1      35.770  21.837  25.846  1.00  0.00     0.049 C 
ATOM      9  C   UNL A   1      36.910  22.930  24.167  1.00  0.00    -0.014 C 
BRANCH   6  10
ATOM     10  N   UNL A   1      33.809  22.656  24.332  1.00  0.00    -0.315 N 
ATOM     11  O   UNL A   1      31.740  22.104  23.688  1.00  0.00    -0.224 OA
ATOM     12  C   UNL A   1      32.758  21.778  24.296  1.00  0.00     0.413 C 
ATOM     13  H   UNL A   1      33.882  23.208  23.521  1.00  0.00     0.167 HD
BRANCH  12  14
ATOM     14  O   UNL A   1      32.833  20.556  24.951  1.00  0.00    -0.410 OA
BRANCH  14  15
ATOM     15  C   UNL A   1      33.281  19.413  24.271  1.00  0.00     0.132 A 
ATOM     16  C   UNL A   1      34.366  18.657  24.701  1.00  0.00     0.047 A 
ATOM     17  C   UNL A   1      32.497  19.005  23.191  1.00  0.00     0.047 A 
ATOM     18  C   UNL A   1      34.516  17.380  24.175  1.00  0.00     0.004 A 
ATOM     19  C   UNL A   1      32.699  17.747  22.633  1.00  0.00     0.004 A 
ATOM     20  C   UNL A   1      33.684  16.918  23.156  1.00  0.00     0.000 A 
ENDBRANCH  14  15
ENDBRANCH  12  14
ENDBRANCH   6  10
ENDBRANCH   3   5
ENDBRANCH   2   3
ENDBRANCH   1   2
BRANCH   1  21
ATOM     21  C   UNL A   1      41.271  21.069  25.738  1.00  0.00     0.275 C 
BRANCH  21  22
ATOM     22  O   UNL A   1      42.290  21.807  26.438  1.00  0.00    -0.458 OA
BRANCH  22  23
ATOM     23  C   UNL A   1      42.685  22.975  25.865  1.00  0.00     0.338 C 
ATOM     24  O   UNL A   1      43.026  23.119  24.706  1.00  0.00    -0.246 OA
BRANCH  23  25
ATOM     25  C   UNL A   1      42.493  24.098  26.832  1.00  0.00     0.060 A 
ATOM     26  C   UNL A   1      41.645  23.963  27.933  1.00  0.00     0.016 A 
ATOM     27  C   UNL A   1      43.070  25.347  26.580  1.00  0.00     0.016 A 
ATOM     28  C   UNL A   1      41.281  25.079  28.688  1.00  0.00     0.010 A 
ATOM     29  C   UNL A   1      42.825  26.429  27.446  1.00  0.00     0.010 A 
ATOM     30  C   UNL A   1      41.923  26.312  28.518  1.00  0.00    -0.014 A 
BRANCH  30  31
ATOM     31  C   UNL A   1      41.725  27.424  29.507  1.00  0.00     0.031 A 
ATOM     32  C   UNL A   1      42.546  27.512  30.772  1.00  0.00     0.074 A 
ATOM     33  C   UNL A   1      40.750  28.340  29.306  1.00  0.00     0.049 A 
ATOM     34  N   UNL A   1      42.305  28.192  31.867  1.00  0.00    -0.248 NA
ATOM     35  C   UNL A   1      43.785  26.722  30.823  1.00  0.00     0.031 C 
ATOM     36  C   UNL A   1      39.882  28.423  28.126  1.00  0.00     0.029 A 
ATOM     37  N   UNL A   1      40.304  29.373  30.100  1.00  0.00    -0.354 N 
ATOM     38  C   UNL A   1      43.316  27.855  32.762  1.00  0.00     0.074 A 
ATOM     39  C   UNL A   1      44.187  26.924  32.074  1.00  0.00     0.031 C 
ATOM     40  C   UNL A   1      39.045  29.459  28.254  1.00  0.00     0.029 A 
ATOM     41  C   UNL A   1      39.212  30.031  29.580  1.00  0.00     0.049 A 
ATOM     42  H   UNL A   1      40.726  29.617  30.955  1.00  0.00     0.167 HD
ATOM     43  C   UNL A   1      43.488  28.273  34.041  1.00  0.00     0.037 A 
ATOM     44  C   UNL A   1      38.368  30.929  30.121  1.00  0.00     0.037 A 
ATOM     45  C   UNL A   1      42.661  29.257  34.697  1.00  0.00     0.049 A 
ATOM     46  C   UNL A   1      38.565  31.355  31.544  1.00  0.00     0.074 A 
ATOM     47  C   UNL A   1      42.785  29.772  35.978  1.00  0.00     0.029 A 
ATOM     48  N   UNL A   1      41.572  29.891  34.120  1.00  0.00    -0.354 N 
ATOM     49  N   UNL A   1      39.486  30.980  32.396  1.00  0.00    -0.248 NA
ATOM     50  C   UNL A   1      37.592  32.311  32.088  1.00  0.00     0.031 C 
ATOM     51  C   UNL A   1      41.746  30.683  36.190  1.00  0.00     0.029 A 
ATOM     52  C   UNL A   1      41.006  30.777  35.026  1.00  0.00     0.049 A 
ATOM     53  H   UNL A   1      41.248  29.736  33.204  1.00  0.00     0.167 HD
ATOM     54  C   UNL A   1      39.214  31.667  33.571  1.00  0.00     0.074 A 
ATOM     55  C   UNL A   1      38.056  32.496  33.315  1.00  0.00     0.031 C 
ATOM     56  C   UNL A   1      39.862  31.607  34.757  1.00  0.00     0.037 A 
BRANCH  43  57
ATOM     57  C   UNL A   1      44.588  27.649  34.856  1.00  0.00     0.057 A 
ATOM     58  C   UNL A   1      45.853  28.234  34.984  1.00  0.00     0.134 A 
ATOM     59  C   UNL A   1      44.334  26.493  35.609  1.00  0.00     0.134 A 
ATOM     60  F   UNL A   1      46.164  29.340  34.292  1.00  0.00    -0.206 F 
ATOM     61  C   UNL A   1      46.828  27.687  35.822  1.00  0.00     0.040 A 
ATOM     62  C   UNL A   1      45.291  25.951  36.469  1.00  0.00     0.040 A 
ATOM     63  F   UNL A   1      43.137  25.890  35.546  1.00  0.00    -0.206 F 
ATOM     64  C   UNL A   1      46.544  26.547  36.575  1.00  0.00     0.006 A 
ENDBRANCH  43  57
BRANCH  44  65
ATOM     65  C   UNL A   1      37.201  31.417  29.339  1.00  0.00     0.057 A 
ATOM     66  C   UNL A   1      36.060  30.628  29.166  1.00  0.00     0.134 A 
ATOM     67  C   UNL A   1      37.205  32.684  28.738  1.00  0.00     0.134 A 
ATOM     68  F   UNL A   1      36.004  29.396  29.694  1.00  0.00    -0.206 F 
ATOM     69  C   UNL A   1      34.974  31.070  28.409  1.00  0.00     0.040 A 
ATOM     70  C   UNL A   1      36.111  33.154  28.011  1.00  0.00     0.040 A 
ATOM     71  F   UNL A   1      38.264  33.495  28.871  1.00  0.00    -0.206 F 
ATOM     72  C   UNL A   1      34.994  32.340  27.836  1.00  0.00     0.006 A 
ENDBRANCH  44  65
BRANCH  56  73
ATOM     73  C   UNL A   1      39.363  32.504  35.849  1.00  0.00     0.057 A 
ATOM     74  C   UNL A   1      39.822  33.819  35.996  1.00  0.00     0.134 A 
ATOM     75  C   UNL A   1      38.402  32.049  36.760  1.00  0.00     0.134 A 
ATOM     76  F   UNL A   1      40.757  34.309  35.168  1.00  0.00    -0.206 F 
ATOM     77  C   UNL A   1      39.361  34.641  37.026  1.00  0.00     0.040 A 
ATOM     78  C   UNL A   1      37.914  32.868  37.778  1.00  0.00     0.040 A 
ATOM     79  F   UNL A   1      37.918  30.800  36.672  1.00  0.00    -0.206 F 
ATOM     80  C   UNL A   1      38.400  34.167  37.917  1.00  0.00     0.006 A 
ENDBRANCH  56  73
ENDBRANCH  30  31
ENDBRANCH  23  25
ENDBRANCH  22  23
ENDBRANCH  21  22
ENDBRANCH   1  21
TORSDOF 14
ENDMDL
MODEL 2
REMARK VINA RESULT:     -11.2      4.148      8.278
REMARK SMILES O=C(N[C@@H]1C=C[C@@H](C(=O)OCCOC(=O)c2ccc(-c3c4nc(c(-c5c(F)cccc5F)c5ccc([nH]5)c(-c5c(F)cccc5F)c5nc(c(-c6c(F)cccc6F)c6ccc3[nH]6)C=C5)C=C4)cc2)C1)Oc1ccccc1
REMARK SMILES IDX 11 1 10 2 8 3 9 4 7 5 4 6 5 7 70 8 6 9 3 10 1 11 2 12 71 14
REMARK SMILES IDX 72 15 73 16 77 17 74 18 76 19 75 20 12 21 13 22 14 23 15 24
REMARK SMILES IDX 16 25 17 26 69 27 18 28 68 29 19 30 20 31 21 32 62 33 22 34
REMARK SMILES IDX 67 35 61 36 63 37 23 38 66 39 60 40 59 41 24 43 50 44 33 45
REMARK SMILES IDX 49 46 34 47 37 48 48 49 64 50 35 51 36 52 47 54 65 55 38 56
REMARK SMILES IDX 25 57 26 58 31 59 27 60 28 61 30 62 32 63 29 64 51 65 52 66
REMARK SMILES IDX 57 67 53 68 54 69 56 70 58 71 55 72 39 73 40 74 45 75 41 76
REMARK SMILES IDX 42 77 44 78 46 79 43 80
REMARK H PARENT 3 13 63 42 37 53
REMARK Flexibility Score: inf
ROOT
ATOM      1  C   UNL A   1      34.481  20.833  25.439  1.00  0.00     0.274 C 
ENDROOT
BRANCH   1   2
ATOM      2  O   UNL A   1      33.614  20.954  24.286  1.00  0.00    -0.462 OA
BRANCH   2   3
ATOM      3  C   UNL A   1      32.405  21.548  24.522  1.00  0.00     0.312 C 
ATOM      4  O   UNL A   1      31.591  21.141  25.345  1.00  0.00    -0.252 OA
BRANCH   3   5
ATOM      5  C   UNL A   1      32.254  22.861  23.750  1.00  0.00     0.124 C 
ATOM      6  C   UNL A   1      32.939  25.190  23.453  1.00  0.00     0.109 C 
ATOM      7  C   UNL A   1      33.624  24.277  22.466  1.00  0.00    -0.006 C 
ATOM      8  C   UNL A   1      32.620  24.131  24.521  1.00  0.00     0.049 C 
ATOM      9  C   UNL A   1      33.221  23.004  22.602  1.00  0.00    -0.014 C 
BRANCH   6  10
ATOM     10  N   UNL A   1      31.870  25.812  22.672  1.00  0.00    -0.315 N 
ATOM     11  O   UNL A   1      30.606  27.528  21.999  1.00  0.00    -0.224 OA
ATOM     12  C   UNL A   1      30.970  26.812  22.929  1.00  0.00     0.413 C 
ATOM     13  H   UNL A   1      31.781  25.431  21.769  1.00  0.00     0.167 HD
BRANCH  12  14
ATOM     14  O   UNL A   1      30.495  27.024  24.217  1.00  0.00    -0.410 OA
BRANCH  14  15
ATOM     15  C   UNL A   1      31.203  27.847  25.107  1.00  0.00     0.132 A 
ATOM     16  C   UNL A   1      31.585  29.146  24.791  1.00  0.00     0.047 A 
ATOM     17  C   UNL A   1      31.403  27.323  26.386  1.00  0.00     0.047 A 
ATOM     18  C   UNL A   1      31.965  29.982  25.833  1.00  0.00     0.004 A 
ATOM     19  C   UNL A   1      31.843  28.158  27.407  1.00  0.00     0.004 A 
ATOM     20  C   UNL A   1      32.083  29.500  27.137  1.00  0.00     0.000 A 
ENDBRANCH  14  15
ENDBRANCH  12  14
ENDBRANCH   6  10
ENDBRANCH   3   5
ENDBRANCH   2   3
ENDBRANCH   1   2
BRANCH   1  21
ATOM     21  C   UNL A   1      35.919  20.538  24.997  1.00  0.00     0.275 C 
BRANCH  21  22
ATOM     22  O   UNL A   1      36.792  21.516  25.592  1.00  0.00    -0.458 OA
BRANCH  22  23
ATOM     23  C   UNL A   1      38.103  21.170  25.685  1.00  0.00     0.338 C 
ATOM     24  O   UNL A   1      38.591  20.121  25.307  1.00  0.00    -0.246 OA
BRANCH  23  25
ATOM     25  C   UNL A   1      38.895  22.335  26.185  1.00  0.00     0.060 A 
ATOM     26  C   UNL A   1      40.038  22.146  26.963  1.00  0.00     0.016 A 
ATOM     27  C   UNL A   1      38.431  23.638  25.980  1.00  0.00     0.016 A 
ATOM     28  C   UNL A   1      40.629  23.223  27.625  1.00  0.00     0.010 A 
ATOM     29  C   UNL A   1      39.131  24.733  26.519  1.00  0.00     0.010 A 
ATOM     30  C   UNL A   1      40.247  24.543  27.353  1.00  0.00    -0.014 A 
BRANCH  30  31
ATOM     31  C   UNL A   1      41.062  25.698  27.856  1.00  0.00     0.031 A 
ATOM     32  C   UNL A   1      40.446  26.798  28.688  1.00  0.00     0.074 A 
ATOM     33  C   UNL A   1      42.366  25.805  27.509  1.00  0.00     0.049 A 
ATOM     34  N   UNL A   1      40.901  28.003  28.932  1.00  0.00    -0.248 NA
ATOM     35  C   UNL A   1      39.145  26.517  29.313  1.00  0.00     0.031 C 
ATOM     36  C   UNL A   1      43.130  24.821  26.735  1.00  0.00     0.029 A 
ATOM     37  N   UNL A   1      43.284  26.804  27.747  1.00  0.00    -0.354 N 
ATOM     38  C   UNL A   1      39.913  28.649  29.669  1.00  0.00     0.074 A 
ATOM     39  C   UNL A   1      38.841  27.692  29.853  1.00  0.00     0.031 C 
ATOM     40  C   UNL A   1      44.393  25.240  26.594  1.00  0.00     0.029 A 
ATOM     41  C   UNL A   1      44.500  26.584  27.141  1.00  0.00     0.049 A 
ATOM     42  H   UNL A   1      43.089  27.596  28.297  1.00  0.00     0.167 HD
ATOM     43  C   UNL A   1      39.900  29.923  30.134  1.00  0.00     0.037 A 
ATOM     44  C   UNL A   1      45.563  27.387  26.952  1.00  0.00     0.037 A 
ATOM     45  C   UNL A   1      41.002  30.847  30.014  1.00  0.00     0.049 A 
ATOM     46  C   UNL A   1      45.514  28.798  27.452  1.00  0.00     0.074 A 
ATOM     47  C   UNL A   1      41.093  32.146  30.490  1.00  0.00     0.029 A 
ATOM     48  N   UNL A   1      42.209  30.568  29.393  1.00  0.00    -0.354 N 
ATOM     49  N   UNL A   1      44.550  29.412  28.091  1.00  0.00    -0.248 NA
ATOM     50  C   UNL A   1      46.691  29.635  27.186  1.00  0.00     0.031 C 
ATOM     51  C   UNL A   1      42.337  32.666  30.119  1.00  0.00     0.029 A 
ATOM     52  C   UNL A   1      43.042  31.676  29.458  1.00  0.00     0.049 A 
ATOM     53  H   UNL A   1      42.441  29.711  28.969  1.00  0.00     0.167 HD
ATOM     54  C   UNL A   1      45.009  30.701  28.317  1.00  0.00     0.074 A 
ATOM     55  C   UNL A   1      46.346  30.774  27.768  1.00  0.00     0.031 C 
ATOM     56  C   UNL A   1      44.375  31.734  28.920  1.00  0.00     0.037 A 
BRANCH  43  57
ATOM     57  C   UNL A   1      38.645  30.433  30.787  1.00  0.00     0.057 A 
ATOM     58  C   UNL A   1      37.604  31.021  30.060  1.00  0.00     0.134 A 
ATOM     59  C   UNL A   1      38.439  30.234  32.161  1.00  0.00     0.134 A 
ATOM     60  F   UNL A   1      37.734  31.242  28.744  1.00  0.00    -0.206 F 
ATOM     61  C   UNL A   1      36.409  31.401  30.676  1.00  0.00     0.040 A 
ATOM     62  C   UNL A   1      37.240  30.587  32.783  1.00  0.00     0.040 A 
ATOM     63  F   UNL A   1      39.390  29.661  32.915  1.00  0.00    -0.206 F 
ATOM     64  C   UNL A   1      36.220  31.175  32.040  1.00  0.00     0.006 A 
ENDBRANCH  43  57
BRANCH  44  65
ATOM     65  C   UNL A   1      46.733  26.901  26.172  1.00  0.00     0.057 A 
ATOM     66  C   UNL A   1      46.845  27.146  24.800  1.00  0.00     0.134 A 
ATOM     67  C   UNL A   1      47.764  26.170  26.782  1.00  0.00     0.134 A 
ATOM     68  F   UNL A   1      45.881  27.817  24.153  1.00  0.00    -0.206 F 
ATOM     69  C   UNL A   1      47.926  26.668  24.058  1.00  0.00     0.040 A 
ATOM     70  C   UNL A   1      48.868  25.719  26.060  1.00  0.00     0.040 A 
ATOM     71  F   UNL A   1      47.722  25.907  28.096  1.00  0.00    -0.206 F 
ATOM     72  C   UNL A   1      48.946  25.959  24.690  1.00  0.00     0.006 A 
ENDBRANCH  44  65
BRANCH  56  73
ATOM     73  C   UNL A   1      45.144  33.013  29.062  1.00  0.00     0.057 A 
ATOM     74  C   UNL A   1      45.972  33.262  30.164  1.00  0.00     0.134 A 
ATOM     75  C   UNL A   1      45.061  34.005  28.077  1.00  0.00     0.134 A 
ATOM     76  F   UNL A   1      46.079  32.359  31.151  1.00  0.00    -0.206 F 
ATOM     77  C   UNL A   1      46.672  34.462  30.292  1.00  0.00     0.040 A 
ATOM     78  C   UNL A   1      45.775  35.199  28.181  1.00  0.00     0.040 A 
ATOM     79  F   UNL A   1      44.288  33.827  26.994  1.00  0.00    -0.206 F 
ATOM     80  C   UNL A   1      46.578  35.432  29.296  1.00  0.00     0.006 A 
ENDBRANCH  56  73
ENDBRANCH  30  31
ENDBRANCH  23  25
ENDBRANCH  22  23
ENDBRANCH  21  22
ENDBRANCH   1  21
TORSDOF 14
ENDMDL
MODEL 3
REMARK VINA RESULT:     -11.1      2.698      7.427
REMARK SMILES O=C(N[C@@H]1C=C[C@@H](C(=O)OCCOC(=O)c2ccc(-c3c4nc(c(-c5c(F)cccc5F)c5ccc([nH]5)c(-c5c(F)cccc5F)c5nc(c(-c6c(F)cccc6F)c6ccc3[nH]6)C=C5)C=C4)cc2)C1)Oc1ccccc1
REMARK SMILES IDX 11 1 10 2 8 3 9 4 7 5 4 6 5 7 70 8 6 9 3 10 1 11 2 12 71 14
REMARK SMILES IDX 72 15 73 16 77 17 74 18 76 19 75 20 12 21 13 22 14 23 15 24
REMARK SMILES IDX 16 25 17 26 69 27 18 28 68 29 19 30 20 31 21 32 62 33 22 34
REMARK SMILES IDX 67 35 61 36 63 37 23 38 66 39 60 40 59 41 24 43 50 44 33 45
REMARK SMILES IDX 49 46 34 47 37 48 48 49 64 50 35 51 36 52 47 54 65 55 38 56
REMARK SMILES IDX 25 57 26 58 31 59 27 60 28 61 30 62 32 63 29 64 51 65 52 66
REMARK SMILES IDX 57 67 53 68 54 69 56 70 58 71 55 72 39 73 40 74 45 75 41 76
REMARK SMILES IDX 42 77 44 78 46 79 43 80
REMARK H PARENT 3 13 63 42 37 53
REMARK Flexibility Score: inf
ROOT
ATOM      1  C   UNL A   1      31.141  28.433  24.687  1.00  0.00     0.274 C 
ENDROOT
BRANCH   1   2
ATOM      2  O   UNL A   1      32.058  27.466  25.253  1.00  0.00    -0.462 OA
BRANCH   2   3
ATOM      3  C   UNL A   1      31.501  26.565  26.116  1.00  0.00     0.312 C 
ATOM      4  O   UNL A   1      30.668  26.857  26.968  1.00  0.00    -0.252 OA
BRANCH   3   5
ATOM      5  C   UNL A   1      31.924  25.129  25.795  1.00  0.00     0.124 C 
ATOM      6  C   UNL A   1      31.306  22.769  25.618  1.00  0.00     0.109 C 
ATOM      7  C   UNL A   1      31.308  23.447  24.270  1.00  0.00    -0.006 C 
ATOM      8  C   UNL A   1      31.110  24.028  26.478  1.00  0.00     0.049 C 
ATOM      9  C   UNL A   1      31.684  24.734  24.360  1.00  0.00    -0.014 C 
BRANCH   6  10
ATOM     10  N   UNL A   1      32.571  22.035  25.642  1.00  0.00    -0.315 N 
ATOM     11  O   UNL A   1      34.133  20.687  24.780  1.00  0.00    -0.224 OA
ATOM     12  C   UNL A   1      32.968  20.819  25.150  1.00  0.00     0.413 C 
ATOM     13  H   UNL A   1      33.289  22.517  26.110  1.00  0.00     0.167 HD
BRANCH  12  14
ATOM     14  O   UNL A   1      32.068  19.767  25.052  1.00  0.00    -0.410 OA
BRANCH  14  15
ATOM     15  C   UNL A   1      32.505  18.492  24.656  1.00  0.00     0.132 A 
ATOM     16  C   UNL A   1      32.784  18.169  23.333  1.00  0.00     0.047 A 
ATOM     17  C   UNL A   1      32.760  17.592  25.692  1.00  0.00     0.047 A 
ATOM     18  C   UNL A   1      33.525  17.020  23.089  1.00  0.00     0.004 A 
ATOM     19  C   UNL A   1      33.450  16.415  25.423  1.00  0.00     0.004 A 
ATOM     20  C   UNL A   1      33.869  16.151  24.124  1.00  0.00     0.000 A 
ENDBRANCH  14  15
ENDBRANCH  12  14
ENDBRANCH   6  10
ENDBRANCH   3   5
ENDBRANCH   2   3
ENDBRANCH   1   2
BRANCH   1  21
ATOM     21  C   UNL A   1      31.529  29.852  25.115  1.00  0.00     0.275 C 
BRANCH  21  22
ATOM     22  O   UNL A   1      32.443  29.763  26.224  1.00  0.00    -0.458 OA
BRANCH  22  23
ATOM     23  C   UNL A   1      32.790  30.939  26.810  1.00  0.00     0.338 C 
ATOM     24  O   UNL A   1      32.095  31.936  26.872  1.00  0.00    -0.246 OA
BRANCH  23  25
ATOM     25  C   UNL A   1      34.103  30.784  27.508  1.00  0.00     0.060 A 
ATOM     26  C   UNL A   1      34.853  31.898  27.884  1.00  0.00     0.016 A 
ATOM     27  C   UNL A   1      34.656  29.511  27.687  1.00  0.00     0.016 A 
ATOM     28  C   UNL A   1      36.175  31.752  28.309  1.00  0.00     0.010 A 
ATOM     29  C   UNL A   1      35.928  29.367  28.270  1.00  0.00     0.010 A 
ATOM     30  C   UNL A   1      36.711  30.489  28.593  1.00  0.00    -0.014 A 
BRANCH  30  31
ATOM     31  C   UNL A   1      38.026  30.355  29.304  1.00  0.00     0.031 A 
ATOM     32  C   UNL A   1      39.146  29.511  28.743  1.00  0.00     0.074 A 
ATOM     33  C   UNL A   1      38.205  30.946  30.509  1.00  0.00     0.049 A 
ATOM     34  N   UNL A   1      40.202  29.029  29.353  1.00  0.00    -0.248 NA
ATOM     35  C   UNL A   1      39.063  29.147  27.321  1.00  0.00     0.031 C 
ATOM     36  C   UNL A   1      37.241  31.819  31.186  1.00  0.00     0.029 A 
ATOM     37  N   UNL A   1      39.257  30.888  31.395  1.00  0.00    -0.354 N 
ATOM     38  C   UNL A   1      40.866  28.243  28.414  1.00  0.00     0.074 A 
ATOM     39  C   UNL A   1      40.104  28.332  27.186  1.00  0.00     0.031 C 
ATOM     40  C   UNL A   1      37.753  32.240  32.348  1.00  0.00     0.029 A 
ATOM     41  C   UNL A   1      39.018  31.560  32.572  1.00  0.00     0.049 A 
ATOM     42  H   UNL A   1      40.098  30.413  31.204  1.00  0.00     0.167 HD
ATOM     43  C   UNL A   1      41.994  27.508  28.573  1.00  0.00     0.037 A 
ATOM     44  C   UNL A   1      39.678  31.572  33.745  1.00  0.00     0.037 A 
ATOM     45  C   UNL A   1      42.791  27.483  29.776  1.00  0.00     0.049 A 
ATOM     46  C   UNL A   1      40.908  30.731  33.903  1.00  0.00     0.074 A 
ATOM     47  C   UNL A   1      43.973  26.798  30.014  1.00  0.00     0.029 A 
ATOM     48  N   UNL A   1      42.502  28.187  30.935  1.00  0.00    -0.354 N 
ATOM     49  N   UNL A   1      41.486  29.947  33.028  1.00  0.00    -0.248 NA
ATOM     50  C   UNL A   1      41.564  30.759  35.216  1.00  0.00     0.031 C 
ATOM     51  C   UNL A   1      44.373  27.053  31.329  1.00  0.00     0.029 A 
ATOM     52  C   UNL A   1      43.472  27.937  31.895  1.00  0.00     0.049 A 
ATOM     53  H   UNL A   1      41.723  28.776  31.059  1.00  0.00     0.167 HD
ATOM     54  C   UNL A   1      42.583  29.401  33.679  1.00  0.00     0.074 A 
ATOM     55  C   UNL A   1      42.601  29.961  35.014  1.00  0.00     0.031 C 
ATOM     56  C   UNL A   1      43.489  28.509  33.215  1.00  0.00     0.037 A 
BRANCH  43  57
ATOM     57  C   UNL A   1      42.438  26.625  27.439  1.00  0.00     0.057 A 
ATOM     58  C   UNL A   1      42.004  25.302  27.302  1.00  0.00     0.134 A 
ATOM     59  C   UNL A   1      43.235  27.152  26.410  1.00  0.00     0.134 A 
ATOM     60  F   UNL A   1      41.242  24.735  28.247  1.00  0.00    -0.206 F 
ATOM     61  C   UNL A   1      42.354  24.532  26.189  1.00  0.00     0.040 A 
ATOM     62  C   UNL A   1      43.570  26.400  25.283  1.00  0.00     0.040 A 
ATOM     63  F   UNL A   1      43.672  28.419  26.470  1.00  0.00    -0.206 F 
ATOM     64  C   UNL A   1      43.131  25.084  25.171  1.00  0.00     0.006 A 
ENDBRANCH  43  57
BRANCH  44  65
ATOM     65  C   UNL A   1      39.133  32.339  34.897  1.00  0.00     0.057 A 
ATOM     66  C   UNL A   1      38.318  31.731  35.856  1.00  0.00     0.134 A 
ATOM     67  C   UNL A   1      39.410  33.705  35.059  1.00  0.00     0.134 A 
ATOM     68  F   UNL A   1      37.996  30.434  35.744  1.00  0.00    -0.206 F 
ATOM     69  C   UNL A   1      37.781  32.453  36.923  1.00  0.00     0.040 A 
ATOM     70  C   UNL A   1      38.911  34.430  36.141  1.00  0.00     0.040 A 
ATOM     71  F   UNL A   1      40.191  34.348  34.180  1.00  0.00    -0.206 F 
ATOM     72  C   UNL A   1      38.084  33.805  37.073  1.00  0.00     0.006 A 
ENDBRANCH  44  65
BRANCH  56  73
ATOM     73  C   UNL A   1      44.604  28.127  34.141  1.00  0.00     0.057 A 
ATOM     74  C   UNL A   1      44.516  27.015  34.988  1.00  0.00     0.134 A 
ATOM     75  C   UNL A   1      45.785  28.878  34.179  1.00  0.00     0.134 A 
ATOM     76  F   UNL A   1      43.403  26.266  35.012  1.00  0.00    -0.206 F 
ATOM     77  C   UNL A   1      45.555  26.677  35.856  1.00  0.00     0.040 A 
ATOM     78  C   UNL A   1      46.841  28.537  35.024  1.00  0.00     0.040 A 
ATOM     79  F   UNL A   1      45.934  29.954  33.390  1.00  0.00    -0.206 F 
ATOM     80  C   UNL A   1      46.723  27.437  35.871  1.00  0.00     0.006 A 
ENDBRANCH  56  73
ENDBRANCH  30  31
ENDBRANCH  23  25
ENDBRANCH  22  23
ENDBRANCH  21  22
ENDBRANCH   1  21
TORSDOF 14
ENDMDL
