MODEL 1
REMARK VINA RESULT:     -12.2      0.000      0.000
REMARK SMILES O=C(OCCOC(=O)c1cc(NC(=S)NC(=O)c2ccccc2F)ccc1Cl)c1ccc(-c2c3nc(c(-c4c(F)cccc4F)c4ccc([nH]4)c(-c4c(F)cccc4F)c4nc(c(-c5c(F)cccc5F)c5ccc2[nH]5)C=C4)C=C3)cc1
REMARK SMILES IDX 5 1 4 2 3 3 2 4 1 5 29 6 30 7 82 8 31 9 81 10 32 11 33 12
REMARK SMILES IDX 34 13 75 14 35 15 80 16 74 17 76 18 36 19 79 20 73 21 72 22
REMARK SMILES IDX 37 24 63 25 46 26 62 27 47 28 50 29 61 30 77 31 48 32 49 33
REMARK SMILES IDX 60 35 78 36 51 37 38 38 39 39 44 40 40 41 41 42 43 43 45 44
REMARK SMILES IDX 42 45 64 46 65 47 70 48 66 49 67 50 69 51 71 52 68 53 52 54
REMARK SMILES IDX 53 55 58 56 54 57 55 58 57 59 59 60 56 61 6 62 7 63 8 64
REMARK SMILES IDX 9 65 10 66 27 67 11 68 26 69 28 70 25 71 12 72 13 74 14 75
REMARK SMILES IDX 15 76 16 77 17 79 18 80 19 81 23 82 20 83 22 84 24 85 21 86
REMARK H PARENT 76 23 50 34 12 73 15 78
REMARK Flexibility Score: inf
ROOT
ATOM      1  C   UNL A   1      43.693  21.043  25.639  1.00  0.00     0.275 C 
ENDROOT
BRANCH   1   2
ATOM      2  C   UNL A   1      44.599  21.964  24.803  1.00  0.00     0.275 C 
BRANCH   2   3
ATOM      3  O   UNL A   1      44.022  23.224  24.468  1.00  0.00    -0.458 OA
BRANCH   3   4
ATOM      4  C   UNL A   1      44.477  24.432  24.851  1.00  0.00     0.338 C 
ATOM      5  O   UNL A   1      45.657  24.697  24.627  1.00  0.00    -0.246 OA
BRANCH   4   6
ATOM      6  C   UNL A   1      43.628  25.463  25.552  1.00  0.00     0.060 A 
ATOM      7  C   UNL A   1      42.232  25.504  25.693  1.00  0.00     0.016 A 
ATOM      8  C   UNL A   1      44.357  26.400  26.275  1.00  0.00     0.016 A 
ATOM      9  C   UNL A   1      41.602  26.297  26.668  1.00  0.00     0.010 A 
ATOM     10  C   UNL A   1      43.746  27.127  27.288  1.00  0.00     0.010 A 
ATOM     11  C   UNL A   1      42.358  27.065  27.537  1.00  0.00    -0.014 A 
BRANCH  11  12
ATOM     12  C   UNL A   1      41.776  27.852  28.670  1.00  0.00     0.031 A 
ATOM     13  C   UNL A   1      42.363  27.610  30.033  1.00  0.00     0.074 A 
ATOM     14  C   UNL A   1      40.684  28.648  28.569  1.00  0.00     0.049 A 
ATOM     15  N   UNL A   1      41.901  27.944  31.208  1.00  0.00    -0.248 NA
ATOM     16  C   UNL A   1      43.589  26.791  30.083  1.00  0.00     0.031 C 
ATOM     17  C   UNL A   1      39.951  28.974  27.346  1.00  0.00     0.029 A 
ATOM     18  N   UNL A   1      39.966  29.308  29.547  1.00  0.00    -0.354 N 
ATOM     19  C   UNL A   1      42.783  27.354  32.096  1.00  0.00     0.074 A 
ATOM     20  C   UNL A   1      43.596  26.427  31.352  1.00  0.00     0.031 C 
ATOM     21  C   UNL A   1      38.876  29.728  27.648  1.00  0.00     0.029 A 
ATOM     22  C   UNL A   1      38.838  29.955  29.088  1.00  0.00     0.049 A 
ATOM     23  H   UNL A   1      40.237  29.317  30.494  1.00  0.00     0.167 HD
ATOM     24  C   UNL A   1      43.053  27.694  33.374  1.00  0.00     0.037 A 
ATOM     25  C   UNL A   1      37.892  30.660  29.748  1.00  0.00     0.037 A 
ATOM     26  C   UNL A   1      42.350  28.717  34.076  1.00  0.00     0.049 A 
ATOM     27  C   UNL A   1      38.094  30.953  31.215  1.00  0.00     0.074 A 
ATOM     28  C   UNL A   1      42.615  29.239  35.325  1.00  0.00     0.029 A 
ATOM     29  N   UNL A   1      41.243  29.381  33.573  1.00  0.00    -0.354 N 
ATOM     30  N   UNL A   1      39.044  30.524  32.011  1.00  0.00    -0.248 NA
ATOM     31  C   UNL A   1      37.147  31.875  31.863  1.00  0.00     0.031 C 
ATOM     32  C   UNL A   1      41.622  30.178  35.608  1.00  0.00     0.029 A 
ATOM     33  C   UNL A   1      40.780  30.283  34.509  1.00  0.00     0.049 A 
ATOM     34  H   UNL A   1      40.847  29.232  32.685  1.00  0.00     0.167 HD
ATOM     35  C   UNL A   1      38.858  31.183  33.221  1.00  0.00     0.074 A 
ATOM     36  C   UNL A   1      37.679  32.008  33.073  1.00  0.00     0.031 C 
ATOM     37  C   UNL A   1      39.626  31.130  34.336  1.00  0.00     0.037 A 
BRANCH  24  38
ATOM     38  C   UNL A   1      44.224  27.009  34.006  1.00  0.00     0.057 A 
ATOM     39  C   UNL A   1      45.500  27.571  33.940  1.00  0.00     0.134 A 
ATOM     40  C   UNL A   1      44.066  25.834  34.763  1.00  0.00     0.134 A 
ATOM     41  F   UNL A   1      45.718  28.688  33.231  1.00  0.00    -0.206 F 
ATOM     42  C   UNL A   1      46.573  27.009  34.633  1.00  0.00     0.040 A 
ATOM     43  C   UNL A   1      45.119  25.291  35.496  1.00  0.00     0.040 A 
ATOM     44  F   UNL A   1      42.858  25.258  34.884  1.00  0.00    -0.206 F 
ATOM     45  C   UNL A   1      46.378  25.880  35.430  1.00  0.00     0.006 A 
ENDBRANCH  24  38
BRANCH  25  46
ATOM     46  C   UNL A   1      36.719  31.221  29.022  1.00  0.00     0.057 A 
ATOM     47  C   UNL A   1      35.617  30.424  28.681  1.00  0.00     0.134 A 
ATOM     48  C   UNL A   1      36.665  32.572  28.658  1.00  0.00     0.134 A 
ATOM     49  F   UNL A   1      35.598  29.121  28.999  1.00  0.00    -0.206 F 
ATOM     50  C   UNL A   1      34.510  30.950  28.004  1.00  0.00     0.040 A 
ATOM     51  C   UNL A   1      35.562  33.112  27.988  1.00  0.00     0.040 A 
ATOM     52  F   UNL A   1      37.674  33.395  28.976  1.00  0.00    -0.206 F 
ATOM     53  C   UNL A   1      34.481  32.299  27.657  1.00  0.00     0.006 A 
ENDBRANCH  25  46
BRANCH  37  54
ATOM     54  C   UNL A   1      39.292  32.018  35.494  1.00  0.00     0.057 A 
ATOM     55  C   UNL A   1      38.324  31.612  36.425  1.00  0.00     0.134 A 
ATOM     56  C   UNL A   1      39.745  33.339  35.559  1.00  0.00     0.134 A 
ATOM     57  F   UNL A   1      37.839  30.360  36.400  1.00  0.00    -0.206 F 
ATOM     58  C   UNL A   1      37.774  32.507  37.340  1.00  0.00     0.040 A 
ATOM     59  C   UNL A   1      39.221  34.237  36.490  1.00  0.00     0.040 A 
ATOM     60  F   UNL A   1      40.674  33.782  34.699  1.00  0.00    -0.206 F 
ATOM     61  C   UNL A   1      38.216  33.828  37.367  1.00  0.00     0.006 A 
ENDBRANCH  37  54
ENDBRANCH  11  12
ENDBRANCH   4   6
ENDBRANCH   3   4
ENDBRANCH   2   3
ENDBRANCH   1   2
BRANCH   1  62
ATOM     62  O   UNL A   1      42.262  21.147  25.391  1.00  0.00    -0.458 OA
BRANCH  62  63
ATOM     63  C   UNL A   1      41.489  20.666  26.408  1.00  0.00     0.339 C 
ATOM     64  O   UNL A   1      41.804  19.711  27.107  1.00  0.00    -0.246 OA
BRANCH  63  65
ATOM     65  C   UNL A   1      40.073  21.282  26.480  1.00  0.00     0.080 A 
ATOM     66  C   UNL A   1      38.388  21.203  25.385  1.00  0.00     0.043 A 
ATOM     67  C   UNL A   1      40.273  22.851  27.378  1.00  0.00     0.055 A 
ATOM     68  C   UNL A   1      37.219  22.395  25.267  1.00  0.00     0.041 A 
ATOM     69  C   UNL A   1      38.997  24.102  27.183  1.00  0.00     0.023 A 
ATOM     70  Cl  UNL A   1      41.631  23.186  28.376  1.00  0.00    -0.083 Cl
ATOM     71  C   UNL A   1      37.524  23.858  26.158  1.00  0.00     0.028 A 
BRANCH  68  72
ATOM     72  N   UNL A   1      36.208  21.893  24.400  1.00  0.00    -0.332 N 
ATOM     73  H   UNL A   1      36.504  21.719  23.477  1.00  0.00     0.169 HD
BRANCH  72  74
ATOM     74  C   UNL A   1      34.842  21.603  24.656  1.00  0.00     0.177 C 
ATOM     75  S   UNL A   1      34.394  21.452  26.270  1.00  0.00    -0.040 S 
BRANCH  74  76
ATOM     76  N   UNL A   1      33.740  21.479  23.675  1.00  0.00    -0.299 N 
ATOM     77  C   UNL A   1      32.326  21.846  23.115  1.00  0.00     0.260 C 
ATOM     78  H   UNL A   1      34.073  20.808  23.035  1.00  0.00     0.172 HD
ATOM     79  O   UNL A   1      31.772  21.075  22.338  1.00  0.00    -0.269 OA
BRANCH  77  80
ATOM     80  C   UNL A   1      31.615  23.216  23.521  1.00  0.00     0.075 A 
ATOM     81  C   UNL A   1      31.233  23.249  25.287  1.00  0.00     0.017 A 
ATOM     82  C   UNL A   1      32.726  24.388  22.783  1.00  0.00     0.135 A 
ATOM     83  C   UNL A   1      32.205  24.373  26.350  1.00  0.00     0.001 A 
ATOM     84  C   UNL A   1      33.681  25.560  23.674  1.00  0.00     0.040 A 
ATOM     85  F   UNL A   1      33.301  23.987  21.631  1.00  0.00    -0.206 F 
ATOM     86  C   UNL A   1      33.526  25.615  25.442  1.00  0.00     0.003 A 
ENDBRANCH  77  80
ENDBRANCH  74  76
ENDBRANCH  72  74
ENDBRANCH  68  72
ENDBRANCH  63  65
ENDBRANCH  62  63
ENDBRANCH   1  62
TORSDOF 15
ENDMDL
MODEL 2
REMARK VINA RESULT:     -12.1      3.704      8.476
REMARK SMILES O=C(OCCOC(=O)c1cc(NC(=S)NC(=O)c2ccccc2F)ccc1Cl)c1ccc(-c2c3nc(c(-c4c(F)cccc4F)c4ccc([nH]4)c(-c4c(F)cccc4F)c4nc(c(-c5c(F)cccc5F)c5ccc2[nH]5)C=C4)C=C3)cc1
REMARK SMILES IDX 5 1 4 2 3 3 2 4 1 5 29 6 30 7 82 8 31 9 81 10 32 11 33 12
REMARK SMILES IDX 34 13 75 14 35 15 80 16 74 17 76 18 36 19 79 20 73 21 72 22
REMARK SMILES IDX 37 24 63 25 46 26 62 27 47 28 50 29 61 30 77 31 48 32 49 33
REMARK SMILES IDX 60 35 78 36 51 37 38 38 39 39 44 40 40 41 41 42 43 43 45 44
REMARK SMILES IDX 42 45 64 46 65 47 70 48 66 49 67 50 69 51 71 52 68 53 52 54
REMARK SMILES IDX 53 55 58 56 54 57 55 58 57 59 59 60 56 61 6 62 7 63 8 64
REMARK SMILES IDX 9 65 10 66 27 67 11 68 26 69 28 70 25 71 12 72 13 74 14 75
REMARK SMILES IDX 15 76 16 77 17 79 18 80 19 81 23 82 20 83 22 84 24 85 21 86
REMARK H PARENT 76 23 50 34 12 73 15 78
REMARK Flexibility Score: inf
ROOT
ATOM      1  C   UNL A   1      31.552  31.614  26.162  1.00  0.00     0.275 C 
ENDROOT
BRANCH   1   2
ATOM      2  C   UNL A   1      31.356  32.703  27.230  1.00  0.00     0.275 C 
BRANCH   2   3
ATOM      3  O   UNL A   1      32.385  33.689  27.273  1.00  0.00    -0.458 OA
BRANCH   3   4
ATOM      4  C   UNL A   1      33.252  33.888  28.285  1.00  0.00     0.338 C 
ATOM      5  O   UNL A   1      32.930  34.681  29.167  1.00  0.00    -0.246 OA
BRANCH   4   6
ATOM      6  C   UNL A   1      34.595  33.207  28.382  1.00  0.00     0.060 A 
ATOM      7  C   UNL A   1      35.874  33.784  28.398  1.00  0.00     0.016 A 
ATOM      8  C   UNL A   1      34.520  31.844  28.644  1.00  0.00     0.016 A 
ATOM      9  C   UNL A   1      37.004  33.086  28.861  1.00  0.00     0.010 A 
ATOM     10  C   UNL A   1      35.616  31.174  29.171  1.00  0.00     0.010 A 
ATOM     11  C   UNL A   1      36.877  31.789  29.330  1.00  0.00    -0.014 A 
BRANCH  11  12
ATOM     12  C   UNL A   1      38.005  31.014  29.940  1.00  0.00     0.031 A 
ATOM     13  C   UNL A   1      38.386  31.371  31.350  1.00  0.00     0.074 A 
ATOM     14  C   UNL A   1      38.776  30.126  29.267  1.00  0.00     0.049 A 
ATOM     15  N   UNL A   1      39.459  31.058  32.024  1.00  0.00    -0.248 NA
ATOM     16  C   UNL A   1      37.477  32.290  32.062  1.00  0.00     0.031 C 
ATOM     17  C   UNL A   1      38.592  29.681  27.886  1.00  0.00     0.029 A 
ATOM     18  N   UNL A   1      39.919  29.458  29.660  1.00  0.00    -0.354 N 
ATOM     19  C   UNL A   1      39.328  31.762  33.209  1.00  0.00     0.074 A 
ATOM     20  C   UNL A   1      38.263  32.716  33.034  1.00  0.00     0.031 C 
ATOM     21  C   UNL A   1      39.600  28.857  27.537  1.00  0.00     0.029 A 
ATOM     22  C   UNL A   1      40.505  28.699  28.669  1.00  0.00     0.049 A 
ATOM     23  H   UNL A   1      40.285  29.519  30.572  1.00  0.00     0.167 HD
ATOM     24  C   UNL A   1      39.886  31.510  34.411  1.00  0.00     0.037 A 
ATOM     25  C   UNL A   1      41.631  27.952  28.678  1.00  0.00     0.037 A 
ATOM     26  C   UNL A   1      40.836  30.468  34.628  1.00  0.00     0.049 A 
ATOM     27  C   UNL A   1      42.361  27.749  29.983  1.00  0.00     0.074 A 
ATOM     28  C   UNL A   1      41.375  30.033  35.820  1.00  0.00     0.029 A 
ATOM     29  N   UNL A   1      41.378  29.691  33.618  1.00  0.00    -0.354 N 
ATOM     30  N   UNL A   1      42.115  28.294  31.150  1.00  0.00    -0.248 NA
ATOM     31  C   UNL A   1      43.474  26.785  30.000  1.00  0.00     0.031 C 
ATOM     32  C   UNL A   1      42.298  29.029  35.524  1.00  0.00     0.029 A 
ATOM     33  C   UNL A   1      42.285  28.801  34.155  1.00  0.00     0.049 A 
ATOM     34  H   UNL A   1      41.150  29.762  32.663  1.00  0.00     0.167 HD
ATOM     35  C   UNL A   1      42.980  27.683  32.050  1.00  0.00     0.074 A 
ATOM     36  C   UNL A   1      43.791  26.757  31.290  1.00  0.00     0.031 C 
ATOM     37  C   UNL A   1      43.060  27.854  33.392  1.00  0.00     0.037 A 
BRANCH  24  38
ATOM     38  C   UNL A   1      39.374  32.320  35.561  1.00  0.00     0.057 A 
ATOM     39  C   UNL A   1      39.849  33.613  35.790  1.00  0.00     0.134 A 
ATOM     40  C   UNL A   1      38.338  31.848  36.387  1.00  0.00     0.134 A 
ATOM     41  F   UNL A   1      40.838  34.118  35.040  1.00  0.00    -0.206 F 
ATOM     42  C   UNL A   1      39.287  34.422  36.778  1.00  0.00     0.040 A 
ATOM     43  C   UNL A   1      37.740  32.663  37.345  1.00  0.00     0.040 A 
ATOM     44  F   UNL A   1      37.824  30.621  36.201  1.00  0.00    -0.206 F 
ATOM     45  C   UNL A   1      38.217  33.955  37.542  1.00  0.00     0.006 A 
ENDBRANCH  24  38
BRANCH  25  46
ATOM     46  C   UNL A   1      42.092  27.260  27.441  1.00  0.00     0.057 A 
ATOM     47  C   UNL A   1      42.941  27.891  26.520  1.00  0.00     0.134 A 
ATOM     48  C   UNL A   1      41.704  25.946  27.152  1.00  0.00     0.134 A 
ATOM     49  F   UNL A   1      43.355  29.149  26.732  1.00  0.00    -0.206 F 
ATOM     50  C   UNL A   1      43.381  27.241  25.361  1.00  0.00     0.040 A 
ATOM     51  C   UNL A   1      42.141  25.283  26.002  1.00  0.00     0.040 A 
ATOM     52  F   UNL A   1      40.914  25.276  28.005  1.00  0.00    -0.206 F 
ATOM     53  C   UNL A   1      42.980  25.932  25.100  1.00  0.00     0.006 A 
ENDBRANCH  25  46
BRANCH  37  54
ATOM     54  C   UNL A   1      44.004  26.999  34.181  1.00  0.00     0.057 A 
ATOM     55  C   UNL A   1      43.515  25.878  34.869  1.00  0.00     0.134 A 
ATOM     56  C   UNL A   1      45.315  27.405  34.443  1.00  0.00     0.134 A 
ATOM     57  F   UNL A   1      42.258  25.453  34.671  1.00  0.00    -0.206 F 
ATOM     58  C   UNL A   1      44.280  25.229  35.836  1.00  0.00     0.040 A 
ATOM     59  C   UNL A   1      46.099  26.745  35.389  1.00  0.00     0.040 A 
ATOM     60  F   UNL A   1      45.838  28.466  33.811  1.00  0.00    -0.206 F 
ATOM     61  C   UNL A   1      45.573  25.669  36.106  1.00  0.00     0.006 A 
ENDBRANCH  37  54
ENDBRANCH  11  12
ENDBRANCH   4   6
ENDBRANCH   3   4
ENDBRANCH   2   3
ENDBRANCH   1   2
BRANCH   1  62
ATOM     62  O   UNL A   1      31.862  30.278  26.651  1.00  0.00    -0.458 OA
BRANCH  62  63
ATOM     63  C   UNL A   1      32.408  29.457  25.707  1.00  0.00     0.339 C 
ATOM     64  O   UNL A   1      33.286  29.807  24.929  1.00  0.00    -0.246 OA
BRANCH  63  65
ATOM     65  C   UNL A   1      31.683  28.102  25.543  1.00  0.00     0.080 A 
ATOM     66  C   UNL A   1      32.092  26.170  25.923  1.00  0.00     0.043 A 
ATOM     67  C   UNL A   1      30.536  28.332  24.151  1.00  0.00     0.055 A 
ATOM     68  C   UNL A   1      31.474  24.841  25.114  1.00  0.00     0.041 A 
ATOM     69  C   UNL A   1      29.934  26.865  23.304  1.00  0.00     0.023 A 
ATOM     70  Cl  UNL A   1      30.031  29.881  23.606  1.00  0.00    -0.083 Cl
ATOM     71  C   UNL A   1      30.398  25.184  23.790  1.00  0.00     0.028 A 
BRANCH  68  72
ATOM     72  N   UNL A   1      32.027  23.688  25.737  1.00  0.00    -0.332 N 
ATOM     73  H   UNL A   1      32.997  23.730  25.898  1.00  0.00     0.169 HD
BRANCH  72  74
ATOM     74  C   UNL A   1      31.402  22.487  26.165  1.00  0.00     0.177 C 
ATOM     75  S   UNL A   1      29.854  22.633  26.807  1.00  0.00    -0.040 S 
BRANCH  74  76
ATOM     76  N   UNL A   1      31.918  21.104  26.056  1.00  0.00    -0.299 N 
ATOM     77  C   UNL A   1      32.554  19.913  25.266  1.00  0.00     0.260 C 
ATOM     78  H   UNL A   1      31.794  20.739  26.962  1.00  0.00     0.172 HD
ATOM     79  O   UNL A   1      32.439  18.773  25.706  1.00  0.00    -0.269 OA
BRANCH  77  80
ATOM     80  C   UNL A   1      33.370  20.167  23.917  1.00  0.00     0.075 A 
ATOM     81  C   UNL A   1      32.339  20.990  22.682  1.00  0.00     0.017 A 
ATOM     82  C   UNL A   1      34.838  20.927  24.566  1.00  0.00     0.135 A 
ATOM     83  C   UNL A   1      32.709  22.734  22.286  1.00  0.00     0.001 A 
ATOM     84  C   UNL A   1      35.346  22.571  24.228  1.00  0.00     0.040 A 
ATOM     85  F   UNL A   1      35.230  20.478  25.776  1.00  0.00    -0.206 F 
ATOM     86  C   UNL A   1      34.350  23.564  23.142  1.00  0.00     0.003 A 
ENDBRANCH  77  80
ENDBRANCH  74  76
ENDBRANCH  72  74
ENDBRANCH  68  72
ENDBRANCH  63  65
ENDBRANCH  62  63
ENDBRANCH   1  62
TORSDOF 15
ENDMDL
MODEL 3
REMARK VINA RESULT:     -11.9      1.690      2.434
REMARK SMILES O=C(OCCOC(=O)c1cc(NC(=S)NC(=O)c2ccccc2F)ccc1Cl)c1ccc(-c2c3nc(c(-c4c(F)cccc4F)c4ccc([nH]4)c(-c4c(F)cccc4F)c4nc(c(-c5c(F)cccc5F)c5ccc2[nH]5)C=C4)C=C3)cc1
REMARK SMILES IDX 5 1 4 2 3 3 2 4 1 5 29 6 30 7 82 8 31 9 81 10 32 11 33 12
REMARK SMILES IDX 34 13 75 14 35 15 80 16 74 17 76 18 36 19 79 20 73 21 72 22
REMARK SMILES IDX 37 24 63 25 46 26 62 27 47 28 50 29 61 30 77 31 48 32 49 33
REMARK SMILES IDX 60 35 78 36 51 37 38 38 39 39 44 40 40 41 41 42 43 43 45 44
REMARK SMILES IDX 42 45 64 46 65 47 70 48 66 49 67 50 69 51 71 52 68 53 52 54
REMARK SMILES IDX 53 55 58 56 54 57 55 58 57 59 59 60 56 61 6 62 7 63 8 64
REMARK SMILES IDX 9 65 10 66 27 67 11 68 26 69 28 70 25 71 12 72 13 74 14 75
REMARK SMILES IDX 15 76 16 77 17 79 18 80 19 81 23 82 20 83 22 84 24 85 21 86
REMARK H PARENT 76 23 50 34 12 73 15 78
REMARK Flexibility Score: inf
ROOT
ATOM      1  C   UNL A   1      42.236  21.084  26.177  1.00  0.00     0.275 C 
ENDROOT
BRANCH   1   2
ATOM      2  C   UNL A   1      43.514  21.673  25.556  1.00  0.00     0.275 C 
BRANCH   2   3
ATOM      3  O   UNL A   1      43.299  22.788  24.694  1.00  0.00    -0.458 OA
BRANCH   3   4
ATOM      4  C   UNL A   1      43.659  24.063  24.941  1.00  0.00     0.338 C 
ATOM      5  O   UNL A   1      44.749  24.442  24.518  1.00  0.00    -0.246 OA
BRANCH   4   6
ATOM      6  C   UNL A   1      42.810  25.036  25.719  1.00  0.00     0.060 A 
ATOM      7  C   UNL A   1      41.717  24.773  26.560  1.00  0.00     0.016 A 
ATOM      8  C   UNL A   1      43.289  26.341  25.706  1.00  0.00     0.016 A 
ATOM      9  C   UNL A   1      41.256  25.709  27.503  1.00  0.00     0.010 A 
ATOM     10  C   UNL A   1      42.887  27.241  26.685  1.00  0.00     0.010 A 
ATOM     11  C   UNL A   1      41.888  26.935  27.634  1.00  0.00    -0.014 A 
BRANCH  11  12
ATOM     12  C   UNL A   1      41.532  27.943  28.682  1.00  0.00     0.031 A 
ATOM     13  C   UNL A   1      42.301  27.878  29.972  1.00  0.00     0.074 A 
ATOM     14  C   UNL A   1      40.488  28.803  28.595  1.00  0.00     0.049 A 
ATOM     15  N   UNL A   1      42.043  28.438  31.122  1.00  0.00    -0.248 NA
ATOM     16  C   UNL A   1      43.469  26.975  29.995  1.00  0.00     0.031 C 
ATOM     17  C   UNL A   1      39.601  28.987  27.447  1.00  0.00     0.029 A 
ATOM     18  N   UNL A   1      39.968  29.674  29.533  1.00  0.00    -0.354 N 
ATOM     19  C   UNL A   1      43.011  27.927  31.970  1.00  0.00     0.074 A 
ATOM     20  C   UNL A   1      43.644  26.824  31.294  1.00  0.00     0.031 C 
ATOM     21  C   UNL A   1      38.632  29.870  27.759  1.00  0.00     0.029 A 
ATOM     22  C   UNL A   1      38.825  30.331  29.128  1.00  0.00     0.049 A 
ATOM     23  H   UNL A   1      40.378  29.813  30.416  1.00  0.00     0.167 HD
ATOM     24  C   UNL A   1      43.491  28.446  33.120  1.00  0.00     0.037 A 
ATOM     25  C   UNL A   1      38.035  31.213  29.779  1.00  0.00     0.037 A 
ATOM     26  C   UNL A   1      42.965  29.628  33.723  1.00  0.00     0.049 A 
ATOM     27  C   UNL A   1      38.473  31.724  31.130  1.00  0.00     0.074 A 
ATOM     28  C   UNL A   1      43.446  30.321  34.813  1.00  0.00     0.029 A 
ATOM     29  N   UNL A   1      41.838  30.293  33.269  1.00  0.00    -0.354 N 
ATOM     30  N   UNL A   1      39.503  31.350  31.850  1.00  0.00    -0.248 NA
ATOM     31  C   UNL A   1      37.692  32.818  31.732  1.00  0.00     0.031 C 
ATOM     32  C   UNL A   1      42.567  31.376  35.062  1.00  0.00     0.029 A 
ATOM     33  C   UNL A   1      41.578  31.373  34.088  1.00  0.00     0.049 A 
ATOM     34  H   UNL A   1      41.305  30.035  32.483  1.00  0.00     0.167 HD
ATOM     35  C   UNL A   1      39.543  32.212  32.940  1.00  0.00     0.074 A 
ATOM     36  C   UNL A   1      38.408  33.100  32.815  1.00  0.00     0.031 C 
ATOM     37  C   UNL A   1      40.465  32.276  33.931  1.00  0.00     0.037 A 
BRANCH  24  38
ATOM     38  C   UNL A   1      44.699  27.776  33.694  1.00  0.00     0.057 A 
ATOM     39  C   UNL A   1      44.566  26.725  34.603  1.00  0.00     0.134 A 
ATOM     40  C   UNL A   1      45.997  28.114  33.270  1.00  0.00     0.134 A 
ATOM     41  F   UNL A   1      43.357  26.357  35.049  1.00  0.00    -0.206 F 
ATOM     42  C   UNL A   1      45.680  26.010  35.046  1.00  0.00     0.040 A 
ATOM     43  C   UNL A   1      47.110  27.378  33.669  1.00  0.00     0.040 A 
ATOM     44  F   UNL A   1      46.187  29.101  32.379  1.00  0.00    -0.206 F 
ATOM     45  C   UNL A   1      46.951  26.321  34.562  1.00  0.00     0.006 A 
ENDBRANCH  24  38
BRANCH  25  46
ATOM     46  C   UNL A   1      36.802  31.747  29.135  1.00  0.00     0.057 A 
ATOM     47  C   UNL A   1      36.759  33.039  28.591  1.00  0.00     0.134 A 
ATOM     48  C   UNL A   1      35.638  30.976  29.037  1.00  0.00     0.134 A 
ATOM     49  F   UNL A   1      37.837  33.834  28.647  1.00  0.00    -0.206 F 
ATOM     50  C   UNL A   1      35.604  33.541  27.980  1.00  0.00     0.040 A 
ATOM     51  C   UNL A   1      34.480  31.462  28.423  1.00  0.00     0.040 A 
ATOM     52  F   UNL A   1      35.620  29.722  29.514  1.00  0.00    -0.206 F 
ATOM     53  C   UNL A   1      34.460  32.750  27.894  1.00  0.00     0.006 A 
ENDBRANCH  25  46
BRANCH  37  54
ATOM     54  C   UNL A   1      40.364  33.367  34.952  1.00  0.00     0.057 A 
ATOM     55  C   UNL A   1      39.594  33.168  36.108  1.00  0.00     0.134 A 
ATOM     56  C   UNL A   1      40.824  34.660  34.689  1.00  0.00     0.134 A 
ATOM     57  F   UNL A   1      39.111  31.951  36.403  1.00  0.00    -0.206 F 
ATOM     58  C   UNL A   1      39.235  34.231  36.934  1.00  0.00     0.040 A 
ATOM     59  C   UNL A   1      40.493  35.727  35.525  1.00  0.00     0.040 A 
ATOM     60  F   UNL A   1      41.569  34.909  33.602  1.00  0.00    -0.206 F 
ATOM     61  C   UNL A   1      39.676  35.518  36.636  1.00  0.00     0.006 A 
ENDBRANCH  37  54
ENDBRANCH  11  12
ENDBRANCH   4   6
ENDBRANCH   3   4
ENDBRANCH   2   3
ENDBRANCH   1   2
BRANCH   1  62
ATOM     62  O   UNL A   1      40.980  21.450  25.537  1.00  0.00    -0.458 OA
BRANCH  62  63
ATOM     63  C   UNL A   1      39.971  21.719  26.416  1.00  0.00     0.339 C 
ATOM     64  O   UNL A   1      40.045  21.511  27.620  1.00  0.00    -0.246 OA
BRANCH  63  65
ATOM     65  C   UNL A   1      38.632  22.112  25.750  1.00  0.00     0.080 A 
ATOM     66  C   UNL A   1      37.361  23.668  25.830  1.00  0.00     0.043 A 
ATOM     67  C   UNL A   1      37.816  20.540  25.338  1.00  0.00     0.055 A 
ATOM     68  C   UNL A   1      35.713  23.626  25.542  1.00  0.00     0.041 A 
ATOM     69  C   UNL A   1      36.039  20.557  25.072  1.00  0.00     0.023 A 
ATOM     70  Cl  UNL A   1      38.668  19.052  25.218  1.00  0.00    -0.083 Cl
ATOM     71  C   UNL A   1      35.040  22.064  25.172  1.00  0.00     0.028 A 
BRANCH  68  72
ATOM     72  N   UNL A   1      35.235  24.957  25.696  1.00  0.00    -0.332 N 
ATOM     73  H   UNL A   1      35.666  25.470  26.418  1.00  0.00     0.169 HD
BRANCH  72  74
ATOM     74  C   UNL A   1      34.238  25.663  24.974  1.00  0.00     0.177 C 
ATOM     75  S   UNL A   1      33.502  26.950  25.768  1.00  0.00    -0.040 S 
BRANCH  74  76
ATOM     76  N   UNL A   1      33.806  25.450  23.573  1.00  0.00    -0.299 N 
ATOM     77  C   UNL A   1      32.850  24.858  22.486  1.00  0.00     0.260 C 
ATOM     78  H   UNL A   1      34.478  25.940  23.046  1.00  0.00     0.172 HD
ATOM     79  O   UNL A   1      33.247  24.761  21.328  1.00  0.00    -0.269 OA
BRANCH  77  80
ATOM     80  C   UNL A   1      31.365  24.407  22.858  1.00  0.00     0.075 A 
ATOM     81  C   UNL A   1      31.372  23.200  24.203  1.00  0.00     0.017 A 
ATOM     82  C   UNL A   1      30.579  25.991  23.027  1.00  0.00     0.135 A 
ATOM     83  C   UNL A   1      30.757  23.738  25.836  1.00  0.00     0.001 A 
ATOM     84  C   UNL A   1      29.897  26.614  24.517  1.00  0.00     0.040 A 
ATOM     85  F   UNL A   1      31.041  26.951  22.201  1.00  0.00    -0.206 F 
ATOM     86  C   UNL A   1      29.962  25.599  25.974  1.00  0.00     0.003 A 
ENDBRANCH  77  80
ENDBRANCH  74  76
ENDBRANCH  72  74
ENDBRANCH  68  72
ENDBRANCH  63  65
ENDBRANCH  62  63
ENDBRANCH   1  62
TORSDOF 15
ENDMDL
