MODEL 1
REMARK VINA RESULT:     -11.9      0.000      0.000
REMARK SMILES COc1ccc(NS(=O)(=O)c2ccc(Cl)c(C(=O)OCCOC(=O)c3ccc(-c4c5nc(c(-c6c(F)cccc6F)c6ccc([nH]6)c(-c6c(F)cccc6F)c6nc(c(-c7c(F)cccc7F)c7ccc4[nH]7)C=C6)C=C5)cc3)c2)cc1Cl
REMARK SMILES IDX 20 1 19 2 17 3 18 4 16 5 11 6 12 7 79 8 13 9 14 10 15 11
REMARK SMILES IDX 8 12 9 13 10 14 7 15 6 17 3 18 4 19 81 20 5 21 80 22 82 23
REMARK SMILES IDX 2 24 1 25 21 26 22 27 23 28 24 29 25 30 26 31 78 32 27 33
REMARK SMILES IDX 77 34 28 35 29 36 30 37 71 38 31 39 76 40 70 41 72 42 32 43
REMARK SMILES IDX 75 44 69 45 68 46 33 48 59 49 42 50 58 51 43 52 46 53 57 54
REMARK SMILES IDX 73 55 44 56 45 57 56 59 74 60 47 61 34 62 35 63 40 64 36 65
REMARK SMILES IDX 37 66 39 67 41 68 38 69 60 70 61 71 66 72 62 73 63 74 65 75
REMARK SMILES IDX 67 76 64 77 48 78 49 79 54 80 50 81 51 82 53 83 55 84 52 85
REMARK H PARENT 7 16 72 47 46 58
REMARK Flexibility Score: inf
ROOT
ATOM      1  C   UNL A   1      37.762  20.058  24.886  1.00  0.00     0.275 C 
ENDROOT
BRANCH   1   2
ATOM      2  O   UNL A   1      36.660  20.825  25.428  1.00  0.00    -0.458 OA
BRANCH   2   3
ATOM      3  C   UNL A   1      35.431  20.636  24.885  1.00  0.00     0.339 C 
ATOM      4  O   UNL A   1      34.877  19.561  24.713  1.00  0.00    -0.246 OA
BRANCH   3   5
ATOM      5  C   UNL A   1      34.727  21.932  24.691  1.00  0.00     0.080 A 
ATOM      6  C   UNL A   1      32.870  23.337  25.399  1.00  0.00     0.088 A 
ATOM      7  C   UNL A   1      33.375  24.401  24.655  1.00  0.00     0.024 A 
ATOM      8  C   UNL A   1      33.488  22.087  25.342  1.00  0.00     0.039 A 
ATOM      9  C   UNL A   1      34.547  24.223  23.916  1.00  0.00     0.023 A 
ATOM     10  C   UNL A   1      35.244  23.004  23.954  1.00  0.00     0.055 A 
ATOM     11  Cl  UNL A   1      36.697  22.900  23.031  1.00  0.00    -0.083 Cl
BRANCH   6  12
ATOM     12  S   UNL A   1      31.560  23.645  26.565  1.00  0.00     0.261 S 
ATOM     13  O   UNL A   1      31.948  22.976  27.791  1.00  0.00    -0.201 OA
ATOM     14  O   UNL A   1      30.301  23.354  25.918  1.00  0.00    -0.201 OA
BRANCH  12  15
ATOM     15  N   UNL A   1      31.591  25.283  26.912  1.00  0.00    -0.280 N 
ATOM     16  H   UNL A   1      32.022  25.543  27.758  1.00  0.00     0.180 HD
BRANCH  15  17
ATOM     17  C   UNL A   1      31.062  26.347  26.116  1.00  0.00     0.051 A 
ATOM     18  C   UNL A   1      30.793  28.311  24.123  1.00  0.00     0.137 A 
ATOM     19  C   UNL A   1      30.138  27.096  23.996  1.00  0.00     0.050 A 
ATOM     20  C   UNL A   1      31.404  28.626  25.335  1.00  0.00     0.085 A 
ATOM     21  C   UNL A   1      30.260  26.126  24.998  1.00  0.00     0.030 A 
ATOM     22  C   UNL A   1      31.587  27.632  26.307  1.00  0.00     0.051 A 
ATOM     23  Cl  UNL A   1      31.925  30.242  25.646  1.00  0.00    -0.080 Cl
BRANCH  18  24
ATOM     24  O   UNL A   1      30.803  29.159  23.047  1.00  0.00    -0.495 OA
ATOM     25  C   UNL A   1      29.511  29.191  22.427  1.00  0.00     0.278 C 
ENDBRANCH  18  24
ENDBRANCH  15  17
ENDBRANCH  12  15
ENDBRANCH   6  12
ENDBRANCH   3   5
ENDBRANCH   2   3
ENDBRANCH   1   2
BRANCH   1  26
ATOM     26  C   UNL A   1      38.918  19.867  25.888  1.00  0.00     0.275 C 
BRANCH  26  27
ATOM     27  O   UNL A   1      40.072  19.201  25.321  1.00  0.00    -0.458 OA
BRANCH  27  28
ATOM     28  C   UNL A   1      41.183  19.383  26.061  1.00  0.00     0.338 C 
ATOM     29  O   UNL A   1      42.056  18.547  26.237  1.00  0.00    -0.246 OA
BRANCH  28  30
ATOM     30  C   UNL A   1      41.356  20.733  26.616  1.00  0.00     0.060 A 
ATOM     31  C   UNL A   1      41.183  21.764  25.700  1.00  0.00     0.016 A 
ATOM     32  C   UNL A   1      41.924  21.006  27.860  1.00  0.00     0.016 A 
ATOM     33  C   UNL A   1      41.685  23.031  25.947  1.00  0.00     0.010 A 
ATOM     34  C   UNL A   1      42.360  22.314  28.148  1.00  0.00     0.010 A 
ATOM     35  C   UNL A   1      42.276  23.332  27.180  1.00  0.00    -0.014 A 
BRANCH  35  36
ATOM     36  C   UNL A   1      42.686  24.742  27.424  1.00  0.00     0.031 A 
ATOM     37  C   UNL A   1      44.028  25.283  27.015  1.00  0.00     0.074 A 
ATOM     38  C   UNL A   1      41.765  25.582  27.932  1.00  0.00     0.049 A 
ATOM     39  N   UNL A   1      44.475  26.514  27.043  1.00  0.00    -0.248 NA
ATOM     40  C   UNL A   1      44.986  24.322  26.469  1.00  0.00     0.031 C 
ATOM     41  C   UNL A   1      40.404  25.201  28.318  1.00  0.00     0.029 A 
ATOM     42  N   UNL A   1      41.823  26.924  28.194  1.00  0.00    -0.354 N 
ATOM     43  C   UNL A   1      45.745  26.477  26.475  1.00  0.00     0.074 A 
ATOM     44  C   UNL A   1      46.004  25.100  26.122  1.00  0.00     0.031 C 
ATOM     45  C   UNL A   1      39.753  26.284  28.758  1.00  0.00     0.029 A 
ATOM     46  C   UNL A   1      40.678  27.411  28.769  1.00  0.00     0.049 A 
ATOM     47  H   UNL A   1      42.608  27.483  27.992  1.00  0.00     0.167 HD
ATOM     48  C   UNL A   1      46.622  27.494  26.288  1.00  0.00     0.037 A 
ATOM     49  C   UNL A   1      40.414  28.613  29.310  1.00  0.00     0.037 A 
ATOM     50  C   UNL A   1      46.410  28.838  26.760  1.00  0.00     0.049 A 
ATOM     51  C   UNL A   1      41.469  29.674  29.266  1.00  0.00     0.074 A 
ATOM     52  C   UNL A   1      47.261  29.928  26.689  1.00  0.00     0.029 A 
ATOM     53  N   UNL A   1      45.276  29.263  27.437  1.00  0.00    -0.354 N 
ATOM     54  N   UNL A   1      42.654  29.633  28.707  1.00  0.00    -0.248 NA
ATOM     55  C   UNL A   1      41.157  30.941  29.936  1.00  0.00     0.031 C 
ATOM     56  C   UNL A   1      46.671  30.989  27.383  1.00  0.00     0.029 A 
ATOM     57  C   UNL A   1      45.426  30.579  27.835  1.00  0.00     0.049 A 
ATOM     58  H   UNL A   1      44.480  28.709  27.608  1.00  0.00     0.167 HD
ATOM     59  C   UNL A   1      43.228  30.873  28.947  1.00  0.00     0.074 A 
ATOM     60  C   UNL A   1      42.251  31.647  29.688  1.00  0.00     0.031 C 
ATOM     61  C   UNL A   1      44.450  31.329  28.584  1.00  0.00     0.037 A 
BRANCH  48  62
ATOM     62  C   UNL A   1      47.922  27.188  25.600  1.00  0.00     0.057 A 
ATOM     63  C   UNL A   1      48.091  27.388  24.224  1.00  0.00     0.134 A 
ATOM     64  C   UNL A   1      49.039  26.763  26.332  1.00  0.00     0.134 A 
ATOM     65  F   UNL A   1      47.062  27.790  23.464  1.00  0.00    -0.206 F 
ATOM     66  C   UNL A   1      49.325  27.176  23.601  1.00  0.00     0.040 A 
ATOM     67  C   UNL A   1      50.279  26.560  25.724  1.00  0.00     0.040 A 
ATOM     68  F   UNL A   1      48.946  26.557  27.654  1.00  0.00    -0.206 F 
ATOM     69  C   UNL A   1      50.425  26.766  24.353  1.00  0.00     0.006 A 
ENDBRANCH  48  62
BRANCH  49  70
ATOM     70  C   UNL A   1      39.123  28.814  30.010  1.00  0.00     0.057 A 
ATOM     71  C   UNL A   1      38.977  28.548  31.372  1.00  0.00     0.134 A 
ATOM     72  C   UNL A   1      38.015  29.340  29.327  1.00  0.00     0.134 A 
ATOM     73  F   UNL A   1      39.996  28.030  32.073  1.00  0.00    -0.206 F 
ATOM     74  C   UNL A   1      37.775  28.802  32.035  1.00  0.00     0.040 A 
ATOM     75  C   UNL A   1      36.821  29.628  29.983  1.00  0.00     0.040 A 
ATOM     76  F   UNL A   1      38.098  29.624  28.019  1.00  0.00    -0.206 F 
ATOM     77  C   UNL A   1      36.697  29.355  31.343  1.00  0.00     0.006 A 
ENDBRANCH  49  70
BRANCH  61  78
ATOM     78  C   UNL A   1      44.791  32.733  28.977  1.00  0.00     0.057 A 
ATOM     79  C   UNL A   1      44.467  33.824  28.161  1.00  0.00     0.134 A 
ATOM     80  C   UNL A   1      45.436  32.997  30.192  1.00  0.00     0.134 A 
ATOM     81  F   UNL A   1      43.863  33.633  26.978  1.00  0.00    -0.206 F 
ATOM     82  C   UNL A   1      44.795  35.130  28.530  1.00  0.00     0.040 A 
ATOM     83  C   UNL A   1      45.746  34.299  30.582  1.00  0.00     0.040 A 
ATOM     84  F   UNL A   1      45.767  31.994  31.019  1.00  0.00    -0.206 F 
ATOM     85  C   UNL A   1      45.432  35.370  29.746  1.00  0.00     0.006 A 
ENDBRANCH  61  78
ENDBRANCH  35  36
ENDBRANCH  28  30
ENDBRANCH  27  28
ENDBRANCH  26  27
ENDBRANCH   1  26
TORSDOF 15
ENDMDL
MODEL 2
REMARK VINA RESULT:     -11.9      4.201      8.016
REMARK SMILES COc1ccc(NS(=O)(=O)c2ccc(Cl)c(C(=O)OCCOC(=O)c3ccc(-c4c5nc(c(-c6c(F)cccc6F)c6ccc([nH]6)c(-c6c(F)cccc6F)c6nc(c(-c7c(F)cccc7F)c7ccc4[nH]7)C=C6)C=C5)cc3)c2)cc1Cl
REMARK SMILES IDX 20 1 19 2 17 3 18 4 16 5 11 6 12 7 79 8 13 9 14 10 15 11
REMARK SMILES IDX 8 12 9 13 10 14 7 15 6 17 3 18 4 19 81 20 5 21 80 22 82 23
REMARK SMILES IDX 2 24 1 25 21 26 22 27 23 28 24 29 25 30 26 31 78 32 27 33
REMARK SMILES IDX 77 34 28 35 29 36 30 37 71 38 31 39 76 40 70 41 72 42 32 43
REMARK SMILES IDX 75 44 69 45 68 46 33 48 59 49 42 50 58 51 43 52 46 53 57 54
REMARK SMILES IDX 73 55 44 56 45 57 56 59 74 60 47 61 34 62 35 63 40 64 36 65
REMARK SMILES IDX 37 66 39 67 41 68 38 69 60 70 61 71 66 72 62 73 63 74 65 75
REMARK SMILES IDX 67 76 64 77 48 78 49 79 54 80 50 81 51 82 53 83 55 84 52 85
REMARK H PARENT 7 16 72 47 46 58
REMARK Flexibility Score: inf
ROOT
ATOM      1  C   UNL A   1      43.333  21.257  25.955  1.00  0.00     0.275 C 
ENDROOT
BRANCH   1   2
ATOM      2  O   UNL A   1      41.988  20.802  25.672  1.00  0.00    -0.458 OA
BRANCH   2   3
ATOM      3  C   UNL A   1      41.109  20.748  26.704  1.00  0.00     0.339 C 
ATOM      4  O   UNL A   1      41.174  19.999  27.667  1.00  0.00    -0.246 OA
BRANCH   3   5
ATOM      5  C   UNL A   1      40.129  21.865  26.632  1.00  0.00     0.080 A 
ATOM      6  C   UNL A   1      37.908  22.548  25.907  1.00  0.00     0.088 A 
ATOM      7  C   UNL A   1      38.044  23.756  26.587  1.00  0.00     0.024 A 
ATOM      8  C   UNL A   1      38.977  21.651  25.852  1.00  0.00     0.039 A 
ATOM      9  C   UNL A   1      39.229  24.024  27.276  1.00  0.00     0.023 A 
ATOM     10  C   UNL A   1      40.261  23.072  27.329  1.00  0.00     0.055 A 
ATOM     11  Cl  UNL A   1      41.670  23.489  28.233  1.00  0.00    -0.083 Cl
BRANCH   6  12
ATOM     12  S   UNL A   1      36.305  22.082  25.288  1.00  0.00     0.261 S 
ATOM     13  O   UNL A   1      35.367  22.348  26.361  1.00  0.00    -0.201 OA
ATOM     14  O   UNL A   1      36.413  20.770  24.694  1.00  0.00    -0.201 OA
BRANCH  12  15
ATOM     15  N   UNL A   1      35.919  23.165  24.070  1.00  0.00    -0.280 N 
ATOM     16  H   UNL A   1      36.507  23.165  23.281  1.00  0.00     0.180 HD
BRANCH  15  17
ATOM     17  C   UNL A   1      34.829  24.091  24.048  1.00  0.00     0.051 A 
ATOM     18  C   UNL A   1      33.332  26.444  23.698  1.00  0.00     0.137 A 
ATOM     19  C   UNL A   1      33.265  25.430  22.755  1.00  0.00     0.050 A 
ATOM     20  C   UNL A   1      33.972  26.199  24.910  1.00  0.00     0.085 A 
ATOM     21  C   UNL A   1      33.998  24.251  22.940  1.00  0.00     0.030 A 
ATOM     22  C   UNL A   1      34.763  25.052  25.065  1.00  0.00     0.051 A 
ATOM     23  Cl  UNL A   1      33.782  27.299  26.226  1.00  0.00    -0.080 Cl
BRANCH  18  24
ATOM     24  O   UNL A   1      32.752  27.649  23.397  1.00  0.00    -0.495 OA
ATOM     25  C   UNL A   1      33.621  28.424  22.561  1.00  0.00     0.278 C 
ENDBRANCH  18  24
ENDBRANCH  15  17
ENDBRANCH  12  15
ENDBRANCH   6  12
ENDBRANCH   3   5
ENDBRANCH   2   3
ENDBRANCH   1   2
BRANCH   1  26
ATOM     26  C   UNL A   1      43.854  22.283  24.930  1.00  0.00     0.275 C 
BRANCH  26  27
ATOM     27  O   UNL A   1      43.079  23.506  24.887  1.00  0.00    -0.458 OA
BRANCH  27  28
ATOM     28  C   UNL A   1      43.844  24.603  25.045  1.00  0.00     0.338 C 
ATOM     29  O   UNL A   1      44.916  24.800  24.494  1.00  0.00    -0.246 OA
BRANCH  28  30
ATOM     30  C   UNL A   1      43.269  25.654  25.897  1.00  0.00     0.060 A 
ATOM     31  C   UNL A   1      44.054  26.015  26.984  1.00  0.00     0.016 A 
ATOM     32  C   UNL A   1      41.942  26.078  25.835  1.00  0.00     0.016 A 
ATOM     33  C   UNL A   1      43.509  26.675  28.073  1.00  0.00     0.010 A 
ATOM     34  C   UNL A   1      41.405  26.824  26.903  1.00  0.00     0.010 A 
ATOM     35  C   UNL A   1      42.175  27.100  28.049  1.00  0.00    -0.014 A 
BRANCH  35  36
ATOM     36  C   UNL A   1      41.686  27.908  29.199  1.00  0.00     0.031 A 
ATOM     37  C   UNL A   1      40.491  28.816  29.107  1.00  0.00     0.074 A 
ATOM     38  C   UNL A   1      42.282  27.724  30.392  1.00  0.00     0.049 A 
ATOM     39  N   UNL A   1      39.871  29.478  30.053  1.00  0.00    -0.248 NA
ATOM     40  C   UNL A   1      39.886  28.975  27.784  1.00  0.00     0.031 C 
ATOM     41  C   UNL A   1      43.416  26.829  30.634  1.00  0.00     0.029 A 
ATOM     42  N   UNL A   1      42.011  28.260  31.622  1.00  0.00    -0.354 N 
ATOM     43  C   UNL A   1      38.780  30.092  29.444  1.00  0.00     0.074 A 
ATOM     44  C   UNL A   1      38.827  29.733  28.045  1.00  0.00     0.031 C 
ATOM     45  C   UNL A   1      43.737  26.869  31.932  1.00  0.00     0.029 A 
ATOM     46  C   UNL A   1      42.893  27.858  32.591  1.00  0.00     0.049 A 
ATOM     47  H   UNL A   1      41.260  28.873  31.793  1.00  0.00     0.167 HD
ATOM     48  C   UNL A   1      37.840  30.898  29.997  1.00  0.00     0.037 A 
ATOM     49  C   UNL A   1      43.055  28.282  33.856  1.00  0.00     0.037 A 
ATOM     50  C   UNL A   1      37.874  31.355  31.363  1.00  0.00     0.049 A 
ATOM     51  C   UNL A   1      42.122  29.320  34.396  1.00  0.00     0.074 A 
ATOM     52  C   UNL A   1      37.015  32.229  32.007  1.00  0.00     0.029 A 
ATOM     53  N   UNL A   1      38.852  31.007  32.283  1.00  0.00    -0.354 N 
ATOM     54  N   UNL A   1      41.084  29.873  33.819  1.00  0.00    -0.248 NA
ATOM     55  C   UNL A   1      42.390  29.801  35.756  1.00  0.00     0.031 C 
ATOM     56  C   UNL A   1      37.513  32.462  33.293  1.00  0.00     0.029 A 
ATOM     57  C   UNL A   1      38.650  31.688  33.471  1.00  0.00     0.049 A 
ATOM     58  H   UNL A   1      39.582  30.367  32.117  1.00  0.00     0.167 HD
ATOM     59  C   UNL A   1      40.563  30.761  34.749  1.00  0.00     0.074 A 
ATOM     60  C   UNL A   1      41.394  30.659  35.932  1.00  0.00     0.031 C 
ATOM     61  C   UNL A   1      39.494  31.584  34.633  1.00  0.00     0.037 A 
BRANCH  48  62
ATOM     62  C   UNL A   1      36.729  31.394  29.117  1.00  0.00     0.057 A 
ATOM     63  C   UNL A   1      35.639  30.582  28.780  1.00  0.00     0.134 A 
ATOM     64  C   UNL A   1      36.708  32.720  28.666  1.00  0.00     0.134 A 
ATOM     65  F   UNL A   1      35.597  29.301  29.176  1.00  0.00    -0.206 F 
ATOM     66  C   UNL A   1      34.569  31.071  28.025  1.00  0.00     0.040 A 
ATOM     67  C   UNL A   1      35.640  33.225  27.922  1.00  0.00     0.040 A 
ATOM     68  F   UNL A   1      37.720  33.553  28.958  1.00  0.00    -0.206 F 
ATOM     69  C   UNL A   1      34.565  32.399  27.599  1.00  0.00     0.006 A 
ENDBRANCH  48  62
BRANCH  49  70
ATOM     70  C   UNL A   1      44.207  27.773  34.638  1.00  0.00     0.057 A 
ATOM     71  C   UNL A   1      45.435  28.435  34.653  1.00  0.00     0.134 A 
ATOM     72  C   UNL A   1      44.074  26.631  35.443  1.00  0.00     0.134 A 
ATOM     73  F   UNL A   1      45.627  29.523  33.892  1.00  0.00    -0.206 F 
ATOM     74  C   UNL A   1      46.493  27.984  35.444  1.00  0.00     0.040 A 
ATOM     75  C   UNL A   1      45.111  26.188  36.261  1.00  0.00     0.040 A 
ATOM     76  F   UNL A   1      42.915  25.957  35.477  1.00  0.00    -0.206 F 
ATOM     77  C   UNL A   1      46.328  26.864  36.260  1.00  0.00     0.006 A 
ENDBRANCH  49  70
BRANCH  61  78
ATOM     78  C   UNL A   1      39.160  32.429  35.823  1.00  0.00     0.057 A 
ATOM     79  C   UNL A   1      39.670  33.725  35.973  1.00  0.00     0.134 A 
ATOM     80  C   UNL A   1      38.307  31.946  36.823  1.00  0.00     0.134 A 
ATOM     81  F   UNL A   1      40.505  34.237  35.056  1.00  0.00    -0.206 F 
ATOM     82  C   UNL A   1      39.361  34.503  37.089  1.00  0.00     0.040 A 
ATOM     83  C   UNL A   1      37.971  32.723  37.930  1.00  0.00     0.040 A 
ATOM     84  F   UNL A   1      37.781  30.715  36.734  1.00  0.00    -0.206 F 
ATOM     85  C   UNL A   1      38.505  34.004  38.069  1.00  0.00     0.006 A 
ENDBRANCH  61  78
ENDBRANCH  35  36
ENDBRANCH  28  30
ENDBRANCH  27  28
ENDBRANCH  26  27
ENDBRANCH   1  26
TORSDOF 15
ENDMDL
MODEL 3
REMARK VINA RESULT:     -11.8      6.086     10.706
REMARK SMILES COc1ccc(NS(=O)(=O)c2ccc(Cl)c(C(=O)OCCOC(=O)c3ccc(-c4c5nc(c(-c6c(F)cccc6F)c6ccc([nH]6)c(-c6c(F)cccc6F)c6nc(c(-c7c(F)cccc7F)c7ccc4[nH]7)C=C6)C=C5)cc3)c2)cc1Cl
REMARK SMILES IDX 20 1 19 2 17 3 18 4 16 5 11 6 12 7 79 8 13 9 14 10 15 11
REMARK SMILES IDX 8 12 9 13 10 14 7 15 6 17 3 18 4 19 81 20 5 21 80 22 82 23
REMARK SMILES IDX 2 24 1 25 21 26 22 27 23 28 24 29 25 30 26 31 78 32 27 33
REMARK SMILES IDX 77 34 28 35 29 36 30 37 71 38 31 39 76 40 70 41 72 42 32 43
REMARK SMILES IDX 75 44 69 45 68 46 33 48 59 49 42 50 58 51 43 52 46 53 57 54
REMARK SMILES IDX 73 55 44 56 45 57 56 59 74 60 47 61 34 62 35 63 40 64 36 65
REMARK SMILES IDX 37 66 39 67 41 68 38 69 60 70 61 71 66 72 62 73 63 74 65 75
REMARK SMILES IDX 67 76 64 77 48 78 49 79 54 80 50 81 51 82 53 83 55 84 52 85
REMARK H PARENT 7 16 72 47 46 58
REMARK Flexibility Score: inf
ROOT
ATOM      1  C   UNL A   1      33.050  35.359  28.437  1.00  0.00     0.275 C 
ENDROOT
BRANCH   1   2
ATOM      2  O   UNL A   1      33.548  34.010  28.602  1.00  0.00    -0.458 OA
BRANCH   2   3
ATOM      3  C   UNL A   1      34.890  33.820  28.538  1.00  0.00     0.339 C 
ATOM      4  O   UNL A   1      35.749  34.636  28.841  1.00  0.00    -0.246 OA
BRANCH   3   5
ATOM      5  C   UNL A   1      35.217  32.401  28.233  1.00  0.00     0.080 A 
ATOM      6  C   UNL A   1      34.386  30.293  27.344  1.00  0.00     0.088 A 
ATOM      7  C   UNL A   1      35.674  29.762  27.367  1.00  0.00     0.024 A 
ATOM      8  C   UNL A   1      34.145  31.568  27.860  1.00  0.00     0.039 A 
ATOM      9  C   UNL A   1      36.729  30.546  27.839  1.00  0.00     0.023 A 
ATOM     10  C   UNL A   1      36.514  31.874  28.243  1.00  0.00     0.055 A 
ATOM     11  Cl  UNL A   1      37.890  32.765  28.779  1.00  0.00    -0.083 Cl
BRANCH   6  12
ATOM     12  S   UNL A   1      33.106  29.414  26.473  1.00  0.00     0.261 S 
ATOM     13  O   UNL A   1      32.209  30.425  25.949  1.00  0.00    -0.201 OA
ATOM     14  O   UNL A   1      32.622  28.355  27.329  1.00  0.00    -0.201 OA
BRANCH  12  15
ATOM     15  N   UNL A   1      33.823  28.706  25.136  1.00  0.00    -0.280 N 
ATOM     16  H   UNL A   1      34.456  29.266  24.631  1.00  0.00     0.180 HD
BRANCH  15  17
ATOM     17  C   UNL A   1      33.620  27.378  24.645  1.00  0.00     0.051 A 
ATOM     18  C   UNL A   1      33.969  24.968  23.241  1.00  0.00     0.137 A 
ATOM     19  C   UNL A   1      34.336  25.056  24.574  1.00  0.00     0.050 A 
ATOM     20  C   UNL A   1      33.236  26.007  22.672  1.00  0.00     0.085 A 
ATOM     21  C   UNL A   1      34.145  26.252  25.277  1.00  0.00     0.030 A 
ATOM     22  C   UNL A   1      33.110  27.229  23.350  1.00  0.00     0.051 A 
ATOM     23  Cl  UNL A   1      32.475  25.789  21.138  1.00  0.00    -0.080 Cl
BRANCH  18  24
ATOM     24  O   UNL A   1      34.337  23.851  22.538  1.00  0.00    -0.495 OA
ATOM     25  C   UNL A   1      33.526  22.732  22.922  1.00  0.00     0.278 C 
ENDBRANCH  18  24
ENDBRANCH  15  17
ENDBRANCH  12  15
ENDBRANCH   6  12
ENDBRANCH   3   5
ENDBRANCH   2   3
ENDBRANCH   1   2
BRANCH   1  26
ATOM     26  C   UNL A   1      32.930  36.127  29.768  1.00  0.00     0.275 C 
BRANCH  26  27
ATOM     27  O   UNL A   1      32.529  35.295  30.884  1.00  0.00    -0.458 OA
BRANCH  27  28
ATOM     28  C   UNL A   1      32.911  35.808  32.069  1.00  0.00     0.338 C 
ATOM     29  O   UNL A   1      32.409  36.782  32.609  1.00  0.00    -0.246 OA
BRANCH  28  30
ATOM     30  C   UNL A   1      33.964  35.060  32.770  1.00  0.00     0.060 A 
ATOM     31  C   UNL A   1      35.248  35.559  32.591  1.00  0.00     0.016 A 
ATOM     32  C   UNL A   1      33.789  33.797  33.335  1.00  0.00     0.016 A 
ATOM     33  C   UNL A   1      36.362  34.774  32.839  1.00  0.00     0.010 A 
ATOM     34  C   UNL A   1      34.921  33.027  33.668  1.00  0.00     0.010 A 
ATOM     35  C   UNL A   1      36.219  33.495  33.390  1.00  0.00    -0.014 A 
BRANCH  35  36
ATOM     36  C   UNL A   1      37.460  32.753  33.743  1.00  0.00     0.031 A 
ATOM     37  C   UNL A   1      38.012  31.639  32.897  1.00  0.00     0.074 A 
ATOM     38  C   UNL A   1      38.164  33.181  34.808  1.00  0.00     0.049 A 
ATOM     39  N   UNL A   1      39.146  30.992  33.005  1.00  0.00    -0.248 NA
ATOM     40  C   UNL A   1      37.202  31.219  31.753  1.00  0.00     0.031 C 
ATOM     41  C   UNL A   1      37.772  34.289  35.683  1.00  0.00     0.029 A 
ATOM     42  N   UNL A   1      39.357  32.753  35.325  1.00  0.00    -0.354 N 
ATOM     43  C   UNL A   1      39.201  30.124  31.918  1.00  0.00     0.074 A 
ATOM     44  C   UNL A   1      37.982  30.319  31.167  1.00  0.00     0.031 C 
ATOM     45  C   UNL A   1      38.710  34.460  36.620  1.00  0.00     0.029 A 
ATOM     46  C   UNL A   1      39.719  33.419  36.467  1.00  0.00     0.049 A 
ATOM     47  H   UNL A   1      39.899  32.039  34.918  1.00  0.00     0.167 HD
ATOM     48  C   UNL A   1      40.169  29.232  31.592  1.00  0.00     0.037 A 
ATOM     49  C   UNL A   1      40.716  33.183  37.338  1.00  0.00     0.037 A 
ATOM     50  C   UNL A   1      41.318  28.953  32.414  1.00  0.00     0.049 A 
ATOM     51  C   UNL A   1      41.670  32.065  37.060  1.00  0.00     0.074 A 
ATOM     52  C   UNL A   1      42.321  28.019  32.215  1.00  0.00     0.029 A 
ATOM     53  N   UNL A   1      41.589  29.578  33.622  1.00  0.00    -0.354 N 
ATOM     54  N   UNL A   1      41.724  31.269  36.020  1.00  0.00    -0.248 NA
ATOM     55  C   UNL A   1      42.692  31.803  38.079  1.00  0.00     0.031 C 
ATOM     56  C   UNL A   1      43.158  28.033  33.336  1.00  0.00     0.029 A 
ATOM     57  C   UNL A   1      42.711  29.015  34.206  1.00  0.00     0.049 A 
ATOM     58  H   UNL A   1      41.061  30.314  34.008  1.00  0.00     0.167 HD
ATOM     59  C   UNL A   1      42.794  30.417  36.251  1.00  0.00     0.074 A 
ATOM     60  C   UNL A   1      43.368  30.806  37.525  1.00  0.00     0.031 C 
ATOM     61  C   UNL A   1      43.259  29.406  35.479  1.00  0.00     0.037 A 
BRANCH  48  62
ATOM     62  C   UNL A   1      40.002  28.443  30.325  1.00  0.00     0.057 A 
ATOM     63  C   UNL A   1      39.228  27.275  30.282  1.00  0.00     0.134 A 
ATOM     64  C   UNL A   1      40.554  28.895  29.119  1.00  0.00     0.134 A 
ATOM     65  F   UNL A   1      38.675  26.785  31.400  1.00  0.00    -0.206 F 
ATOM     66  C   UNL A   1      39.012  26.586  29.085  1.00  0.00     0.040 A 
ATOM     67  C   UNL A   1      40.334  28.223  27.915  1.00  0.00     0.040 A 
ATOM     68  F   UNL A   1      41.301  30.009  29.090  1.00  0.00    -0.206 F 
ATOM     69  C   UNL A   1      39.561  27.064  27.895  1.00  0.00     0.006 A 
ENDBRANCH  48  62
BRANCH  49  70
ATOM     70  C   UNL A   1      40.777  33.980  38.585  1.00  0.00     0.057 A 
ATOM     71  C   UNL A   1      40.071  33.609  39.731  1.00  0.00     0.134 A 
ATOM     72  C   UNL A   1      41.604  35.111  38.671  1.00  0.00     0.134 A 
ATOM     73  F   UNL A   1      39.252  32.547  39.705  1.00  0.00    -0.206 F 
ATOM     74  C   UNL A   1      40.186  34.330  40.920  1.00  0.00     0.040 A 
ATOM     75  C   UNL A   1      41.754  35.821  39.859  1.00  0.00     0.040 A 
ATOM     76  F   UNL A   1      42.315  35.512  37.606  1.00  0.00    -0.206 F 
ATOM     77  C   UNL A   1      41.039  35.432  40.990  1.00  0.00     0.006 A 
ENDBRANCH  49  70
BRANCH  61  78
ATOM     78  C   UNL A   1      44.454  28.661  35.990  1.00  0.00     0.057 A 
ATOM     79  C   UNL A   1      45.759  29.085  35.711  1.00  0.00     0.134 A 
ATOM     80  C   UNL A   1      44.296  27.517  36.782  1.00  0.00     0.134 A 
ATOM     81  F   UNL A   1      45.974  30.165  34.944  1.00  0.00    -0.206 F 
ATOM     82  C   UNL A   1      46.868  28.381  36.183  1.00  0.00     0.040 A 
ATOM     83  C   UNL A   1      45.395  26.820  37.280  1.00  0.00     0.040 A 
ATOM     84  F   UNL A   1      43.070  27.065  37.089  1.00  0.00    -0.206 F 
ATOM     85  C   UNL A   1      46.687  27.248  36.975  1.00  0.00     0.006 A 
ENDBRANCH  61  78
ENDBRANCH  35  36
ENDBRANCH  28  30
ENDBRANCH  27  28
ENDBRANCH  26  27
ENDBRANCH   1  26
TORSDOF 15
ENDMDL
