MODEL 1
REMARK VINA RESULT:     -11.9      0.000      0.000
REMARK SMILES Cc1cccc(NC(=O)[C@H]2C=C[C@@H]([NH3+])C2)c1C(=O)OCCOC(=O)c1ccc(-c2c3nc(c(-c4c(F)cccc4F)c4ccc([nH]4)c(-c4c(F)cccc4F)c4nc(c(-c5c(F)cccc5F)c5ccc2[nH]5)C=C4)C=C3)cc1
REMARK SMILES IDX 20 1 19 2 17 3 18 4 16 5 1 6 2 7 3 8 4 9 6 10 5 11 7 12 8 13
REMARK SMILES IDX 9 15 10 16 11 17 15 18 12 19 13 20 14 21 21 25 22 26 23 27
REMARK SMILES IDX 24 28 25 29 26 30 78 31 27 32 77 33 28 34 29 35 30 36 71 37
REMARK SMILES IDX 31 38 76 39 70 40 72 41 32 42 75 43 69 44 68 45 33 47 59 48
REMARK SMILES IDX 42 49 58 50 43 51 46 52 57 53 73 54 44 55 45 56 56 58 74 59
REMARK SMILES IDX 47 60 34 61 35 62 40 63 36 64 37 65 39 66 41 67 38 68 60 69
REMARK SMILES IDX 61 70 66 71 62 72 63 73 65 74 67 75 64 76 48 77 49 78 54 79
REMARK SMILES IDX 50 80 51 81 53 82 55 83 52 84
REMARK H PARENT 7 14 14 22 14 23 14 24 72 46 46 57
REMARK Flexibility Score: inf
ROOT
ATOM      1  C   UNL A   1      33.600  28.311  26.152  1.00  0.00     0.275 C 
ENDROOT
BRANCH   1   2
ATOM      2  O   UNL A   1      33.329  26.910  26.391  1.00  0.00    -0.458 OA
BRANCH   2   3
ATOM      3  C   UNL A   1      31.991  26.642  26.457  1.00  0.00     0.340 C 
ATOM      4  O   UNL A   1      31.239  27.053  27.329  1.00  0.00    -0.246 OA
BRANCH   3   5
ATOM      5  C   UNL A   1      31.515  25.562  25.572  1.00  0.00     0.086 A 
ATOM      6  C   UNL A   1      30.489  27.466  24.134  1.00  0.00     0.045 C 
ATOM      7  C   UNL A   1      30.829  26.020  24.410  1.00  0.00    -0.034 A 
ATOM      8  C   UNL A   1      30.484  25.105  23.410  1.00  0.00     0.004 A 
ATOM      9  C   UNL A   1      30.711  23.755  23.596  1.00  0.00     0.002 A 
ATOM     10  C   UNL A   1      31.861  24.194  25.694  1.00  0.00     0.056 A 
ATOM     11  C   UNL A   1      31.337  23.320  24.759  1.00  0.00     0.027 A 
BRANCH  10  12
ATOM     12  N   UNL A   1      32.697  23.675  26.698  1.00  0.00    -0.325 N 
ATOM     13  C   UNL A   1      33.924  23.078  26.732  1.00  0.00     0.231 C 
ATOM     14  H   UNL A   1      32.301  23.763  27.594  1.00  0.00     0.169 HD
ATOM     15  O   UNL A   1      34.265  22.733  27.883  1.00  0.00    -0.274 OA
BRANCH  13  16
ATOM     16  C   UNL A   1      34.958  22.740  25.615  1.00  0.00     0.107 C 
ATOM     17  C   UNL A   1      35.771  23.975  25.335  1.00  0.00    -0.012 C 
ATOM     18  C   UNL A   1      35.993  21.608  25.521  1.00  0.00     0.087 C 
ATOM     19  C   UNL A   1      37.070  23.717  25.160  1.00  0.00     0.033 C 
ATOM     20  C   UNL A   1      37.377  22.262  25.243  1.00  0.00     0.205 C 
BRANCH  20  21
ATOM     21  N   UNL A   1      38.396  22.009  26.251  1.00  0.00    -0.352 N 
ATOM     22  H   UNL A   1      39.068  22.776  26.255  1.00  0.00     0.345 HD
ATOM     23  H   UNL A   1      38.878  21.136  26.035  1.00  0.00     0.345 HD
ATOM     24  H   UNL A   1      37.956  21.937  27.168  1.00  0.00     0.345 HD
ENDBRANCH  20  21
ENDBRANCH  13  16
ENDBRANCH  10  12
ENDBRANCH   3   5
ENDBRANCH   2   3
ENDBRANCH   1   2
BRANCH   1  25
ATOM     25  C   UNL A   1      34.257  29.094  27.305  1.00  0.00     0.275 C 
BRANCH  25  26
ATOM     26  O   UNL A   1      35.605  29.617  27.201  1.00  0.00    -0.458 OA
BRANCH  26  27
ATOM     27  C   UNL A   1      36.373  29.997  28.239  1.00  0.00     0.338 C 
ATOM     28  O   UNL A   1      36.061  30.915  28.994  1.00  0.00    -0.246 OA
BRANCH  27  29
ATOM     29  C   UNL A   1      37.621  29.249  28.415  1.00  0.00     0.060 A 
ATOM     30  C   UNL A   1      38.611  29.385  27.431  1.00  0.00     0.016 A 
ATOM     31  C   UNL A   1      37.856  28.549  29.597  1.00  0.00     0.016 A 
ATOM     32  C   UNL A   1      39.894  28.939  27.669  1.00  0.00     0.010 A 
ATOM     33  C   UNL A   1      39.144  28.181  29.884  1.00  0.00     0.010 A 
ATOM     34  C   UNL A   1      40.137  28.348  28.902  1.00  0.00    -0.014 A 
BRANCH  34  35
ATOM     35  C   UNL A   1      41.277  27.485  29.100  1.00  0.00     0.031 A 
ATOM     36  C   UNL A   1      41.217  26.068  28.727  1.00  0.00     0.074 A 
ATOM     37  C   UNL A   1      42.321  28.242  29.510  1.00  0.00     0.049 A 
ATOM     38  N   UNL A   1      41.992  25.165  29.210  1.00  0.00    -0.248 NA
ATOM     39  C   UNL A   1      40.206  25.495  27.836  1.00  0.00     0.031 C 
ATOM     40  C   UNL A   1      43.749  28.033  29.526  1.00  0.00     0.029 A 
ATOM     41  N   UNL A   1      42.163  29.471  30.175  1.00  0.00    -0.354 N 
ATOM     42  C   UNL A   1      41.870  24.052  28.399  1.00  0.00     0.074 A 
ATOM     43  C   UNL A   1      40.612  24.224  27.729  1.00  0.00     0.031 C 
ATOM     44  C   UNL A   1      44.297  28.910  30.397  1.00  0.00     0.029 A 
ATOM     45  C   UNL A   1      43.207  29.613  31.073  1.00  0.00     0.049 A 
ATOM     46  H   UNL A   1      41.437  30.118  30.027  1.00  0.00     0.167 HD
ATOM     47  C   UNL A   1      42.975  23.268  28.227  1.00  0.00     0.037 A 
ATOM     48  C   UNL A   1      42.888  29.506  32.399  1.00  0.00     0.037 A 
ATOM     49  C   UNL A   1      44.045  23.795  29.076  1.00  0.00     0.049 A 
ATOM     50  C   UNL A   1      43.430  28.204  32.934  1.00  0.00     0.074 A 
ATOM     51  C   UNL A   1      45.061  24.697  28.803  1.00  0.00     0.029 A 
ATOM     52  N   UNL A   1      43.887  23.777  30.457  1.00  0.00    -0.354 N 
ATOM     53  N   UNL A   1      43.495  27.090  32.252  1.00  0.00    -0.248 NA
ATOM     54  C   UNL A   1      44.064  28.116  34.243  1.00  0.00     0.031 C 
ATOM     55  C   UNL A   1      45.440  25.299  30.033  1.00  0.00     0.029 A 
ATOM     56  C   UNL A   1      44.649  24.771  31.043  1.00  0.00     0.049 A 
ATOM     57  H   UNL A   1      43.312  23.147  30.949  1.00  0.00     0.167 HD
ATOM     58  C   UNL A   1      44.245  26.187  32.956  1.00  0.00     0.074 A 
ATOM     59  C   UNL A   1      44.555  26.868  34.204  1.00  0.00     0.031 C 
ATOM     60  C   UNL A   1      44.622  24.962  32.482  1.00  0.00     0.037 A 
BRANCH  47  61
ATOM     61  C   UNL A   1      43.240  22.283  27.101  1.00  0.00     0.057 A 
ATOM     62  C   UNL A   1      42.502  21.078  27.039  1.00  0.00     0.134 A 
ATOM     63  C   UNL A   1      44.208  22.403  26.087  1.00  0.00     0.134 A 
ATOM     64  F   UNL A   1      41.496  20.824  27.888  1.00  0.00    -0.206 F 
ATOM     65  C   UNL A   1      42.747  20.064  26.102  1.00  0.00     0.040 A 
ATOM     66  C   UNL A   1      44.472  21.391  25.147  1.00  0.00     0.040 A 
ATOM     67  F   UNL A   1      44.935  23.511  25.924  1.00  0.00    -0.206 F 
ATOM     68  C   UNL A   1      43.747  20.210  25.156  1.00  0.00     0.006 A 
ENDBRANCH  47  61
BRANCH  48  69
ATOM     69  C   UNL A   1      41.566  30.122  32.775  1.00  0.00     0.057 A 
ATOM     70  C   UNL A   1      41.422  31.526  32.693  1.00  0.00     0.134 A 
ATOM     71  C   UNL A   1      40.385  29.393  32.948  1.00  0.00     0.134 A 
ATOM     72  F   UNL A   1      42.505  32.306  32.548  1.00  0.00    -0.206 F 
ATOM     73  C   UNL A   1      40.173  32.158  32.662  1.00  0.00     0.040 A 
ATOM     74  C   UNL A   1      39.126  30.020  32.948  1.00  0.00     0.040 A 
ATOM     75  F   UNL A   1      40.408  28.056  33.036  1.00  0.00    -0.206 F 
ATOM     76  C   UNL A   1      39.016  31.400  32.771  1.00  0.00     0.006 A 
ENDBRANCH  48  69
BRANCH  60  77
ATOM     77  C   UNL A   1      45.103  23.839  33.358  1.00  0.00     0.057 A 
ATOM     78  C   UNL A   1      46.402  23.772  33.877  1.00  0.00     0.134 A 
ATOM     79  C   UNL A   1      44.202  22.872  33.856  1.00  0.00     0.134 A 
ATOM     80  F   UNL A   1      47.318  24.713  33.609  1.00  0.00    -0.206 F 
ATOM     81  C   UNL A   1      46.805  22.761  34.751  1.00  0.00     0.040 A 
ATOM     82  C   UNL A   1      44.573  21.908  34.791  1.00  0.00     0.040 A 
ATOM     83  F   UNL A   1      42.912  22.840  33.486  1.00  0.00    -0.206 F 
ATOM     84  C   UNL A   1      45.888  21.832  35.221  1.00  0.00     0.006 A 
ENDBRANCH  60  77
ENDBRANCH  34  35
ENDBRANCH  27  29
ENDBRANCH  26  27
ENDBRANCH  25  26
ENDBRANCH   1  25
TORSDOF 14
ENDMDL
MODEL 2
REMARK VINA RESULT:     -11.6      1.248      1.882
REMARK SMILES Cc1cccc(NC(=O)[C@H]2C=C[C@@H]([NH3+])C2)c1C(=O)OCCOC(=O)c1ccc(-c2c3nc(c(-c4c(F)cccc4F)c4ccc([nH]4)c(-c4c(F)cccc4F)c4nc(c(-c5c(F)cccc5F)c5ccc2[nH]5)C=C4)C=C3)cc1
REMARK SMILES IDX 20 1 19 2 17 3 18 4 16 5 1 6 2 7 3 8 4 9 6 10 5 11 7 12 8 13
REMARK SMILES IDX 9 15 10 16 11 17 15 18 12 19 13 20 14 21 21 25 22 26 23 27
REMARK SMILES IDX 24 28 25 29 26 30 78 31 27 32 77 33 28 34 29 35 30 36 71 37
REMARK SMILES IDX 31 38 76 39 70 40 72 41 32 42 75 43 69 44 68 45 33 47 59 48
REMARK SMILES IDX 42 49 58 50 43 51 46 52 57 53 73 54 44 55 45 56 56 58 74 59
REMARK SMILES IDX 47 60 34 61 35 62 40 63 36 64 37 65 39 66 41 67 38 68 60 69
REMARK SMILES IDX 61 70 66 71 62 72 63 73 65 74 67 75 64 76 48 77 49 78 54 79
REMARK SMILES IDX 50 80 51 81 53 82 55 83 52 84
REMARK H PARENT 7 14 14 22 14 23 14 24 72 46 46 57
REMARK Flexibility Score: inf
ROOT
ATOM      1  C   UNL A   1      33.454  28.313  26.236  1.00  0.00     0.275 C 
ENDROOT
BRANCH   1   2
ATOM      2  O   UNL A   1      33.182  26.903  26.414  1.00  0.00    -0.458 OA
BRANCH   2   3
ATOM      3  C   UNL A   1      31.844  26.628  26.420  1.00  0.00     0.340 C 
ATOM      4  O   UNL A   1      31.052  27.033  27.259  1.00  0.00    -0.246 OA
BRANCH   3   5
ATOM      5  C   UNL A   1      31.414  25.547  25.512  1.00  0.00     0.086 A 
ATOM      6  C   UNL A   1      30.418  27.447  24.047  1.00  0.00     0.045 C 
ATOM      7  C   UNL A   1      30.766  26.004  24.328  1.00  0.00    -0.034 A 
ATOM      8  C   UNL A   1      30.469  25.091  23.311  1.00  0.00     0.004 A 
ATOM      9  C   UNL A   1      30.706  23.742  23.498  1.00  0.00     0.002 A 
ATOM     10  C   UNL A   1      31.773  24.183  25.639  1.00  0.00     0.056 A 
ATOM     11  C   UNL A   1      31.294  23.308  24.681  1.00  0.00     0.027 A 
BRANCH  10  12
ATOM     12  N   UNL A   1      32.578  23.668  26.670  1.00  0.00    -0.325 N 
ATOM     13  C   UNL A   1      33.794  23.052  26.743  1.00  0.00     0.231 C 
ATOM     14  H   UNL A   1      32.163  23.778  27.556  1.00  0.00     0.169 HD
ATOM     15  O   UNL A   1      34.103  22.722  27.907  1.00  0.00    -0.274 OA
BRANCH  13  16
ATOM     16  C   UNL A   1      34.846  22.678  25.655  1.00  0.00     0.107 C 
ATOM     17  C   UNL A   1      35.584  23.929  25.261  1.00  0.00    -0.012 C 
ATOM     18  C   UNL A   1      35.948  21.606  25.657  1.00  0.00     0.087 C 
ATOM     19  C   UNL A   1      36.895  23.735  25.103  1.00  0.00     0.033 C 
ATOM     20  C   UNL A   1      37.289  22.314  25.314  1.00  0.00     0.205 C 
BRANCH  20  21
ATOM     21  N   UNL A   1      38.322  22.214  26.335  1.00  0.00    -0.352 N 
ATOM     22  H   UNL A   1      38.166  22.927  27.048  1.00  0.00     0.345 HD
ATOM     23  H   UNL A   1      39.238  22.355  25.908  1.00  0.00     0.345 HD
ATOM     24  H   UNL A   1      38.286  21.290  26.765  1.00  0.00     0.345 HD
ENDBRANCH  20  21
ENDBRANCH  13  16
ENDBRANCH  10  12
ENDBRANCH   3   5
ENDBRANCH   2   3
ENDBRANCH   1   2
BRANCH   1  25
ATOM     25  C   UNL A   1      33.866  29.102  27.494  1.00  0.00     0.275 C 
BRANCH  25  26
ATOM     26  O   UNL A   1      34.651  30.318  27.408  1.00  0.00    -0.458 OA
BRANCH  26  27
ATOM     27  C   UNL A   1      35.443  30.801  28.383  1.00  0.00     0.338 C 
ATOM     28  O   UNL A   1      35.094  31.709  29.133  1.00  0.00    -0.246 OA
BRANCH  27  29
ATOM     29  C   UNL A   1      36.766  30.178  28.496  1.00  0.00     0.060 A 
ATOM     30  C   UNL A   1      37.028  29.399  29.632  1.00  0.00     0.016 A 
ATOM     31  C   UNL A   1      37.664  30.248  27.434  1.00  0.00     0.016 A 
ATOM     32  C   UNL A   1      38.130  28.571  29.669  1.00  0.00     0.010 A 
ATOM     33  C   UNL A   1      38.713  29.366  27.417  1.00  0.00     0.010 A 
ATOM     34  C   UNL A   1      38.952  28.567  28.549  1.00  0.00    -0.014 A 
BRANCH  34  35
ATOM     35  C   UNL A   1      40.314  28.095  28.630  1.00  0.00     0.031 A 
ATOM     36  C   UNL A   1      40.651  26.716  28.263  1.00  0.00     0.074 A 
ATOM     37  C   UNL A   1      41.112  29.144  28.934  1.00  0.00     0.049 A 
ATOM     38  N   UNL A   1      41.706  26.104  28.665  1.00  0.00    -0.248 NA
ATOM     39  C   UNL A   1      39.780  25.837  27.479  1.00  0.00     0.031 C 
ATOM     40  C   UNL A   1      42.532  29.377  28.805  1.00  0.00     0.029 A 
ATOM     41  N   UNL A   1      40.654  30.287  29.612  1.00  0.00    -0.354 N 
ATOM     42  C   UNL A   1      41.850  24.982  27.870  1.00  0.00     0.074 A 
ATOM     43  C   UNL A   1      40.541  24.746  27.330  1.00  0.00     0.031 C 
ATOM     44  C   UNL A   1      42.869  30.403  29.617  1.00  0.00     0.029 A 
ATOM     45  C   UNL A   1      41.687  30.765  30.400  1.00  0.00     0.049 A 
ATOM     46  H   UNL A   1      39.755  30.680  29.538  1.00  0.00     0.167 HD
ATOM     47  C   UNL A   1      43.119  24.563  27.587  1.00  0.00     0.037 A 
ATOM     48  C   UNL A   1      41.544  30.606  31.752  1.00  0.00     0.037 A 
ATOM     49  C   UNL A   1      44.055  25.415  28.324  1.00  0.00     0.049 A 
ATOM     50  C   UNL A   1      42.505  29.544  32.228  1.00  0.00     0.074 A 
ATOM     51  C   UNL A   1      44.718  26.572  27.951  1.00  0.00     0.029 A 
ATOM     52  N   UNL A   1      44.044  25.391  29.714  1.00  0.00    -0.354 N 
ATOM     53  N   UNL A   1      42.840  28.483  31.541  1.00  0.00    -0.248 NA
ATOM     54  C   UNL A   1      43.258  29.691  33.466  1.00  0.00     0.031 C 
ATOM     55  C   UNL A   1      45.013  27.297  29.137  1.00  0.00     0.029 A 
ATOM     56  C   UNL A   1      44.521  26.586  30.221  1.00  0.00     0.049 A 
ATOM     57  H   UNL A   1      43.738  24.631  30.261  1.00  0.00     0.167 HD
ATOM     58  C   UNL A   1      43.893  27.869  32.166  1.00  0.00     0.074 A 
ATOM     59  C   UNL A   1      44.099  28.649  33.377  1.00  0.00     0.031 C 
ATOM     60  C   UNL A   1      44.575  26.802  31.655  1.00  0.00     0.037 A 
BRANCH  47  61
ATOM     61  C   UNL A   1      43.561  23.672  26.439  1.00  0.00     0.057 A 
ATOM     62  C   UNL A   1      43.441  22.267  26.559  1.00  0.00     0.134 A 
ATOM     63  C   UNL A   1      44.146  24.085  25.228  1.00  0.00     0.134 A 
ATOM     64  F   UNL A   1      42.849  21.700  27.619  1.00  0.00    -0.206 F 
ATOM     65  C   UNL A   1      43.917  21.362  25.600  1.00  0.00     0.040 A 
ATOM     66  C   UNL A   1      44.637  23.189  24.262  1.00  0.00     0.040 A 
ATOM     67  F   UNL A   1      44.254  25.372  24.892  1.00  0.00    -0.206 F 
ATOM     68  C   UNL A   1      44.533  21.820  24.449  1.00  0.00     0.006 A 
ENDBRANCH  47  61
BRANCH  48  69
ATOM     69  C   UNL A   1      40.141  30.804  32.259  1.00  0.00     0.057 A 
ATOM     70  C   UNL A   1      39.423  29.680  32.731  1.00  0.00     0.134 A 
ATOM     71  C   UNL A   1      39.582  32.053  32.547  1.00  0.00     0.134 A 
ATOM     72  F   UNL A   1      39.875  28.440  32.481  1.00  0.00    -0.206 F 
ATOM     73  C   UNL A   1      38.288  29.792  33.541  1.00  0.00     0.040 A 
ATOM     74  C   UNL A   1      38.425  32.177  33.337  1.00  0.00     0.040 A 
ATOM     75  F   UNL A   1      40.181  33.183  32.149  1.00  0.00    -0.206 F 
ATOM     76  C   UNL A   1      37.795  31.049  33.864  1.00  0.00     0.006 A 
ENDBRANCH  48  69
BRANCH  60  77
ATOM     77  C   UNL A   1      45.456  25.904  32.478  1.00  0.00     0.057 A 
ATOM     78  C   UNL A   1      46.852  26.023  32.518  1.00  0.00     0.134 A 
ATOM     79  C   UNL A   1      44.900  24.995  33.405  1.00  0.00     0.134 A 
ATOM     80  F   UNL A   1      47.501  26.951  31.802  1.00  0.00    -0.206 F 
ATOM     81  C   UNL A   1      47.645  25.228  33.347  1.00  0.00     0.040 A 
ATOM     82  C   UNL A   1      45.678  24.256  34.294  1.00  0.00     0.040 A 
ATOM     83  F   UNL A   1      43.576  24.809  33.516  1.00  0.00    -0.206 F 
ATOM     84  C   UNL A   1      47.059  24.350  34.248  1.00  0.00     0.006 A 
ENDBRANCH  60  77
ENDBRANCH  34  35
ENDBRANCH  27  29
ENDBRANCH  26  27
ENDBRANCH  25  26
ENDBRANCH   1  25
TORSDOF 14
ENDMDL
MODEL 3
REMARK VINA RESULT:     -11.6      3.456      8.649
REMARK SMILES Cc1cccc(NC(=O)[C@H]2C=C[C@@H]([NH3+])C2)c1C(=O)OCCOC(=O)c1ccc(-c2c3nc(c(-c4c(F)cccc4F)c4ccc([nH]4)c(-c4c(F)cccc4F)c4nc(c(-c5c(F)cccc5F)c5ccc2[nH]5)C=C4)C=C3)cc1
REMARK SMILES IDX 20 1 19 2 17 3 18 4 16 5 1 6 2 7 3 8 4 9 6 10 5 11 7 12 8 13
REMARK SMILES IDX 9 15 10 16 11 17 15 18 12 19 13 20 14 21 21 25 22 26 23 27
REMARK SMILES IDX 24 28 25 29 26 30 78 31 27 32 77 33 28 34 29 35 30 36 71 37
REMARK SMILES IDX 31 38 76 39 70 40 72 41 32 42 75 43 69 44 68 45 33 47 59 48
REMARK SMILES IDX 42 49 58 50 43 51 46 52 57 53 73 54 44 55 45 56 56 58 74 59
REMARK SMILES IDX 47 60 34 61 35 62 40 63 36 64 37 65 39 66 41 67 38 68 60 69
REMARK SMILES IDX 61 70 66 71 62 72 63 73 65 74 67 75 64 76 48 77 49 78 54 79
REMARK SMILES IDX 50 80 51 81 53 82 55 83 52 84
REMARK H PARENT 7 14 14 22 14 23 14 24 72 46 46 57
REMARK Flexibility Score: inf
ROOT
ATOM      1  C   UNL A   1      36.101  23.460  25.985  1.00  0.00     0.275 C 
ENDROOT
BRANCH   1   2
ATOM      2  O   UNL A   1      35.174  24.457  25.495  1.00  0.00    -0.458 OA
BRANCH   2   3
ATOM      3  C   UNL A   1      34.230  23.927  24.662  1.00  0.00     0.340 C 
ATOM      4  O   UNL A   1      34.472  23.261  23.666  1.00  0.00    -0.246 OA
BRANCH   3   5
ATOM      5  C   UNL A   1      32.860  24.446  24.843  1.00  0.00     0.086 A 
ATOM      6  C   UNL A   1      32.444  22.291  26.231  1.00  0.00     0.045 C 
ATOM      7  C   UNL A   1      32.034  23.632  25.672  1.00  0.00    -0.034 A 
ATOM      8  C   UNL A   1      30.775  24.103  26.061  1.00  0.00     0.004 A 
ATOM      9  C   UNL A   1      30.296  25.298  25.559  1.00  0.00     0.002 A 
ATOM     10  C   UNL A   1      32.413  25.728  24.442  1.00  0.00     0.056 A 
ATOM     11  C   UNL A   1      31.096  26.055  24.712  1.00  0.00     0.027 A 
BRANCH  10  12
ATOM     12  N   UNL A   1      33.217  26.680  23.792  1.00  0.00    -0.325 N 
ATOM     13  C   UNL A   1      33.729  27.905  24.110  1.00  0.00     0.231 C 
ATOM     14  H   UNL A   1      33.473  26.394  22.885  1.00  0.00     0.169 HD
ATOM     15  O   UNL A   1      34.375  28.420  23.173  1.00  0.00    -0.274 OA
BRANCH  13  16
ATOM     16  C   UNL A   1      33.646  28.772  25.402  1.00  0.00     0.107 C 
ATOM     17  C   UNL A   1      32.435  29.660  25.299  1.00  0.00    -0.012 C 
ATOM     18  C   UNL A   1      33.654  28.361  26.884  1.00  0.00     0.087 C 
ATOM     19  C   UNL A   1      31.759  29.759  26.445  1.00  0.00     0.033 C 
ATOM     20  C   UNL A   1      32.402  28.998  27.552  1.00  0.00     0.205 C 
BRANCH  20  21
ATOM     21  N   UNL A   1      31.463  28.051  28.137  1.00  0.00    -0.352 N 
ATOM     22  H   UNL A   1      31.031  27.499  27.396  1.00  0.00     0.345 HD
ATOM     23  H   UNL A   1      30.742  28.559  28.648  1.00  0.00     0.345 HD
ATOM     24  H   UNL A   1      31.960  27.431  28.777  1.00  0.00     0.345 HD
ENDBRANCH  20  21
ENDBRANCH  13  16
ENDBRANCH  10  12
ENDBRANCH   3   5
ENDBRANCH   2   3
ENDBRANCH   1   2
BRANCH   1  25
ATOM     25  C   UNL A   1      37.582  23.646  25.603  1.00  0.00     0.275 C 
BRANCH  25  26
ATOM     26  O   UNL A   1      38.630  22.840  26.199  1.00  0.00    -0.458 OA
BRANCH  26  27
ATOM     27  C   UNL A   1      39.876  23.267  26.475  1.00  0.00     0.338 C 
ATOM     28  O   UNL A   1      40.879  22.626  26.174  1.00  0.00    -0.246 OA
BRANCH  27  29
ATOM     29  C   UNL A   1      39.967  24.554  27.171  1.00  0.00     0.060 A 
ATOM     30  C   UNL A   1      40.490  25.646  26.462  1.00  0.00     0.016 A 
ATOM     31  C   UNL A   1      39.414  24.704  28.440  1.00  0.00     0.016 A 
ATOM     32  C   UNL A   1      40.348  26.927  26.954  1.00  0.00     0.010 A 
ATOM     33  C   UNL A   1      39.185  25.975  28.900  1.00  0.00     0.010 A 
ATOM     34  C   UNL A   1      39.687  27.065  28.168  1.00  0.00    -0.014 A 
BRANCH  34  35
ATOM     35  C   UNL A   1      39.849  28.256  28.969  1.00  0.00     0.031 A 
ATOM     36  C   UNL A   1      38.867  29.344  28.900  1.00  0.00     0.074 A 
ATOM     37  C   UNL A   1      40.900  28.072  29.800  1.00  0.00     0.049 A 
ATOM     38  N   UNL A   1      39.115  30.556  29.244  1.00  0.00    -0.248 NA
ATOM     39  C   UNL A   1      37.522  29.202  28.339  1.00  0.00     0.031 C 
ATOM     40  C   UNL A   1      41.318  28.715  31.024  1.00  0.00     0.029 A 
ATOM     41  N   UNL A   1      41.955  27.185  29.520  1.00  0.00    -0.354 N 
ATOM     42  C   UNL A   1      37.897  31.199  29.358  1.00  0.00     0.074 A 
ATOM     43  C   UNL A   1      36.988  30.406  28.578  1.00  0.00     0.031 C 
ATOM     44  C   UNL A   1      42.626  28.436  31.225  1.00  0.00     0.029 A 
ATOM     45  C   UNL A   1      43.119  27.718  30.050  1.00  0.00     0.049 A 
ATOM     46  H   UNL A   1      41.879  26.333  29.033  1.00  0.00     0.167 HD
ATOM     47  C   UNL A   1      37.782  32.176  30.307  1.00  0.00     0.037 A 
ATOM     48  C   UNL A   1      44.035  28.189  29.151  1.00  0.00     0.037 A 
ATOM     49  C   UNL A   1      39.093  32.361  30.931  1.00  0.00     0.049 A 
ATOM     50  C   UNL A   1      44.058  29.697  29.213  1.00  0.00     0.074 A 
ATOM     51  C   UNL A   1      39.645  31.795  32.069  1.00  0.00     0.029 A 
ATOM     52  N   UNL A   1      40.153  32.825  30.162  1.00  0.00    -0.354 N 
ATOM     53  N   UNL A   1      43.009  30.447  29.435  1.00  0.00    -0.248 NA
ATOM     54  C   UNL A   1      45.304  30.448  29.164  1.00  0.00     0.031 C 
ATOM     55  C   UNL A   1      41.058  31.832  31.922  1.00  0.00     0.029 A 
ATOM     56  C   UNL A   1      41.357  32.409  30.697  1.00  0.00     0.049 A 
ATOM     57  H   UNL A   1      40.058  33.374  29.348  1.00  0.00     0.167 HD
ATOM     58  C   UNL A   1      43.428  31.732  29.656  1.00  0.00     0.074 A 
ATOM     59  C   UNL A   1      44.867  31.685  29.449  1.00  0.00     0.031 C 
ATOM     60  C   UNL A   1      42.607  32.753  30.042  1.00  0.00     0.037 A 
BRANCH  47  61
ATOM     61  C   UNL A   1      36.503  32.716  30.923  1.00  0.00     0.057 A 
ATOM     62  C   UNL A   1      35.840  33.807  30.313  1.00  0.00     0.134 A 
ATOM     63  C   UNL A   1      35.888  32.275  32.109  1.00  0.00     0.134 A 
ATOM     64  F   UNL A   1      36.250  34.315  29.143  1.00  0.00    -0.206 F 
ATOM     65  C   UNL A   1      34.716  34.439  30.865  1.00  0.00     0.040 A 
ATOM     66  C   UNL A   1      34.766  32.905  32.678  1.00  0.00     0.040 A 
ATOM     67  F   UNL A   1      36.311  31.197  32.774  1.00  0.00    -0.206 F 
ATOM     68  C   UNL A   1      34.180  33.999  32.062  1.00  0.00     0.006 A 
ENDBRANCH  47  61
BRANCH  48  69
ATOM     69  C   UNL A   1      44.161  27.366  27.896  1.00  0.00     0.057 A 
ATOM     70  C   UNL A   1      43.675  27.900  26.681  1.00  0.00     0.134 A 
ATOM     71  C   UNL A   1      44.960  26.223  27.788  1.00  0.00     0.134 A 
ATOM     72  F   UNL A   1      42.882  28.984  26.692  1.00  0.00    -0.206 F 
ATOM     73  C   UNL A   1      44.055  27.402  25.429  1.00  0.00     0.040 A 
ATOM     74  C   UNL A   1      45.326  25.697  26.536  1.00  0.00     0.040 A 
ATOM     75  F   UNL A   1      45.475  25.637  28.877  1.00  0.00    -0.206 F 
ATOM     76  C   UNL A   1      44.902  26.305  25.354  1.00  0.00     0.006 A 
ENDBRANCH  48  69
BRANCH  60  77
ATOM     77  C   UNL A   1      42.969  34.207  29.919  1.00  0.00     0.057 A 
ATOM     78  C   UNL A   1      43.230  35.030  31.023  1.00  0.00     0.134 A 
ATOM     79  C   UNL A   1      43.242  34.781  28.658  1.00  0.00     0.134 A 
ATOM     80  F   UNL A   1      43.159  34.569  32.279  1.00  0.00    -0.206 F 
ATOM     81  C   UNL A   1      43.639  36.358  30.883  1.00  0.00     0.040 A 
ATOM     82  C   UNL A   1      43.729  36.079  28.511  1.00  0.00     0.040 A 
ATOM     83  F   UNL A   1      43.085  34.099  27.513  1.00  0.00    -0.206 F 
ATOM     84  C   UNL A   1      43.902  36.882  29.626  1.00  0.00     0.006 A 
ENDBRANCH  60  77
ENDBRANCH  34  35
ENDBRANCH  27  29
ENDBRANCH  26  27
ENDBRANCH  25  26
ENDBRANCH   1  25
TORSDOF 14
ENDMDL
