MODEL 1
REMARK VINA RESULT:     -11.9      0.000      0.000
REMARK SMILES O=C(/C=C/c1cc(F)cc(CN2CCCCC2=O)c1)OCCOC(=O)c1ccc(-c2c3nc(c(-c4c(F)cccc4F)c4ccc([nH]4)c(-c4c(F)cccc4F)c4nc(c(-c5c(F)cccc5F)c5ccc2[nH]5)C=C4)C=C3)cc1
REMARK SMILES IDX 21 1 20 2 2 3 1 4 3 5 4 6 5 7 6 8 19 9 7 10 10 11 8 12 9 13
REMARK SMILES IDX 11 14 12 15 13 16 17 17 14 18 16 19 18 20 15 21 22 22 23 23
REMARK SMILES IDX 24 24 25 25 26 26 27 27 79 28 28 29 78 30 29 31 30 32 31 33
REMARK SMILES IDX 72 34 32 35 77 36 71 37 73 38 33 39 76 40 70 41 69 42 34 44
REMARK SMILES IDX 60 45 43 46 59 47 44 48 47 49 58 50 74 51 45 52 46 53 57 55
REMARK SMILES IDX 75 56 48 57 35 58 36 59 41 60 37 61 38 62 40 63 42 64 39 65
REMARK SMILES IDX 61 66 62 67 67 68 63 69 64 70 66 71 68 72 65 73 49 74 50 75
REMARK SMILES IDX 55 76 51 77 52 78 54 79 56 80 53 81
REMARK H PARENT 73 43 47 54
REMARK Flexibility Score: inf
ROOT
ATOM      1  C   UNL A   1      42.616  20.562  25.947  1.00  0.00     0.275 C 
ENDROOT
BRANCH   1   2
ATOM      2  O   UNL A   1      41.221  20.769  25.655  1.00  0.00    -0.459 OA
BRANCH   2   3
ATOM      3  C   UNL A   1      40.263  21.302  26.445  1.00  0.00     0.330 C 
ATOM      4  O   UNL A   1      40.379  21.267  27.668  1.00  0.00    -0.247 OA
BRANCH   3   5
ATOM      5  C   UNL A   1      38.975  21.756  25.894  1.00  0.00     0.094 C 
ATOM      6  C   UNL A   1      37.974  21.049  25.352  1.00  0.00     0.016 C 
BRANCH   6   7
ATOM      7  C   UNL A   1      36.679  21.641  24.993  1.00  0.00    -0.022 A 
ATOM      8  C   UNL A   1      36.592  22.834  24.277  1.00  0.00     0.047 A 
ATOM      9  C   UNL A   1      35.498  20.949  25.336  1.00  0.00     0.014 A 
ATOM     10  C   UNL A   1      35.347  23.312  23.904  1.00  0.00     0.124 A 
ATOM     11  C   UNL A   1      34.230  21.430  24.962  1.00  0.00    -0.025 A 
ATOM     12  F   UNL A   1      35.266  24.444  23.192  1.00  0.00    -0.207 F 
ATOM     13  C   UNL A   1      34.182  22.622  24.225  1.00  0.00     0.044 A 
BRANCH  11  14
ATOM     14  C   UNL A   1      32.977  20.611  25.238  1.00  0.00     0.155 C 
BRANCH  14  15
ATOM     15  N   UNL A   1      32.889  19.362  24.479  1.00  0.00    -0.338 N 
ATOM     16  C   UNL A   1      32.756  19.443  23.028  1.00  0.00     0.120 C 
ATOM     17  C   UNL A   1      32.803  18.160  25.161  1.00  0.00     0.222 C 
ATOM     18  C   UNL A   1      32.344  18.122  22.393  1.00  0.00     0.022 C 
ATOM     19  C   UNL A   1      33.144  16.892  24.398  1.00  0.00     0.100 C 
ATOM     20  O   UNL A   1      32.535  18.097  26.361  1.00  0.00    -0.275 OA
ATOM     21  C   UNL A   1      33.275  17.039  22.892  1.00  0.00     0.012 C 
ENDBRANCH  14  15
ENDBRANCH  11  14
ENDBRANCH   6   7
ENDBRANCH   3   5
ENDBRANCH   2   3
ENDBRANCH   1   2
BRANCH   1  22
ATOM     22  C   UNL A   1      43.541  21.750  25.653  1.00  0.00     0.275 C 
BRANCH  22  23
ATOM     23  O   UNL A   1      42.872  22.888  25.085  1.00  0.00    -0.458 OA
BRANCH  23  24
ATOM     24  C   UNL A   1      43.575  24.047  25.160  1.00  0.00     0.338 C 
ATOM     25  O   UNL A   1      44.502  24.375  24.434  1.00  0.00    -0.246 OA
BRANCH  24  26
ATOM     26  C   UNL A   1      42.996  24.961  26.172  1.00  0.00     0.060 A 
ATOM     27  C   UNL A   1      43.552  26.242  26.270  1.00  0.00     0.016 A 
ATOM     28  C   UNL A   1      41.961  24.584  27.034  1.00  0.00     0.016 A 
ATOM     29  C   UNL A   1      43.112  27.127  27.255  1.00  0.00     0.010 A 
ATOM     30  C   UNL A   1      41.517  25.479  28.022  1.00  0.00     0.010 A 
ATOM     31  C   UNL A   1      42.111  26.745  28.162  1.00  0.00    -0.014 A 
BRANCH  31  32
ATOM     32  C   UNL A   1      41.771  27.659  29.289  1.00  0.00     0.031 A 
ATOM     33  C   UNL A   1      40.588  28.584  29.180  1.00  0.00     0.074 A 
ATOM     34  C   UNL A   1      42.459  27.605  30.446  1.00  0.00     0.049 A 
ATOM     35  N   UNL A   1      40.064  29.371  30.089  1.00  0.00    -0.248 NA
ATOM     36  C   UNL A   1      39.898  28.632  27.881  1.00  0.00     0.031 C 
ATOM     37  C   UNL A   1      43.617  26.749  30.699  1.00  0.00     0.029 A 
ATOM     38  N   UNL A   1      42.268  28.272  31.633  1.00  0.00    -0.354 N 
ATOM     39  C   UNL A   1      38.978  29.988  29.481  1.00  0.00     0.074 A 
ATOM     40  C   UNL A   1      38.946  29.526  28.110  1.00  0.00     0.031 C 
ATOM     41  C   UNL A   1      44.018  26.924  31.970  1.00  0.00     0.029 A 
ATOM     42  C   UNL A   1      43.162  27.918  32.616  1.00  0.00     0.049 A 
ATOM     43  H   UNL A   1      41.558  28.940  31.767  1.00  0.00     0.167 HD
ATOM     44  C   UNL A   1      38.077  30.844  30.019  1.00  0.00     0.037 A 
ATOM     45  C   UNL A   1      43.278  28.340  33.892  1.00  0.00     0.037 A 
ATOM     46  C   UNL A   1      38.094  31.308  31.383  1.00  0.00     0.049 A 
ATOM     47  C   UNL A   1      42.297  29.341  34.444  1.00  0.00     0.074 A 
ATOM     48  C   UNL A   1      37.197  32.156  32.012  1.00  0.00     0.029 A 
ATOM     49  N   UNL A   1      39.050  30.970  32.327  1.00  0.00    -0.354 N 
ATOM     50  N   UNL A   1      41.248  29.879  33.870  1.00  0.00    -0.248 NA
ATOM     51  C   UNL A   1      42.512  29.789  35.830  1.00  0.00     0.031 C 
ATOM     52  C   UNL A   1      37.641  32.377  33.318  1.00  0.00     0.029 A 
ATOM     53  C   UNL A   1      38.781  31.617  33.523  1.00  0.00     0.049 A 
ATOM     54  H   UNL A   1      39.807  30.360  32.172  1.00  0.00     0.167 HD
ATOM     55  C   UNL A   1      40.668  30.703  34.829  1.00  0.00     0.074 A 
ATOM     56  C   UNL A   1      41.467  30.578  36.029  1.00  0.00     0.031 C 
ATOM     57  C   UNL A   1      39.572  31.492  34.720  1.00  0.00     0.037 A 
BRANCH  44  58
ATOM     58  C   UNL A   1      36.968  31.344  29.139  1.00  0.00     0.057 A 
ATOM     59  C   UNL A   1      36.976  32.659  28.655  1.00  0.00     0.134 A 
ATOM     60  C   UNL A   1      35.838  30.563  28.871  1.00  0.00     0.134 A 
ATOM     61  F   UNL A   1      38.025  33.463  28.886  1.00  0.00    -0.206 F 
ATOM     62  C   UNL A   1      35.889  33.186  27.957  1.00  0.00     0.040 A 
ATOM     63  C   UNL A   1      34.754  31.071  28.151  1.00  0.00     0.040 A 
ATOM     64  F   UNL A   1      35.770  29.293  29.299  1.00  0.00    -0.206 F 
ATOM     65  C   UNL A   1      34.773  32.391  27.704  1.00  0.00     0.006 A 
ENDBRANCH  44  58
BRANCH  45  66
ATOM     66  C   UNL A   1      44.361  27.804  34.757  1.00  0.00     0.057 A 
ATOM     67  C   UNL A   1      44.198  26.611  35.474  1.00  0.00     0.134 A 
ATOM     68  C   UNL A   1      45.596  28.455  34.862  1.00  0.00     0.134 A 
ATOM     69  F   UNL A   1      43.043  25.935  35.410  1.00  0.00    -0.206 F 
ATOM     70  C   UNL A   1      45.218  26.093  36.273  1.00  0.00     0.040 A 
ATOM     71  C   UNL A   1      46.635  27.933  35.635  1.00  0.00     0.040 A 
ATOM     72  F   UNL A   1      45.824  29.584  34.177  1.00  0.00    -0.206 F 
ATOM     73  C   UNL A   1      46.444  26.751  36.349  1.00  0.00     0.006 A 
ENDBRANCH  45  66
BRANCH  57  74
ATOM     74  C   UNL A   1      39.146  32.274  35.932  1.00  0.00     0.057 A 
ATOM     75  C   UNL A   1      38.266  31.721  36.871  1.00  0.00     0.134 A 
ATOM     76  C   UNL A   1      39.560  33.596  36.142  1.00  0.00     0.134 A 
ATOM     77  F   UNL A   1      37.817  30.464  36.727  1.00  0.00    -0.206 F 
ATOM     78  C   UNL A   1      37.808  32.453  37.968  1.00  0.00     0.040 A 
ATOM     79  C   UNL A   1      39.133  34.329  37.252  1.00  0.00     0.040 A 
ATOM     80  F   UNL A   1      40.407  34.189  35.286  1.00  0.00    -0.206 F 
ATOM     81  C   UNL A   1      38.247  33.760  38.165  1.00  0.00     0.006 A 
ENDBRANCH  57  74
ENDBRANCH  31  32
ENDBRANCH  24  26
ENDBRANCH  23  24
ENDBRANCH  22  23
ENDBRANCH   1  22
TORSDOF 14
ENDMDL
MODEL 2
REMARK VINA RESULT:     -11.7      2.043      6.693
REMARK SMILES O=C(/C=C/c1cc(F)cc(CN2CCCCC2=O)c1)OCCOC(=O)c1ccc(-c2c3nc(c(-c4c(F)cccc4F)c4ccc([nH]4)c(-c4c(F)cccc4F)c4nc(c(-c5c(F)cccc5F)c5ccc2[nH]5)C=C4)C=C3)cc1
REMARK SMILES IDX 21 1 20 2 2 3 1 4 3 5 4 6 5 7 6 8 19 9 7 10 10 11 8 12 9 13
REMARK SMILES IDX 11 14 12 15 13 16 17 17 14 18 16 19 18 20 15 21 22 22 23 23
REMARK SMILES IDX 24 24 25 25 26 26 27 27 79 28 28 29 78 30 29 31 30 32 31 33
REMARK SMILES IDX 72 34 32 35 77 36 71 37 73 38 33 39 76 40 70 41 69 42 34 44
REMARK SMILES IDX 60 45 43 46 59 47 44 48 47 49 58 50 74 51 45 52 46 53 57 55
REMARK SMILES IDX 75 56 48 57 35 58 36 59 41 60 37 61 38 62 40 63 42 64 39 65
REMARK SMILES IDX 61 66 62 67 67 68 63 69 64 70 66 71 68 72 65 73 49 74 50 75
REMARK SMILES IDX 55 76 51 77 52 78 54 79 56 80 53 81
REMARK H PARENT 73 43 47 54
REMARK Flexibility Score: inf
ROOT
ATOM      1  C   UNL A   1      45.292  21.186  25.305  1.00  0.00     0.275 C 
ENDROOT
BRANCH   1   2
ATOM      2  O   UNL A   1      44.093  20.461  24.971  1.00  0.00    -0.459 OA
BRANCH   2   3
ATOM      3  C   UNL A   1      43.032  20.175  25.758  1.00  0.00     0.330 C 
ATOM      4  O   UNL A   1      42.996  19.123  26.391  1.00  0.00    -0.247 OA
BRANCH   3   5
ATOM      5  C   UNL A   1      41.811  21.000  25.734  1.00  0.00     0.094 C 
ATOM      6  C   UNL A   1      40.740  20.973  26.539  1.00  0.00     0.016 C 
BRANCH   6   7
ATOM      7  C   UNL A   1      39.670  21.976  26.479  1.00  0.00    -0.022 A 
ATOM      8  C   UNL A   1      39.850  23.269  26.969  1.00  0.00     0.047 A 
ATOM      9  C   UNL A   1      38.450  21.633  25.858  1.00  0.00     0.014 A 
ATOM     10  C   UNL A   1      38.831  24.198  26.825  1.00  0.00     0.124 A 
ATOM     11  C   UNL A   1      37.412  22.570  25.710  1.00  0.00    -0.025 A 
ATOM     12  F   UNL A   1      39.016  25.447  27.271  1.00  0.00    -0.207 F 
ATOM     13  C   UNL A   1      37.636  23.866  26.196  1.00  0.00     0.044 A 
BRANCH  11  14
ATOM     14  C   UNL A   1      36.151  22.215  24.934  1.00  0.00     0.155 C 
BRANCH  14  15
ATOM     15  N   UNL A   1      35.091  23.221  25.007  1.00  0.00    -0.338 N 
ATOM     16  C   UNL A   1      34.314  23.319  26.238  1.00  0.00     0.120 C 
ATOM     17  C   UNL A   1      34.771  23.952  23.875  1.00  0.00     0.222 C 
ATOM     18  C   UNL A   1      33.048  24.149  26.080  1.00  0.00     0.022 C 
ATOM     19  C   UNL A   1      34.003  25.247  24.066  1.00  0.00     0.100 C 
ATOM     20  O   UNL A   1      35.147  23.625  22.748  1.00  0.00    -0.275 OA
ATOM     21  C   UNL A   1      33.420  25.474  25.450  1.00  0.00     0.012 C 
ENDBRANCH  14  15
ENDBRANCH  11  14
ENDBRANCH   6   7
ENDBRANCH   3   5
ENDBRANCH   2   3
ENDBRANCH   1   2
BRANCH   1  22
ATOM     22  C   UNL A   1      45.445  22.560  24.641  1.00  0.00     0.275 C 
BRANCH  22  23
ATOM     23  O   UNL A   1      44.407  23.495  24.977  1.00  0.00    -0.458 OA
BRANCH  23  24
ATOM     24  C   UNL A   1      44.846  24.758  25.214  1.00  0.00     0.338 C 
ATOM     25  O   UNL A   1      45.737  25.335  24.610  1.00  0.00    -0.246 OA
BRANCH  24  26
ATOM     26  C   UNL A   1      44.013  25.431  26.237  1.00  0.00     0.060 A 
ATOM     27  C   UNL A   1      44.284  26.780  26.497  1.00  0.00     0.016 A 
ATOM     28  C   UNL A   1      43.012  24.772  26.959  1.00  0.00     0.016 A 
ATOM     29  C   UNL A   1      43.594  27.455  27.505  1.00  0.00     0.010 A 
ATOM     30  C   UNL A   1      42.316  25.455  27.970  1.00  0.00     0.010 A 
ATOM     31  C   UNL A   1      42.625  26.792  28.274  1.00  0.00    -0.014 A 
BRANCH  31  32
ATOM     32  C   UNL A   1      42.016  27.501  29.435  1.00  0.00     0.031 A 
ATOM     33  C   UNL A   1      42.666  27.425  30.791  1.00  0.00     0.074 A 
ATOM     34  C   UNL A   1      40.934  28.287  29.268  1.00  0.00     0.049 A 
ATOM     35  N   UNL A   1      42.355  28.058  31.896  1.00  0.00    -0.248 NA
ATOM     36  C   UNL A   1      43.819  26.522  30.926  1.00  0.00     0.031 C 
ATOM     37  C   UNL A   1      40.210  28.466  28.010  1.00  0.00     0.029 A 
ATOM     38  N   UNL A   1      40.269  29.097  30.157  1.00  0.00    -0.354 N 
ATOM     39  C   UNL A   1      43.281  27.647  32.847  1.00  0.00     0.074 A 
ATOM     40  C   UNL A   1      44.135  26.671  32.205  1.00  0.00     0.031 C 
ATOM     41  C   UNL A   1      39.216  29.352  28.203  1.00  0.00     0.029 A 
ATOM     42  C   UNL A   1      39.219  29.786  29.600  1.00  0.00     0.049 A 
ATOM     43  H   UNL A   1      40.522  29.176  31.105  1.00  0.00     0.167 HD
ATOM     44  C   UNL A   1      43.423  28.060  34.129  1.00  0.00     0.037 A 
ATOM     45  C   UNL A   1      38.359  30.670  30.145  1.00  0.00     0.037 A 
ATOM     46  C   UNL A   1      42.583  29.035  34.778  1.00  0.00     0.049 A 
ATOM     47  C   UNL A   1      38.502  31.062  31.593  1.00  0.00     0.074 A 
ATOM     48  C   UNL A   1      42.680  29.526  36.070  1.00  0.00     0.029 A 
ATOM     49  N   UNL A   1      41.496  29.664  34.194  1.00  0.00    -0.354 N 
ATOM     50  N   UNL A   1      39.412  30.700  32.465  1.00  0.00    -0.248 NA
ATOM     51  C   UNL A   1      37.500  31.997  32.132  1.00  0.00     0.031 C 
ATOM     52  C   UNL A   1      41.619  30.409  36.286  1.00  0.00     0.029 A 
ATOM     53  C   UNL A   1      40.896  30.515  35.109  1.00  0.00     0.049 A 
ATOM     54  H   UNL A   1      41.194  29.528  33.267  1.00  0.00     0.167 HD
ATOM     55  C   UNL A   1      39.108  31.380  33.639  1.00  0.00     0.074 A 
ATOM     56  C   UNL A   1      37.944  32.194  33.364  1.00  0.00     0.031 C 
ATOM     57  C   UNL A   1      39.740  31.330  34.838  1.00  0.00     0.037 A 
BRANCH  44  58
ATOM     58  C   UNL A   1      44.540  27.471  34.939  1.00  0.00     0.057 A 
ATOM     59  C   UNL A   1      45.826  28.027  34.897  1.00  0.00     0.134 A 
ATOM     60  C   UNL A   1      44.371  26.288  35.668  1.00  0.00     0.134 A 
ATOM     61  F   UNL A   1      46.057  29.155  34.208  1.00  0.00    -0.206 F 
ATOM     62  C   UNL A   1      46.907  27.412  35.528  1.00  0.00     0.040 A 
ATOM     63  C   UNL A   1      45.441  25.677  36.326  1.00  0.00     0.040 A 
ATOM     64  F   UNL A   1      43.164  25.709  35.756  1.00  0.00    -0.206 F 
ATOM     65  C   UNL A   1      46.717  26.232  36.245  1.00  0.00     0.006 A 
ENDBRANCH  44  58
BRANCH  45  66
ATOM     66  C   UNL A   1      37.282  31.269  29.316  1.00  0.00     0.057 A 
ATOM     67  C   UNL A   1      36.098  30.570  29.043  1.00  0.00     0.134 A 
ATOM     68  C   UNL A   1      37.396  32.566  28.801  1.00  0.00     0.134 A 
ATOM     69  F   UNL A   1      35.923  29.327  29.512  1.00  0.00    -0.206 F 
ATOM     70  C   UNL A   1      35.075  31.134  28.279  1.00  0.00     0.040 A 
ATOM     71  C   UNL A   1      36.369  33.153  28.061  1.00  0.00     0.040 A 
ATOM     72  F   UNL A   1      38.491  33.298  29.053  1.00  0.00    -0.206 F 
ATOM     73  C   UNL A   1      35.206  32.433  27.792  1.00  0.00     0.006 A 
ENDBRANCH  45  66
BRANCH  57  74
ATOM     74  C   UNL A   1      39.207  32.192  35.949  1.00  0.00     0.057 A 
ATOM     75  C   UNL A   1      38.227  31.709  36.826  1.00  0.00     0.134 A 
ATOM     76  C   UNL A   1      39.620  33.520  36.116  1.00  0.00     0.134 A 
ATOM     77  F   UNL A   1      37.774  30.451  36.716  1.00  0.00    -0.206 F 
ATOM     78  C   UNL A   1      37.674  32.514  37.823  1.00  0.00     0.040 A 
ATOM     79  C   UNL A   1      39.095  34.327  37.129  1.00  0.00     0.040 A 
ATOM     80  F   UNL A   1      40.559  34.048  35.316  1.00  0.00    -0.206 F 
ATOM     81  C   UNL A   1      38.113  33.827  37.981  1.00  0.00     0.006 A 
ENDBRANCH  57  74
ENDBRANCH  31  32
ENDBRANCH  24  26
ENDBRANCH  23  24
ENDBRANCH  22  23
ENDBRANCH   1  22
TORSDOF 14
ENDMDL
MODEL 3
REMARK VINA RESULT:     -11.6      5.260     10.085
REMARK SMILES O=C(/C=C/c1cc(F)cc(CN2CCCCC2=O)c1)OCCOC(=O)c1ccc(-c2c3nc(c(-c4c(F)cccc4F)c4ccc([nH]4)c(-c4c(F)cccc4F)c4nc(c(-c5c(F)cccc5F)c5ccc2[nH]5)C=C4)C=C3)cc1
REMARK SMILES IDX 21 1 20 2 2 3 1 4 3 5 4 6 5 7 6 8 19 9 7 10 10 11 8 12 9 13
REMARK SMILES IDX 11 14 12 15 13 16 17 17 14 18 16 19 18 20 15 21 22 22 23 23
REMARK SMILES IDX 24 24 25 25 26 26 27 27 79 28 28 29 78 30 29 31 30 32 31 33
REMARK SMILES IDX 72 34 32 35 77 36 71 37 73 38 33 39 76 40 70 41 69 42 34 44
REMARK SMILES IDX 60 45 43 46 59 47 44 48 47 49 58 50 74 51 45 52 46 53 57 55
REMARK SMILES IDX 75 56 48 57 35 58 36 59 41 60 37 61 38 62 40 63 42 64 39 65
REMARK SMILES IDX 61 66 62 67 67 68 63 69 64 70 66 71 68 72 65 73 49 74 50 75
REMARK SMILES IDX 55 76 51 77 52 78 54 79 56 80 53 81
REMARK H PARENT 73 43 47 54
REMARK Flexibility Score: inf
ROOT
ATOM      1  C   UNL A   1      34.376  33.663  30.209  1.00  0.00     0.275 C 
ENDROOT
BRANCH   1   2
ATOM      2  O   UNL A   1      34.181  32.455  29.450  1.00  0.00    -0.459 OA
BRANCH   2   3
ATOM      3  C   UNL A   1      34.585  32.173  28.191  1.00  0.00     0.330 C 
ATOM      4  O   UNL A   1      35.318  32.953  27.587  1.00  0.00    -0.247 OA
BRANCH   3   5
ATOM      5  C   UNL A   1      34.014  31.046  27.434  1.00  0.00     0.094 C 
ATOM      6  C   UNL A   1      34.293  29.737  27.500  1.00  0.00     0.016 C 
BRANCH   6   7
ATOM      7  C   UNL A   1      33.516  28.716  26.785  1.00  0.00    -0.022 A 
ATOM      8  C   UNL A   1      32.295  28.251  27.271  1.00  0.00     0.047 A 
ATOM      9  C   UNL A   1      33.997  28.240  25.547  1.00  0.00     0.014 A 
ATOM     10  C   UNL A   1      31.570  27.339  26.522  1.00  0.00     0.124 A 
ATOM     11  C   UNL A   1      33.266  27.313  24.782  1.00  0.00    -0.025 A 
ATOM     12  F   UNL A   1      30.384  26.914  26.977  1.00  0.00    -0.207 F 
ATOM     13  C   UNL A   1      32.033  26.883  25.293  1.00  0.00     0.044 A 
BRANCH  11  14
ATOM     14  C   UNL A   1      33.744  26.902  23.396  1.00  0.00     0.155 C 
BRANCH  14  15
ATOM     15  N   UNL A   1      33.873  25.457  23.203  1.00  0.00    -0.338 N 
ATOM     16  C   UNL A   1      34.595  24.687  24.210  1.00  0.00     0.120 C 
ATOM     17  C   UNL A   1      33.427  24.889  22.022  1.00  0.00     0.222 C 
ATOM     18  C   UNL A   1      34.949  23.281  23.745  1.00  0.00     0.022 C 
ATOM     19  C   UNL A   1      33.172  23.392  22.013  1.00  0.00     0.100 C 
ATOM     20  O   UNL A   1      33.167  25.559  21.022  1.00  0.00    -0.275 OA
ATOM     21  C   UNL A   1      33.695  22.622  23.213  1.00  0.00     0.012 C 
ENDBRANCH  14  15
ENDBRANCH  11  14
ENDBRANCH   6   7
ENDBRANCH   3   5
ENDBRANCH   2   3
ENDBRANCH   1   2
BRANCH   1  22
ATOM     22  C   UNL A   1      34.597  33.475  31.715  1.00  0.00     0.275 C 
BRANCH  22  23
ATOM     23  O   UNL A   1      34.978  32.141  32.091  1.00  0.00    -0.458 OA
BRANCH  23  24
ATOM     24  C   UNL A   1      36.128  32.068  32.809  1.00  0.00     0.338 C 
ATOM     25  O   UNL A   1      36.262  32.372  33.984  1.00  0.00    -0.246 OA
BRANCH  24  26
ATOM     26  C   UNL A   1      37.212  31.438  32.021  1.00  0.00     0.060 A 
ATOM     27  C   UNL A   1      38.208  30.758  32.732  1.00  0.00     0.016 A 
ATOM     28  C   UNL A   1      37.291  31.525  30.627  1.00  0.00     0.016 A 
ATOM     29  C   UNL A   1      39.303  30.210  32.062  1.00  0.00     0.010 A 
ATOM     30  C   UNL A   1      38.391  30.969  29.954  1.00  0.00     0.010 A 
ATOM     31  C   UNL A   1      39.423  30.336  30.669  1.00  0.00    -0.014 A 
BRANCH  31  32
ATOM     32  C   UNL A   1      40.674  29.870  30.007  1.00  0.00     0.031 A 
ATOM     33  C   UNL A   1      40.763  28.467  29.465  1.00  0.00     0.074 A 
ATOM     34  C   UNL A   1      41.701  30.718  29.807  1.00  0.00     0.049 A 
ATOM     35  N   UNL A   1      41.718  27.910  28.760  1.00  0.00    -0.248 NA
ATOM     36  C   UNL A   1      39.630  27.572  29.747  1.00  0.00     0.031 C 
ATOM     37  C   UNL A   1      41.748  32.106  30.264  1.00  0.00     0.029 A 
ATOM     38  N   UNL A   1      42.894  30.540  29.147  1.00  0.00    -0.354 N 
ATOM     39  C   UNL A   1      41.295  26.613  28.500  1.00  0.00     0.074 A 
ATOM     40  C   UNL A   1      40.020  26.446  29.164  1.00  0.00     0.031 C 
ATOM     41  C   UNL A   1      42.900  32.662  29.849  1.00  0.00     0.029 A 
ATOM     42  C   UNL A   1      43.682  31.666  29.117  1.00  0.00     0.049 A 
ATOM     43  H   UNL A   1      43.159  29.687  28.736  1.00  0.00     0.167 HD
ATOM     44  C   UNL A   1      41.899  25.655  27.758  1.00  0.00     0.037 A 
ATOM     45  C   UNL A   1      44.892  31.877  28.560  1.00  0.00     0.037 A 
ATOM     46  C   UNL A   1      43.165  25.809  27.087  1.00  0.00     0.049 A 
ATOM     47  C   UNL A   1      45.570  30.772  27.793  1.00  0.00     0.074 A 
ATOM     48  C   UNL A   1      43.832  24.891  26.291  1.00  0.00     0.029 A 
ATOM     49  N   UNL A   1      43.956  26.946  27.130  1.00  0.00    -0.354 N 
ATOM     50  N   UNL A   1      45.134  29.566  27.516  1.00  0.00    -0.248 NA
ATOM     51  C   UNL A   1      46.908  31.060  27.251  1.00  0.00     0.031 C 
ATOM     52  C   UNL A   1      45.051  25.450  25.901  1.00  0.00     0.029 A 
ATOM     53  C   UNL A   1      45.117  26.740  26.401  1.00  0.00     0.049 A 
ATOM     54  H   UNL A   1      43.727  27.776  27.607  1.00  0.00     0.167 HD
ATOM     55  C   UNL A   1      46.129  28.967  26.750  1.00  0.00     0.074 A 
ATOM     56  C   UNL A   1      47.180  29.947  26.586  1.00  0.00     0.031 C 
ATOM     57  C   UNL A   1      46.164  27.715  26.233  1.00  0.00     0.037 A 
BRANCH  44  58
ATOM     58  C   UNL A   1      41.202  24.334  27.609  1.00  0.00     0.057 A 
ATOM     59  C   UNL A   1      41.682  23.193  28.266  1.00  0.00     0.134 A 
ATOM     60  C   UNL A   1      40.129  24.168  26.725  1.00  0.00     0.134 A 
ATOM     61  F   UNL A   1      42.714  23.282  29.119  1.00  0.00    -0.206 F 
ATOM     62  C   UNL A   1      41.136  21.931  28.029  1.00  0.00     0.040 A 
ATOM     63  C   UNL A   1      39.558  22.914  26.499  1.00  0.00     0.040 A 
ATOM     64  F   UNL A   1      39.617  25.221  26.071  1.00  0.00    -0.206 F 
ATOM     65  C   UNL A   1      40.071  21.788  27.143  1.00  0.00     0.006 A 
ENDBRANCH  44  58
BRANCH  45  66
ATOM     66  C   UNL A   1      45.548  33.204  28.688  1.00  0.00     0.057 A 
ATOM     67  C   UNL A   1      45.252  34.252  27.806  1.00  0.00     0.134 A 
ATOM     68  C   UNL A   1      46.464  33.467  29.714  1.00  0.00     0.134 A 
ATOM     69  F   UNL A   1      44.379  34.068  26.806  1.00  0.00    -0.206 F 
ATOM     70  C   UNL A   1      45.852  35.506  27.931  1.00  0.00     0.040 A 
ATOM     71  C   UNL A   1      47.048  34.725  29.870  1.00  0.00     0.040 A 
ATOM     72  F   UNL A   1      46.766  32.515  30.609  1.00  0.00    -0.206 F 
ATOM     73  C   UNL A   1      46.747  35.747  28.971  1.00  0.00     0.006 A 
ENDBRANCH  45  66
BRANCH  57  74
ATOM     74  C   UNL A   1      47.366  27.325  25.418  1.00  0.00     0.057 A 
ATOM     75  C   UNL A   1      48.480  26.726  26.021  1.00  0.00     0.134 A 
ATOM     76  C   UNL A   1      47.448  27.596  24.046  1.00  0.00     0.134 A 
ATOM     77  F   UNL A   1      48.478  26.452  27.335  1.00  0.00    -0.206 F 
ATOM     78  C   UNL A   1      49.630  26.416  25.294  1.00  0.00     0.040 A 
ATOM     79  C   UNL A   1      48.582  27.263  23.301  1.00  0.00     0.040 A 
ATOM     80  F   UNL A   1      46.417  28.162  23.400  1.00  0.00    -0.206 F 
ATOM     81  C   UNL A   1      49.681  26.679  23.927  1.00  0.00     0.006 A 
ENDBRANCH  57  74
ENDBRANCH  31  32
ENDBRANCH  24  26
ENDBRANCH  23  24
ENDBRANCH  22  23
ENDBRANCH   1  22
TORSDOF 14
ENDMDL
