MODEL 1
REMARK VINA RESULT:     -12.4      0.000      0.000
REMARK SMILES O=C(OCCOC(=O)[C@H]1CSCN1C(=O)c1occc1-c1ccccc1)c1ccc(-c2c3nc(c(-c4c(F)cccc4F)c4ccc([nH]4)c(-c4c(F)cccc4F)c4nc(c(-c5c(F)cccc5F)c5ccc2[nH]5)C=C4)C=C3)cc1
REMARK SMILES IDX 5 1 4 2 3 3 2 4 1 5 27 6 28 7 80 8 29 9 79 10 30 11 31 12
REMARK SMILES IDX 32 13 73 14 33 15 78 16 72 17 74 18 34 19 77 20 71 21 70 22
REMARK SMILES IDX 35 24 61 25 44 26 60 27 45 28 48 29 59 30 75 31 46 32 47 33
REMARK SMILES IDX 58 35 76 36 49 37 36 38 37 39 42 40 38 41 39 42 41 43 43 44
REMARK SMILES IDX 40 45 62 46 63 47 68 48 64 49 65 50 67 51 69 52 66 53 50 54
REMARK SMILES IDX 51 55 56 56 52 57 53 58 55 59 57 60 54 61 6 62 7 63 8 64
REMARK SMILES IDX 9 65 10 66 13 67 11 68 12 69 14 70 15 71 16 72 17 73 20 74
REMARK SMILES IDX 18 75 19 76 21 77 22 78 26 79 23 80 25 81 24 82
REMARK H PARENT 74 23 48 34
REMARK Flexibility Score: inf
ROOT
ATOM      1  C   UNL A   1      31.749  29.171  26.671  1.00  0.00     0.274 C 
ENDROOT
BRANCH   1   2
ATOM      2  C   UNL A   1      32.853  30.242  26.871  1.00  0.00     0.275 C 
BRANCH   2   3
ATOM      3  O   UNL A   1      34.026  29.751  27.560  1.00  0.00    -0.458 OA
BRANCH   3   4
ATOM      4  C   UNL A   1      35.035  30.407  28.183  1.00  0.00     0.338 C 
ATOM      5  O   UNL A   1      34.848  31.542  28.610  1.00  0.00    -0.246 OA
BRANCH   4   6
ATOM      6  C   UNL A   1      36.423  29.880  28.271  1.00  0.00     0.060 A 
ATOM      7  C   UNL A   1      37.607  29.891  26.868  1.00  0.00     0.016 A 
ATOM      8  C   UNL A   1      36.997  29.291  29.907  1.00  0.00     0.016 A 
ATOM      9  C   UNL A   1      39.293  29.335  27.076  1.00  0.00     0.010 A 
ATOM     10  C   UNL A   1      38.725  28.672  30.100  1.00  0.00     0.010 A 
ATOM     11  C   UNL A   1      39.864  28.711  28.645  1.00  0.00    -0.014 A 
BRANCH  11  12
ATOM     12  C   UNL A   1      41.241  28.175  28.554  1.00  0.00     0.031 A 
ATOM     13  C   UNL A   1      42.410  28.980  29.023  1.00  0.00     0.074 A 
ATOM     14  C   UNL A   1      41.483  26.866  28.391  1.00  0.00     0.049 A 
ATOM     15  N   UNL A   1      43.616  29.023  28.530  1.00  0.00    -0.248 NA
ATOM     16  C   UNL A   1      42.206  29.872  30.176  1.00  0.00     0.031 C 
ATOM     17  C   UNL A   1      40.507  25.786  28.455  1.00  0.00     0.029 A 
ATOM     18  N   UNL A   1      42.665  26.224  28.140  1.00  0.00    -0.354 N 
ATOM     19  C   UNL A   1      44.201  30.148  29.105  1.00  0.00     0.074 A 
ATOM     20  C   UNL A   1      43.292  30.635  30.111  1.00  0.00     0.031 C 
ATOM     21  C   UNL A   1      41.099  24.631  28.120  1.00  0.00     0.029 A 
ATOM     22  C   UNL A   1      42.496  24.903  27.814  1.00  0.00     0.049 A 
ATOM     23  H   UNL A   1      43.545  26.665  28.189  1.00  0.00     0.167 HD
ATOM     24  C   UNL A   1      45.334  30.737  28.652  1.00  0.00     0.037 A 
ATOM     25  C   UNL A   1      43.374  24.039  27.280  1.00  0.00     0.037 A 
ATOM     26  C   UNL A   1      46.293  29.967  27.894  1.00  0.00     0.049 A 
ATOM     27  C   UNL A   1      44.762  24.544  27.009  1.00  0.00     0.074 A 
ATOM     28  C   UNL A   1      47.535  30.323  27.409  1.00  0.00     0.029 A 
ATOM     29  N   UNL A   1      46.122  28.617  27.606  1.00  0.00    -0.354 N 
ATOM     30  N   UNL A   1      45.222  25.769  27.129  1.00  0.00    -0.248 NA
ATOM     31  C   UNL A   1      45.751  23.568  26.547  1.00  0.00     0.031 C 
ATOM     32  C   UNL A   1      48.119  29.181  26.842  1.00  0.00     0.029 A 
ATOM     33  C   UNL A   1      47.257  28.106  27.019  1.00  0.00     0.049 A 
ATOM     34  H   UNL A   1      45.306  28.100  27.797  1.00  0.00     0.167 HD
ATOM     35  C   UNL A   1      46.561  25.714  26.775  1.00  0.00     0.074 A 
ATOM     36  C   UNL A   1      46.836  24.327  26.443  1.00  0.00     0.031 C 
ATOM     37  C   UNL A   1      47.480  26.712  26.726  1.00  0.00     0.037 A 
BRANCH  24  38
ATOM     38  C   UNL A   1      45.500  32.227  28.795  1.00  0.00     0.057 A 
ATOM     39  C   UNL A   1      46.310  32.872  29.734  1.00  0.00     0.134 A 
ATOM     40  C   UNL A   1      44.762  33.064  27.931  1.00  0.00     0.134 A 
ATOM     41  F   UNL A   1      47.073  32.167  30.582  1.00  0.00    -0.206 F 
ATOM     42  C   UNL A   1      46.349  34.270  29.840  1.00  0.00     0.040 A 
ATOM     43  C   UNL A   1      44.829  34.458  27.994  1.00  0.00     0.040 A 
ATOM     44  F   UNL A   1      43.944  32.538  27.007  1.00  0.00    -0.206 F 
ATOM     45  C   UNL A   1      45.613  35.067  28.963  1.00  0.00     0.006 A 
ENDBRANCH  24  38
BRANCH  25  46
ATOM     46  C   UNL A   1      42.929  22.658  26.979  1.00  0.00     0.057 A 
ATOM     47  C   UNL A   1      42.633  21.753  28.003  1.00  0.00     0.134 A 
ATOM     48  C   UNL A   1      42.661  22.254  25.663  1.00  0.00     0.134 A 
ATOM     49  F   UNL A   1      42.863  22.084  29.282  1.00  0.00    -0.206 F 
ATOM     50  C   UNL A   1      42.079  20.500  27.732  1.00  0.00     0.040 A 
ATOM     51  C   UNL A   1      42.089  21.012  25.380  1.00  0.00     0.040 A 
ATOM     52  F   UNL A   1      42.897  23.086  24.638  1.00  0.00    -0.206 F 
ATOM     53  C   UNL A   1      41.793  20.131  26.418  1.00  0.00     0.006 A 
ENDBRANCH  25  46
BRANCH  37  54
ATOM     54  C   UNL A   1      48.878  26.327  26.370  1.00  0.00     0.057 A 
ATOM     55  C   UNL A   1      49.380  26.494  25.077  1.00  0.00     0.134 A 
ATOM     56  C   UNL A   1      49.750  25.871  27.366  1.00  0.00     0.134 A 
ATOM     57  F   UNL A   1      48.585  26.925  24.087  1.00  0.00    -0.206 F 
ATOM     58  C   UNL A   1      50.711  26.206  24.780  1.00  0.00     0.040 A 
ATOM     59  C   UNL A   1      51.087  25.599  27.085  1.00  0.00     0.040 A 
ATOM     60  F   UNL A   1      49.319  25.704  28.625  1.00  0.00    -0.206 F 
ATOM     61  C   UNL A   1      51.570  25.767  25.789  1.00  0.00     0.006 A 
ENDBRANCH  37  54
ENDBRANCH  11  12
ENDBRANCH   4   6
ENDBRANCH   3   4
ENDBRANCH   2   3
ENDBRANCH   1   2
BRANCH   1  62
ATOM     62  O   UNL A   1      32.130  28.113  25.766  1.00  0.00    -0.461 OA
BRANCH  62  63
ATOM     63  C   UNL A   1      31.372  26.988  25.890  1.00  0.00     0.329 C 
ATOM     64  O   UNL A   1      30.698  26.785  26.892  1.00  0.00    -0.250 OA
BRANCH  63  65
ATOM     65  C   UNL A   1      31.421  26.061  24.586  1.00  0.00     0.206 C 
ATOM     66  C   UNL A   1      32.327  27.008  23.686  1.00  0.00     0.108 C 
ATOM     67  N   UNL A   1      31.919  24.376  24.255  1.00  0.00    -0.312 N 
ATOM     68  S   UNL A   1      33.336  26.112  22.533  1.00  0.00    -0.138 SA
ATOM     69  C   UNL A   1      32.257  24.704  22.622  1.00  0.00     0.191 C 
BRANCH  67  70
ATOM     70  C   UNL A   1      32.031  22.698  25.346  1.00  0.00     0.291 C 
ATOM     71  O   UNL A   1      31.720  22.494  26.557  1.00  0.00    -0.265 OA
BRANCH  70  72
ATOM     72  C   UNL A   1      32.669  21.148  25.043  1.00  0.00     0.199 A 
ATOM     73  O   UNL A   1      31.821  20.077  24.887  1.00  0.00    -0.459 OA
ATOM     74  C   UNL A   1      33.975  20.644  24.996  1.00  0.00     0.033 A 
ATOM     75  C   UNL A   1      32.546  18.947  24.731  1.00  0.00     0.196 A 
ATOM     76  C   UNL A   1      33.879  19.232  24.813  1.00  0.00     0.051 A 
BRANCH  74  77
ATOM     77  C   UNL A   1      35.153  21.450  24.795  1.00  0.00    -0.014 A 
ATOM     78  C   UNL A   1      35.129  22.354  23.719  1.00  0.00     0.009 A 
ATOM     79  C   UNL A   1      36.214  21.454  25.694  1.00  0.00     0.009 A 
ATOM     80  C   UNL A   1      36.116  23.324  23.598  1.00  0.00     0.001 A 
ATOM     81  C   UNL A   1      37.213  22.420  25.559  1.00  0.00     0.001 A 
ATOM     82  C   UNL A   1      37.147  23.367  24.533  1.00  0.00     0.000 A 
ENDBRANCH  74  77
ENDBRANCH  70  72
ENDBRANCH  67  70
ENDBRANCH  63  65
ENDBRANCH  62  63
ENDBRANCH   1  62
TORSDOF 14
ENDMDL
MODEL 2
REMARK VINA RESULT:     -12.2     10.232     14.568
REMARK SMILES O=C(OCCOC(=O)[C@H]1CSCN1C(=O)c1occc1-c1ccccc1)c1ccc(-c2c3nc(c(-c4c(F)cccc4F)c4ccc([nH]4)c(-c4c(F)cccc4F)c4nc(c(-c5c(F)cccc5F)c5ccc2[nH]5)C=C4)C=C3)cc1
REMARK SMILES IDX 5 1 4 2 3 3 2 4 1 5 27 6 28 7 80 8 29 9 79 10 30 11 31 12
REMARK SMILES IDX 32 13 73 14 33 15 78 16 72 17 74 18 34 19 77 20 71 21 70 22
REMARK SMILES IDX 35 24 61 25 44 26 60 27 45 28 48 29 59 30 75 31 46 32 47 33
REMARK SMILES IDX 58 35 76 36 49 37 36 38 37 39 42 40 38 41 39 42 41 43 43 44
REMARK SMILES IDX 40 45 62 46 63 47 68 48 64 49 65 50 67 51 69 52 66 53 50 54
REMARK SMILES IDX 51 55 56 56 52 57 53 58 55 59 57 60 54 61 6 62 7 63 8 64
REMARK SMILES IDX 9 65 10 66 13 67 11 68 12 69 14 70 15 71 16 72 17 73 20 74
REMARK SMILES IDX 18 75 19 76 21 77 22 78 26 79 23 80 25 81 24 82
REMARK H PARENT 74 23 48 34
REMARK Flexibility Score: inf
ROOT
ATOM      1  C   UNL A   1      46.377  21.899  39.123  1.00  0.00     0.274 C 
ENDROOT
BRANCH   1   2
ATOM      2  C   UNL A   1      45.339  22.975  39.537  1.00  0.00     0.275 C 
BRANCH   2   3
ATOM      3  O   UNL A   1      45.053  23.942  38.501  1.00  0.00    -0.458 OA
BRANCH   3   4
ATOM      4  C   UNL A   1      44.943  23.804  37.157  1.00  0.00     0.338 C 
ATOM      5  O   UNL A   1      45.496  22.862  36.597  1.00  0.00    -0.246 OA
BRANCH   4   6
ATOM      6  C   UNL A   1      44.290  24.812  36.281  1.00  0.00     0.060 A 
ATOM      7  C   UNL A   1      42.514  24.761  35.818  1.00  0.00     0.016 A 
ATOM      8  C   UNL A   1      45.305  26.233  35.732  1.00  0.00     0.016 A 
ATOM      9  C   UNL A   1      41.774  26.065  34.843  1.00  0.00     0.010 A 
ATOM     10  C   UNL A   1      44.545  27.549  34.685  1.00  0.00     0.010 A 
ATOM     11  C   UNL A   1      42.751  27.434  34.255  1.00  0.00    -0.014 A 
BRANCH  11  12
ATOM     12  C   UNL A   1      41.974  28.316  33.354  1.00  0.00     0.031 A 
ATOM     13  C   UNL A   1      41.426  29.619  33.841  1.00  0.00     0.074 A 
ATOM     14  C   UNL A   1      42.016  28.181  32.020  1.00  0.00     0.049 A 
ATOM     15  N   UNL A   1      40.310  30.205  33.509  1.00  0.00    -0.248 NA
ATOM     16  C   UNL A   1      42.211  30.356  34.844  1.00  0.00     0.031 C 
ATOM     17  C   UNL A   1      42.916  27.323  31.261  1.00  0.00     0.029 A 
ATOM     18  N   UNL A   1      41.262  28.796  31.059  1.00  0.00    -0.354 N 
ATOM     19  C   UNL A   1      40.121  31.193  34.471  1.00  0.00     0.074 A 
ATOM     20  C   UNL A   1      41.320  31.245  35.270  1.00  0.00     0.031 C 
ATOM     21  C   UNL A   1      42.579  27.361  29.964  1.00  0.00     0.029 A 
ATOM     22  C   UNL A   1      41.433  28.248  29.815  1.00  0.00     0.049 A 
ATOM     23  H   UNL A   1      40.659  29.553  31.243  1.00  0.00     0.167 HD
ATOM     24  C   UNL A   1      38.950  31.838  34.686  1.00  0.00     0.037 A 
ATOM     25  C   UNL A   1      40.702  28.418  28.701  1.00  0.00     0.037 A 
ATOM     26  C   UNL A   1      37.978  31.938  33.622  1.00  0.00     0.049 A 
ATOM     27  C   UNL A   1      39.533  29.356  28.779  1.00  0.00     0.074 A 
ATOM     28  C   UNL A   1      36.770  32.607  33.581  1.00  0.00     0.029 A 
ATOM     29  N   UNL A   1      38.186  31.409  32.353  1.00  0.00    -0.354 N 
ATOM     30  N   UNL A   1      39.052  29.973  29.835  1.00  0.00    -0.248 NA
ATOM     31  C   UNL A   1      38.816  29.638  27.535  1.00  0.00     0.031 C 
ATOM     32  C   UNL A   1      36.259  32.491  32.280  1.00  0.00     0.029 A 
ATOM     33  C   UNL A   1      37.174  31.792  31.502  1.00  0.00     0.049 A 
ATOM     34  H   UNL A   1      38.950  30.842  32.098  1.00  0.00     0.167 HD
ATOM     35  C   UNL A   1      37.984  30.732  29.384  1.00  0.00     0.074 A 
ATOM     36  C   UNL A   1      37.897  30.501  27.953  1.00  0.00     0.031 C 
ATOM     37  C   UNL A   1      37.150  31.545  30.082  1.00  0.00     0.037 A 
BRANCH  24  38
ATOM     38  C   UNL A   1      38.601  32.292  36.079  1.00  0.00     0.057 A 
ATOM     39  C   UNL A   1      37.986  31.512  37.062  1.00  0.00     0.134 A 
ATOM     40  C   UNL A   1      38.889  33.627  36.435  1.00  0.00     0.134 A 
ATOM     41  F   UNL A   1      37.697  30.222  36.833  1.00  0.00    -0.206 F 
ATOM     42  C   UNL A   1      37.633  32.040  38.312  1.00  0.00     0.040 A 
ATOM     43  C   UNL A   1      38.586  34.152  37.693  1.00  0.00     0.040 A 
ATOM     44  F   UNL A   1      39.463  34.459  35.553  1.00  0.00    -0.206 F 
ATOM     45  C   UNL A   1      37.941  33.362  38.634  1.00  0.00     0.006 A 
ENDBRANCH  24  38
BRANCH  25  46
ATOM     46  C   UNL A   1      41.075  27.670  27.477  1.00  0.00     0.057 A 
ATOM     47  C   UNL A   1      41.971  28.205  26.547  1.00  0.00     0.134 A 
ATOM     48  C   UNL A   1      40.648  26.350  27.276  1.00  0.00     0.134 A 
ATOM     49  F   UNL A   1      42.419  29.461  26.687  1.00  0.00    -0.206 F 
ATOM     50  C   UNL A   1      42.436  27.452  25.466  1.00  0.00     0.040 A 
ATOM     51  C   UNL A   1      41.120  25.580  26.212  1.00  0.00     0.040 A 
ATOM     52  F   UNL A   1      39.810  25.770  28.148  1.00  0.00    -0.206 F 
ATOM     53  C   UNL A   1      42.021  26.132  25.303  1.00  0.00     0.006 A 
ENDBRANCH  25  46
BRANCH  37  54
ATOM     54  C   UNL A   1      36.123  32.294  29.299  1.00  0.00     0.057 A 
ATOM     55  C   UNL A   1      34.963  31.676  28.825  1.00  0.00     0.134 A 
ATOM     56  C   UNL A   1      36.266  33.673  29.103  1.00  0.00     0.134 A 
ATOM     57  F   UNL A   1      34.780  30.357  28.985  1.00  0.00    -0.206 F 
ATOM     58  C   UNL A   1      33.977  32.407  28.166  1.00  0.00     0.040 A 
ATOM     59  C   UNL A   1      35.277  34.417  28.464  1.00  0.00     0.040 A 
ATOM     60  F   UNL A   1      37.356  34.316  29.548  1.00  0.00    -0.206 F 
ATOM     61  C   UNL A   1      34.129  33.784  27.993  1.00  0.00     0.006 A 
ENDBRANCH  37  54
ENDBRANCH  11  12
ENDBRANCH   4   6
ENDBRANCH   3   4
ENDBRANCH   2   3
ENDBRANCH   1   2
BRANCH   1  62
ATOM     62  O   UNL A   1      46.176  20.626  39.774  1.00  0.00    -0.461 OA
BRANCH  62  63
ATOM     63  C   UNL A   1      46.168  19.568  38.916  1.00  0.00     0.329 C 
ATOM     64  O   UNL A   1      46.031  19.731  37.711  1.00  0.00    -0.250 OA
BRANCH  63  65
ATOM     65  C   UNL A   1      46.427  18.171  39.653  1.00  0.00     0.206 C 
ATOM     66  C   UNL A   1      47.464  18.693  40.740  1.00  0.00     0.108 C 
ATOM     67  N   UNL A   1      45.388  16.954  40.449  1.00  0.00    -0.312 N 
ATOM     68  S   UNL A   1      47.398  17.775  42.258  1.00  0.00    -0.138 SA
ATOM     69  C   UNL A   1      46.652  16.390  41.434  1.00  0.00     0.191 C 
BRANCH  67  70
ATOM     70  C   UNL A   1      43.468  16.404  40.270  1.00  0.00     0.291 C 
ATOM     71  O   UNL A   1      42.469  17.065  39.859  1.00  0.00    -0.265 OA
BRANCH  70  72
ATOM     72  C   UNL A   1      42.608  15.004  40.717  1.00  0.00     0.199 A 
ATOM     73  O   UNL A   1      42.108  14.168  39.747  1.00  0.00    -0.459 OA
ATOM     74  C   UNL A   1      42.175  14.501  41.951  1.00  0.00     0.033 A 
ATOM     75  C   UNL A   1      41.405  13.172  40.329  1.00  0.00     0.196 A 
ATOM     76  C   UNL A   1      41.391  13.338  41.684  1.00  0.00     0.051 A 
BRANCH  74  77
ATOM     77  C   UNL A   1      42.731  14.878  43.226  1.00  0.00    -0.014 A 
ATOM     78  C   UNL A   1      42.527  13.990  44.296  1.00  0.00     0.009 A 
ATOM     79  C   UNL A   1      43.557  15.987  43.380  1.00  0.00     0.009 A 
ATOM     80  C   UNL A   1      43.221  14.158  45.487  1.00  0.00     0.001 A 
ATOM     81  C   UNL A   1      44.239  16.162  44.584  1.00  0.00     0.001 A 
ATOM     82  C   UNL A   1      44.094  15.235  45.621  1.00  0.00     0.000 A 
ENDBRANCH  74  77
ENDBRANCH  70  72
ENDBRANCH  67  70
ENDBRANCH  63  65
ENDBRANCH  62  63
ENDBRANCH   1  62
TORSDOF 14
ENDMDL
MODEL 3
REMARK VINA RESULT:     -12.2      0.912      2.012
REMARK SMILES O=C(OCCOC(=O)[C@H]1CSCN1C(=O)c1occc1-c1ccccc1)c1ccc(-c2c3nc(c(-c4c(F)cccc4F)c4ccc([nH]4)c(-c4c(F)cccc4F)c4nc(c(-c5c(F)cccc5F)c5ccc2[nH]5)C=C4)C=C3)cc1
REMARK SMILES IDX 5 1 4 2 3 3 2 4 1 5 27 6 28 7 80 8 29 9 79 10 30 11 31 12
REMARK SMILES IDX 32 13 73 14 33 15 78 16 72 17 74 18 34 19 77 20 71 21 70 22
REMARK SMILES IDX 35 24 61 25 44 26 60 27 45 28 48 29 59 30 75 31 46 32 47 33
REMARK SMILES IDX 58 35 76 36 49 37 36 38 37 39 42 40 38 41 39 42 41 43 43 44
REMARK SMILES IDX 40 45 62 46 63 47 68 48 64 49 65 50 67 51 69 52 66 53 50 54
REMARK SMILES IDX 51 55 56 56 52 57 53 58 55 59 57 60 54 61 6 62 7 63 8 64
REMARK SMILES IDX 9 65 10 66 13 67 11 68 12 69 14 70 15 71 16 72 17 73 20 74
REMARK SMILES IDX 18 75 19 76 21 77 22 78 26 79 23 80 25 81 24 82
REMARK H PARENT 74 23 48 34
REMARK Flexibility Score: inf
ROOT
ATOM      1  C   UNL A   1      31.706  28.677  26.589  1.00  0.00     0.274 C 
ENDROOT
BRANCH   1   2
ATOM      2  C   UNL A   1      32.665  29.880  26.787  1.00  0.00     0.275 C 
BRANCH   2   3
ATOM      3  O   UNL A   1      33.710  29.640  27.757  1.00  0.00    -0.458 OA
BRANCH   3   4
ATOM      4  C   UNL A   1      34.754  30.409  28.152  1.00  0.00     0.338 C 
ATOM      5  O   UNL A   1      34.588  31.611  28.333  1.00  0.00    -0.246 OA
BRANCH   4   6
ATOM      6  C   UNL A   1      36.149  29.904  28.258  1.00  0.00     0.060 A 
ATOM      7  C   UNL A   1      37.349  29.928  26.868  1.00  0.00     0.016 A 
ATOM      8  C   UNL A   1      36.713  29.329  29.902  1.00  0.00     0.016 A 
ATOM      9  C   UNL A   1      39.041  29.398  27.098  1.00  0.00     0.010 A 
ATOM     10  C   UNL A   1      38.447  28.737  30.118  1.00  0.00     0.010 A 
ATOM     11  C   UNL A   1      39.602  28.788  28.676  1.00  0.00    -0.014 A 
BRANCH  11  12
ATOM     12  C   UNL A   1      40.989  28.273  28.603  1.00  0.00     0.031 A 
ATOM     13  C   UNL A   1      42.143  29.111  29.052  1.00  0.00     0.074 A 
ATOM     14  C   UNL A   1      41.254  26.964  28.477  1.00  0.00     0.049 A 
ATOM     15  N   UNL A   1      43.349  29.160  28.560  1.00  0.00    -0.248 NA
ATOM     16  C   UNL A   1      41.921  30.030  30.179  1.00  0.00     0.031 C 
ATOM     17  C   UNL A   1      40.295  25.870  28.569  1.00  0.00     0.029 A 
ATOM     18  N   UNL A   1      42.447  26.336  28.246  1.00  0.00    -0.354 N 
ATOM     19  C   UNL A   1      43.914  30.310  29.105  1.00  0.00     0.074 A 
ATOM     20  C   UNL A   1      42.994  30.810  30.096  1.00  0.00     0.031 C 
ATOM     21  C   UNL A   1      40.907  24.716  28.267  1.00  0.00     0.029 A 
ATOM     22  C   UNL A   1      42.301  25.004  27.957  1.00  0.00     0.049 A 
ATOM     23  H   UNL A   1      43.318  26.793  28.285  1.00  0.00     0.167 HD
ATOM     24  C   UNL A   1      45.038  30.905  28.639  1.00  0.00     0.037 A 
ATOM     25  C   UNL A   1      43.194  24.140  27.449  1.00  0.00     0.037 A 
ATOM     26  C   UNL A   1      46.012  30.130  27.905  1.00  0.00     0.049 A 
ATOM     27  C   UNL A   1      44.573  24.660  27.167  1.00  0.00     0.074 A 
ATOM     28  C   UNL A   1      47.249  30.494  27.413  1.00  0.00     0.029 A 
ATOM     29  N   UNL A   1      45.865  28.770  27.654  1.00  0.00    -0.354 N 
ATOM     30  N   UNL A   1      45.013  25.895  27.254  1.00  0.00    -0.248 NA
ATOM     31  C   UNL A   1      45.580  23.689  26.734  1.00  0.00     0.031 C 
ATOM     32  C   UNL A   1      47.854  29.346  26.878  1.00  0.00     0.029 A 
ATOM     33  C   UNL A   1      47.009  28.262  27.083  1.00  0.00     0.049 A 
ATOM     34  H   UNL A   1      45.057  28.245  27.857  1.00  0.00     0.167 HD
ATOM     35  C   UNL A   1      46.354  25.853  26.904  1.00  0.00     0.074 A 
ATOM     36  C   UNL A   1      46.653  24.462  26.612  1.00  0.00     0.031 C 
ATOM     37  C   UNL A   1      47.256  26.864  26.830  1.00  0.00     0.037 A 
BRANCH  24  38
ATOM     38  C   UNL A   1      45.179  32.401  28.740  1.00  0.00     0.057 A 
ATOM     39  C   UNL A   1      45.847  33.091  29.756  1.00  0.00     0.134 A 
ATOM     40  C   UNL A   1      44.569  33.195  27.747  1.00  0.00     0.134 A 
ATOM     41  F   UNL A   1      46.485  32.428  30.732  1.00  0.00    -0.206 F 
ATOM     42  C   UNL A   1      45.867  34.493  29.808  1.00  0.00     0.040 A 
ATOM     43  C   UNL A   1      44.622  34.591  27.760  1.00  0.00     0.040 A 
ATOM     44  F   UNL A   1      43.889  32.625  26.740  1.00  0.00    -0.206 F 
ATOM     45  C   UNL A   1      45.261  35.246  28.803  1.00  0.00     0.006 A 
ENDBRANCH  24  38
BRANCH  25  46
ATOM     46  C   UNL A   1      42.773  22.744  27.185  1.00  0.00     0.057 A 
ATOM     47  C   UNL A   1      42.533  21.850  28.233  1.00  0.00     0.134 A 
ATOM     48  C   UNL A   1      42.471  22.311  25.886  1.00  0.00     0.134 A 
ATOM     49  F   UNL A   1      42.797  22.207  29.498  1.00  0.00    -0.206 F 
ATOM     50  C   UNL A   1      42.000  20.579  28.001  1.00  0.00     0.040 A 
ATOM     51  C   UNL A   1      41.920  21.052  25.642  1.00  0.00     0.040 A 
ATOM     52  F   UNL A   1      42.652  23.131  24.841  1.00  0.00    -0.206 F 
ATOM     53  C   UNL A   1      41.681  20.182  26.704  1.00  0.00     0.006 A 
ENDBRANCH  25  46
BRANCH  37  54
ATOM     54  C   UNL A   1      48.661  26.493  26.488  1.00  0.00     0.057 A 
ATOM     55  C   UNL A   1      49.550  26.011  27.451  1.00  0.00     0.134 A 
ATOM     56  C   UNL A   1      49.088  26.537  25.155  1.00  0.00     0.134 A 
ATOM     57  F   UNL A   1      49.191  25.952  28.742  1.00  0.00    -0.206 F 
ATOM     58  C   UNL A   1      50.833  25.593  27.101  1.00  0.00     0.040 A 
ATOM     59  C   UNL A   1      50.360  26.103  24.791  1.00  0.00     0.040 A 
ATOM     60  F   UNL A   1      48.269  26.982  24.191  1.00  0.00    -0.206 F 
ATOM     61  C   UNL A   1      51.236  25.629  25.765  1.00  0.00     0.006 A 
ENDBRANCH  37  54
ENDBRANCH  11  12
ENDBRANCH   4   6
ENDBRANCH   3   4
ENDBRANCH   2   3
ENDBRANCH   1   2
BRANCH   1  62
ATOM     62  O   UNL A   1      32.288  27.596  25.829  1.00  0.00    -0.461 OA
BRANCH  62  63
ATOM     63  C   UNL A   1      31.578  26.435  25.896  1.00  0.00     0.329 C 
ATOM     64  O   UNL A   1      30.696  26.280  26.730  1.00  0.00    -0.250 OA
BRANCH  63  65
ATOM     65  C   UNL A   1      31.981  25.395  24.747  1.00  0.00     0.206 C 
ATOM     66  C   UNL A   1      32.087  26.435  23.548  1.00  0.00     0.108 C 
ATOM     67  N   UNL A   1      33.290  24.199  24.533  1.00  0.00    -0.312 N 
ATOM     68  S   UNL A   1      33.278  25.958  22.321  1.00  0.00    -0.138 SA
ATOM     69  C   UNL A   1      33.190  24.261  22.838  1.00  0.00     0.191 C 
BRANCH  67  70
ATOM     70  C   UNL A   1      34.450  23.138  25.779  1.00  0.00     0.291 C 
ATOM     71  O   UNL A   1      34.451  23.091  27.044  1.00  0.00    -0.265 OA
BRANCH  70  72
ATOM     72  C   UNL A   1      35.805  22.134  25.542  1.00  0.00     0.199 A 
ATOM     73  O   UNL A   1      37.065  22.607  25.821  1.00  0.00    -0.459 OA
ATOM     74  C   UNL A   1      35.961  20.851  25.000  1.00  0.00     0.033 A 
ATOM     75  C   UNL A   1      37.982  21.671  25.490  1.00  0.00     0.196 A 
ATOM     76  C   UNL A   1      37.362  20.577  24.957  1.00  0.00     0.051 A 
BRANCH  74  77
ATOM     77  C   UNL A   1      34.900  19.884  24.873  1.00  0.00    -0.014 A 
ATOM     78  C   UNL A   1      33.586  20.381  24.862  1.00  0.00     0.009 A 
ATOM     79  C   UNL A   1      35.146  18.538  24.627  1.00  0.00     0.009 A 
ATOM     80  C   UNL A   1      32.528  19.552  24.511  1.00  0.00     0.001 A 
ATOM     81  C   UNL A   1      34.079  17.705  24.291  1.00  0.00     0.001 A 
ATOM     82  C   UNL A   1      32.780  18.217  24.205  1.00  0.00     0.000 A 
ENDBRANCH  74  77
ENDBRANCH  70  72
ENDBRANCH  67  70
ENDBRANCH  63  65
ENDBRANCH  62  63
ENDBRANCH   1  62
TORSDOF 14
ENDMDL
