MODEL 1
REMARK VINA RESULT:     -11.2      0.000      0.000
REMARK SMILES Cc1noc(C)c1[C@H](C)NC(=O)N1CC[C@H](C(=O)OCCOC(=O)c2ccc(-c3c4nc(c(-c5c(F)cccc5F)c5ccc([nH]5)c(-c5c(F)cccc5F)c5nc(c(-c6c(F)cccc6F)c6ccc3[nH]6)C=C5)C=C4)cc2)[C@@H]1C
REMARK SMILES IDX 20 1 19 2 17 3 18 4 16 5 13 6 14 7 79 8 15 9 80 10 11 11
REMARK SMILES IDX 10 12 12 14 8 15 9 16 7 17 1 18 2 19 3 20 4 21 5 22 6 23
REMARK SMILES IDX 21 24 22 25 23 26 24 27 25 28 26 29 78 30 27 31 77 32 28 33
REMARK SMILES IDX 29 34 30 35 71 36 31 37 76 38 70 39 72 40 32 41 75 42 69 43
REMARK SMILES IDX 68 44 33 46 59 47 42 48 58 49 43 50 46 51 57 52 73 53 44 54
REMARK SMILES IDX 45 55 56 57 74 58 47 59 34 60 35 61 40 62 36 63 37 64 39 65
REMARK SMILES IDX 41 66 38 67 60 68 61 69 66 70 62 71 63 72 65 73 67 74 64 75
REMARK SMILES IDX 48 76 49 77 54 78 50 79 51 80 53 81 55 82 52 83
REMARK H PARENT 10 13 72 45 46 56
REMARK Flexibility Score: inf
ROOT
ATOM      1  C   UNL A   1      31.103  29.520  24.675  1.00  0.00     0.274 C 
ENDROOT
BRANCH   1   2
ATOM      2  O   UNL A   1      32.291  28.822  24.253  1.00  0.00    -0.462 OA
BRANCH   2   3
ATOM      3  C   UNL A   1      32.091  27.692  23.525  1.00  0.00     0.311 C 
ATOM      4  O   UNL A   1      31.725  27.683  22.357  1.00  0.00    -0.252 OA
BRANCH   3   5
ATOM      5  C   UNL A   1      32.552  26.453  24.265  1.00  0.00     0.123 C 
ATOM      6  N   UNL A   1      31.909  24.769  25.773  1.00  0.00    -0.321 N 
ATOM      7  C   UNL A   1      32.583  25.748  26.597  1.00  0.00     0.122 C 
ATOM      8  C   UNL A   1      31.448  25.416  24.545  1.00  0.00     0.098 C 
ATOM      9  C   UNL A   1      33.265  26.678  25.608  1.00  0.00     0.039 C 
ATOM     10  C   UNL A   1      30.033  25.973  24.752  1.00  0.00     0.032 C 
BRANCH   6  11
ATOM     11  C   UNL A   1      31.393  23.637  26.335  1.00  0.00     0.318 C 
ATOM     12  N   UNL A   1      31.883  22.430  25.954  1.00  0.00    -0.331 N 
ATOM     13  H   UNL A   1      31.227  21.717  25.772  1.00  0.00     0.165 HD
ATOM     14  O   UNL A   1      30.504  23.668  27.184  1.00  0.00    -0.249 OA
BRANCH  12  15
ATOM     15  C   UNL A   1      33.293  22.091  25.791  1.00  0.00     0.116 C 
ATOM     16  C   UNL A   1      33.466  20.578  25.948  1.00  0.00     0.036 C 
BRANCH  15  17
ATOM     17  C   UNL A   1      33.758  22.659  24.480  1.00  0.00     0.040 A 
ATOM     18  C   UNL A   1      35.848  24.055  25.264  1.00  0.00     0.071 C 
ATOM     19  C   UNL A   1      34.891  23.512  24.273  1.00  0.00     0.086 A 
ATOM     20  N   UNL A   1      35.046  23.829  22.985  1.00  0.00    -0.085 NA
ATOM     21  O   UNL A   1      34.031  23.192  22.316  1.00  0.00    -0.361 OA
ATOM     22  C   UNL A   1      33.264  22.494  23.194  1.00  0.00     0.139 A 
ATOM     23  C   UNL A   1      32.144  21.759  22.574  1.00  0.00     0.091 C 
ENDBRANCH  15  17
ENDBRANCH  12  15
ENDBRANCH   6  11
ENDBRANCH   3   5
ENDBRANCH   2   3
ENDBRANCH   1   2
BRANCH   1  24
ATOM     24  C   UNL A   1      31.417  30.560  25.757  1.00  0.00     0.275 C 
BRANCH  24  25
ATOM     25  O   UNL A   1      32.784  30.486  26.212  1.00  0.00    -0.458 OA
BRANCH  25  26
ATOM     26  C   UNL A   1      33.197  31.516  26.982  1.00  0.00     0.338 C 
ATOM     27  O   UNL A   1      32.573  32.534  27.256  1.00  0.00    -0.246 OA
BRANCH  26  28
ATOM     28  C   UNL A   1      34.504  31.210  27.583  1.00  0.00     0.060 A 
ATOM     29  C   UNL A   1      34.770  29.890  27.960  1.00  0.00     0.016 A 
ATOM     30  C   UNL A   1      35.416  32.225  27.867  1.00  0.00     0.016 A 
ATOM     31  C   UNL A   1      35.945  29.578  28.639  1.00  0.00     0.010 A 
ATOM     32  C   UNL A   1      36.599  31.911  28.544  1.00  0.00     0.010 A 
ATOM     33  C   UNL A   1      36.863  30.589  28.944  1.00  0.00    -0.014 A 
BRANCH  33  34
ATOM     34  C   UNL A   1      38.080  30.265  29.724  1.00  0.00     0.031 A 
ATOM     35  C   UNL A   1      39.132  29.374  29.134  1.00  0.00     0.074 A 
ATOM     36  C   UNL A   1      38.246  30.788  30.952  1.00  0.00     0.049 A 
ATOM     37  N   UNL A   1      40.214  28.890  29.689  1.00  0.00    -0.248 NA
ATOM     38  C   UNL A   1      38.942  28.972  27.732  1.00  0.00     0.031 C 
ATOM     39  C   UNL A   1      37.323  31.713  31.610  1.00  0.00     0.029 A 
ATOM     40  N   UNL A   1      39.252  30.609  31.866  1.00  0.00    -0.354 N 
ATOM     41  C   UNL A   1      40.825  28.116  28.714  1.00  0.00     0.074 A 
ATOM     42  C   UNL A   1      39.988  28.182  27.534  1.00  0.00     0.031 C 
ATOM     43  C   UNL A   1      37.806  32.021  32.825  1.00  0.00     0.029 A 
ATOM     44  C   UNL A   1      39.045  31.278  33.047  1.00  0.00     0.049 A 
ATOM     45  H   UNL A   1      40.048  30.055  31.693  1.00  0.00     0.167 HD
ATOM     46  C   UNL A   1      41.981  27.415  28.795  1.00  0.00     0.037 A 
ATOM     47  C   UNL A   1      39.757  31.269  34.189  1.00  0.00     0.037 A 
ATOM     48  C   UNL A   1      42.819  27.361  29.965  1.00  0.00     0.049 A 
ATOM     49  C   UNL A   1      40.998  30.425  34.277  1.00  0.00     0.074 A 
ATOM     50  C   UNL A   1      44.009  26.677  30.144  1.00  0.00     0.029 A 
ATOM     51  N   UNL A   1      42.554  28.021  31.155  1.00  0.00    -0.354 N 
ATOM     52  N   UNL A   1      41.553  29.673  33.359  1.00  0.00    -0.248 NA
ATOM     53  C   UNL A   1      41.704  30.420  35.566  1.00  0.00     0.031 C 
ATOM     54  C   UNL A   1      44.448  26.897  31.454  1.00  0.00     0.029 A 
ATOM     55  C   UNL A   1      43.548  27.745  32.079  1.00  0.00     0.049 A 
ATOM     56  H   UNL A   1      41.775  28.600  31.319  1.00  0.00     0.167 HD
ATOM     57  C   UNL A   1      42.681  29.120  33.950  1.00  0.00     0.074 A 
ATOM     58  C   UNL A   1      42.737  29.632  35.305  1.00  0.00     0.031 C 
ATOM     59  C   UNL A   1      43.588  28.264  33.422  1.00  0.00     0.037 A 
BRANCH  46  60
ATOM     60  C   UNL A   1      42.393  26.626  27.591  1.00  0.00     0.057 A 
ATOM     61  C   UNL A   1      41.998  25.295  27.409  1.00  0.00     0.134 A 
ATOM     62  C   UNL A   1      43.169  27.217  26.585  1.00  0.00     0.134 A 
ATOM     63  F   UNL A   1      41.269  24.668  28.344  1.00  0.00    -0.206 F 
ATOM     64  C   UNL A   1      42.374  24.574  26.274  1.00  0.00     0.040 A 
ATOM     65  C   UNL A   1      43.534  26.512  25.438  1.00  0.00     0.040 A 
ATOM     66  F   UNL A   1      43.578  28.488  26.699  1.00  0.00    -0.206 F 
ATOM     67  C   UNL A   1      43.139  25.185  25.281  1.00  0.00     0.006 A 
ENDBRANCH  46  60
BRANCH  47  68
ATOM     68  C   UNL A   1      39.295  32.058  35.356  1.00  0.00     0.057 A 
ATOM     69  C   UNL A   1      38.418  31.510  36.299  1.00  0.00     0.134 A 
ATOM     70  C   UNL A   1      39.707  33.382  35.547  1.00  0.00     0.134 A 
ATOM     71  F   UNL A   1      37.968  30.255  36.152  1.00  0.00    -0.206 F 
ATOM     72  C   UNL A   1      37.959  32.254  37.387  1.00  0.00     0.040 A 
ATOM     73  C   UNL A   1      39.274  34.130  36.642  1.00  0.00     0.040 A 
ATOM     74  F   UNL A   1      40.544  33.964  34.676  1.00  0.00    -0.206 F 
ATOM     75  C   UNL A   1      38.392  33.568  37.563  1.00  0.00     0.006 A 
ENDBRANCH  47  68
BRANCH  59  76
ATOM     76  C   UNL A   1      44.726  27.847  34.303  1.00  0.00     0.057 A 
ATOM     77  C   UNL A   1      44.660  26.693  35.092  1.00  0.00     0.134 A 
ATOM     78  C   UNL A   1      45.912  28.592  34.338  1.00  0.00     0.134 A 
ATOM     79  F   UNL A   1      43.546  25.947  35.112  1.00  0.00    -0.206 F 
ATOM     80  C   UNL A   1      45.728  26.302  35.900  1.00  0.00     0.040 A 
ATOM     81  C   UNL A   1      46.994  28.201  35.127  1.00  0.00     0.040 A 
ATOM     82  F   UNL A   1      46.040  29.704  33.598  1.00  0.00    -0.206 F 
ATOM     83  C   UNL A   1      46.901  27.056  35.915  1.00  0.00     0.006 A 
ENDBRANCH  59  76
ENDBRANCH  33  34
ENDBRANCH  26  28
ENDBRANCH  25  26
ENDBRANCH  24  25
ENDBRANCH   1  24
TORSDOF 14
ENDMDL
MODEL 2
REMARK VINA RESULT:     -11.2      3.670      8.615
REMARK SMILES Cc1noc(C)c1[C@H](C)NC(=O)N1CC[C@H](C(=O)OCCOC(=O)c2ccc(-c3c4nc(c(-c5c(F)cccc5F)c5ccc([nH]5)c(-c5c(F)cccc5F)c5nc(c(-c6c(F)cccc6F)c6ccc3[nH]6)C=C5)C=C4)cc2)[C@@H]1C
REMARK SMILES IDX 20 1 19 2 17 3 18 4 16 5 13 6 14 7 79 8 15 9 80 10 11 11
REMARK SMILES IDX 10 12 12 14 8 15 9 16 7 17 1 18 2 19 3 20 4 21 5 22 6 23
REMARK SMILES IDX 21 24 22 25 23 26 24 27 25 28 26 29 78 30 27 31 77 32 28 33
REMARK SMILES IDX 29 34 30 35 71 36 31 37 76 38 70 39 72 40 32 41 75 42 69 43
REMARK SMILES IDX 68 44 33 46 59 47 42 48 58 49 43 50 46 51 57 52 73 53 44 54
REMARK SMILES IDX 45 55 56 57 74 58 47 59 34 60 35 61 40 62 36 63 37 64 39 65
REMARK SMILES IDX 41 66 38 67 60 68 61 69 66 70 62 71 63 72 65 73 67 74 64 75
REMARK SMILES IDX 48 76 49 77 54 78 50 79 51 80 53 81 55 82 52 83
REMARK H PARENT 10 13 72 45 46 56
REMARK Flexibility Score: inf
ROOT
ATOM      1  C   UNL A   1      34.896  20.593  25.056  1.00  0.00     0.274 C 
ENDROOT
BRANCH   1   2
ATOM      2  O   UNL A   1      34.583  21.820  25.745  1.00  0.00    -0.462 OA
BRANCH   2   3
ATOM      3  C   UNL A   1      33.299  22.253  25.635  1.00  0.00     0.311 C 
ATOM      4  O   UNL A   1      32.322  21.598  25.975  1.00  0.00    -0.252 OA
BRANCH   3   5
ATOM      5  C   UNL A   1      33.226  23.708  25.221  1.00  0.00     0.123 C 
ATOM      6  N   UNL A   1      33.238  25.184  23.393  1.00  0.00    -0.321 N 
ATOM      7  C   UNL A   1      34.606  25.186  23.861  1.00  0.00     0.122 C 
ATOM      8  C   UNL A   1      32.580  23.960  23.845  1.00  0.00     0.098 C 
ATOM      9  C   UNL A   1      34.550  24.490  25.210  1.00  0.00     0.039 C 
ATOM     10  C   UNL A   1      32.767  22.854  22.798  1.00  0.00     0.032 C 
BRANCH   6  11
ATOM     11  C   UNL A   1      32.880  25.947  22.317  1.00  0.00     0.318 C 
ATOM     12  N   UNL A   1      31.945  26.918  22.480  1.00  0.00    -0.331 N 
ATOM     13  H   UNL A   1      31.244  26.985  21.792  1.00  0.00     0.165 HD
ATOM     14  O   UNL A   1      33.379  25.794  21.205  1.00  0.00    -0.249 OA
BRANCH  12  15
ATOM     15  C   UNL A   1      31.886  27.872  23.582  1.00  0.00     0.116 C 
ATOM     16  C   UNL A   1      31.103  29.108  23.133  1.00  0.00     0.036 C 
BRANCH  15  17
ATOM     17  C   UNL A   1      31.330  27.161  24.783  1.00  0.00     0.040 A 
ATOM     18  C   UNL A   1      33.225  27.626  26.550  1.00  0.00     0.071 C 
ATOM     19  C   UNL A   1      31.933  27.076  26.080  1.00  0.00     0.086 A 
ATOM     20  N   UNL A   1      31.176  26.386  26.937  1.00  0.00    -0.085 NA
ATOM     21  O   UNL A   1      30.060  26.008  26.233  1.00  0.00    -0.361 OA
ATOM     22  C   UNL A   1      30.142  26.465  24.956  1.00  0.00     0.139 A 
ATOM     23  C   UNL A   1      28.981  26.121  24.110  1.00  0.00     0.091 C 
ENDBRANCH  15  17
ENDBRANCH  12  15
ENDBRANCH   6  11
ENDBRANCH   3   5
ENDBRANCH   2   3
ENDBRANCH   1   2
BRANCH   1  24
ATOM     24  C   UNL A   1      36.410  20.368  24.972  1.00  0.00     0.275 C 
BRANCH  24  25
ATOM     25  O   UNL A   1      37.159  21.395  25.654  1.00  0.00    -0.458 OA
BRANCH  25  26
ATOM     26  C   UNL A   1      38.469  21.129  25.846  1.00  0.00     0.338 C 
ATOM     27  O   UNL A   1      39.075  20.114  25.524  1.00  0.00    -0.246 OA
BRANCH  26  28
ATOM     28  C   UNL A   1      39.150  22.305  26.409  1.00  0.00     0.060 A 
ATOM     29  C   UNL A   1      38.652  23.574  26.099  1.00  0.00     0.016 A 
ATOM     30  C   UNL A   1      40.325  22.166  27.148  1.00  0.00     0.016 A 
ATOM     31  C   UNL A   1      39.334  24.715  26.512  1.00  0.00     0.010 A 
ATOM     32  C   UNL A   1      41.007  23.312  27.568  1.00  0.00     0.010 A 
ATOM     33  C   UNL A   1      40.522  24.591  27.242  1.00  0.00    -0.014 A 
BRANCH  33  34
ATOM     34  C   UNL A   1      41.280  25.806  27.623  1.00  0.00     0.031 A 
ATOM     35  C   UNL A   1      40.627  26.862  28.463  1.00  0.00     0.074 A 
ATOM     36  C   UNL A   1      42.559  25.947  27.229  1.00  0.00     0.049 A 
ATOM     37  N   UNL A   1      41.081  28.038  28.815  1.00  0.00    -0.248 NA
ATOM     38  C   UNL A   1      39.283  26.556  28.976  1.00  0.00     0.031 C 
ATOM     39  C   UNL A   1      43.320  24.964  26.460  1.00  0.00     0.029 A 
ATOM     40  N   UNL A   1      43.439  26.980  27.422  1.00  0.00    -0.354 N 
ATOM     41  C   UNL A   1      40.077  28.619  29.576  1.00  0.00     0.074 A 
ATOM     42  C   UNL A   1      38.982  27.673  29.624  1.00  0.00     0.031 C 
ATOM     43  C   UNL A   1      44.558  25.442  26.244  1.00  0.00     0.029 A 
ATOM     44  C   UNL A   1      44.657  26.781  26.819  1.00  0.00     0.049 A 
ATOM     45  H   UNL A   1      43.221  27.786  27.943  1.00  0.00     0.167 HD
ATOM     46  C   UNL A   1      40.071  29.830  30.180  1.00  0.00     0.037 A 
ATOM     47  C   UNL A   1      45.720  27.600  26.716  1.00  0.00     0.037 A 
ATOM     48  C   UNL A   1      41.166  30.764  30.142  1.00  0.00     0.049 A 
ATOM     49  C   UNL A   1      45.660  28.968  27.335  1.00  0.00     0.074 A 
ATOM     50  C   UNL A   1      41.253  32.018  30.723  1.00  0.00     0.029 A 
ATOM     51  N   UNL A   1      42.368  30.543  29.487  1.00  0.00    -0.354 N 
ATOM     52  N   UNL A   1      44.694  29.521  28.027  1.00  0.00    -0.248 NA
ATOM     53  C   UNL A   1      46.834  29.832  27.145  1.00  0.00     0.031 C 
ATOM     54  C   UNL A   1      42.496  32.568  30.392  1.00  0.00     0.029 A 
ATOM     55  C   UNL A   1      43.195  31.644  29.634  1.00  0.00     0.049 A 
ATOM     56  H   UNL A   1      42.599  29.724  28.991  1.00  0.00     0.167 HD
ATOM     57  C   UNL A   1      45.149  30.786  28.371  1.00  0.00     0.074 A 
ATOM     58  C   UNL A   1      46.483  30.917  27.820  1.00  0.00     0.031 C 
ATOM     59  C   UNL A   1      44.519  31.756  29.079  1.00  0.00     0.037 A 
BRANCH  46  60
ATOM     60  C   UNL A   1      38.827  30.228  30.912  1.00  0.00     0.057 A 
ATOM     61  C   UNL A   1      38.646  29.944  32.272  1.00  0.00     0.134 A 
ATOM     62  C   UNL A   1      37.809  30.933  30.256  1.00  0.00     0.134 A 
ATOM     63  F   UNL A   1      39.576  29.257  32.953  1.00  0.00    -0.206 F 
ATOM     64  C   UNL A   1      37.490  30.335  32.950  1.00  0.00     0.040 A 
ATOM     65  C   UNL A   1      36.658  31.345  30.928  1.00  0.00     0.040 A 
ATOM     66  F   UNL A   1      37.922  31.237  28.955  1.00  0.00    -0.206 F 
ATOM     67  C   UNL A   1      36.494  31.043  32.278  1.00  0.00     0.006 A 
ENDBRANCH  46  60
BRANCH  47  68
ATOM     68  C   UNL A   1      46.921  27.161  25.966  1.00  0.00     0.057 A 
ATOM     69  C   UNL A   1      47.051  27.413  24.596  1.00  0.00     0.134 A 
ATOM     70  C   UNL A   1      47.960  26.468  26.599  1.00  0.00     0.134 A 
ATOM     71  F   UNL A   1      46.076  28.048  23.931  1.00  0.00    -0.206 F 
ATOM     72  C   UNL A   1      48.168  26.982  23.878  1.00  0.00     0.040 A 
ATOM     73  C   UNL A   1      49.092  26.050  25.898  1.00  0.00     0.040 A 
ATOM     74  F   UNL A   1      47.892  26.194  27.910  1.00  0.00    -0.206 F 
ATOM     75  C   UNL A   1      49.195  26.302  24.532  1.00  0.00     0.006 A 
ENDBRANCH  47  68
BRANCH  59  76
ATOM     76  C   UNL A   1      45.274  33.028  29.313  1.00  0.00     0.057 A 
ATOM     77  C   UNL A   1      46.129  33.183  30.410  1.00  0.00     0.134 A 
ATOM     78  C   UNL A   1      45.168  34.097  28.415  1.00  0.00     0.134 A 
ATOM     79  F   UNL A   1      46.262  32.201  31.313  1.00  0.00    -0.206 F 
ATOM     80  C   UNL A   1      46.841  34.367  30.616  1.00  0.00     0.040 A 
ATOM     81  C   UNL A   1      45.889  35.277  28.599  1.00  0.00     0.040 A 
ATOM     82  F   UNL A   1      44.370  34.007  27.339  1.00  0.00    -0.206 F 
ATOM     83  C   UNL A   1      46.725  35.416  29.705  1.00  0.00     0.006 A 
ENDBRANCH  59  76
ENDBRANCH  33  34
ENDBRANCH  26  28
ENDBRANCH  25  26
ENDBRANCH  24  25
ENDBRANCH   1  24
TORSDOF 14
ENDMDL
MODEL 3
REMARK VINA RESULT:     -11.1      1.845      6.778
REMARK SMILES Cc1noc(C)c1[C@H](C)NC(=O)N1CC[C@H](C(=O)OCCOC(=O)c2ccc(-c3c4nc(c(-c5c(F)cccc5F)c5ccc([nH]5)c(-c5c(F)cccc5F)c5nc(c(-c6c(F)cccc6F)c6ccc3[nH]6)C=C5)C=C4)cc2)[C@@H]1C
REMARK SMILES IDX 20 1 19 2 17 3 18 4 16 5 13 6 14 7 79 8 15 9 80 10 11 11
REMARK SMILES IDX 10 12 12 14 8 15 9 16 7 17 1 18 2 19 3 20 4 21 5 22 6 23
REMARK SMILES IDX 21 24 22 25 23 26 24 27 25 28 26 29 78 30 27 31 77 32 28 33
REMARK SMILES IDX 29 34 30 35 71 36 31 37 76 38 70 39 72 40 32 41 75 42 69 43
REMARK SMILES IDX 68 44 33 46 59 47 42 48 58 49 43 50 46 51 57 52 73 53 44 54
REMARK SMILES IDX 45 55 56 57 74 58 47 59 34 60 35 61 40 62 36 63 37 64 39 65
REMARK SMILES IDX 41 66 38 67 60 68 61 69 66 70 62 71 63 72 65 73 67 74 64 75
REMARK SMILES IDX 48 76 49 77 54 78 50 79 51 80 53 81 55 82 52 83
REMARK H PARENT 10 13 72 45 46 56
REMARK Flexibility Score: inf
ROOT
ATOM      1  C   UNL A   1      31.475  31.933  26.950  1.00  0.00     0.274 C 
ENDROOT
BRANCH   1   2
ATOM      2  O   UNL A   1      31.940  31.033  25.925  1.00  0.00    -0.462 OA
BRANCH   2   3
ATOM      3  C   UNL A   1      32.946  30.192  26.283  1.00  0.00     0.311 C 
ATOM      4  O   UNL A   1      33.790  30.453  27.131  1.00  0.00    -0.252 OA
BRANCH   3   5
ATOM      5  C   UNL A   1      32.794  28.825  25.649  1.00  0.00     0.123 C 
ATOM      6  N   UNL A   1      32.211  26.583  26.043  1.00  0.00    -0.321 N 
ATOM      7  C   UNL A   1      33.655  26.596  26.125  1.00  0.00     0.122 C 
ATOM      8  C   UNL A   1      31.707  27.934  26.281  1.00  0.00     0.098 C 
ATOM      9  C   UNL A   1      34.058  27.954  25.575  1.00  0.00     0.039 C 
ATOM     10  C   UNL A   1      31.455  28.137  27.781  1.00  0.00     0.032 C 
BRANCH   6  11
ATOM     11  C   UNL A   1      31.524  25.417  26.229  1.00  0.00     0.318 C 
ATOM     12  N   UNL A   1      30.790  24.915  25.203  1.00  0.00    -0.331 N 
ATOM     13  H   UNL A   1      29.886  24.588  25.418  1.00  0.00     0.165 HD
ATOM     14  O   UNL A   1      31.552  24.797  27.289  1.00  0.00    -0.249 OA
BRANCH  12  15
ATOM     15  C   UNL A   1      31.218  24.815  23.812  1.00  0.00     0.116 C 
ATOM     16  C   UNL A   1      30.477  23.656  23.142  1.00  0.00     0.036 C 
BRANCH  15  17
ATOM     17  C   UNL A   1      31.026  26.159  23.169  1.00  0.00     0.040 A 
ATOM     18  C   UNL A   1      28.515  26.647  23.793  1.00  0.00     0.071 C 
ATOM     19  C   UNL A   1      29.830  26.949  23.183  1.00  0.00     0.086 A 
ATOM     20  N   UNL A   1      29.989  28.105  22.533  1.00  0.00    -0.085 NA
ATOM     21  O   UNL A   1      31.286  28.108  22.084  1.00  0.00    -0.361 OA
ATOM     22  C   UNL A   1      31.908  26.959  22.458  1.00  0.00     0.139 A 
ATOM     23  C   UNL A   1      33.319  26.863  22.032  1.00  0.00     0.091 C 
ENDBRANCH  15  17
ENDBRANCH  12  15
ENDBRANCH   6  11
ENDBRANCH   3   5
ENDBRANCH   2   3
ENDBRANCH   1   2
BRANCH   1  24
ATOM     24  C   UNL A   1      32.203  33.281  26.886  1.00  0.00     0.275 C 
BRANCH  24  25
ATOM     25  O   UNL A   1      32.246  33.945  28.166  1.00  0.00    -0.458 OA
BRANCH  25  26
ATOM     26  C   UNL A   1      33.344  34.698  28.394  1.00  0.00     0.338 C 
ATOM     27  O   UNL A   1      33.427  35.920  28.357  1.00  0.00    -0.246 OA
BRANCH  26  28
ATOM     28  C   UNL A   1      34.462  33.849  28.832  1.00  0.00     0.060 A 
ATOM     29  C   UNL A   1      34.177  32.719  29.604  1.00  0.00     0.016 A 
ATOM     30  C   UNL A   1      35.783  34.214  28.574  1.00  0.00     0.016 A 
ATOM     31  C   UNL A   1      35.210  31.954  30.138  1.00  0.00     0.010 A 
ATOM     32  C   UNL A   1      36.822  33.443  29.105  1.00  0.00     0.010 A 
ATOM     33  C   UNL A   1      36.541  32.318  29.900  1.00  0.00    -0.014 A 
BRANCH  33  34
ATOM     34  C   UNL A   1      37.637  31.542  30.524  1.00  0.00     0.031 A 
ATOM     35  C   UNL A   1      37.993  31.773  31.963  1.00  0.00     0.074 A 
ATOM     36  C   UNL A   1      38.298  30.619  29.803  1.00  0.00     0.049 A 
ATOM     37  N   UNL A   1      38.980  31.275  32.662  1.00  0.00    -0.248 NA
ATOM     38  C   UNL A   1      37.121  32.687  32.717  1.00  0.00     0.031 C 
ATOM     39  C   UNL A   1      38.007  30.263  28.414  1.00  0.00     0.029 A 
ATOM     40  N   UNL A   1      39.356  29.815  30.142  1.00  0.00    -0.354 N 
ATOM     41  C   UNL A   1      38.860  31.824  33.930  1.00  0.00     0.074 A 
ATOM     42  C   UNL A   1      37.712  32.705  33.903  1.00  0.00     0.031 C 
ATOM     43  C   UNL A   1      38.868  29.310  28.018  1.00  0.00     0.029 A 
ATOM     44  C   UNL A   1      39.797  29.026  29.109  1.00  0.00     0.049 A 
ATOM     45  H   UNL A   1      39.760  29.804  31.040  1.00  0.00     0.167 HD
ATOM     46  C   UNL A   1      39.637  31.610  35.018  1.00  0.00     0.037 A 
ATOM     47  C   UNL A   1      40.851  28.192  29.041  1.00  0.00     0.037 A 
ATOM     48  C   UNL A   1      40.771  30.724  35.047  1.00  0.00     0.049 A 
ATOM     49  C   UNL A   1      41.741  28.028  30.241  1.00  0.00     0.074 A 
ATOM     50  C   UNL A   1      41.621  30.442  36.103  1.00  0.00     0.029 A 
ATOM     51  N   UNL A   1      41.211  29.971  33.968  1.00  0.00    -0.354 N 
ATOM     52  N   UNL A   1      41.637  28.574  31.428  1.00  0.00    -0.248 NA
ATOM     53  C   UNL A   1      42.903  27.141  30.087  1.00  0.00     0.031 C 
ATOM     54  C   UNL A   1      42.595  29.544  35.653  1.00  0.00     0.029 A 
ATOM     55  C   UNL A   1      42.331  29.241  34.328  1.00  0.00     0.049 A 
ATOM     56  H   UNL A   1      40.789  29.959  33.078  1.00  0.00     0.167 HD
ATOM     57  C   UNL A   1      42.705  28.085  32.167  1.00  0.00     0.074 A 
ATOM     58  C   UNL A   1      43.441  27.188  31.298  1.00  0.00     0.031 C 
ATOM     59  C   UNL A   1      43.049  28.354  33.450  1.00  0.00     0.037 A 
BRANCH  46  60
ATOM     60  C   UNL A   1      39.303  32.373  36.263  1.00  0.00     0.057 A 
ATOM     61  C   UNL A   1      39.889  33.611  36.553  1.00  0.00     0.134 A 
ATOM     62  C   UNL A   1      38.355  31.875  37.168  1.00  0.00     0.134 A 
ATOM     63  F   UNL A   1      40.815  34.133  35.734  1.00  0.00    -0.206 F 
ATOM     64  C   UNL A   1      39.556  34.321  37.707  1.00  0.00     0.040 A 
ATOM     65  C   UNL A   1      38.001  32.586  38.315  1.00  0.00     0.040 A 
ATOM     66  F   UNL A   1      37.757  30.696  36.947  1.00  0.00    -0.206 F 
ATOM     67  C   UNL A   1      38.605  33.812  38.589  1.00  0.00     0.006 A 
ENDBRANCH  46  60
BRANCH  47  68
ATOM     68  C   UNL A   1      41.146  27.474  27.778  1.00  0.00     0.057 A 
ATOM     69  C   UNL A   1      40.655  26.184  27.548  1.00  0.00     0.134 A 
ATOM     70  C   UNL A   1      41.937  28.053  26.779  1.00  0.00     0.134 A 
ATOM     71  F   UNL A   1      39.915  25.567  28.481  1.00  0.00    -0.206 F 
ATOM     72  C   UNL A   1      40.948  25.491  26.373  1.00  0.00     0.040 A 
ATOM     73  C   UNL A   1      42.220  27.381  25.590  1.00  0.00     0.040 A 
ATOM     74  F   UNL A   1      42.439  29.286  26.942  1.00  0.00    -0.206 F 
ATOM     75  C   UNL A   1      41.729  26.092  25.387  1.00  0.00     0.006 A 
ENDBRANCH  47  68
BRANCH  59  76
ATOM     76  C   UNL A   1      44.258  27.654  33.992  1.00  0.00     0.057 A 
ATOM     77  C   UNL A   1      45.531  28.232  33.928  1.00  0.00     0.134 A 
ATOM     78  C   UNL A   1      44.142  26.404  34.613  1.00  0.00     0.134 A 
ATOM     79  F   UNL A   1      45.709  29.421  33.334  1.00  0.00    -0.206 F 
ATOM     80  C   UNL A   1      46.652  27.582  34.448  1.00  0.00     0.040 A 
ATOM     81  C   UNL A   1      45.251  25.754  35.153  1.00  0.00     0.040 A 
ATOM     82  F   UNL A   1      42.946  25.802  34.712  1.00  0.00    -0.206 F 
ATOM     83  C   UNL A   1      46.512  26.340  35.066  1.00  0.00     0.006 A 
ENDBRANCH  59  76
ENDBRANCH  33  34
ENDBRANCH  26  28
ENDBRANCH  25  26
ENDBRANCH  24  25
ENDBRANCH   1  24
TORSDOF 14
ENDMDL
