MODEL 1
REMARK VINA RESULT:     -12.2      0.000      0.000
REMARK SMILES O=C(OCCOC(=O)[C@H]1C[C@](O)(c2ccccc2Cl)[C@@H](c2ccccc2Cl)O1)c1ccc(-c2c3nc(c(-c4c(F)cccc4F)c4ccc([nH]4)c(-c4c(F)cccc4F)c4nc(c(-c5c(F)cccc5F)c5ccc2[nH]5)C=C4)C=C3)cc1
REMARK SMILES IDX 4 1 3 2 2 3 1 4 29 5 30 6 82 7 31 8 81 9 32 10 33 11 34 12
REMARK SMILES IDX 75 13 35 14 80 15 74 16 76 17 36 18 79 19 73 20 72 21 37 23
REMARK SMILES IDX 63 24 46 25 62 26 47 27 50 28 61 29 77 30 48 31 49 32 60 34
REMARK SMILES IDX 78 35 51 36 38 37 39 38 44 39 40 40 41 41 43 42 45 43 42 44
REMARK SMILES IDX 64 45 65 46 70 47 66 48 67 49 69 50 71 51 68 52 52 53 53 54
REMARK SMILES IDX 58 55 54 56 55 57 57 58 59 59 56 60 5 61 6 62 7 63 8 64 9 65
REMARK SMILES IDX 10 66 28 67 11 68 20 69 13 70 14 71 18 72 15 73 17 74 19 75
REMARK SMILES IDX 16 76 12 77 21 79 22 80 26 81 23 82 25 83 27 84 24 85
REMARK H PARENT 76 22 50 33 12 78
REMARK Flexibility Score: inf
ROOT
ATOM      1  C   UNL A   1      31.827  32.826  26.505  1.00  0.00     0.275 C 
ENDROOT
BRANCH   1   2
ATOM      2  O   UNL A   1      31.850  33.647  27.673  1.00  0.00    -0.458 OA
BRANCH   2   3
ATOM      3  C   UNL A   1      32.903  34.215  28.293  1.00  0.00     0.338 C 
ATOM      4  O   UNL A   1      32.743  35.359  28.724  1.00  0.00    -0.246 OA
BRANCH   3   5
ATOM      5  C   UNL A   1      34.247  33.565  28.525  1.00  0.00     0.060 A 
ATOM      6  C   UNL A   1      35.494  33.843  27.939  1.00  0.00     0.016 A 
ATOM      7  C   UNL A   1      34.240  32.570  29.508  1.00  0.00     0.016 A 
ATOM      8  C   UNL A   1      36.708  33.283  28.434  1.00  0.00     0.010 A 
ATOM      9  C   UNL A   1      35.429  32.010  29.984  1.00  0.00     0.010 A 
ATOM     10  C   UNL A   1      36.700  32.417  29.525  1.00  0.00    -0.014 A 
BRANCH  10  11
ATOM     11  C   UNL A   1      37.900  31.880  30.266  1.00  0.00     0.031 A 
ATOM     12  C   UNL A   1      38.515  30.629  29.717  1.00  0.00     0.074 A 
ATOM     13  C   UNL A   1      38.338  32.312  31.479  1.00  0.00     0.049 A 
ATOM     14  N   UNL A   1      39.391  29.833  30.264  1.00  0.00    -0.248 NA
ATOM     15  C   UNL A   1      38.076  30.222  28.368  1.00  0.00     0.031 C 
ATOM     16  C   UNL A   1      37.988  33.563  32.133  1.00  0.00     0.029 A 
ATOM     17  N   UNL A   1      39.134  31.699  32.435  1.00  0.00    -0.354 N 
ATOM     18  C   UNL A   1      39.663  28.890  29.294  1.00  0.00     0.074 A 
ATOM     19  C   UNL A   1      38.714  29.075  28.222  1.00  0.00     0.031 C 
ATOM     20  C   UNL A   1      38.390  33.553  33.419  1.00  0.00     0.029 A 
ATOM     21  C   UNL A   1      39.124  32.327  33.674  1.00  0.00     0.049 A 
ATOM     22  H   UNL A   1      39.661  30.887  32.252  1.00  0.00     0.167 HD
ATOM     23  C   UNL A   1      40.707  28.035  29.231  1.00  0.00     0.037 A 
ATOM     24  C   UNL A   1      39.670  31.987  34.865  1.00  0.00     0.037 A 
ATOM     25  C   UNL A   1      41.665  27.858  30.279  1.00  0.00     0.049 A 
ATOM     26  C   UNL A   1      40.630  30.833  34.883  1.00  0.00     0.074 A 
ATOM     27  C   UNL A   1      42.805  27.078  30.281  1.00  0.00     0.029 A 
ATOM     28  N   UNL A   1      41.580  28.458  31.526  1.00  0.00    -0.354 N 
ATOM     29  N   UNL A   1      40.974  30.039  33.900  1.00  0.00    -0.248 NA
ATOM     30  C   UNL A   1      41.362  30.594  36.137  1.00  0.00     0.031 C 
ATOM     31  C   UNL A   1      43.379  27.161  31.555  1.00  0.00     0.029 A 
ATOM     32  C   UNL A   1      42.620  28.026  32.327  1.00  0.00     0.049 A 
ATOM     33  H   UNL A   1      40.882  29.097  31.800  1.00  0.00     0.167 HD
ATOM     34  C   UNL A   1      42.041  29.295  34.375  1.00  0.00     0.074 A 
ATOM     35  C   UNL A   1      42.245  29.681  35.756  1.00  0.00     0.031 C 
ATOM     36  C   UNL A   1      42.820  28.419  33.698  1.00  0.00     0.037 A 
BRANCH  23  37
ATOM     37  C   UNL A   1      40.865  27.316  27.932  1.00  0.00     0.057 A 
ATOM     38  C   UNL A   1      40.315  26.036  27.748  1.00  0.00     0.134 A 
ATOM     39  C   UNL A   1      41.646  27.848  26.906  1.00  0.00     0.134 A 
ATOM     40  F   UNL A   1      39.591  25.459  28.720  1.00  0.00    -0.206 F 
ATOM     41  C   UNL A   1      40.580  25.291  26.601  1.00  0.00     0.040 A 
ATOM     42  C   UNL A   1      41.894  27.121  25.742  1.00  0.00     0.040 A 
ATOM     43  F   UNL A   1      42.211  29.057  27.036  1.00  0.00    -0.206 F 
ATOM     44  C   UNL A   1      41.371  25.835  25.593  1.00  0.00     0.006 A 
ENDBRANCH  23  37
BRANCH  24  45
ATOM     45  C   UNL A   1      39.463  32.765  36.129  1.00  0.00     0.057 A 
ATOM     46  C   UNL A   1      38.434  32.467  37.030  1.00  0.00     0.134 A 
ATOM     47  C   UNL A   1      40.173  33.945  36.377  1.00  0.00     0.134 A 
ATOM     48  F   UNL A   1      37.632  31.417  36.806  1.00  0.00    -0.206 F 
ATOM     49  C   UNL A   1      38.142  33.297  38.124  1.00  0.00     0.040 A 
ATOM     50  C   UNL A   1      39.931  34.760  37.489  1.00  0.00     0.040 A 
ATOM     51  F   UNL A   1      41.045  34.395  35.474  1.00  0.00    -0.206 F 
ATOM     52  C   UNL A   1      38.903  34.439  38.366  1.00  0.00     0.006 A 
ENDBRANCH  24  45
BRANCH  36  53
ATOM     53  C   UNL A   1      44.015  27.874  34.413  1.00  0.00     0.057 A 
ATOM     54  C   UNL A   1      45.234  28.557  34.455  1.00  0.00     0.134 A 
ATOM     55  C   UNL A   1      43.922  26.660  35.108  1.00  0.00     0.134 A 
ATOM     56  F   UNL A   1      45.389  29.711  33.788  1.00  0.00    -0.206 F 
ATOM     57  C   UNL A   1      46.326  28.047  35.156  1.00  0.00     0.040 A 
ATOM     58  C   UNL A   1      44.998  26.155  35.837  1.00  0.00     0.040 A 
ATOM     59  F   UNL A   1      42.779  25.957  35.104  1.00  0.00    -0.206 F 
ATOM     60  C   UNL A   1      46.206  26.847  35.858  1.00  0.00     0.006 A 
ENDBRANCH  36  53
ENDBRANCH  10  11
ENDBRANCH   3   5
ENDBRANCH   2   3
ENDBRANCH   1   2
BRANCH   1  61
ATOM     61  C   UNL A   1      31.658  31.329  26.774  1.00  0.00     0.274 C 
BRANCH  61  62
ATOM     62  O   UNL A   1      32.202  30.457  25.764  1.00  0.00    -0.460 OA
BRANCH  62  63
ATOM     63  C   UNL A   1      33.296  29.732  26.133  1.00  0.00     0.335 C 
ATOM     64  O   UNL A   1      34.101  30.108  26.985  1.00  0.00    -0.249 OA
BRANCH  63  65
ATOM     65  C   UNL A   1      33.546  28.464  25.286  1.00  0.00     0.232 C 
ATOM     66  C   UNL A   1      33.350  27.119  25.952  1.00  0.00     0.087 C 
ATOM     67  O   UNL A   1      32.824  28.470  24.054  1.00  0.00    -0.355 OA
ATOM     68  C   UNL A   1      32.043  26.590  25.379  1.00  0.00     0.124 C 
ATOM     69  C   UNL A   1      31.839  27.410  24.038  1.00  0.00     0.187 C 
BRANCH  68  70
ATOM     70  C   UNL A   1      32.017  25.046  25.451  1.00  0.00     0.005 A 
ATOM     71  C   UNL A   1      31.260  24.443  26.487  1.00  0.00     0.008 A 
ATOM     72  C   UNL A   1      32.730  24.136  24.665  1.00  0.00     0.047 A 
ATOM     73  C   UNL A   1      31.008  23.072  26.598  1.00  0.00     0.001 A 
ATOM     74  C   UNL A   1      32.558  22.742  24.831  1.00  0.00     0.021 A 
ATOM     75  Cl  UNL A   1      33.937  24.608  23.530  1.00  0.00    -0.084 Cl
ATOM     76  C   UNL A   1      31.645  22.211  25.736  1.00  0.00     0.002 A 
ENDBRANCH  68  70
BRANCH  68  77
ATOM     77  O   UNL A   1      31.084  27.067  26.317  1.00  0.00    -0.382 OA
ATOM     78  H   UNL A   1      31.038  28.035  26.268  1.00  0.00     0.212 HD
ENDBRANCH  68  77
BRANCH  69  79
ATOM     79  C   UNL A   1      30.527  28.139  23.682  1.00  0.00     0.003 A 
ATOM     80  C   UNL A   1      30.509  29.521  23.397  1.00  0.00     0.008 A 
ATOM     81  C   UNL A   1      29.299  27.474  23.508  1.00  0.00     0.046 A 
ATOM     82  C   UNL A   1      29.360  30.220  23.009  1.00  0.00     0.000 A 
ATOM     83  C   UNL A   1      28.134  28.173  23.126  1.00  0.00     0.021 A 
ATOM     84  Cl  UNL A   1      29.116  25.772  23.755  1.00  0.00    -0.084 Cl
ATOM     85  C   UNL A   1      28.164  29.543  22.877  1.00  0.00     0.002 A 
ENDBRANCH  69  79
ENDBRANCH  63  65
ENDBRANCH  62  63
ENDBRANCH  61  62
ENDBRANCH   1  61
TORSDOF 14
ENDMDL
MODEL 2
REMARK VINA RESULT:     -12.0      0.677      6.198
REMARK SMILES O=C(OCCOC(=O)[C@H]1C[C@](O)(c2ccccc2Cl)[C@@H](c2ccccc2Cl)O1)c1ccc(-c2c3nc(c(-c4c(F)cccc4F)c4ccc([nH]4)c(-c4c(F)cccc4F)c4nc(c(-c5c(F)cccc5F)c5ccc2[nH]5)C=C4)C=C3)cc1
REMARK SMILES IDX 4 1 3 2 2 3 1 4 29 5 30 6 82 7 31 8 81 9 32 10 33 11 34 12
REMARK SMILES IDX 75 13 35 14 80 15 74 16 76 17 36 18 79 19 73 20 72 21 37 23
REMARK SMILES IDX 63 24 46 25 62 26 47 27 50 28 61 29 77 30 48 31 49 32 60 34
REMARK SMILES IDX 78 35 51 36 38 37 39 38 44 39 40 40 41 41 43 42 45 43 42 44
REMARK SMILES IDX 64 45 65 46 70 47 66 48 67 49 69 50 71 51 68 52 52 53 53 54
REMARK SMILES IDX 58 55 54 56 55 57 57 58 59 59 56 60 5 61 6 62 7 63 8 64 9 65
REMARK SMILES IDX 10 66 28 67 11 68 20 69 13 70 14 71 18 72 15 73 17 74 19 75
REMARK SMILES IDX 16 76 12 77 21 79 22 80 26 81 23 82 25 83 27 84 24 85
REMARK H PARENT 76 22 50 33 12 78
REMARK Flexibility Score: inf
ROOT
ATOM      1  C   UNL A   1      31.846  33.089  26.624  1.00  0.00     0.275 C 
ENDROOT
BRANCH   1   2
ATOM      2  O   UNL A   1      32.153  33.806  27.820  1.00  0.00    -0.458 OA
BRANCH   2   3
ATOM      3  C   UNL A   1      33.345  34.260  28.257  1.00  0.00     0.338 C 
ATOM      4  O   UNL A   1      33.419  35.462  28.521  1.00  0.00    -0.246 OA
BRANCH   3   5
ATOM      5  C   UNL A   1      34.584  33.423  28.474  1.00  0.00     0.060 A 
ATOM      6  C   UNL A   1      35.923  33.696  28.146  1.00  0.00     0.016 A 
ATOM      7  C   UNL A   1      34.350  32.217  29.143  1.00  0.00     0.016 A 
ATOM      8  C   UNL A   1      37.001  32.892  28.622  1.00  0.00     0.010 A 
ATOM      9  C   UNL A   1      35.406  31.422  29.597  1.00  0.00     0.010 A 
ATOM     10  C   UNL A   1      36.760  31.783  29.429  1.00  0.00    -0.014 A 
BRANCH  10  11
ATOM     11  C   UNL A   1      37.787  30.941  30.144  1.00  0.00     0.031 A 
ATOM     12  C   UNL A   1      38.237  31.438  31.484  1.00  0.00     0.074 A 
ATOM     13  C   UNL A   1      38.473  29.899  29.602  1.00  0.00     0.049 A 
ATOM     14  N   UNL A   1      39.252  31.053  32.207  1.00  0.00    -0.248 NA
ATOM     15  C   UNL A   1      37.432  32.519  32.085  1.00  0.00     0.031 C 
ATOM     16  C   UNL A   1      38.129  29.171  28.390  1.00  0.00     0.029 A 
ATOM     17  N   UNL A   1      39.672  29.305  29.966  1.00  0.00    -0.354 N 
ATOM     18  C   UNL A   1      39.150  31.785  33.374  1.00  0.00     0.074 A 
ATOM     19  C   UNL A   1      38.123  32.781  33.180  1.00  0.00     0.031 C 
ATOM     20  C   UNL A   1      39.150  28.381  28.007  1.00  0.00     0.029 A 
ATOM     21  C   UNL A   1      40.206  28.461  29.000  1.00  0.00     0.049 A 
ATOM     22  H   UNL A   1      40.108  29.468  30.833  1.00  0.00     0.167 HD
ATOM     23  C   UNL A   1      39.756  31.555  34.558  1.00  0.00     0.037 A 
ATOM     24  C   UNL A   1      41.383  27.795  28.933  1.00  0.00     0.037 A 
ATOM     25  C   UNL A   1      40.761  30.557  34.767  1.00  0.00     0.049 A 
ATOM     26  C   UNL A   1      42.235  27.765  30.168  1.00  0.00     0.074 A 
ATOM     27  C   UNL A   1      41.377  30.189  35.947  1.00  0.00     0.029 A 
ATOM     28  N   UNL A   1      41.312  29.780  33.760  1.00  0.00    -0.354 N 
ATOM     29  N   UNL A   1      42.034  28.365  31.314  1.00  0.00    -0.248 NA
ATOM     30  C   UNL A   1      43.413  26.884  30.145  1.00  0.00     0.031 C 
ATOM     31  C   UNL A   1      42.347  29.227  35.643  1.00  0.00     0.029 A 
ATOM     32  C   UNL A   1      42.301  28.967  34.282  1.00  0.00     0.049 A 
ATOM     33  H   UNL A   1      41.039  29.803  32.814  1.00  0.00     0.167 HD
ATOM     34  C   UNL A   1      42.980  27.842  32.181  1.00  0.00     0.074 A 
ATOM     35  C   UNL A   1      43.799  26.928  31.412  1.00  0.00     0.031 C 
ATOM     36  C   UNL A   1      43.108  28.056  33.512  1.00  0.00     0.037 A 
BRANCH  23  37
ATOM     37  C   UNL A   1      39.249  32.369  35.703  1.00  0.00     0.057 A 
ATOM     38  C   UNL A   1      39.783  33.641  35.972  1.00  0.00     0.134 A 
ATOM     39  C   UNL A   1      38.309  31.851  36.593  1.00  0.00     0.134 A 
ATOM     40  F   UNL A   1      40.723  34.168  35.172  1.00  0.00    -0.206 F 
ATOM     41  C   UNL A   1      39.430  34.347  37.119  1.00  0.00     0.040 A 
ATOM     42  C   UNL A   1      37.928  32.563  37.730  1.00  0.00     0.040 A 
ATOM     43  F   UNL A   1      37.781  30.634  36.395  1.00  0.00    -0.206 F 
ATOM     44  C   UNL A   1      38.498  33.808  38.002  1.00  0.00     0.006 A 
ENDBRANCH  23  37
BRANCH  24  45
ATOM     45  C   UNL A   1      41.820  26.996  27.742  1.00  0.00     0.057 A 
ATOM     46  C   UNL A   1      42.450  27.583  26.638  1.00  0.00     0.134 A 
ATOM     47  C   UNL A   1      41.452  25.654  27.597  1.00  0.00     0.134 A 
ATOM     48  F   UNL A   1      42.737  28.892  26.649  1.00  0.00    -0.206 F 
ATOM     49  C   UNL A   1      42.708  26.862  25.462  1.00  0.00     0.040 A 
ATOM     50  C   UNL A   1      41.743  24.904  26.451  1.00  0.00     0.040 A 
ATOM     51  F   UNL A   1      40.692  25.072  28.525  1.00  0.00    -0.206 F 
ATOM     52  C   UNL A   1      42.369  25.514  25.371  1.00  0.00     0.006 A 
ENDBRANCH  24  45
BRANCH  36  53
ATOM     53  C   UNL A   1      44.120  27.232  34.242  1.00  0.00     0.057 A 
ATOM     54  C   UNL A   1      45.430  27.674  34.449  1.00  0.00     0.134 A 
ATOM     55  C   UNL A   1      43.756  25.992  34.783  1.00  0.00     0.134 A 
ATOM     56  F   UNL A   1      45.843  28.842  33.933  1.00  0.00    -0.206 F 
ATOM     57  C   UNL A   1      46.349  26.905  35.162  1.00  0.00     0.040 A 
ATOM     58  C   UNL A   1      44.657  25.228  35.522  1.00  0.00     0.040 A 
ATOM     59  F   UNL A   1      42.513  25.513  34.617  1.00  0.00    -0.206 F 
ATOM     60  C   UNL A   1      45.960  25.683  35.710  1.00  0.00     0.006 A 
ENDBRANCH  36  53
ENDBRANCH  10  11
ENDBRANCH   3   5
ENDBRANCH   2   3
ENDBRANCH   1   2
BRANCH   1  61
ATOM     61  C   UNL A   1      31.632  31.586  26.813  1.00  0.00     0.274 C 
BRANCH  61  62
ATOM     62  O   UNL A   1      32.483  30.738  26.017  1.00  0.00    -0.460 OA
BRANCH  62  63
ATOM     63  C   UNL A   1      32.922  29.600  26.625  1.00  0.00     0.335 C 
ATOM     64  O   UNL A   1      33.146  29.521  27.833  1.00  0.00    -0.249 OA
BRANCH  63  65
ATOM     65  C   UNL A   1      33.277  28.447  25.659  1.00  0.00     0.232 C 
ATOM     66  C   UNL A   1      33.103  27.028  26.157  1.00  0.00     0.087 C 
ATOM     67  O   UNL A   1      32.627  28.567  24.393  1.00  0.00    -0.355 OA
ATOM     68  C   UNL A   1      31.855  26.520  25.448  1.00  0.00     0.124 C 
ATOM     69  C   UNL A   1      31.693  27.479  24.197  1.00  0.00     0.187 C 
BRANCH  68  70
ATOM     70  C   UNL A   1      31.894  24.978  25.346  1.00  0.00     0.005 A 
ATOM     71  C   UNL A   1      31.106  24.233  26.258  1.00  0.00     0.008 A 
ATOM     72  C   UNL A   1      32.690  24.191  24.508  1.00  0.00     0.047 A 
ATOM     73  C   UNL A   1      30.909  22.850  26.199  1.00  0.00     0.001 A 
ATOM     74  C   UNL A   1      32.572  22.782  24.506  1.00  0.00     0.021 A 
ATOM     75  Cl  UNL A   1      33.939  24.835  23.510  1.00  0.00    -0.084 Cl
ATOM     76  C   UNL A   1      31.632  22.117  25.287  1.00  0.00     0.002 A 
ENDBRANCH  68  70
BRANCH  68  77
ATOM     77  O   UNL A   1      30.824  26.851  26.372  1.00  0.00    -0.382 OA
ATOM     78  H   UNL A   1      30.376  26.040  26.661  1.00  0.00     0.212 HD
ENDBRANCH  68  77
BRANCH  69  79
ATOM     79  C   UNL A   1      30.373  28.195  23.845  1.00  0.00     0.003 A 
ATOM     80  C   UNL A   1      30.303  29.601  23.743  1.00  0.00     0.008 A 
ATOM     81  C   UNL A   1      29.194  27.509  23.494  1.00  0.00     0.046 A 
ATOM     82  C   UNL A   1      29.149  30.298  23.366  1.00  0.00     0.000 A 
ATOM     83  C   UNL A   1      28.024  28.205  23.123  1.00  0.00     0.021 A 
ATOM     84  Cl  UNL A   1      29.082  25.783  23.502  1.00  0.00    -0.084 Cl
ATOM     85  C   UNL A   1      28.000  29.595  23.059  1.00  0.00     0.002 A 
ENDBRANCH  69  79
ENDBRANCH  63  65
ENDBRANCH  62  63
ENDBRANCH  61  62
ENDBRANCH   1  61
TORSDOF 14
ENDMDL
MODEL 3
REMARK VINA RESULT:     -12.0      5.134     10.023
REMARK SMILES O=C(OCCOC(=O)[C@H]1C[C@](O)(c2ccccc2Cl)[C@@H](c2ccccc2Cl)O1)c1ccc(-c2c3nc(c(-c4c(F)cccc4F)c4ccc([nH]4)c(-c4c(F)cccc4F)c4nc(c(-c5c(F)cccc5F)c5ccc2[nH]5)C=C4)C=C3)cc1
REMARK SMILES IDX 4 1 3 2 2 3 1 4 29 5 30 6 82 7 31 8 81 9 32 10 33 11 34 12
REMARK SMILES IDX 75 13 35 14 80 15 74 16 76 17 36 18 79 19 73 20 72 21 37 23
REMARK SMILES IDX 63 24 46 25 62 26 47 27 50 28 61 29 77 30 48 31 49 32 60 34
REMARK SMILES IDX 78 35 51 36 38 37 39 38 44 39 40 40 41 41 43 42 45 43 42 44
REMARK SMILES IDX 64 45 65 46 70 47 66 48 67 49 69 50 71 51 68 52 52 53 53 54
REMARK SMILES IDX 58 55 54 56 55 57 57 58 59 59 56 60 5 61 6 62 7 63 8 64 9 65
REMARK SMILES IDX 10 66 28 67 11 68 20 69 13 70 14 71 18 72 15 73 17 74 19 75
REMARK SMILES IDX 16 76 12 77 21 79 22 80 26 81 23 82 25 83 27 84 24 85
REMARK H PARENT 76 22 50 33 12 78
REMARK Flexibility Score: inf
ROOT
ATOM      1  C   UNL A   1      38.743  19.240  25.751  1.00  0.00     0.275 C 
ENDROOT
BRANCH   1   2
ATOM      2  O   UNL A   1      40.078  18.828  25.460  1.00  0.00    -0.458 OA
BRANCH   2   3
ATOM      3  C   UNL A   1      41.242  19.323  25.927  1.00  0.00     0.338 C 
ATOM      4  O   UNL A   1      42.248  18.632  25.757  1.00  0.00    -0.246 OA
BRANCH   3   5
ATOM      5  C   UNL A   1      41.421  20.657  26.615  1.00  0.00     0.060 A 
ATOM      6  C   UNL A   1      41.517  20.956  27.985  1.00  0.00     0.016 A 
ATOM      7  C   UNL A   1      41.556  21.740  25.740  1.00  0.00     0.016 A 
ATOM      8  C   UNL A   1      41.908  22.245  28.456  1.00  0.00     0.010 A 
ATOM      9  C   UNL A   1      41.926  23.006  26.202  1.00  0.00     0.010 A 
ATOM     10  C   UNL A   1      42.200  23.271  27.561  1.00  0.00    -0.014 A 
BRANCH  10  11
ATOM     11  C   UNL A   1      42.785  24.623  27.890  1.00  0.00     0.031 A 
ATOM     12  C   UNL A   1      41.803  25.720  28.168  1.00  0.00     0.074 A 
ATOM     13  C   UNL A   1      44.093  24.972  27.762  1.00  0.00     0.049 A 
ATOM     14  N   UNL A   1      42.007  27.006  28.251  1.00  0.00    -0.248 NA
ATOM     15  C   UNL A   1      40.402  25.307  28.376  1.00  0.00     0.031 C 
ATOM     16  C   UNL A   1      45.223  24.066  27.631  1.00  0.00     0.029 A 
ATOM     17  N   UNL A   1      44.701  26.212  27.641  1.00  0.00    -0.354 N 
ATOM     18  C   UNL A   1      40.781  27.534  28.602  1.00  0.00     0.074 A 
ATOM     19  C   UNL A   1      39.801  26.477  28.502  1.00  0.00     0.031 C 
ATOM     20  C   UNL A   1      46.331  24.741  27.269  1.00  0.00     0.029 A 
ATOM     21  C   UNL A   1      46.027  26.160  27.231  1.00  0.00     0.049 A 
ATOM     22  H   UNL A   1      44.233  27.058  27.829  1.00  0.00     0.167 HD
ATOM     23  C   UNL A   1      40.514  28.757  29.108  1.00  0.00     0.037 A 
ATOM     24  C   UNL A   1      46.911  27.131  26.902  1.00  0.00     0.037 A 
ATOM     25  C   UNL A   1      41.480  29.805  29.230  1.00  0.00     0.049 A 
ATOM     26  C   UNL A   1      46.518  28.552  27.187  1.00  0.00     0.074 A 
ATOM     27  C   UNL A   1      41.330  31.052  29.804  1.00  0.00     0.029 A 
ATOM     28  N   UNL A   1      42.778  29.732  28.747  1.00  0.00    -0.354 N 
ATOM     29  N   UNL A   1      45.384  29.008  27.657  1.00  0.00    -0.248 NA
ATOM     30  C   UNL A   1      47.555  29.580  27.006  1.00  0.00     0.031 C 
ATOM     31  C   UNL A   1      42.524  31.758  29.615  1.00  0.00     0.029 A 
ATOM     32  C   UNL A   1      43.428  30.933  28.964  1.00  0.00     0.049 A 
ATOM     33  H   UNL A   1      43.177  28.943  28.315  1.00  0.00     0.167 HD
ATOM     34  C   UNL A   1      45.608  30.344  27.944  1.00  0.00     0.074 A 
ATOM     35  C   UNL A   1      46.963  30.644  27.531  1.00  0.00     0.031 C 
ATOM     36  C   UNL A   1      44.779  31.222  28.557  1.00  0.00     0.037 A 
BRANCH  23  37
ATOM     37  C   UNL A   1      39.126  28.944  29.627  1.00  0.00     0.057 A 
ATOM     38  C   UNL A   1      38.112  29.457  28.801  1.00  0.00     0.134 A 
ATOM     39  C   UNL A   1      38.824  28.712  30.969  1.00  0.00     0.134 A 
ATOM     40  F   UNL A   1      38.361  29.739  27.512  1.00  0.00    -0.206 F 
ATOM     41  C   UNL A   1      36.855  29.777  29.309  1.00  0.00     0.040 A 
ATOM     42  C   UNL A   1      37.560  29.003  31.482  1.00  0.00     0.040 A 
ATOM     43  F   UNL A   1      39.759  28.241  31.807  1.00  0.00    -0.206 F 
ATOM     44  C   UNL A   1      36.576  29.549  30.654  1.00  0.00     0.006 A 
ENDBRANCH  23  37
BRANCH  24  45
ATOM     45  C   UNL A   1      48.291  26.861  26.385  1.00  0.00     0.057 A 
ATOM     46  C   UNL A   1      48.568  26.743  25.018  1.00  0.00     0.134 A 
ATOM     47  C   UNL A   1      49.337  26.527  27.254  1.00  0.00     0.134 A 
ATOM     48  F   UNL A   1      47.593  26.935  24.119  1.00  0.00    -0.206 F 
ATOM     49  C   UNL A   1      49.824  26.328  24.549  1.00  0.00     0.040 A 
ATOM     50  C   UNL A   1      50.610  26.159  26.806  1.00  0.00     0.040 A 
ATOM     51  F   UNL A   1      49.106  26.439  28.564  1.00  0.00    -0.206 F 
ATOM     52  C   UNL A   1      50.855  26.051  25.443  1.00  0.00     0.006 A 
ENDBRANCH  24  45
BRANCH  36  53
ATOM     53  C   UNL A   1      45.336  32.568  28.892  1.00  0.00     0.057 A 
ATOM     54  C   UNL A   1      46.054  32.805  30.068  1.00  0.00     0.134 A 
ATOM     55  C   UNL A   1      45.184  33.633  27.994  1.00  0.00     0.134 A 
ATOM     56  F   UNL A   1      46.211  31.830  30.977  1.00  0.00    -0.206 F 
ATOM     57  C   UNL A   1      46.594  34.060  30.346  1.00  0.00     0.040 A 
ATOM     58  C   UNL A   1      45.744  34.884  28.248  1.00  0.00     0.040 A 
ATOM     59  F   UNL A   1      44.503  33.469  26.849  1.00  0.00    -0.206 F 
ATOM     60  C   UNL A   1      46.449  35.101  29.429  1.00  0.00     0.006 A 
ENDBRANCH  36  53
ENDBRANCH  10  11
ENDBRANCH   3   5
ENDBRANCH   2   3
ENDBRANCH   1   2
BRANCH   1  61
ATOM     61  C   UNL A   1      38.116  20.171  24.712  1.00  0.00     0.274 C 
BRANCH  61  62
ATOM     62  O   UNL A   1      36.955  20.899  25.158  1.00  0.00    -0.460 OA
BRANCH  62  63
ATOM     63  C   UNL A   1      37.181  22.174  25.583  1.00  0.00     0.335 C 
ATOM     64  O   UNL A   1      38.306  22.624  25.807  1.00  0.00    -0.249 OA
BRANCH  63  65
ATOM     65  C   UNL A   1      35.906  22.979  25.919  1.00  0.00     0.232 C 
ATOM     66  C   UNL A   1      35.531  24.126  25.006  1.00  0.00     0.087 C 
ATOM     67  O   UNL A   1      34.759  22.148  26.099  1.00  0.00    -0.355 OA
ATOM     68  C   UNL A   1      34.344  23.611  24.204  1.00  0.00     0.124 C 
ATOM     69  C   UNL A   1      33.778  22.408  25.067  1.00  0.00     0.187 C 
BRANCH  68  70
ATOM     70  C   UNL A   1      33.480  24.795  23.714  1.00  0.00     0.005 A 
ATOM     71  C   UNL A   1      33.651  25.232  22.377  1.00  0.00     0.008 A 
ATOM     72  C   UNL A   1      32.587  25.573  24.457  1.00  0.00     0.047 A 
ATOM     73  C   UNL A   1      32.844  26.178  21.736  1.00  0.00     0.001 A 
ATOM     74  C   UNL A   1      31.834  26.600  23.842  1.00  0.00     0.021 A 
ATOM     75  Cl  UNL A   1      32.409  25.440  26.165  1.00  0.00    -0.084 Cl
ATOM     76  C   UNL A   1      31.900  26.851  22.475  1.00  0.00     0.002 A 
ENDBRANCH  68  70
BRANCH  68  77
ATOM     77  O   UNL A   1      34.973  23.050  23.056  1.00  0.00    -0.382 OA
ATOM     78  H   UNL A   1      35.733  22.515  23.333  1.00  0.00     0.212 HD
ENDBRANCH  68  77
BRANCH  69  79
ATOM     79  C   UNL A   1      33.488  21.010  24.482  1.00  0.00     0.003 A 
ATOM     80  C   UNL A   1      34.107  19.853  25.003  1.00  0.00     0.008 A 
ATOM     81  C   UNL A   1      32.522  20.776  23.486  1.00  0.00     0.046 A 
ATOM     82  C   UNL A   1      33.835  18.556  24.553  1.00  0.00     0.000 A 
ATOM     83  C   UNL A   1      32.249  19.472  23.020  1.00  0.00     0.021 A 
ATOM     84  Cl  UNL A   1      31.612  22.051  22.752  1.00  0.00    -0.084 Cl
ATOM     85  C   UNL A   1      32.903  18.364  23.552  1.00  0.00     0.002 A 
ENDBRANCH  69  79
ENDBRANCH  63  65
ENDBRANCH  62  63
ENDBRANCH  61  62
ENDBRANCH   1  61
TORSDOF 14
ENDMDL
