MODEL 1
REMARK VINA RESULT:     -13.2      0.000      0.000
REMARK SMILES Cc1c(CC(=O)OCCOC(=O)c2ccc(-c3c4nc(c(-c5c(F)cccc5F)c5ccc([nH]5)c(-c5c(F)cccc5F)c5nc(c(-c6c(F)cccc6F)c6ccc3[nH]6)C=C5)C=C4)cc2)cccc1-c1ccn(C(F)F)c(=O)c1
REMARK SMILES IDX 8 1 7 2 5 3 6 4 4 5 3 6 1 7 2 8 70 9 67 10 69 11 68 12 71 13
REMARK SMILES IDX 72 14 80 15 73 16 78 17 74 18 79 19 75 20 76 21 77 22 9 23
REMARK SMILES IDX 10 24 11 25 12 26 13 27 14 28 66 29 15 30 65 31 16 32 17 33
REMARK SMILES IDX 18 34 59 35 19 36 64 37 58 38 60 39 20 40 63 41 57 42 56 43
REMARK SMILES IDX 21 45 47 46 30 47 46 48 31 49 34 50 45 51 61 52 32 53 33 54
REMARK SMILES IDX 44 56 62 57 35 58 22 59 23 60 28 61 24 62 25 63 27 64 29 65
REMARK SMILES IDX 26 66 48 67 49 68 54 69 50 70 51 71 53 72 55 73 52 74 36 75
REMARK SMILES IDX 37 76 42 77 38 78 39 79 41 80 43 81 40 82
REMARK H PARENT 60 44 34 55
REMARK Flexibility Score: inf
ROOT
ATOM      1  C   UNL A   1      44.070  18.477  25.604  1.00  0.00     0.274 C 
ENDROOT
BRANCH   1   2
ATOM      2  O   UNL A   1      42.788  18.942  25.146  1.00  0.00    -0.462 OA
BRANCH   2   3
ATOM      3  C   UNL A   1      41.814  19.279  26.163  1.00  0.00     0.310 C 
ATOM      4  O   UNL A   1      42.429  19.062  27.258  1.00  0.00    -0.252 OA
BRANCH   3   5
ATOM      5  C   UNL A   1      39.816  20.024  25.778  1.00  0.00     0.158 C 
BRANCH   5   6
ATOM      6  C   UNL A   1      39.023  21.552  25.978  1.00  0.00    -0.033 A 
ATOM      7  C   UNL A   1      36.815  20.647  25.043  1.00  0.00     0.045 C 
ATOM      8  C   UNL A   1      37.703  21.782  25.491  1.00  0.00    -0.039 A 
ATOM      9  C   UNL A   1      37.199  23.109  25.499  1.00  0.00    -0.015 A 
ATOM     10  C   UNL A   1      39.614  22.571  26.756  1.00  0.00     0.004 A 
ATOM     11  C   UNL A   1      37.959  24.152  26.038  1.00  0.00     0.009 A 
ATOM     12  C   UNL A   1      39.137  23.874  26.711  1.00  0.00     0.001 A 
BRANCH   9  13
ATOM     13  C   UNL A   1      35.850  23.431  24.997  1.00  0.00    -0.011 A 
ATOM     14  C   UNL A   1      34.756  23.751  25.893  1.00  0.00     0.027 A 
ATOM     15  C   UNL A   1      35.623  23.341  23.676  1.00  0.00     0.080 A 
ATOM     16  C   UNL A   1      33.506  23.828  25.427  1.00  0.00     0.095 A 
ATOM     17  C   UNL A   1      34.244  23.489  23.137  1.00  0.00     0.255 A 
ATOM     18  N   UNL A   1      33.242  23.670  24.079  1.00  0.00    -0.258 N 
ATOM     19  O   UNL A   1      34.080  23.404  21.925  1.00  0.00    -0.269 OA
BRANCH  18  20
ATOM     20  C   UNL A   1      31.887  23.668  23.597  1.00  0.00     0.451 C 
ATOM     21  F   UNL A   1      31.019  23.280  24.561  1.00  0.00    -0.185 F 
ATOM     22  F   UNL A   1      31.526  24.905  23.177  1.00  0.00    -0.185 F 
ENDBRANCH  18  20
ENDBRANCH   9  13
ENDBRANCH   5   6
ENDBRANCH   3   5
ENDBRANCH   2   3
ENDBRANCH   1   2
BRANCH   1  23
ATOM     23  C   UNL A   1      45.167  19.308  24.922  1.00  0.00     0.275 C 
BRANCH  23  24
ATOM     24  O   UNL A   1      44.802  20.681  24.593  1.00  0.00    -0.458 OA
BRANCH  24  25
ATOM     25  C   UNL A   1      45.035  21.759  25.397  1.00  0.00     0.338 C 
ATOM     26  O   UNL A   1      46.048  21.906  26.063  1.00  0.00    -0.246 OA
BRANCH  25  27
ATOM     27  C   UNL A   1      43.819  22.518  25.747  1.00  0.00     0.060 A 
ATOM     28  C   UNL A   1      43.473  23.921  24.657  1.00  0.00     0.016 A 
ATOM     29  C   UNL A   1      43.278  22.541  27.467  1.00  0.00     0.016 A 
ATOM     30  C   UNL A   1      42.801  25.454  25.373  1.00  0.00     0.010 A 
ATOM     31  C   UNL A   1      42.581  24.053  28.156  1.00  0.00     0.010 A 
ATOM     32  C   UNL A   1      42.457  25.534  27.126  1.00  0.00    -0.014 A 
BRANCH  32  33
ATOM     33  C   UNL A   1      42.637  26.751  27.898  1.00  0.00     0.031 A 
ATOM     34  C   UNL A   1      41.478  27.619  28.096  1.00  0.00     0.074 A 
ATOM     35  C   UNL A   1      43.785  26.915  28.596  1.00  0.00     0.049 A 
ATOM     36  N   UNL A   1      41.563  28.820  28.533  1.00  0.00    -0.248 NA
ATOM     37  C   UNL A   1      40.115  27.251  27.725  1.00  0.00     0.031 C 
ATOM     38  C   UNL A   1      44.037  27.752  29.765  1.00  0.00     0.029 A 
ATOM     39  N   UNL A   1      45.039  26.392  28.343  1.00  0.00    -0.354 N 
ATOM     40  C   UNL A   1      40.290  29.215  28.855  1.00  0.00     0.074 A 
ATOM     41  C   UNL A   1      39.429  28.318  28.141  1.00  0.00     0.031 C 
ATOM     42  C   UNL A   1      45.367  27.868  29.951  1.00  0.00     0.029 A 
ATOM     43  C   UNL A   1      46.035  27.226  28.834  1.00  0.00     0.049 A 
ATOM     44  H   UNL A   1      45.203  25.540  27.877  1.00  0.00     0.167 HD
ATOM     45  C   UNL A   1      40.149  30.148  29.835  1.00  0.00     0.037 A 
ATOM     46  C   UNL A   1      46.881  27.841  27.951  1.00  0.00     0.037 A 
ATOM     47  C   UNL A   1      41.457  30.728  30.168  1.00  0.00     0.049 A 
ATOM     48  C   UNL A   1      46.510  29.306  27.745  1.00  0.00     0.074 A 
ATOM     49  C   UNL A   1      42.354  30.610  31.214  1.00  0.00     0.029 A 
ATOM     50  N   UNL A   1      42.173  31.307  29.136  1.00  0.00    -0.354 N 
ATOM     51  N   UNL A   1      45.558  29.917  28.401  1.00  0.00    -0.248 NA
ATOM     52  C   UNL A   1      47.129  30.184  26.755  1.00  0.00     0.031 C 
ATOM     53  C   UNL A   1      43.637  31.058  30.743  1.00  0.00     0.029 A 
ATOM     54  C   UNL A   1      43.504  31.497  29.435  1.00  0.00     0.049 A 
ATOM     55  H   UNL A   1      41.771  31.559  28.272  1.00  0.00     0.167 HD
ATOM     56  C   UNL A   1      45.367  31.177  27.913  1.00  0.00     0.074 A 
ATOM     57  C   UNL A   1      46.376  31.295  26.869  1.00  0.00     0.031 C 
ATOM     58  C   UNL A   1      44.381  32.009  28.378  1.00  0.00     0.037 A 
BRANCH  45  59
ATOM     59  C   UNL A   1      38.873  30.428  30.590  1.00  0.00     0.057 A 
ATOM     60  C   UNL A   1      38.281  31.699  30.497  1.00  0.00     0.134 A 
ATOM     61  C   UNL A   1      38.222  29.552  31.489  1.00  0.00     0.134 A 
ATOM     62  F   UNL A   1      38.789  32.646  29.694  1.00  0.00    -0.206 F 
ATOM     63  C   UNL A   1      37.146  32.070  31.233  1.00  0.00     0.040 A 
ATOM     64  C   UNL A   1      37.059  29.894  32.192  1.00  0.00     0.040 A 
ATOM     65  F   UNL A   1      38.694  28.340  31.790  1.00  0.00    -0.206 F 
ATOM     66  C   UNL A   1      36.523  31.163  32.076  1.00  0.00     0.006 A 
ENDBRANCH  45  59
BRANCH  46  67
ATOM     67  C   UNL A   1      47.390  26.876  26.924  1.00  0.00     0.057 A 
ATOM     68  C   UNL A   1      46.771  26.910  25.655  1.00  0.00     0.134 A 
ATOM     69  C   UNL A   1      48.663  26.305  26.980  1.00  0.00     0.134 A 
ATOM     70  F   UNL A   1      45.530  27.404  25.527  1.00  0.00    -0.206 F 
ATOM     71  C   UNL A   1      47.459  26.585  24.483  1.00  0.00     0.040 A 
ATOM     72  C   UNL A   1      49.347  25.932  25.811  1.00  0.00     0.040 A 
ATOM     73  F   UNL A   1      49.334  26.240  28.140  1.00  0.00    -0.206 F 
ATOM     74  C   UNL A   1      48.770  26.133  24.558  1.00  0.00     0.006 A 
ENDBRANCH  46  67
BRANCH  58  75
ATOM     75  C   UNL A   1      44.141  33.395  27.821  1.00  0.00     0.057 A 
ATOM     76  C   UNL A   1      44.188  34.542  28.622  1.00  0.00     0.134 A 
ATOM     77  C   UNL A   1      43.762  33.626  26.478  1.00  0.00     0.134 A 
ATOM     78  F   UNL A   1      44.406  34.457  29.943  1.00  0.00    -0.206 F 
ATOM     79  C   UNL A   1      43.983  35.828  28.105  1.00  0.00     0.040 A 
ATOM     80  C   UNL A   1      43.481  34.895  25.969  1.00  0.00     0.040 A 
ATOM     81  F   UNL A   1      43.674  32.646  25.571  1.00  0.00    -0.206 F 
ATOM     82  C   UNL A   1      43.623  36.008  26.776  1.00  0.00     0.006 A 
ENDBRANCH  58  75
ENDBRANCH  32  33
ENDBRANCH  25  27
ENDBRANCH  24  25
ENDBRANCH  23  24
ENDBRANCH   1  23
TORSDOF 14
ENDMDL
MODEL 2
REMARK VINA RESULT:     -13.1      5.073     10.763
REMARK SMILES Cc1c(CC(=O)OCCOC(=O)c2ccc(-c3c4nc(c(-c5c(F)cccc5F)c5ccc([nH]5)c(-c5c(F)cccc5F)c5nc(c(-c6c(F)cccc6F)c6ccc3[nH]6)C=C5)C=C4)cc2)cccc1-c1ccn(C(F)F)c(=O)c1
REMARK SMILES IDX 8 1 7 2 5 3 6 4 4 5 3 6 1 7 2 8 70 9 67 10 69 11 68 12 71 13
REMARK SMILES IDX 72 14 80 15 73 16 78 17 74 18 79 19 75 20 76 21 77 22 9 23
REMARK SMILES IDX 10 24 11 25 12 26 13 27 14 28 66 29 15 30 65 31 16 32 17 33
REMARK SMILES IDX 18 34 59 35 19 36 64 37 58 38 60 39 20 40 63 41 57 42 56 43
REMARK SMILES IDX 21 45 47 46 30 47 46 48 31 49 34 50 45 51 61 52 32 53 33 54
REMARK SMILES IDX 44 56 62 57 35 58 22 59 23 60 28 61 24 62 25 63 27 64 29 65
REMARK SMILES IDX 26 66 48 67 49 68 54 69 50 70 51 71 53 72 55 73 52 74 36 75
REMARK SMILES IDX 37 76 42 77 38 78 39 79 41 80 43 81 40 82
REMARK H PARENT 60 44 34 55
REMARK Flexibility Score: inf
ROOT
ATOM      1  C   UNL A   1      33.290  36.504  30.247  1.00  0.00     0.274 C 
ENDROOT
BRANCH   1   2
ATOM      2  O   UNL A   1      32.550  35.691  29.319  1.00  0.00    -0.462 OA
BRANCH   2   3
ATOM      3  C   UNL A   1      33.323  34.842  28.435  1.00  0.00     0.310 C 
ATOM      4  O   UNL A   1      34.397  35.501  28.242  1.00  0.00    -0.252 OA
BRANCH   3   5
ATOM      5  C   UNL A   1      32.701  32.894  27.720  1.00  0.00     0.158 C 
BRANCH   5   6
ATOM      6  C   UNL A   1      33.506  31.387  27.425  1.00  0.00    -0.033 A 
ATOM      7  C   UNL A   1      31.595  30.537  25.942  1.00  0.00     0.045 C 
ATOM      8  C   UNL A   1      32.871  30.323  26.721  1.00  0.00    -0.039 A 
ATOM      9  C   UNL A   1      33.503  29.052  26.700  1.00  0.00    -0.015 A 
ATOM     10  C   UNL A   1      34.869  31.225  27.755  1.00  0.00     0.004 A 
ATOM     11  C   UNL A   1      34.754  28.872  27.301  1.00  0.00     0.009 A 
ATOM     12  C   UNL A   1      35.455  29.967  27.779  1.00  0.00     0.001 A 
BRANCH   9  13
ATOM     13  C   UNL A   1      32.904  27.896  26.007  1.00  0.00    -0.011 A 
ATOM     14  C   UNL A   1      33.209  27.591  24.623  1.00  0.00     0.027 A 
ATOM     15  C   UNL A   1      31.988  27.165  26.663  1.00  0.00     0.080 A 
ATOM     16  C   UNL A   1      32.493  26.674  23.964  1.00  0.00     0.095 A 
ATOM     17  C   UNL A   1      31.230  26.096  25.957  1.00  0.00     0.255 A 
ATOM     18  N   UNL A   1      31.500  25.958  24.604  1.00  0.00    -0.258 N 
ATOM     19  O   UNL A   1      30.406  25.448  26.593  1.00  0.00    -0.269 OA
BRANCH  18  20
ATOM     20  C   UNL A   1      30.677  25.034  23.867  1.00  0.00     0.451 C 
ATOM     21  F   UNL A   1      29.457  25.559  23.606  1.00  0.00    -0.185 F 
ATOM     22  F   UNL A   1      31.259  24.710  22.687  1.00  0.00    -0.185 F 
ENDBRANCH  18  20
ENDBRANCH   9  13
ENDBRANCH   5   6
ENDBRANCH   3   5
ENDBRANCH   2   3
ENDBRANCH   1   2
BRANCH   1  23
ATOM     23  C   UNL A   1      33.093  35.940  31.661  1.00  0.00     0.275 C 
BRANCH  23  24
ATOM     24  O   UNL A   1      33.698  34.637  31.908  1.00  0.00    -0.458 OA
BRANCH  24  25
ATOM     25  C   UNL A   1      35.041  34.397  31.929  1.00  0.00     0.338 C 
ATOM     26  O   UNL A   1      35.874  35.220  32.275  1.00  0.00    -0.246 OA
BRANCH  25  27
ATOM     27  C   UNL A   1      35.457  33.243  31.108  1.00  0.00     0.060 A 
ATOM     28  C   UNL A   1      35.334  31.645  31.947  1.00  0.00     0.016 A 
ATOM     29  C   UNL A   1      36.678  33.503  29.807  1.00  0.00     0.016 A 
ATOM     30  C   UNL A   1      36.614  30.385  31.645  1.00  0.00     0.010 A 
ATOM     31  C   UNL A   1      37.919  32.234  29.492  1.00  0.00     0.010 A 
ATOM     32  C   UNL A   1      37.942  30.732  30.499  1.00  0.00    -0.014 A 
BRANCH  32  33
ATOM     33  C   UNL A   1      39.291  30.231  30.698  1.00  0.00     0.031 A 
ATOM     34  C   UNL A   1      39.691  29.026  29.975  1.00  0.00     0.074 A 
ATOM     35  C   UNL A   1      40.187  31.014  31.342  1.00  0.00     0.049 A 
ATOM     36  N   UNL A   1      40.746  28.354  30.254  1.00  0.00    -0.248 NA
ATOM     37  C   UNL A   1      38.886  28.401  28.930  1.00  0.00     0.031 C 
ATOM     38  C   UNL A   1      41.646  30.986  31.275  1.00  0.00     0.029 A 
ATOM     39  N   UNL A   1      39.964  31.996  32.288  1.00  0.00    -0.354 N 
ATOM     40  C   UNL A   1      40.946  27.483  29.214  1.00  0.00     0.074 A 
ATOM     41  C   UNL A   1      39.677  27.394  28.551  1.00  0.00     0.031 C 
ATOM     42  C   UNL A   1      42.152  31.707  32.294  1.00  0.00     0.029 A 
ATOM     43  C   UNL A   1      41.051  32.121  33.144  1.00  0.00     0.049 A 
ATOM     44  H   UNL A   1      39.143  32.536  32.346  1.00  0.00     0.167 HD
ATOM     45  C   UNL A   1      42.223  27.094  28.955  1.00  0.00     0.037 A 
ATOM     46  C   UNL A   1      40.897  31.793  34.465  1.00  0.00     0.037 A 
ATOM     47  C   UNL A   1      43.108  27.517  30.049  1.00  0.00     0.049 A 
ATOM     48  C   UNL A   1      41.497  30.426  34.778  1.00  0.00     0.074 A 
ATOM     49  C   UNL A   1      44.061  28.504  30.224  1.00  0.00     0.029 A 
ATOM     50  N   UNL A   1      42.787  27.087  31.324  1.00  0.00    -0.354 N 
ATOM     51  N   UNL A   1      42.155  29.702  33.911  1.00  0.00    -0.248 NA
ATOM     52  C   UNL A   1      41.361  29.738  36.060  1.00  0.00     0.031 C 
ATOM     53  C   UNL A   1      44.232  28.701  31.639  1.00  0.00     0.029 A 
ATOM     54  C   UNL A   1      43.427  27.798  32.316  1.00  0.00     0.049 A 
ATOM     55  H   UNL A   1      42.165  26.346  31.505  1.00  0.00     0.167 HD
ATOM     56  C   UNL A   1      42.455  28.477  34.434  1.00  0.00     0.074 A 
ATOM     57  C   UNL A   1      41.923  28.545  35.788  1.00  0.00     0.031 C 
ATOM     58  C   UNL A   1      43.083  27.497  33.709  1.00  0.00     0.037 A 
BRANCH  45  59
ATOM     59  C   UNL A   1      42.697  26.473  27.664  1.00  0.00     0.057 A 
ATOM     60  C   UNL A   1      42.577  25.085  27.482  1.00  0.00     0.134 A 
ATOM     61  C   UNL A   1      43.358  27.140  26.607  1.00  0.00     0.134 A 
ATOM     62  F   UNL A   1      41.983  24.310  28.402  1.00  0.00    -0.206 F 
ATOM     63  C   UNL A   1      43.071  24.417  26.351  1.00  0.00     0.040 A 
ATOM     64  C   UNL A   1      43.811  26.491  25.451  1.00  0.00     0.040 A 
ATOM     65  F   UNL A   1      43.659  28.440  26.645  1.00  0.00    -0.206 F 
ATOM     66  C   UNL A   1      43.681  25.121  25.324  1.00  0.00     0.006 A 
ENDBRANCH  45  59
BRANCH  46  67
ATOM     67  C   UNL A   1      39.644  32.391  35.030  1.00  0.00     0.057 A 
ATOM     68  C   UNL A   1      39.668  33.774  35.311  1.00  0.00     0.134 A 
ATOM     69  C   UNL A   1      38.384  31.810  34.868  1.00  0.00     0.134 A 
ATOM     70  F   UNL A   1      40.839  34.396  35.522  1.00  0.00    -0.206 F 
ATOM     71  C   UNL A   1      38.522  34.569  35.233  1.00  0.00     0.040 A 
ATOM     72  C   UNL A   1      37.219  32.594  34.833  1.00  0.00     0.040 A 
ATOM     73  F   UNL A   1      38.263  30.504  34.586  1.00  0.00    -0.206 F 
ATOM     74  C   UNL A   1      37.295  33.981  34.951  1.00  0.00     0.006 A 
ENDBRANCH  46  67
BRANCH  58  75
ATOM     75  C   UNL A   1      43.390  26.126  34.269  1.00  0.00     0.057 A 
ATOM     76  C   UNL A   1      44.669  25.560  34.204  1.00  0.00     0.134 A 
ATOM     77  C   UNL A   1      42.396  25.280  34.813  1.00  0.00     0.134 A 
ATOM     78  F   UNL A   1      45.680  26.198  33.595  1.00  0.00    -0.206 F 
ATOM     79  C   UNL A   1      44.960  24.298  34.738  1.00  0.00     0.040 A 
ATOM     80  C   UNL A   1      42.658  23.990  35.279  1.00  0.00     0.040 A 
ATOM     81  F   UNL A   1      41.121  25.660  34.958  1.00  0.00    -0.206 F 
ATOM     82  C   UNL A   1      43.952  23.505  35.273  1.00  0.00     0.006 A 
ENDBRANCH  58  75
ENDBRANCH  32  33
ENDBRANCH  25  27
ENDBRANCH  24  25
ENDBRANCH  23  24
ENDBRANCH   1  23
TORSDOF 14
ENDMDL
MODEL 3
REMARK VINA RESULT:     -12.7      2.497      4.185
REMARK SMILES Cc1c(CC(=O)OCCOC(=O)c2ccc(-c3c4nc(c(-c5c(F)cccc5F)c5ccc([nH]5)c(-c5c(F)cccc5F)c5nc(c(-c6c(F)cccc6F)c6ccc3[nH]6)C=C5)C=C4)cc2)cccc1-c1ccn(C(F)F)c(=O)c1
REMARK SMILES IDX 8 1 7 2 5 3 6 4 4 5 3 6 1 7 2 8 70 9 67 10 69 11 68 12 71 13
REMARK SMILES IDX 72 14 80 15 73 16 78 17 74 18 79 19 75 20 76 21 77 22 9 23
REMARK SMILES IDX 10 24 11 25 12 26 13 27 14 28 66 29 15 30 65 31 16 32 17 33
REMARK SMILES IDX 18 34 59 35 19 36 64 37 58 38 60 39 20 40 63 41 57 42 56 43
REMARK SMILES IDX 21 45 47 46 30 47 46 48 31 49 34 50 45 51 61 52 32 53 33 54
REMARK SMILES IDX 44 56 62 57 35 58 22 59 23 60 28 61 24 62 25 63 27 64 29 65
REMARK SMILES IDX 26 66 48 67 49 68 54 69 50 70 51 71 53 72 55 73 52 74 36 75
REMARK SMILES IDX 37 76 42 77 38 78 39 79 41 80 43 81 40 82
REMARK H PARENT 60 44 34 55
REMARK Flexibility Score: inf
ROOT
ATOM      1  C   UNL A   1      40.143  20.936  26.100  1.00  0.00     0.274 C 
ENDROOT
BRANCH   1   2
ATOM      2  O   UNL A   1      39.189  21.879  26.622  1.00  0.00    -0.462 OA
BRANCH   2   3
ATOM      3  C   UNL A   1      38.036  22.167  25.794  1.00  0.00     0.310 C 
ATOM      4  O   UNL A   1      38.071  23.433  25.651  1.00  0.00    -0.252 OA
BRANCH   3   5
ATOM      5  C   UNL A   1      36.670  20.684  25.000  1.00  0.00     0.158 C 
BRANCH   5   6
ATOM      6  C   UNL A   1      34.948  20.578  24.828  1.00  0.00    -0.033 A 
ATOM      7  C   UNL A   1      34.739  23.086  24.334  1.00  0.00     0.045 C 
ATOM      8  C   UNL A   1      34.138  21.740  24.662  1.00  0.00    -0.039 A 
ATOM      9  C   UNL A   1      32.728  21.600  24.740  1.00  0.00    -0.015 A 
ATOM     10  C   UNL A   1      34.314  19.323  24.706  1.00  0.00     0.004 A 
ATOM     11  C   UNL A   1      32.149  20.337  24.906  1.00  0.00     0.009 A 
ATOM     12  C   UNL A   1      32.938  19.200  24.836  1.00  0.00     0.001 A 
BRANCH   9  13
ATOM     13  C   UNL A   1      31.822  22.754  24.595  1.00  0.00    -0.011 A 
ATOM     14  C   UNL A   1      31.454  23.281  23.294  1.00  0.00     0.027 A 
ATOM     15  C   UNL A   1      31.401  23.378  25.708  1.00  0.00     0.080 A 
ATOM     16  C   UNL A   1      30.810  24.449  23.200  1.00  0.00     0.095 A 
ATOM     17  C   UNL A   1      30.627  24.645  25.614  1.00  0.00     0.255 A 
ATOM     18  N   UNL A   1      30.428  25.140  24.334  1.00  0.00    -0.258 N 
ATOM     19  O   UNL A   1      30.257  25.180  26.654  1.00  0.00    -0.269 OA
BRANCH  18  20
ATOM     20  C   UNL A   1      29.812  26.436  24.225  1.00  0.00     0.451 C 
ATOM     21  F   UNL A   1      30.031  26.986  23.007  1.00  0.00    -0.185 F 
ATOM     22  F   UNL A   1      28.473  26.348  24.414  1.00  0.00    -0.185 F 
ENDBRANCH  18  20
ENDBRANCH   9  13
ENDBRANCH   5   6
ENDBRANCH   3   5
ENDBRANCH   2   3
ENDBRANCH   1   2
BRANCH   1  23
ATOM     23  C   UNL A   1      41.558  21.457  26.390  1.00  0.00     0.275 C 
BRANCH  23  24
ATOM     24  O   UNL A   1      41.845  22.800  25.901  1.00  0.00    -0.458 OA
BRANCH  24  25
ATOM     25  C   UNL A   1      42.159  23.864  26.696  1.00  0.00     0.338 C 
ATOM     26  O   UNL A   1      43.045  23.849  27.536  1.00  0.00    -0.246 OA
BRANCH  25  27
ATOM     27  C   UNL A   1      41.095  24.882  26.782  1.00  0.00     0.060 A 
ATOM     28  C   UNL A   1      41.339  26.314  25.703  1.00  0.00     0.016 A 
ATOM     29  C   UNL A   1      40.177  25.046  28.326  1.00  0.00     0.016 A 
ATOM     30  C   UNL A   1      40.872  27.968  26.306  1.00  0.00     0.010 A 
ATOM     31  C   UNL A   1      39.688  26.684  28.896  1.00  0.00     0.010 A 
ATOM     32  C   UNL A   1      40.145  28.143  27.930  1.00  0.00    -0.014 A 
BRANCH  32  33
ATOM     33  C   UNL A   1      40.400  29.297  28.774  1.00  0.00     0.031 A 
ATOM     34  C   UNL A   1      39.328  30.275  28.946  1.00  0.00     0.074 A 
ATOM     35  C   UNL A   1      41.510  29.303  29.549  1.00  0.00     0.049 A 
ATOM     36  N   UNL A   1      39.510  31.439  29.449  1.00  0.00    -0.248 NA
ATOM     37  C   UNL A   1      37.962  30.075  28.473  1.00  0.00     0.031 C 
ATOM     38  C   UNL A   1      41.770  30.055  30.774  1.00  0.00     0.029 A 
ATOM     39  N   UNL A   1      42.716  28.660  29.347  1.00  0.00    -0.354 N 
ATOM     40  C   UNL A   1      38.267  31.955  29.713  1.00  0.00     0.074 A 
ATOM     41  C   UNL A   1      37.366  31.189  28.902  1.00  0.00     0.031 C 
ATOM     42  C   UNL A   1      43.089  30.017  31.047  1.00  0.00     0.029 A 
ATOM     43  C   UNL A   1      43.760  29.357  29.942  1.00  0.00     0.049 A 
ATOM     44  H   UNL A   1      42.820  27.817  28.848  1.00  0.00     0.167 HD
ATOM     45  C   UNL A   1      38.159  32.851  30.729  1.00  0.00     0.037 A 
ATOM     46  C   UNL A   1      44.723  29.917  29.146  1.00  0.00     0.037 A 
ATOM     47  C   UNL A   1      39.496  33.271  31.173  1.00  0.00     0.049 A 
ATOM     48  C   UNL A   1      44.522  31.422  28.995  1.00  0.00     0.074 A 
ATOM     49  C   UNL A   1      40.304  33.009  32.264  1.00  0.00     0.029 A 
ATOM     50  N   UNL A   1      40.337  33.815  30.218  1.00  0.00    -0.354 N 
ATOM     51  N   UNL A   1      43.598  32.101  29.622  1.00  0.00    -0.248 NA
ATOM     52  C   UNL A   1      45.295  32.271  28.092  1.00  0.00     0.031 C 
ATOM     53  C   UNL A   1      41.656  33.336  31.898  1.00  0.00     0.029 A 
ATOM     54  C   UNL A   1      41.658  33.846  30.609  1.00  0.00     0.049 A 
ATOM     55  H   UNL A   1      40.022  34.148  29.346  1.00  0.00     0.167 HD
ATOM     56  C   UNL A   1      43.574  33.396  29.189  1.00  0.00     0.074 A 
ATOM     57  C   UNL A   1      44.657  33.450  28.217  1.00  0.00     0.031 C 
ATOM     58  C   UNL A   1      42.652  34.308  29.636  1.00  0.00     0.037 A 
BRANCH  45  59
ATOM     59  C   UNL A   1      36.873  33.234  31.419  1.00  0.00     0.057 A 
ATOM     60  C   UNL A   1      36.614  32.751  32.713  1.00  0.00     0.134 A 
ATOM     61  C   UNL A   1      35.812  33.980  30.858  1.00  0.00     0.134 A 
ATOM     62  F   UNL A   1      37.520  32.016  33.376  1.00  0.00    -0.206 F 
ATOM     63  C   UNL A   1      35.408  32.986  33.390  1.00  0.00     0.040 A 
ATOM     64  C   UNL A   1      34.622  34.263  31.542  1.00  0.00     0.040 A 
ATOM     65  F   UNL A   1      35.827  34.432  29.601  1.00  0.00    -0.206 F 
ATOM     66  C   UNL A   1      34.410  33.754  32.810  1.00  0.00     0.006 A 
ENDBRANCH  45  59
BRANCH  46  67
ATOM     67  C   UNL A   1      45.194  28.950  28.102  1.00  0.00     0.057 A 
ATOM     68  C   UNL A   1      46.029  27.898  28.538  1.00  0.00     0.134 A 
ATOM     69  C   UNL A   1      44.528  28.755  26.890  1.00  0.00     0.134 A 
ATOM     70  F   UNL A   1      46.735  28.028  29.672  1.00  0.00    -0.206 F 
ATOM     71  C   UNL A   1      46.041  26.650  27.912  1.00  0.00     0.040 A 
ATOM     72  C   UNL A   1      44.570  27.517  26.227  1.00  0.00     0.040 A 
ATOM     73  F   UNL A   1      43.703  29.693  26.403  1.00  0.00    -0.206 F 
ATOM     74  C   UNL A   1      45.274  26.444  26.772  1.00  0.00     0.006 A 
ENDBRANCH  46  67
BRANCH  58  75
ATOM     75  C   UNL A   1      42.597  35.735  29.138  1.00  0.00     0.057 A 
ATOM     76  C   UNL A   1      42.028  36.076  27.905  1.00  0.00     0.134 A 
ATOM     77  C   UNL A   1      43.196  36.812  29.831  1.00  0.00     0.134 A 
ATOM     78  F   UNL A   1      41.540  35.136  27.082  1.00  0.00    -0.206 F 
ATOM     79  C   UNL A   1      41.960  37.399  27.449  1.00  0.00     0.040 A 
ATOM     80  C   UNL A   1      43.202  38.123  29.351  1.00  0.00     0.040 A 
ATOM     81  F   UNL A   1      43.779  36.670  31.027  1.00  0.00    -0.206 F 
ATOM     82  C   UNL A   1      42.552  38.428  28.170  1.00  0.00     0.006 A 
ENDBRANCH  58  75
ENDBRANCH  32  33
ENDBRANCH  25  27
ENDBRANCH  24  25
ENDBRANCH  23  24
ENDBRANCH   1  23
TORSDOF 14
ENDMDL
