MODEL 1
REMARK VINA RESULT:     -11.8      0.000      0.000
REMARK SMILES C=C1c2ccccc2C(=O)N1[C@](C)(C(=O)OCCOC(=O)c1ccc(-c2c3nc(c(-c4c(F)cccc4F)c4ccc([nH]4)c(-c4c(F)cccc4F)c4nc(c(-c5c(F)cccc5F)c5ccc2[nH]5)C=C4)C=C3)cc1)C(F)(F)F
REMARK SMILES IDX 18 1 17 2 16 3 14 4 15 5 12 6 13 7 11 8 1 9 2 10 3 11 4 12
REMARK SMILES IDX 8 13 9 14 5 15 7 16 10 17 6 18 76 19 77 20 78 21 79 22 19 23
REMARK SMILES IDX 20 24 21 25 22 26 23 27 75 28 24 29 74 30 25 31 26 32 27 33
REMARK SMILES IDX 68 34 28 35 73 36 67 37 69 38 29 39 72 40 66 41 65 42 30 44
REMARK SMILES IDX 56 45 39 46 55 47 40 48 43 49 54 50 70 51 41 52 42 53 53 55
REMARK SMILES IDX 71 56 44 57 31 58 32 59 37 60 33 61 34 62 36 63 38 64 35 65
REMARK SMILES IDX 57 66 58 67 63 68 59 69 60 70 62 71 64 72 61 73 45 74 46 75
REMARK SMILES IDX 51 76 47 77 48 78 50 79 52 80 49 81
REMARK H PARENT 69 43 43 54
REMARK Flexibility Score: inf
ROOT
ATOM      1  C   UNL A   1      36.178  20.964  25.260  1.00  0.00     0.275 C 
ENDROOT
BRANCH   1   2
ATOM      2  C   UNL A   1      35.242  21.791  26.137  1.00  0.00     0.274 C 
BRANCH   2   3
ATOM      3  O   UNL A   1      34.097  22.234  25.374  1.00  0.00    -0.460 OA
BRANCH   3   4
ATOM      4  C   UNL A   1      34.010  23.563  25.093  1.00  0.00     0.341 C 
ATOM      5  O   UNL A   1      34.895  24.369  25.369  1.00  0.00    -0.249 OA
BRANCH   4   6
ATOM      6  C   UNL A   1      32.655  23.969  24.496  1.00  0.00     0.238 C 
ATOM      7  C   UNL A   1      31.462  23.150  25.036  1.00  0.00     0.058 C 
BRANCH   6   8
ATOM      8  N   UNL A   1      32.525  25.406  24.875  1.00  0.00    -0.283 N 
ATOM      9  C   UNL A   1      33.645  26.754  23.106  1.00  0.00     0.038 C 
ATOM     10  C   UNL A   1      33.011  26.562  24.266  1.00  0.00     0.046 C 
ATOM     11  C   UNL A   1      32.701  27.681  25.168  1.00  0.00     0.010 A 
ATOM     12  C   UNL A   1      32.945  29.044  25.100  1.00  0.00     0.011 A 
ATOM     13  C   UNL A   1      32.041  27.162  26.275  1.00  0.00     0.049 A 
ATOM     14  C   UNL A   1      31.935  25.718  26.105  1.00  0.00     0.260 C 
ATOM     15  C   UNL A   1      32.508  29.854  26.157  1.00  0.00     0.001 A 
ATOM     16  C   UNL A   1      31.604  27.934  27.336  1.00  0.00     0.014 A 
ATOM     17  O   UNL A   1      31.453  24.970  26.939  1.00  0.00    -0.269 OA
ATOM     18  C   UNL A   1      31.843  29.303  27.266  1.00  0.00     0.001 A 
ENDBRANCH   6   8
BRANCH   6  19
ATOM     19  C   UNL A   1      32.759  23.619  23.013  1.00  0.00     0.422 C 
ATOM     20  F   UNL A   1      34.032  23.723  22.559  1.00  0.00    -0.168 F 
ATOM     21  F   UNL A   1      32.395  22.330  22.784  1.00  0.00    -0.168 F 
ATOM     22  F   UNL A   1      32.003  24.394  22.205  1.00  0.00    -0.168 F 
ENDBRANCH   6  19
ENDBRANCH   4   6
ENDBRANCH   3   4
ENDBRANCH   2   3
ENDBRANCH   1   2
BRANCH   1  23
ATOM     23  O   UNL A   1      37.376  21.713  24.989  1.00  0.00    -0.458 OA
BRANCH  23  24
ATOM     24  C   UNL A   1      38.462  21.289  25.670  1.00  0.00     0.338 C 
ATOM     25  O   UNL A   1      38.994  20.192  25.619  1.00  0.00    -0.246 OA
BRANCH  24  26
ATOM     26  C   UNL A   1      39.041  22.401  26.430  1.00  0.00     0.060 A 
ATOM     27  C   UNL A   1      38.564  23.680  26.174  1.00  0.00     0.016 A 
ATOM     28  C   UNL A   1      40.191  22.221  27.191  1.00  0.00     0.016 A 
ATOM     29  C   UNL A   1      39.327  24.787  26.520  1.00  0.00     0.010 A 
ATOM     30  C   UNL A   1      40.865  23.344  27.684  1.00  0.00     0.010 A 
ATOM     31  C   UNL A   1      40.472  24.644  27.311  1.00  0.00    -0.014 A 
BRANCH  31  32
ATOM     32  C   UNL A   1      41.255  25.843  27.727  1.00  0.00     0.031 A 
ATOM     33  C   UNL A   1      40.618  26.912  28.579  1.00  0.00     0.074 A 
ATOM     34  C   UNL A   1      42.542  25.981  27.344  1.00  0.00     0.049 A 
ATOM     35  N   UNL A   1      41.042  28.122  28.842  1.00  0.00    -0.248 NA
ATOM     36  C   UNL A   1      39.324  26.584  29.199  1.00  0.00     0.031 C 
ATOM     37  C   UNL A   1      43.313  25.002  26.572  1.00  0.00     0.029 A 
ATOM     38  N   UNL A   1      43.433  27.006  27.548  1.00  0.00    -0.354 N 
ATOM     39  C   UNL A   1      40.041  28.719  29.601  1.00  0.00     0.074 A 
ATOM     40  C   UNL A   1      38.985  27.741  29.749  1.00  0.00     0.031 C 
ATOM     41  C   UNL A   1      44.563  25.452  26.404  1.00  0.00     0.029 A 
ATOM     42  C   UNL A   1      44.649  26.801  26.942  1.00  0.00     0.049 A 
ATOM     43  H   UNL A   1      43.221  27.810  28.076  1.00  0.00     0.167 HD
ATOM     44  C   UNL A   1      40.011  29.970  30.123  1.00  0.00     0.037 A 
ATOM     45  C   UNL A   1      45.700  27.624  26.771  1.00  0.00     0.037 A 
ATOM     46  C   UNL A   1      41.092  30.917  30.012  1.00  0.00     0.049 A 
ATOM     47  C   UNL A   1      45.614  29.026  27.296  1.00  0.00     0.074 A 
ATOM     48  C   UNL A   1      41.169  32.203  30.519  1.00  0.00     0.029 A 
ATOM     49  N   UNL A   1      42.291  30.676  29.356  1.00  0.00    -0.354 N 
ATOM     50  N   UNL A   1      44.643  29.601  27.964  1.00  0.00    -0.248 NA
ATOM     51  C   UNL A   1      46.761  29.902  27.026  1.00  0.00     0.031 C 
ATOM     52  C   UNL A   1      42.390  32.758  30.122  1.00  0.00     0.029 A 
ATOM     53  C   UNL A   1      43.102  31.797  29.424  1.00  0.00     0.049 A 
ATOM     54  H   UNL A   1      42.529  29.832  28.909  1.00  0.00     0.167 HD
ATOM     55  C   UNL A   1      45.072  30.896  28.216  1.00  0.00     0.074 A 
ATOM     56  C   UNL A   1      46.399  31.015  27.645  1.00  0.00     0.031 C 
ATOM     57  C   UNL A   1      44.423  31.898  28.859  1.00  0.00     0.037 A 
BRANCH  44  58
ATOM     58  C   UNL A   1      38.754  30.407  30.826  1.00  0.00     0.057 A 
ATOM     59  C   UNL A   1      37.703  31.050  30.160  1.00  0.00     0.134 A 
ATOM     60  C   UNL A   1      38.580  30.145  32.192  1.00  0.00     0.134 A 
ATOM     61  F   UNL A   1      37.803  31.342  28.854  1.00  0.00    -0.206 F 
ATOM     62  C   UNL A   1      36.541  31.442  30.830  1.00  0.00     0.040 A 
ATOM     63  C   UNL A   1      37.413  30.502  32.867  1.00  0.00     0.040 A 
ATOM     64  F   UNL A   1      39.541  29.523  32.893  1.00  0.00    -0.206 F 
ATOM     65  C   UNL A   1      36.391  31.160  32.187  1.00  0.00     0.006 A 
ENDBRANCH  44  58
BRANCH  45  66
ATOM     66  C   UNL A   1      46.894  27.161  26.016  1.00  0.00     0.057 A 
ATOM     67  C   UNL A   1      47.934  26.480  26.655  1.00  0.00     0.134 A 
ATOM     68  C   UNL A   1      47.022  27.385  24.639  1.00  0.00     0.134 A 
ATOM     69  F   UNL A   1      47.881  26.252  27.976  1.00  0.00    -0.206 F 
ATOM     70  C   UNL A   1      49.067  26.054  25.959  1.00  0.00     0.040 A 
ATOM     71  C   UNL A   1      48.131  26.933  23.922  1.00  0.00     0.040 A 
ATOM     72  F   UNL A   1      46.057  28.026  23.962  1.00  0.00    -0.206 F 
ATOM     73  C   UNL A   1      49.162  26.273  24.586  1.00  0.00     0.006 A 
ENDBRANCH  45  66
BRANCH  57  74
ATOM     74  C   UNL A   1      45.165  33.193  29.021  1.00  0.00     0.057 A 
ATOM     75  C   UNL A   1      45.045  34.239  28.098  1.00  0.00     0.134 A 
ATOM     76  C   UNL A   1      45.992  33.402  30.131  1.00  0.00     0.134 A 
ATOM     77  F   UNL A   1      44.282  34.098  27.003  1.00  0.00    -0.206 F 
ATOM     78  C   UNL A   1      45.745  35.436  28.258  1.00  0.00     0.040 A 
ATOM     79  C   UNL A   1      46.672  34.606  30.320  1.00  0.00     0.040 A 
ATOM     80  F   UNL A   1      46.146  32.443  31.057  1.00  0.00    -0.206 F 
ATOM     81  C   UNL A   1      46.556  35.624  29.376  1.00  0.00     0.006 A 
ENDBRANCH  57  74
ENDBRANCH  31  32
ENDBRANCH  24  26
ENDBRANCH  23  24
ENDBRANCH   1  23
TORSDOF 13
ENDMDL
MODEL 2
REMARK VINA RESULT:     -11.8      0.203      1.394
REMARK SMILES C=C1c2ccccc2C(=O)N1[C@](C)(C(=O)OCCOC(=O)c1ccc(-c2c3nc(c(-c4c(F)cccc4F)c4ccc([nH]4)c(-c4c(F)cccc4F)c4nc(c(-c5c(F)cccc5F)c5ccc2[nH]5)C=C4)C=C3)cc1)C(F)(F)F
REMARK SMILES IDX 18 1 17 2 16 3 14 4 15 5 12 6 13 7 11 8 1 9 2 10 3 11 4 12
REMARK SMILES IDX 8 13 9 14 5 15 7 16 10 17 6 18 76 19 77 20 78 21 79 22 19 23
REMARK SMILES IDX 20 24 21 25 22 26 23 27 75 28 24 29 74 30 25 31 26 32 27 33
REMARK SMILES IDX 68 34 28 35 73 36 67 37 69 38 29 39 72 40 66 41 65 42 30 44
REMARK SMILES IDX 56 45 39 46 55 47 40 48 43 49 54 50 70 51 41 52 42 53 53 55
REMARK SMILES IDX 71 56 44 57 31 58 32 59 37 60 33 61 34 62 36 63 38 64 35 65
REMARK SMILES IDX 57 66 58 67 63 68 59 69 60 70 62 71 64 72 61 73 45 74 46 75
REMARK SMILES IDX 51 76 47 77 48 78 50 79 52 80 49 81
REMARK H PARENT 69 43 43 54
REMARK Flexibility Score: inf
ROOT
ATOM      1  C   UNL A   1      36.319  20.858  25.061  1.00  0.00     0.275 C 
ENDROOT
BRANCH   1   2
ATOM      2  C   UNL A   1      35.402  21.466  26.120  1.00  0.00     0.274 C 
BRANCH   2   3
ATOM      3  O   UNL A   1      34.165  21.909  25.519  1.00  0.00    -0.460 OA
BRANCH   3   4
ATOM      4  C   UNL A   1      34.025  23.244  25.292  1.00  0.00     0.341 C 
ATOM      5  O   UNL A   1      34.860  24.077  25.634  1.00  0.00    -0.249 OA
BRANCH   4   6
ATOM      6  C   UNL A   1      32.672  23.614  24.665  1.00  0.00     0.238 C 
ATOM      7  C   UNL A   1      31.478  22.823  25.242  1.00  0.00     0.058 C 
BRANCH   6   8
ATOM      8  N   UNL A   1      32.538  25.069  24.964  1.00  0.00    -0.283 N 
ATOM      9  C   UNL A   1      33.672  26.321  23.135  1.00  0.00     0.038 C 
ATOM     10  C   UNL A   1      33.028  26.191  24.297  1.00  0.00     0.046 C 
ATOM     11  C   UNL A   1      32.708  27.357  25.134  1.00  0.00     0.010 A 
ATOM     12  C   UNL A   1      32.950  28.714  24.994  1.00  0.00     0.011 A 
ATOM     13  C   UNL A   1      32.038  26.898  26.262  1.00  0.00     0.049 A 
ATOM     14  C   UNL A   1      31.936  25.447  26.169  1.00  0.00     0.260 C 
ATOM     15  C   UNL A   1      32.503  29.580  26.001  1.00  0.00     0.001 A 
ATOM     16  C   UNL A   1      31.590  27.725  27.275  1.00  0.00     0.014 A 
ATOM     17  O   UNL A   1      31.447  24.744  27.039  1.00  0.00    -0.269 OA
ATOM     18  C   UNL A   1      31.828  29.089  27.133  1.00  0.00     0.001 A 
ENDBRANCH   6   8
BRANCH   6  19
ATOM     19  C   UNL A   1      32.787  23.183  23.204  1.00  0.00     0.422 C 
ATOM     20  F   UNL A   1      32.431  21.887  23.031  1.00  0.00    -0.168 F 
ATOM     21  F   UNL A   1      31.948  23.900  22.411  1.00  0.00    -0.168 F 
ATOM     22  F   UNL A   1      34.028  23.310  22.685  1.00  0.00    -0.168 F 
ENDBRANCH   6  19
ENDBRANCH   4   6
ENDBRANCH   3   4
ENDBRANCH   2   3
ENDBRANCH   1   2
BRANCH   1  23
ATOM     23  O   UNL A   1      37.512  21.654  24.940  1.00  0.00    -0.458 OA
BRANCH  23  24
ATOM     24  C   UNL A   1      38.545  21.225  25.696  1.00  0.00     0.338 C 
ATOM     25  O   UNL A   1      39.048  20.113  25.711  1.00  0.00    -0.246 OA
BRANCH  24  26
ATOM     26  C   UNL A   1      39.112  22.347  26.451  1.00  0.00     0.060 A 
ATOM     27  C   UNL A   1      38.627  23.620  26.184  1.00  0.00     0.016 A 
ATOM     28  C   UNL A   1      40.260  22.181  27.218  1.00  0.00     0.016 A 
ATOM     29  C   UNL A   1      39.378  24.735  26.527  1.00  0.00     0.010 A 
ATOM     30  C   UNL A   1      40.923  23.312  27.707  1.00  0.00     0.010 A 
ATOM     31  C   UNL A   1      40.521  24.606  27.324  1.00  0.00    -0.014 A 
BRANCH  31  32
ATOM     32  C   UNL A   1      41.292  25.814  27.736  1.00  0.00     0.031 A 
ATOM     33  C   UNL A   1      40.645  26.880  28.583  1.00  0.00     0.074 A 
ATOM     34  C   UNL A   1      42.578  25.963  27.353  1.00  0.00     0.049 A 
ATOM     35  N   UNL A   1      41.058  28.096  28.842  1.00  0.00    -0.248 NA
ATOM     36  C   UNL A   1      39.354  26.542  29.204  1.00  0.00     0.031 C 
ATOM     37  C   UNL A   1      43.359  24.988  26.585  1.00  0.00     0.029 A 
ATOM     38  N   UNL A   1      43.459  26.997  27.554  1.00  0.00    -0.354 N 
ATOM     39  C   UNL A   1      40.051  28.686  29.598  1.00  0.00     0.074 A 
ATOM     40  C   UNL A   1      39.004  27.699  29.749  1.00  0.00     0.031 C 
ATOM     41  C   UNL A   1      44.605  25.448  26.417  1.00  0.00     0.029 A 
ATOM     42  C   UNL A   1      44.678  26.800  26.949  1.00  0.00     0.049 A 
ATOM     43  H   UNL A   1      43.240  27.801  28.079  1.00  0.00     0.167 HD
ATOM     44  C   UNL A   1      40.008  29.938  30.116  1.00  0.00     0.037 A 
ATOM     45  C   UNL A   1      45.721  27.632  26.776  1.00  0.00     0.037 A 
ATOM     46  C   UNL A   1      41.081  30.896  30.001  1.00  0.00     0.049 A 
ATOM     47  C   UNL A   1      45.622  29.036  27.295  1.00  0.00     0.074 A 
ATOM     48  C   UNL A   1      41.145  32.184  30.503  1.00  0.00     0.029 A 
ATOM     49  N   UNL A   1      42.282  30.663  29.347  1.00  0.00    -0.354 N 
ATOM     50  N   UNL A   1      44.645  29.605  27.960  1.00  0.00    -0.248 NA
ATOM     51  C   UNL A   1      46.761  29.921  27.023  1.00  0.00     0.031 C 
ATOM     52  C   UNL A   1      42.361  32.749  30.105  1.00  0.00     0.029 A 
ATOM     53  C   UNL A   1      43.083  31.791  29.411  1.00  0.00     0.049 A 
ATOM     54  H   UNL A   1      42.528  29.820  28.903  1.00  0.00     0.167 HD
ATOM     55  C   UNL A   1      45.062  30.905  28.207  1.00  0.00     0.074 A 
ATOM     56  C   UNL A   1      46.388  31.034  27.637  1.00  0.00     0.031 C 
ATOM     57  C   UNL A   1      44.404  31.903  28.846  1.00  0.00     0.037 A 
BRANCH  44  58
ATOM     58  C   UNL A   1      38.747  30.366  30.815  1.00  0.00     0.057 A 
ATOM     59  C   UNL A   1      37.690  30.995  30.146  1.00  0.00     0.134 A 
ATOM     60  C   UNL A   1      38.576  30.110  32.184  1.00  0.00     0.134 A 
ATOM     61  F   UNL A   1      37.787  31.281  28.838  1.00  0.00    -0.206 F 
ATOM     62  C   UNL A   1      36.524  31.379  30.814  1.00  0.00     0.040 A 
ATOM     63  C   UNL A   1      37.404  30.459  32.856  1.00  0.00     0.040 A 
ATOM     64  F   UNL A   1      39.543  29.501  32.888  1.00  0.00    -0.206 F 
ATOM     65  C   UNL A   1      36.377  31.103  32.172  1.00  0.00     0.006 A 
ENDBRANCH  44  58
BRANCH  45  66
ATOM     66  C   UNL A   1      46.920  27.178  26.023  1.00  0.00     0.057 A 
ATOM     67  C   UNL A   1      47.027  27.380  24.644  1.00  0.00     0.134 A 
ATOM     68  C   UNL A   1      47.987  26.533  26.664  1.00  0.00     0.134 A 
ATOM     69  F   UNL A   1      46.031  27.972  23.969  1.00  0.00    -0.206 F 
ATOM     70  C   UNL A   1      48.142  26.943  23.925  1.00  0.00     0.040 A 
ATOM     71  C   UNL A   1      49.123  26.124  25.966  1.00  0.00     0.040 A 
ATOM     72  F   UNL A   1      47.951  26.313  27.987  1.00  0.00    -0.206 F 
ATOM     73  C   UNL A   1      49.198  26.321  24.589  1.00  0.00     0.006 A 
ENDBRANCH  45  66
BRANCH  57  74
ATOM     74  C   UNL A   1      45.133  33.206  29.004  1.00  0.00     0.057 A 
ATOM     75  C   UNL A   1      45.986  33.455  30.085  1.00  0.00     0.134 A 
ATOM     76  C   UNL A   1      44.994  34.216  28.044  1.00  0.00     0.134 A 
ATOM     77  F   UNL A   1      46.149  32.535  31.049  1.00  0.00    -0.206 F 
ATOM     78  C   UNL A   1      46.652  34.673  30.223  1.00  0.00     0.040 A 
ATOM     79  C   UNL A   1      45.680  35.426  28.153  1.00  0.00     0.040 A 
ATOM     80  F   UNL A   1      44.197  34.040  26.979  1.00  0.00    -0.206 F 
ATOM     81  C   UNL A   1      46.505  35.660  29.250  1.00  0.00     0.006 A 
ENDBRANCH  57  74
ENDBRANCH  31  32
ENDBRANCH  24  26
ENDBRANCH  23  24
ENDBRANCH   1  23
TORSDOF 13
ENDMDL
MODEL 3
REMARK VINA RESULT:     -11.7      4.122      8.594
REMARK SMILES C=C1c2ccccc2C(=O)N1[C@](C)(C(=O)OCCOC(=O)c1ccc(-c2c3nc(c(-c4c(F)cccc4F)c4ccc([nH]4)c(-c4c(F)cccc4F)c4nc(c(-c5c(F)cccc5F)c5ccc2[nH]5)C=C4)C=C3)cc1)C(F)(F)F
REMARK SMILES IDX 18 1 17 2 16 3 14 4 15 5 12 6 13 7 11 8 1 9 2 10 3 11 4 12
REMARK SMILES IDX 8 13 9 14 5 15 7 16 10 17 6 18 76 19 77 20 78 21 79 22 19 23
REMARK SMILES IDX 20 24 21 25 22 26 23 27 75 28 24 29 74 30 25 31 26 32 27 33
REMARK SMILES IDX 68 34 28 35 73 36 67 37 69 38 29 39 72 40 66 41 65 42 30 44
REMARK SMILES IDX 56 45 39 46 55 47 40 48 43 49 54 50 70 51 41 52 42 53 53 55
REMARK SMILES IDX 71 56 44 57 31 58 32 59 37 60 33 61 34 62 36 63 38 64 35 65
REMARK SMILES IDX 57 66 58 67 63 68 59 69 60 70 62 71 64 72 61 73 45 74 46 75
REMARK SMILES IDX 51 76 47 77 48 78 50 79 52 80 49 81
REMARK H PARENT 69 43 43 54
REMARK Flexibility Score: inf
ROOT
ATOM      1  C   UNL A   1      31.773  29.976  26.524  1.00  0.00     0.275 C 
ENDROOT
BRANCH   1   2
ATOM      2  C   UNL A   1      31.771  28.583  27.150  1.00  0.00     0.274 C 
BRANCH   2   3
ATOM      3  O   UNL A   1      32.534  27.665  26.335  1.00  0.00    -0.460 OA
BRANCH   3   4
ATOM      4  C   UNL A   1      31.953  26.473  26.028  1.00  0.00     0.341 C 
ATOM      5  O   UNL A   1      31.426  25.745  26.866  1.00  0.00    -0.249 OA
BRANCH   4   6
ATOM      6  C   UNL A   1      32.117  26.080  24.553  1.00  0.00     0.238 C 
ATOM      7  C   UNL A   1      31.669  24.636  24.236  1.00  0.00     0.058 C 
BRANCH   6   8
ATOM      8  N   UNL A   1      31.263  27.069  23.834  1.00  0.00    -0.283 N 
ATOM      9  C   UNL A   1      32.777  28.724  22.752  1.00  0.00     0.038 C 
ATOM     10  C   UNL A   1      31.595  28.216  23.113  1.00  0.00     0.046 C 
ATOM     11  C   UNL A   1      30.332  28.876  22.756  1.00  0.00     0.010 A 
ATOM     12  C   UNL A   1      30.038  30.039  22.063  1.00  0.00     0.011 A 
ATOM     13  C   UNL A   1      29.293  28.106  23.266  1.00  0.00     0.049 A 
ATOM     14  C   UNL A   1      29.873  26.965  23.961  1.00  0.00     0.260 C 
ATOM     15  C   UNL A   1      28.692  30.396  21.895  1.00  0.00     0.001 A 
ATOM     16  C   UNL A   1      27.957  28.434  23.124  1.00  0.00     0.014 A 
ATOM     17  O   UNL A   1      29.216  26.132  24.565  1.00  0.00    -0.269 OA
ATOM     18  C   UNL A   1      27.660  29.599  22.422  1.00  0.00     0.001 A 
ENDBRANCH   6   8
BRANCH   6  19
ATOM     19  C   UNL A   1      33.623  26.109  24.304  1.00  0.00     0.422 C 
ATOM     20  F   UNL A   1      34.276  25.189  25.055  1.00  0.00    -0.168 F 
ATOM     21  F   UNL A   1      33.917  25.801  23.014  1.00  0.00    -0.168 F 
ATOM     22  F   UNL A   1      34.206  27.299  24.569  1.00  0.00    -0.168 F 
ENDBRANCH   6  19
ENDBRANCH   4   6
ENDBRANCH   3   4
ENDBRANCH   2   3
ENDBRANCH   1   2
BRANCH   1  23
ATOM     23  O   UNL A   1      33.129  30.413  26.320  1.00  0.00    -0.458 OA
BRANCH  23  24
ATOM     24  C   UNL A   1      33.538  31.373  27.178  1.00  0.00     0.338 C 
ATOM     25  O   UNL A   1      32.885  32.301  27.626  1.00  0.00    -0.246 OA
BRANCH  24  26
ATOM     26  C   UNL A   1      34.900  31.084  27.638  1.00  0.00     0.060 A 
ATOM     27  C   UNL A   1      35.200  29.777  27.999  1.00  0.00     0.016 A 
ATOM     28  C   UNL A   1      35.782  32.115  27.941  1.00  0.00     0.016 A 
ATOM     29  C   UNL A   1      36.289  29.517  28.819  1.00  0.00     0.010 A 
ATOM     30  C   UNL A   1      36.968  31.819  28.623  1.00  0.00     0.010 A 
ATOM     31  C   UNL A   1      37.213  30.524  29.117  1.00  0.00    -0.014 A 
BRANCH  31  32
ATOM     32  C   UNL A   1      38.412  30.223  29.951  1.00  0.00     0.031 A 
ATOM     33  C   UNL A   1      39.511  29.340  29.418  1.00  0.00     0.074 A 
ATOM     34  C   UNL A   1      38.523  30.741  31.193  1.00  0.00     0.049 A 
ATOM     35  N   UNL A   1      40.502  28.772  30.059  1.00  0.00    -0.248 NA
ATOM     36  C   UNL A   1      39.480  29.038  27.977  1.00  0.00     0.031 C 
ATOM     37  C   UNL A   1      37.572  31.661  31.823  1.00  0.00     0.029 A 
ATOM     38  N   UNL A   1      39.486  30.563  32.156  1.00  0.00    -0.354 N 
ATOM     39  C   UNL A   1      41.170  27.998  29.117  1.00  0.00     0.074 A 
ATOM     40  C   UNL A   1      40.468  28.161  27.863  1.00  0.00     0.031 C 
ATOM     41  C   UNL A   1      38.016  31.998  33.041  1.00  0.00     0.029 A 
ATOM     42  C   UNL A   1      39.212  31.221  33.331  1.00  0.00     0.049 A 
ATOM     43  H   UNL A   1      40.294  30.016  32.018  1.00  0.00     0.167 HD
ATOM     44  C   UNL A   1      42.268  27.222  29.288  1.00  0.00     0.037 A 
ATOM     45  C   UNL A   1      39.809  31.162  34.535  1.00  0.00     0.037 A 
ATOM     46  C   UNL A   1      42.990  27.108  30.532  1.00  0.00     0.049 A 
ATOM     47  C   UNL A   1      40.979  30.242  34.719  1.00  0.00     0.074 A 
ATOM     48  C   UNL A   1      44.123  26.362  30.807  1.00  0.00     0.029 A 
ATOM     49  N   UNL A   1      42.651  27.766  31.705  1.00  0.00    -0.354 N 
ATOM     50  N   UNL A   1      41.571  29.471  33.839  1.00  0.00    -0.248 NA
ATOM     51  C   UNL A   1      41.552  30.167  36.069  1.00  0.00     0.031 C 
ATOM     52  C   UNL A   1      44.438  26.527  32.160  1.00  0.00     0.029 A 
ATOM     53  C   UNL A   1      43.540  27.425  32.712  1.00  0.00     0.049 A 
ATOM     54  H   UNL A   1      41.892  28.384  31.806  1.00  0.00     0.167 HD
ATOM     55  C   UNL A   1      42.601  28.839  34.521  1.00  0.00     0.074 A 
ATOM     56  C   UNL A   1      42.564  29.332  35.884  1.00  0.00     0.031 C 
ATOM     57  C   UNL A   1      43.495  27.930  34.061  1.00  0.00     0.037 A 
BRANCH  44  58
ATOM     58  C   UNL A   1      42.736  26.399  28.119  1.00  0.00     0.057 A 
ATOM     59  C   UNL A   1      43.703  26.857  27.213  1.00  0.00     0.134 A 
ATOM     60  C   UNL A   1      42.233  25.106  27.917  1.00  0.00     0.134 A 
ATOM     61  F   UNL A   1      44.222  28.088  27.338  1.00  0.00    -0.206 F 
ATOM     62  C   UNL A   1      44.128  26.074  26.137  1.00  0.00     0.040 A 
ATOM     63  C   UNL A   1      42.672  24.302  26.865  1.00  0.00     0.040 A 
ATOM     64  F   UNL A   1      41.312  24.597  28.750  1.00  0.00    -0.206 F 
ATOM     65  C   UNL A   1      43.617  24.788  25.966  1.00  0.00     0.006 A 
ENDBRANCH  44  58
BRANCH  45  66
ATOM     66  C   UNL A   1      39.268  31.950  35.674  1.00  0.00     0.057 A 
ATOM     67  C   UNL A   1      39.701  33.256  35.919  1.00  0.00     0.134 A 
ATOM     68  C   UNL A   1      38.305  31.418  36.542  1.00  0.00     0.134 A 
ATOM     69  F   UNL A   1      40.636  33.816  35.137  1.00  0.00    -0.206 F 
ATOM     70  C   UNL A   1      39.211  34.000  36.995  1.00  0.00     0.040 A 
ATOM     71  C   UNL A   1      37.779  32.161  37.599  1.00  0.00     0.040 A 
ATOM     72  F   UNL A   1      37.841  30.172  36.360  1.00  0.00    -0.206 F 
ATOM     73  C   UNL A   1      38.240  33.454  37.833  1.00  0.00     0.006 A 
ENDBRANCH  45  66
BRANCH  57  74
ATOM     74  C   UNL A   1      44.536  27.450  35.031  1.00  0.00     0.057 A 
ATOM     75  C   UNL A   1      44.354  26.300  35.809  1.00  0.00     0.134 A 
ATOM     76  C   UNL A   1      45.748  28.138  35.167  1.00  0.00     0.134 A 
ATOM     77  F   UNL A   1      43.208  25.605  35.738  1.00  0.00    -0.206 F 
ATOM     78  C   UNL A   1      45.327  25.869  36.711  1.00  0.00     0.040 A 
ATOM     79  C   UNL A   1      46.742  27.699  36.041  1.00  0.00     0.040 A 
ATOM     80  F   UNL A   1      45.990  29.243  34.446  1.00  0.00    -0.206 F 
ATOM     81  C   UNL A   1      46.530  26.565  36.823  1.00  0.00     0.006 A 
ENDBRANCH  57  74
ENDBRANCH  31  32
ENDBRANCH  24  26
ENDBRANCH  23  24
ENDBRANCH   1  23
TORSDOF 13
ENDMDL
