MODEL 1
REMARK VINA RESULT:     -10.8      0.000      0.000
REMARK SMILES CCCc1cc(N2CCC(C(=O)OCCOC(=O)c3ccc(-c4c5nc(c(-c6c(F)cccc6F)c6ccc([nH]6)c(-c6c(F)cccc6F)c6nc(c(-c7c(F)cccc7F)c7ccc4[nH]7)C=C6)C=C5)cc3)CC2)nc(CC)n1
REMARK SMILES IDX 14 1 13 2 11 3 12 4 10 5 7 6 8 7 74 8 9 9 73 10 6 11 4 12
REMARK SMILES IDX 5 13 79 14 76 15 75 16 3 17 2 18 1 19 77 20 78 21 15 22
REMARK SMILES IDX 16 23 17 24 18 25 19 26 20 27 72 28 21 29 71 30 22 31 23 32
REMARK SMILES IDX 24 33 65 34 25 35 70 36 64 37 66 38 26 39 69 40 63 41 62 42
REMARK SMILES IDX 27 44 53 45 36 46 52 47 37 48 40 49 51 50 67 51 38 52 39 53
REMARK SMILES IDX 50 55 68 56 41 57 28 58 29 59 34 60 30 61 31 62 33 63 35 64
REMARK SMILES IDX 32 65 54 66 55 67 60 68 56 69 57 70 59 71 61 72 58 73 42 74
REMARK SMILES IDX 43 75 48 76 44 77 45 78 47 79 49 80 46 81
REMARK H PARENT 66 43 40 54
REMARK Flexibility Score: inf
ROOT
ATOM      1  C   UNL A   1      31.580  30.714  26.151  1.00  0.00     0.274 C 
ENDROOT
BRANCH   1   2
ATOM      2  O   UNL A   1      32.316  29.742  26.917  1.00  0.00    -0.462 OA
BRANCH   2   3
ATOM      3  C   UNL A   1      31.799  28.491  26.955  1.00  0.00     0.309 C 
ATOM      4  O   UNL A   1      31.198  28.009  27.908  1.00  0.00    -0.252 OA
BRANCH   3   5
ATOM      5  C   UNL A   1      31.979  27.729  25.659  1.00  0.00     0.103 C 
ATOM      6  N   UNL A   1      32.598  25.686  23.780  1.00  0.00    -0.356 N 
ATOM      7  C   UNL A   1      33.423  26.894  23.801  1.00  0.00     0.119 C 
ATOM      8  C   UNL A   1      31.234  25.782  24.296  1.00  0.00     0.119 C 
ATOM      9  C   UNL A   1      33.422  27.536  25.187  1.00  0.00     0.037 C 
ATOM     10  C   UNL A   1      31.252  26.386  25.701  1.00  0.00     0.037 C 
BRANCH   6  11
ATOM     11  C   UNL A   1      33.240  24.459  23.887  1.00  0.00     0.132 A 
ATOM     12  C   UNL A   1      33.152  22.100  24.066  1.00  0.00     0.046 A 
ATOM     13  C   UNL A   1      32.485  23.304  23.981  1.00  0.00     0.070 A 
ATOM     14  N   UNL A   1      34.494  22.036  24.052  1.00  0.00    -0.238 NA
ATOM     15  C   UNL A   1      35.159  23.204  23.984  1.00  0.00     0.130 A 
ATOM     16  N   UNL A   1      34.580  24.413  23.881  1.00  0.00    -0.216 NA
BRANCH  12  17
ATOM     17  C   UNL A   1      32.354  20.820  24.130  1.00  0.00     0.056 C 
BRANCH  17  18
ATOM     18  C   UNL A   1      33.140  19.555  24.484  1.00  0.00     0.003 C 
ATOM     19  C   UNL A   1      32.697  18.331  23.695  1.00  0.00     0.004 C 
ENDBRANCH  17  18
ENDBRANCH  12  17
BRANCH  15  20
ATOM     20  C   UNL A   1      36.660  23.154  24.061  1.00  0.00     0.074 C 
ATOM     21  C   UNL A   1      37.169  23.707  25.385  1.00  0.00     0.012 C 
ENDBRANCH  15  20
ENDBRANCH   6  11
ENDBRANCH   3   5
ENDBRANCH   2   3
ENDBRANCH   1   2
BRANCH   1  22
ATOM     22  C   UNL A   1      31.457  32.033  26.917  1.00  0.00     0.275 C 
BRANCH  22  23
ATOM     23  O   UNL A   1      32.610  32.875  26.716  1.00  0.00    -0.458 OA
BRANCH  23  24
ATOM     24  C   UNL A   1      32.982  33.612  27.789  1.00  0.00     0.338 C 
ATOM     25  O   UNL A   1      32.380  34.535  28.307  1.00  0.00    -0.246 OA
BRANCH  24  26
ATOM     26  C   UNL A   1      34.226  33.067  28.348  1.00  0.00     0.060 A 
ATOM     27  C   UNL A   1      34.174  31.829  28.991  1.00  0.00     0.016 A 
ATOM     28  C   UNL A   1      35.410  33.802  28.324  1.00  0.00     0.016 A 
ATOM     29  C   UNL A   1      35.301  31.317  29.622  1.00  0.00     0.010 A 
ATOM     30  C   UNL A   1      36.550  33.282  28.946  1.00  0.00     0.010 A 
ATOM     31  C   UNL A   1      36.499  32.039  29.604  1.00  0.00    -0.014 A 
BRANCH  31  32
ATOM     32  C   UNL A   1      37.697  31.499  30.288  1.00  0.00     0.031 A 
ATOM     33  C   UNL A   1      38.581  30.513  29.588  1.00  0.00     0.074 A 
ATOM     34  C   UNL A   1      37.988  31.904  31.539  1.00  0.00     0.049 A 
ATOM     35  N   UNL A   1      39.593  29.829  30.059  1.00  0.00    -0.248 NA
ATOM     36  C   UNL A   1      38.290  30.259  28.168  1.00  0.00     0.031 C 
ATOM     37  C   UNL A   1      37.234  32.899  32.302  1.00  0.00     0.029 A 
ATOM     38  N   UNL A   1      38.991  31.516  32.391  1.00  0.00    -0.354 N 
ATOM     39  C   UNL A   1      40.043  29.046  29.005  1.00  0.00     0.074 A 
ATOM     40  C   UNL A   1      39.191  29.334  27.869  1.00  0.00     0.031 C 
ATOM     41  C   UNL A   1      37.797  33.039  33.513  1.00  0.00     0.029 A 
ATOM     42  C   UNL A   1      38.914  32.107  33.627  1.00  0.00     0.049 A 
ATOM     43  H   UNL A   1      39.697  30.878  32.139  1.00  0.00     0.167 HD
ATOM     44  C   UNL A   1      41.073  28.168  28.989  1.00  0.00     0.037 A 
ATOM     45  C   UNL A   1      39.638  31.890  34.742  1.00  0.00     0.037 A 
ATOM     46  C   UNL A   1      41.928  27.901  30.116  1.00  0.00     0.049 A 
ATOM     47  C   UNL A   1      40.729  30.857  34.720  1.00  0.00     0.074 A 
ATOM     48  C   UNL A   1      43.012  27.044  30.193  1.00  0.00     0.029 A 
ATOM     49  N   UNL A   1      41.794  28.490  31.364  1.00  0.00    -0.354 N 
ATOM     50  N   UNL A   1      41.137  30.108  33.724  1.00  0.00    -0.248 NA
ATOM     51  C   UNL A   1      41.447  30.625  35.981  1.00  0.00     0.031 C 
ATOM     52  C   UNL A   1      43.511  27.086  31.500  1.00  0.00     0.029 A 
ATOM     53  C   UNL A   1      42.760  27.996  32.226  1.00  0.00     0.049 A 
ATOM     54  H   UNL A   1      41.112  29.159  31.603  1.00  0.00     0.167 HD
ATOM     55  C   UNL A   1      42.164  29.326  34.233  1.00  0.00     0.074 A 
ATOM     56  C   UNL A   1      42.327  29.701  35.623  1.00  0.00     0.031 C 
ATOM     57  C   UNL A   1      42.904  28.380  33.606  1.00  0.00     0.037 A 
BRANCH  44  58
ATOM     58  C   UNL A   1      41.313  27.407  27.721  1.00  0.00     0.057 A 
ATOM     59  C   UNL A   1      42.185  27.873  26.731  1.00  0.00     0.134 A 
ATOM     60  C   UNL A   1      40.686  26.173  27.505  1.00  0.00     0.134 A 
ATOM     61  F   UNL A   1      42.804  29.054  26.873  1.00  0.00    -0.206 F 
ATOM     62  C   UNL A   1      42.415  27.145  25.561  1.00  0.00     0.040 A 
ATOM     63  C   UNL A   1      40.923  25.428  26.349  1.00  0.00     0.040 A 
ATOM     64  F   UNL A   1      39.841  25.669  28.417  1.00  0.00    -0.206 F 
ATOM     65  C   UNL A   1      41.786  25.916  25.371  1.00  0.00     0.006 A 
ENDBRANCH  44  58
BRANCH  45  66
ATOM     66  C   UNL A   1      39.324  32.638  35.982  1.00  0.00     0.057 A 
ATOM     67  C   UNL A   1      39.873  33.900  36.226  1.00  0.00     0.134 A 
ATOM     68  C   UNL A   1      38.463  32.108  36.953  1.00  0.00     0.134 A 
ATOM     69  F   UNL A   1      40.722  34.448  35.344  1.00  0.00    -0.206 F 
ATOM     70  C   UNL A   1      39.586  34.608  37.394  1.00  0.00     0.040 A 
ATOM     71  C   UNL A   1      38.150  32.813  38.114  1.00  0.00     0.040 A 
ATOM     72  F   UNL A   1      37.906  30.901  36.776  1.00  0.00    -0.206 F 
ATOM     73  C   UNL A   1      38.715  34.066  38.339  1.00  0.00     0.006 A 
ENDBRANCH  45  66
BRANCH  57  74
ATOM     74  C   UNL A   1      43.965  27.698  34.415  1.00  0.00     0.057 A 
ATOM     75  C   UNL A   1      45.270  28.200  34.482  1.00  0.00     0.134 A 
ATOM     76  C   UNL A   1      43.668  26.554  35.165  1.00  0.00     0.134 A 
ATOM     77  F   UNL A   1      45.618  29.285  33.773  1.00  0.00    -0.206 F 
ATOM     78  C   UNL A   1      46.248  27.579  35.259  1.00  0.00     0.040 A 
ATOM     79  C   UNL A   1      44.633  25.936  35.960  1.00  0.00     0.040 A 
ATOM     80  F   UNL A   1      42.434  26.028  35.145  1.00  0.00    -0.206 F 
ATOM     81  C   UNL A   1      45.929  26.446  36.007  1.00  0.00     0.006 A 
ENDBRANCH  57  74
ENDBRANCH  31  32
ENDBRANCH  24  26
ENDBRANCH  23  24
ENDBRANCH  22  23
ENDBRANCH   1  22
TORSDOF 15
ENDMDL
MODEL 2
REMARK VINA RESULT:     -10.7      4.189      9.912
REMARK SMILES CCCc1cc(N2CCC(C(=O)OCCOC(=O)c3ccc(-c4c5nc(c(-c6c(F)cccc6F)c6ccc([nH]6)c(-c6c(F)cccc6F)c6nc(c(-c7c(F)cccc7F)c7ccc4[nH]7)C=C6)C=C5)cc3)CC2)nc(CC)n1
REMARK SMILES IDX 14 1 13 2 11 3 12 4 10 5 7 6 8 7 74 8 9 9 73 10 6 11 4 12
REMARK SMILES IDX 5 13 79 14 76 15 75 16 3 17 2 18 1 19 77 20 78 21 15 22
REMARK SMILES IDX 16 23 17 24 18 25 19 26 20 27 72 28 21 29 71 30 22 31 23 32
REMARK SMILES IDX 24 33 65 34 25 35 70 36 64 37 66 38 26 39 69 40 63 41 62 42
REMARK SMILES IDX 27 44 53 45 36 46 52 47 37 48 40 49 51 50 67 51 38 52 39 53
REMARK SMILES IDX 50 55 68 56 41 57 28 58 29 59 34 60 30 61 31 62 33 63 35 64
REMARK SMILES IDX 32 65 54 66 55 67 60 68 56 69 57 70 59 71 61 72 58 73 42 74
REMARK SMILES IDX 43 75 48 76 44 77 45 78 47 79 49 80 46 81
REMARK H PARENT 66 43 40 54
REMARK Flexibility Score: inf
ROOT
ATOM      1  C   UNL A   1      33.634  34.413  28.328  1.00  0.00     0.274 C 
ENDROOT
BRANCH   1   2
ATOM      2  O   UNL A   1      32.795  34.612  29.482  1.00  0.00    -0.462 OA
BRANCH   2   3
ATOM      3  C   UNL A   1      33.154  35.615  30.318  1.00  0.00     0.309 C 
ATOM      4  O   UNL A   1      33.200  36.802  30.011  1.00  0.00    -0.252 OA
BRANCH   3   5
ATOM      5  C   UNL A   1      33.447  35.145  31.727  1.00  0.00     0.103 C 
ATOM      6  N   UNL A   1      34.818  34.367  34.094  1.00  0.00    -0.356 N 
ATOM      7  C   UNL A   1      34.085  33.350  33.340  1.00  0.00     0.119 C 
ATOM      8  C   UNL A   1      34.401  35.759  33.945  1.00  0.00     0.119 C 
ATOM      9  C   UNL A   1      33.992  33.722  31.862  1.00  0.00     0.037 C 
ATOM     10  C   UNL A   1      34.354  36.131  32.462  1.00  0.00     0.037 C 
BRANCH   6  11
ATOM     11  C   UNL A   1      36.154  34.125  34.381  1.00  0.00     0.132 A 
ATOM     12  C   UNL A   1      38.428  34.095  33.723  1.00  0.00     0.046 A 
ATOM     13  C   UNL A   1      37.107  34.324  33.399  1.00  0.00     0.070 A 
ATOM     14  N   UNL A   1      38.793  33.697  34.953  1.00  0.00    -0.238 NA
ATOM     15  C   UNL A   1      37.807  33.501  35.847  1.00  0.00     0.130 A 
ATOM     16  N   UNL A   1      36.501  33.720  35.612  1.00  0.00    -0.216 NA
BRANCH  12  17
ATOM     17  C   UNL A   1      39.493  34.341  32.682  1.00  0.00     0.056 C 
BRANCH  17  18
ATOM     18  C   UNL A   1      38.992  34.621  31.262  1.00  0.00     0.003 C 
ATOM     19  C   UNL A   1      39.758  33.853  30.192  1.00  0.00     0.004 C 
ENDBRANCH  17  18
ENDBRANCH  12  17
BRANCH  15  20
ATOM     20  C   UNL A   1      38.191  32.967  37.199  1.00  0.00     0.074 C 
ATOM     21  C   UNL A   1      38.595  34.087  38.147  1.00  0.00     0.012 C 
ENDBRANCH  15  20
ENDBRANCH   6  11
ENDBRANCH   3   5
ENDBRANCH   2   3
ENDBRANCH   1   2
BRANCH   1  22
ATOM     22  C   UNL A   1      34.675  33.324  28.592  1.00  0.00     0.275 C 
BRANCH  22  23
ATOM     23  O   UNL A   1      34.789  32.414  27.479  1.00  0.00    -0.458 OA
BRANCH  23  24
ATOM     24  C   UNL A   1      34.545  31.114  27.767  1.00  0.00     0.338 C 
ATOM     25  O   UNL A   1      33.506  30.498  27.617  1.00  0.00    -0.246 OA
BRANCH  24  26
ATOM     26  C   UNL A   1      35.788  30.472  28.216  1.00  0.00     0.060 A 
ATOM     27  C   UNL A   1      35.776  29.796  29.438  1.00  0.00     0.016 A 
ATOM     28  C   UNL A   1      36.972  30.609  27.495  1.00  0.00     0.016 A 
ATOM     29  C   UNL A   1      36.949  29.258  29.953  1.00  0.00     0.010 A 
ATOM     30  C   UNL A   1      38.151  30.055  28.005  1.00  0.00     0.010 A 
ATOM     31  C   UNL A   1      38.146  29.381  29.241  1.00  0.00    -0.014 A 
BRANCH  31  32
ATOM     32  C   UNL A   1      39.398  28.819  29.797  1.00  0.00     0.031 A 
ATOM     33  C   UNL A   1      40.021  29.431  31.015  1.00  0.00     0.074 A 
ATOM     34  C   UNL A   1      39.968  27.752  29.206  1.00  0.00     0.049 A 
ATOM     35  N   UNL A   1      41.175  29.170  31.573  1.00  0.00    -0.248 NA
ATOM     36  C   UNL A   1      39.243  30.478  31.696  1.00  0.00     0.031 C 
ATOM     37  C   UNL A   1      39.428  27.037  28.050  1.00  0.00     0.029 A 
ATOM     38  N   UNL A   1      41.137  27.093  29.493  1.00  0.00    -0.354 N 
ATOM     39  C   UNL A   1      41.276  30.035  32.654  1.00  0.00     0.074 A 
ATOM     40  C   UNL A   1      40.068  30.835  32.671  1.00  0.00     0.031 C 
ATOM     41  C   UNL A   1      40.266  26.041  27.720  1.00  0.00     0.029 A 
ATOM     42  C   UNL A   1      41.425  26.084  28.606  1.00  0.00     0.049 A 
ATOM     43  H   UNL A   1      41.712  27.320  30.259  1.00  0.00     0.167 HD
ATOM     44  C   UNL A   1      42.286  30.150  33.548  1.00  0.00     0.037 A 
ATOM     45  C   UNL A   1      42.521  25.310  28.496  1.00  0.00     0.037 A 
ATOM     46  C   UNL A   1      43.475  29.339  33.537  1.00  0.00     0.049 A 
ATOM     47  C   UNL A   1      43.659  25.507  29.456  1.00  0.00     0.074 A 
ATOM     48  C   UNL A   1      44.546  29.365  34.413  1.00  0.00     0.029 A 
ATOM     49  N   UNL A   1      43.749  28.355  32.599  1.00  0.00    -0.354 N 
ATOM     50  N   UNL A   1      43.755  26.339  30.464  1.00  0.00    -0.248 NA
ATOM     51  C   UNL A   1      44.851  24.670  29.251  1.00  0.00     0.031 C 
ATOM     52  C   UNL A   1      45.486  28.422  33.983  1.00  0.00     0.029 A 
ATOM     53  C   UNL A   1      44.984  27.784  32.861  1.00  0.00     0.049 A 
ATOM     54  H   UNL A   1      43.154  28.101  31.857  1.00  0.00     0.167 HD
ATOM     55  C   UNL A   1      45.006  26.120  31.021  1.00  0.00     0.074 A 
ATOM     56  C   UNL A   1      45.631  25.066  30.247  1.00  0.00     0.031 C 
ATOM     57  C   UNL A   1      45.589  26.739  32.077  1.00  0.00     0.037 A 
BRANCH  44  58
ATOM     58  C   UNL A   1      42.163  31.213  34.597  1.00  0.00     0.057 A 
ATOM     59  C   UNL A   1      41.719  30.927  35.892  1.00  0.00     0.134 A 
ATOM     60  C   UNL A   1      42.526  32.536  34.312  1.00  0.00     0.134 A 
ATOM     61  F   UNL A   1      41.343  29.683  36.223  1.00  0.00    -0.206 F 
ATOM     62  C   UNL A   1      41.626  31.924  36.867  1.00  0.00     0.040 A 
ATOM     63  C   UNL A   1      42.455  33.536  35.283  1.00  0.00     0.040 A 
ATOM     64  F   UNL A   1      42.962  32.874  33.089  1.00  0.00    -0.206 F 
ATOM     65  C   UNL A   1      42.000  33.232  36.564  1.00  0.00     0.006 A 
ENDBRANCH  44  58
BRANCH  45  66
ATOM     66  C   UNL A   1      42.608  24.307  27.408  1.00  0.00     0.057 A 
ATOM     67  C   UNL A   1      42.173  22.992  27.598  1.00  0.00     0.134 A 
ATOM     68  C   UNL A   1      43.127  24.642  26.150  1.00  0.00     0.134 A 
ATOM     69  F   UNL A   1      41.689  22.608  28.788  1.00  0.00    -0.206 F 
ATOM     70  C   UNL A   1      42.257  22.041  26.580  1.00  0.00     0.040 A 
ATOM     71  C   UNL A   1      43.196  23.708  25.117  1.00  0.00     0.040 A 
ATOM     72  F   UNL A   1      43.561  25.887  25.907  1.00  0.00    -0.206 F 
ATOM     73  C   UNL A   1      42.764  22.401  25.332  1.00  0.00     0.006 A 
ENDBRANCH  45  66
BRANCH  57  74
ATOM     74  C   UNL A   1      46.962  26.279  32.463  1.00  0.00     0.057 A 
ATOM     75  C   UNL A   1      48.111  26.897  31.956  1.00  0.00     0.134 A 
ATOM     76  C   UNL A   1      47.134  25.238  33.383  1.00  0.00     0.134 A 
ATOM     77  F   UNL A   1      48.009  27.890  31.060  1.00  0.00    -0.206 F 
ATOM     78  C   UNL A   1      49.387  26.485  32.340  1.00  0.00     0.040 A 
ATOM     79  C   UNL A   1      48.405  24.830  33.789  1.00  0.00     0.040 A 
ATOM     80  F   UNL A   1      46.071  24.610  33.909  1.00  0.00    -0.206 F 
ATOM     81  C   UNL A   1      49.537  25.453  33.265  1.00  0.00     0.006 A 
ENDBRANCH  57  74
ENDBRANCH  31  32
ENDBRANCH  24  26
ENDBRANCH  23  24
ENDBRANCH  22  23
ENDBRANCH   1  22
TORSDOF 15
ENDMDL
MODEL 3
REMARK VINA RESULT:     -10.6      4.341      7.944
REMARK SMILES CCCc1cc(N2CCC(C(=O)OCCOC(=O)c3ccc(-c4c5nc(c(-c6c(F)cccc6F)c6ccc([nH]6)c(-c6c(F)cccc6F)c6nc(c(-c7c(F)cccc7F)c7ccc4[nH]7)C=C6)C=C5)cc3)CC2)nc(CC)n1
REMARK SMILES IDX 14 1 13 2 11 3 12 4 10 5 7 6 8 7 74 8 9 9 73 10 6 11 4 12
REMARK SMILES IDX 5 13 79 14 76 15 75 16 3 17 2 18 1 19 77 20 78 21 15 22
REMARK SMILES IDX 16 23 17 24 18 25 19 26 20 27 72 28 21 29 71 30 22 31 23 32
REMARK SMILES IDX 24 33 65 34 25 35 70 36 64 37 66 38 26 39 69 40 63 41 62 42
REMARK SMILES IDX 27 44 53 45 36 46 52 47 37 48 40 49 51 50 67 51 38 52 39 53
REMARK SMILES IDX 50 55 68 56 41 57 28 58 29 59 34 60 30 61 31 62 33 63 35 64
REMARK SMILES IDX 32 65 54 66 55 67 60 68 56 69 57 70 59 71 61 72 58 73 42 74
REMARK SMILES IDX 43 75 48 76 44 77 45 78 47 79 49 80 46 81
REMARK H PARENT 66 43 40 54
REMARK Flexibility Score: inf
ROOT
ATOM      1  C   UNL A   1      32.970  30.740  26.803  1.00  0.00     0.274 C 
ENDROOT
BRANCH   1   2
ATOM      2  O   UNL A   1      33.354  29.402  26.436  1.00  0.00    -0.462 OA
BRANCH   2   3
ATOM      3  C   UNL A   1      32.437  28.430  26.663  1.00  0.00     0.309 C 
ATOM      4  O   UNL A   1      31.555  28.483  27.514  1.00  0.00    -0.252 OA
BRANCH   3   5
ATOM      5  C   UNL A   1      32.555  27.261  25.709  1.00  0.00     0.103 C 
ATOM      6  N   UNL A   1      33.325  24.786  24.538  1.00  0.00    -0.356 N 
ATOM      7  C   UNL A   1      33.764  26.029  23.906  1.00  0.00     0.119 C 
ATOM      8  C   UNL A   1      32.123  24.831  25.369  1.00  0.00     0.119 C 
ATOM      9  C   UNL A   1      33.866  27.159  24.927  1.00  0.00     0.037 C 
ATOM     10  C   UNL A   1      32.257  25.939  26.416  1.00  0.00     0.037 C 
BRANCH   6  11
ATOM     11  C   UNL A   1      34.292  23.843  24.861  1.00  0.00     0.132 A 
ATOM     12  C   UNL A   1      34.993  21.588  25.024  1.00  0.00     0.046 A 
ATOM     13  C   UNL A   1      34.004  22.498  24.716  1.00  0.00     0.070 A 
ATOM     14  N   UNL A   1      36.206  21.981  25.447  1.00  0.00    -0.238 NA
ATOM     15  C   UNL A   1      36.401  23.305  25.587  1.00  0.00     0.130 A 
ATOM     16  N   UNL A   1      35.495  24.252  25.290  1.00  0.00    -0.216 NA
BRANCH  12  17
ATOM     17  C   UNL A   1      34.720  20.114  24.838  1.00  0.00     0.056 C 
BRANCH  17  18
ATOM     18  C   UNL A   1      33.247  19.695  24.868  1.00  0.00     0.003 C 
ATOM     19  C   UNL A   1      33.034  18.222  24.548  1.00  0.00     0.004 C 
ENDBRANCH  17  18
ENDBRANCH  12  17
BRANCH  15  20
ATOM     20  C   UNL A   1      37.722  23.756  26.148  1.00  0.00     0.074 C 
ATOM     21  C   UNL A   1      38.730  22.617  26.187  1.00  0.00     0.012 C 
ENDBRANCH  15  20
ENDBRANCH   6  11
ENDBRANCH   3   5
ENDBRANCH   2   3
ENDBRANCH   1   2
BRANCH   1  22
ATOM     22  C   UNL A   1      33.885  31.287  27.900  1.00  0.00     0.275 C 
BRANCH  22  23
ATOM     23  O   UNL A   1      34.992  30.402  28.162  1.00  0.00    -0.458 OA
BRANCH  23  24
ATOM     24  C   UNL A   1      35.789  30.762  29.195  1.00  0.00     0.338 C 
ATOM     25  O   UNL A   1      35.486  31.399  30.187  1.00  0.00    -0.246 OA
BRANCH  24  26
ATOM     26  C   UNL A   1      37.122  30.170  29.012  1.00  0.00     0.060 A 
ATOM     27  C   UNL A   1      37.873  29.873  30.151  1.00  0.00     0.016 A 
ATOM     28  C   UNL A   1      37.666  29.998  27.740  1.00  0.00     0.016 A 
ATOM     29  C   UNL A   1      39.176  29.405  30.030  1.00  0.00     0.010 A 
ATOM     30  C   UNL A   1      38.972  29.513  27.617  1.00  0.00     0.010 A 
ATOM     31  C   UNL A   1      39.737  29.221  28.761  1.00  0.00    -0.014 A 
BRANCH  31  32
ATOM     32  C   UNL A   1      41.130  28.735  28.634  1.00  0.00     0.031 A 
ATOM     33  C   UNL A   1      42.275  29.691  28.785  1.00  0.00     0.074 A 
ATOM     34  C   UNL A   1      41.361  27.432  28.387  1.00  0.00     0.049 A 
ATOM     35  N   UNL A   1      43.552  29.489  28.579  1.00  0.00    -0.248 NA
ATOM     36  C   UNL A   1      41.941  31.054  29.224  1.00  0.00     0.031 C 
ATOM     37  C   UNL A   1      40.332  26.398  28.274  1.00  0.00     0.029 A 
ATOM     38  N   UNL A   1      42.538  26.759  28.175  1.00  0.00    -0.354 N 
ATOM     39  C   UNL A   1      44.171  30.704  28.838  1.00  0.00     0.074 A 
ATOM     40  C   UNL A   1      43.130  31.641  29.210  1.00  0.00     0.031 C 
ATOM     41  C   UNL A   1      40.921  25.222  28.007  1.00  0.00     0.029 A 
ATOM     42  C   UNL A   1      42.360  25.431  27.877  1.00  0.00     0.049 A 
ATOM     43  H   UNL A   1      43.422  27.187  28.233  1.00  0.00     0.167 HD
ATOM     44  C   UNL A   1      45.489  31.008  28.770  1.00  0.00     0.037 A 
ATOM     45  C   UNL A   1      43.253  24.497  27.499  1.00  0.00     0.037 A 
ATOM     46  C   UNL A   1      46.521  30.068  28.418  1.00  0.00     0.049 A 
ATOM     47  C   UNL A   1      44.700  24.878  27.360  1.00  0.00     0.074 A 
ATOM     48  C   UNL A   1      47.887  30.274  28.343  1.00  0.00     0.029 A 
ATOM     49  N   UNL A   1      46.297  28.741  28.083  1.00  0.00    -0.354 N 
ATOM     50  N   UNL A   1      45.275  26.033  27.589  1.00  0.00    -0.248 NA
ATOM     51  C   UNL A   1      45.618  23.830  26.891  1.00  0.00     0.031 C 
ATOM     52  C   UNL A   1      48.487  29.081  27.925  1.00  0.00     0.029 A 
ATOM     53  C   UNL A   1      47.498  28.123  27.776  1.00  0.00     0.049 A 
ATOM     54  H   UNL A   1      45.415  28.304  28.067  1.00  0.00     0.167 HD
ATOM     55  C   UNL A   1      46.621  25.851  27.305  1.00  0.00     0.074 A 
ATOM     56  C   UNL A   1      46.780  24.468  26.900  1.00  0.00     0.031 C 
ATOM     57  C   UNL A   1      47.634  26.748  27.371  1.00  0.00     0.037 A 
BRANCH  44  58
ATOM     58  C   UNL A   1      45.887  32.425  29.052  1.00  0.00     0.057 A 
ATOM     59  C   UNL A   1      45.893  33.405  28.053  1.00  0.00     0.134 A 
ATOM     60  C   UNL A   1      46.235  32.819  30.351  1.00  0.00     0.134 A 
ATOM     61  F   UNL A   1      45.582  33.087  26.788  1.00  0.00    -0.206 F 
ATOM     62  C   UNL A   1      46.247  34.727  28.333  1.00  0.00     0.040 A 
ATOM     63  C   UNL A   1      46.572  34.141  30.645  1.00  0.00     0.040 A 
ATOM     64  F   UNL A   1      46.246  31.927  31.354  1.00  0.00    -0.206 F 
ATOM     65  C   UNL A   1      46.583  35.098  29.634  1.00  0.00     0.006 A 
ENDBRANCH  44  58
BRANCH  45  66
ATOM     66  C   UNL A   1      42.795  23.123  27.185  1.00  0.00     0.057 A 
ATOM     67  C   UNL A   1      42.507  22.206  28.201  1.00  0.00     0.134 A 
ATOM     68  C   UNL A   1      42.631  22.696  25.861  1.00  0.00     0.134 A 
ATOM     69  F   UNL A   1      42.668  22.551  29.487  1.00  0.00    -0.206 F 
ATOM     70  C   UNL A   1      42.081  20.909  27.913  1.00  0.00     0.040 A 
ATOM     71  C   UNL A   1      42.184  21.410  25.559  1.00  0.00     0.040 A 
ATOM     72  F   UNL A   1      42.891  23.530  24.844  1.00  0.00    -0.206 F 
ATOM     73  C   UNL A   1      41.911  20.510  26.587  1.00  0.00     0.006 A 
ENDBRANCH  45  66
BRANCH  57  74
ATOM     74  C   UNL A   1      49.003  26.257  27.012  1.00  0.00     0.057 A 
ATOM     75  C   UNL A   1      49.509  26.382  25.714  1.00  0.00     0.134 A 
ATOM     76  C   UNL A   1      49.838  25.691  27.985  1.00  0.00     0.134 A 
ATOM     77  F   UNL A   1      48.751  26.902  24.736  1.00  0.00    -0.206 F 
ATOM     78  C   UNL A   1      50.796  25.950  25.389  1.00  0.00     0.040 A 
ATOM     79  C   UNL A   1      51.133  25.273  27.677  1.00  0.00     0.040 A 
ATOM     80  F   UNL A   1      49.412  25.549  29.248  1.00  0.00    -0.206 F 
ATOM     81  C   UNL A   1      51.614  25.399  26.374  1.00  0.00     0.006 A 
ENDBRANCH  57  74
ENDBRANCH  31  32
ENDBRANCH  24  26
ENDBRANCH  23  24
ENDBRANCH  22  23
ENDBRANCH   1  22
TORSDOF 15
ENDMDL
