MODEL 1
REMARK VINA RESULT:     -12.2      0.000      0.000
REMARK SMILES Cc1cc(=O)oc2cc(O[C@@H](C)C(=O)N[C@H](CC(C)C)C(=O)OCCOC(=O)c3ccc(-c4c5nc(c(-c6c(F)cccc6F)c6ccc([nH]6)c(-c6c(F)cccc6F)c6nc(c(-c7c(F)cccc7F)c7ccc4[nH]7)C=C6)C=C5)cc3)ccc12
REMARK SMILES IDX 24 1 23 2 21 3 22 4 16 5 15 6 13 7 14 8 11 10 12 11 10 12
REMARK SMILES IDX 9 13 1 14 2 15 3 16 85 17 4 18 7 19 84 20 5 21 6 22 8 23
REMARK SMILES IDX 83 24 17 25 18 26 19 27 20 28 25 29 26 30 27 31 28 32 29 33
REMARK SMILES IDX 30 34 82 35 31 36 81 37 32 38 33 39 34 40 75 41 35 42 80 43
REMARK SMILES IDX 74 44 76 45 36 46 79 47 73 48 72 49 37 51 63 52 46 53 62 54
REMARK SMILES IDX 47 55 50 56 61 57 77 58 48 59 49 60 60 62 78 63 51 64 38 65
REMARK SMILES IDX 39 66 44 67 40 68 41 69 43 70 45 71 42 72 64 73 65 74 70 75
REMARK SMILES IDX 66 76 67 77 69 78 71 79 68 80 52 81 53 82 58 83 54 84 55 85
REMARK SMILES IDX 57 86 59 87 56 88
REMARK H PARENT 15 9 76 50 50 61
REMARK Flexibility Score: inf
ROOT
ATOM      1  C   UNL A   1      39.082  20.878  25.459  1.00  0.00     0.274 C 
ENDROOT
BRANCH   1   2
ATOM      2  O   UNL A   1      37.602  21.237  25.362  1.00  0.00    -0.461 OA
BRANCH   2   3
ATOM      3  C   UNL A   1      36.382  20.730  25.017  1.00  0.00     0.328 C 
ATOM      4  O   UNL A   1      36.260  19.502  24.882  1.00  0.00    -0.250 OA
BRANCH   3   5
ATOM      5  C   UNL A   1      35.057  21.481  24.951  1.00  0.00     0.192 C 
BRANCH   5   6
ATOM      6  N   UNL A   1      33.909  20.624  24.926  1.00  0.00    -0.339 N 
ATOM      7  C   UNL A   1      32.679  21.076  25.333  1.00  0.00     0.261 C 
ATOM      8  O   UNL A   1      31.702  20.395  25.001  1.00  0.00    -0.271 OA
ATOM      9  H   UNL A   1      34.004  19.697  24.611  1.00  0.00     0.164 HD
BRANCH   7  10
ATOM     10  C   UNL A   1      32.501  22.368  26.304  1.00  0.00     0.258 C 
ATOM     11  C   UNL A   1      33.316  22.184  27.582  1.00  0.00     0.064 C 
BRANCH  10  12
ATOM     12  O   UNL A   1      31.529  23.418  26.325  1.00  0.00    -0.481 OA
BRANCH  12  13
ATOM     13  C   UNL A   1      31.273  24.716  26.021  1.00  0.00     0.124 A 
ATOM     14  C   UNL A   1      32.554  29.835  25.724  1.00  0.00     0.045 C 
ATOM     15  C   UNL A   1      31.628  28.893  24.994  1.00  0.00    -0.033 A 
ATOM     16  C   UNL A   1      31.016  29.213  23.850  1.00  0.00     0.098 A 
ATOM     17  C   UNL A   1      31.414  27.529  25.472  1.00  0.00     0.021 A 
ATOM     18  C   UNL A   1      30.132  28.285  23.127  1.00  0.00     0.336 A 
ATOM     19  C   UNL A   1      30.518  26.646  24.835  1.00  0.00     0.142 A 
ATOM     20  C   UNL A   1      32.168  27.023  26.489  1.00  0.00     0.016 A 
ATOM     21  O   UNL A   1      29.719  28.575  22.003  1.00  0.00    -0.246 OA
ATOM     22  O   UNL A   1      29.744  27.119  23.760  1.00  0.00    -0.423 OA
ATOM     23  C   UNL A   1      30.412  25.253  25.107  1.00  0.00     0.094 A 
ATOM     24  C   UNL A   1      32.050  25.668  26.749  1.00  0.00     0.047 A 
ENDBRANCH  12  13
ENDBRANCH  10  12
ENDBRANCH   7  10
ENDBRANCH   5   6
BRANCH   5  25
ATOM     25  C   UNL A   1      35.281  22.500  23.764  1.00  0.00     0.040 C 
BRANCH  25  26
ATOM     26  C   UNL A   1      35.182  24.050  24.039  1.00  0.00    -0.015 C 
ATOM     27  C   UNL A   1      33.927  24.778  23.556  1.00  0.00     0.007 C 
ATOM     28  C   UNL A   1      35.376  24.422  25.527  1.00  0.00     0.007 C 
ENDBRANCH  25  26
ENDBRANCH   5  25
ENDBRANCH   3   5
ENDBRANCH   2   3
ENDBRANCH   1   2
BRANCH   1  29
ATOM     29  C   UNL A   1      40.157  21.802  26.320  1.00  0.00     0.275 C 
BRANCH  29  30
ATOM     30  O   UNL A   1      41.622  21.646  26.081  1.00  0.00    -0.458 OA
BRANCH  30  31
ATOM     31  C   UNL A   1      42.419  22.714  25.673  1.00  0.00     0.338 C 
ATOM     32  O   UNL A   1      43.049  22.740  24.626  1.00  0.00    -0.246 OA
BRANCH  31  33
ATOM     33  C   UNL A   1      42.306  23.952  26.578  1.00  0.00     0.060 A 
ATOM     34  C   UNL A   1      41.490  23.908  27.695  1.00  0.00     0.016 A 
ATOM     35  C   UNL A   1      42.862  25.213  26.283  1.00  0.00     0.016 A 
ATOM     36  C   UNL A   1      41.088  25.069  28.376  1.00  0.00     0.010 A 
ATOM     37  C   UNL A   1      42.624  26.355  27.119  1.00  0.00     0.010 A 
ATOM     38  C   UNL A   1      41.737  26.296  28.208  1.00  0.00    -0.014 A 
BRANCH  38  39
ATOM     39  C   UNL A   1      41.575  27.380  29.262  1.00  0.00     0.031 A 
ATOM     40  C   UNL A   1      42.405  27.448  30.533  1.00  0.00     0.074 A 
ATOM     41  C   UNL A   1      40.616  28.331  29.106  1.00  0.00     0.049 A 
ATOM     42  N   UNL A   1      42.175  28.119  31.640  1.00  0.00    -0.248 NA
ATOM     43  C   UNL A   1      43.656  26.678  30.561  1.00  0.00     0.031 C 
ATOM     44  C   UNL A   1      39.747  28.488  27.934  1.00  0.00     0.029 A 
ATOM     45  N   UNL A   1      40.189  29.347  29.940  1.00  0.00    -0.354 N 
ATOM     46  C   UNL A   1      43.208  27.799  32.520  1.00  0.00     0.074 A 
ATOM     47  C   UNL A   1      44.084  26.894  31.802  1.00  0.00     0.031 C 
ATOM     48  C   UNL A   1      38.939  29.538  28.097  1.00  0.00     0.029 A 
ATOM     49  C   UNL A   1      39.098  30.033  29.451  1.00  0.00     0.049 A 
ATOM     50  H   UNL A   1      40.622  29.560  30.798  1.00  0.00     0.167 HD
ATOM     51  C   UNL A   1      43.396  28.207  33.806  1.00  0.00     0.037 A 
ATOM     52  C   UNL A   1      38.227  30.887  30.021  1.00  0.00     0.037 A 
ATOM     53  C   UNL A   1      42.550  29.153  34.504  1.00  0.00     0.049 A 
ATOM     54  C   UNL A   1      38.392  31.250  31.460  1.00  0.00     0.074 A 
ATOM     55  C   UNL A   1      42.673  29.631  35.801  1.00  0.00     0.029 A 
ATOM     56  N   UNL A   1      41.435  29.775  33.964  1.00  0.00    -0.354 N 
ATOM     57  N   UNL A   1      39.317  30.867  32.302  1.00  0.00    -0.248 NA
ATOM     58  C   UNL A   1      37.381  32.147  32.035  1.00  0.00     0.031 C 
ATOM     59  C   UNL A   1      41.603  30.494  36.061  1.00  0.00     0.029 A 
ATOM     60  C   UNL A   1      40.846  30.605  34.909  1.00  0.00     0.049 A 
ATOM     61  H   UNL A   1      41.106  29.646  33.044  1.00  0.00     0.167 HD
ATOM     62  C   UNL A   1      39.015  31.491  33.502  1.00  0.00     0.074 A 
ATOM     63  C   UNL A   1      37.829  32.291  33.274  1.00  0.00     0.031 C 
ATOM     64  C   UNL A   1      39.667  31.404  34.684  1.00  0.00     0.037 A 
BRANCH  51  65
ATOM     65  C   UNL A   1      44.527  27.589  34.590  1.00  0.00     0.057 A 
ATOM     66  C   UNL A   1      45.790  28.182  34.697  1.00  0.00     0.134 A 
ATOM     67  C   UNL A   1      44.316  26.402  35.311  1.00  0.00     0.134 A 
ATOM     68  F   UNL A   1      46.061  29.322  34.045  1.00  0.00    -0.206 F 
ATOM     69  C   UNL A   1      46.810  27.604  35.460  1.00  0.00     0.040 A 
ATOM     70  C   UNL A   1      45.319  25.830  36.099  1.00  0.00     0.040 A 
ATOM     71  F   UNL A   1      43.124  25.789  35.281  1.00  0.00    -0.206 F 
ATOM     72  C   UNL A   1      46.574  26.426  36.168  1.00  0.00     0.006 A 
ENDBRANCH  51  65
BRANCH  52  73
ATOM     73  C   UNL A   1      37.059  31.378  29.239  1.00  0.00     0.057 A 
ATOM     74  C   UNL A   1      35.928  30.580  29.046  1.00  0.00     0.134 A 
ATOM     75  C   UNL A   1      37.037  32.670  28.692  1.00  0.00     0.134 A 
ATOM     76  F   UNL A   1      35.897  29.328  29.525  1.00  0.00    -0.206 F 
ATOM     77  C   UNL A   1      34.819  31.046  28.338  1.00  0.00     0.040 A 
ATOM     78  C   UNL A   1      35.922  33.161  28.014  1.00  0.00     0.040 A 
ATOM     79  F   UNL A   1      38.087  33.492  28.849  1.00  0.00    -0.206 F 
ATOM     80  C   UNL A   1      34.809  32.343  27.830  1.00  0.00     0.006 A 
ENDBRANCH  52  73
BRANCH  64  81
ATOM     81  C   UNL A   1      39.137  32.237  35.814  1.00  0.00     0.057 A 
ATOM     82  C   UNL A   1      38.228  31.727  36.749  1.00  0.00     0.134 A 
ATOM     83  C   UNL A   1      39.544  33.568  35.965  1.00  0.00     0.134 A 
ATOM     84  F   UNL A   1      37.778  30.467  36.645  1.00  0.00    -0.206 F 
ATOM     85  C   UNL A   1      37.726  32.519  37.784  1.00  0.00     0.040 A 
ATOM     86  C   UNL A   1      39.070  34.362  37.012  1.00  0.00     0.040 A 
ATOM     87  F   UNL A   1      40.410  34.119  35.103  1.00  0.00    -0.206 F 
ATOM     88  C   UNL A   1      38.153  33.839  37.921  1.00  0.00     0.006 A 
ENDBRANCH  64  81
ENDBRANCH  38  39
ENDBRANCH  31  33
ENDBRANCH  30  31
ENDBRANCH  29  30
ENDBRANCH   1  29
TORSDOF 17
ENDMDL
MODEL 2
REMARK VINA RESULT:     -12.0      3.919      7.656
REMARK SMILES Cc1cc(=O)oc2cc(O[C@@H](C)C(=O)N[C@H](CC(C)C)C(=O)OCCOC(=O)c3ccc(-c4c5nc(c(-c6c(F)cccc6F)c6ccc([nH]6)c(-c6c(F)cccc6F)c6nc(c(-c7c(F)cccc7F)c7ccc4[nH]7)C=C6)C=C5)cc3)ccc12
REMARK SMILES IDX 24 1 23 2 21 3 22 4 16 5 15 6 13 7 14 8 11 10 12 11 10 12
REMARK SMILES IDX 9 13 1 14 2 15 3 16 85 17 4 18 7 19 84 20 5 21 6 22 8 23
REMARK SMILES IDX 83 24 17 25 18 26 19 27 20 28 25 29 26 30 27 31 28 32 29 33
REMARK SMILES IDX 30 34 82 35 31 36 81 37 32 38 33 39 34 40 75 41 35 42 80 43
REMARK SMILES IDX 74 44 76 45 36 46 79 47 73 48 72 49 37 51 63 52 46 53 62 54
REMARK SMILES IDX 47 55 50 56 61 57 77 58 48 59 49 60 60 62 78 63 51 64 38 65
REMARK SMILES IDX 39 66 44 67 40 68 41 69 43 70 45 71 42 72 64 73 65 74 70 75
REMARK SMILES IDX 66 76 67 77 69 78 71 79 68 80 52 81 53 82 58 83 54 84 55 85
REMARK SMILES IDX 57 86 59 87 56 88
REMARK H PARENT 15 9 76 50 50 61
REMARK Flexibility Score: inf
ROOT
ATOM      1  C   UNL A   1      34.010  22.757  26.943  1.00  0.00     0.274 C 
ENDROOT
BRANCH   1   2
ATOM      2  O   UNL A   1      33.135  23.959  26.596  1.00  0.00    -0.461 OA
BRANCH   2   3
ATOM      3  C   UNL A   1      31.849  24.321  26.315  1.00  0.00     0.328 C 
ATOM      4  O   UNL A   1      31.034  24.406  27.247  1.00  0.00    -0.250 OA
BRANCH   3   5
ATOM      5  C   UNL A   1      31.305  24.831  24.986  1.00  0.00     0.192 C 
BRANCH   5   6
ATOM      6  N   UNL A   1      29.930  25.234  25.042  1.00  0.00    -0.339 N 
ATOM      7  C   UNL A   1      29.456  26.244  24.244  1.00  0.00     0.261 C 
ATOM      8  O   UNL A   1      28.228  26.326  24.127  1.00  0.00    -0.271 OA
ATOM      9  H   UNL A   1      29.318  24.780  25.663  1.00  0.00     0.164 HD
BRANCH   7  10
ATOM     10  C   UNL A   1      30.431  27.360  23.574  1.00  0.00     0.258 C 
ATOM     11  C   UNL A   1      30.949  26.866  22.224  1.00  0.00     0.064 C 
BRANCH  10  12
ATOM     12  O   UNL A   1      31.106  28.492  24.129  1.00  0.00    -0.481 OA
BRANCH  12  13
ATOM     13  C   UNL A   1      31.870  28.952  25.152  1.00  0.00     0.124 A 
ATOM     14  C   UNL A   1      36.389  29.324  27.869  1.00  0.00     0.045 C 
ATOM     15  C   UNL A   1      35.169  30.185  27.647  1.00  0.00    -0.033 A 
ATOM     16  C   UNL A   1      35.106  31.468  28.017  1.00  0.00     0.098 A 
ATOM     17  C   UNL A   1      34.005  29.670  26.930  1.00  0.00     0.021 A 
ATOM     18  C   UNL A   1      33.925  32.313  27.779  1.00  0.00     0.336 A 
ATOM     19  C   UNL A   1      32.837  30.438  26.751  1.00  0.00     0.142 A 
ATOM     20  C   UNL A   1      34.056  28.460  26.304  1.00  0.00     0.016 A 
ATOM     21  O   UNL A   1      33.978  33.525  28.000  1.00  0.00    -0.246 OA
ATOM     22  O   UNL A   1      32.757  31.707  27.354  1.00  0.00    -0.423 OA
ATOM     23  C   UNL A   1      31.754  30.092  25.895  1.00  0.00     0.094 A 
ATOM     24  C   UNL A   1      32.993  28.130  25.480  1.00  0.00     0.047 A 
ENDBRANCH  12  13
ENDBRANCH  10  12
ENDBRANCH   7  10
ENDBRANCH   5   6
BRANCH   5  25
ATOM     25  C   UNL A   1      31.732  23.701  23.967  1.00  0.00     0.040 C 
BRANCH  25  26
ATOM     26  C   UNL A   1      33.158  23.758  23.296  1.00  0.00    -0.015 C 
ATOM     27  C   UNL A   1      33.276  23.308  21.839  1.00  0.00     0.007 C 
ATOM     28  C   UNL A   1      33.828  25.147  23.395  1.00  0.00     0.007 C 
ENDBRANCH  25  26
ENDBRANCH   5  25
ENDBRANCH   3   5
ENDBRANCH   2   3
ENDBRANCH   1   2
BRANCH   1  29
ATOM     29  C   UNL A   1      35.051  22.080  25.844  1.00  0.00     0.275 C 
BRANCH  29  30
ATOM     30  O   UNL A   1      36.319  21.452  26.318  1.00  0.00    -0.458 OA
BRANCH  30  31
ATOM     31  C   UNL A   1      37.510  21.573  25.606  1.00  0.00     0.338 C 
ATOM     32  O   UNL A   1      37.723  21.039  24.527  1.00  0.00    -0.246 OA
BRANCH  31  33
ATOM     33  C   UNL A   1      38.494  22.588  26.211  1.00  0.00     0.060 A 
ATOM     34  C   UNL A   1      38.278  23.942  26.024  1.00  0.00     0.016 A 
ATOM     35  C   UNL A   1      39.712  22.249  26.834  1.00  0.00     0.016 A 
ATOM     36  C   UNL A   1      39.277  24.901  26.260  1.00  0.00     0.010 A 
ATOM     37  C   UNL A   1      40.636  23.254  27.279  1.00  0.00     0.010 A 
ATOM     38  C   UNL A   1      40.421  24.618  27.014  1.00  0.00    -0.014 A 
BRANCH  38  39
ATOM     39  C   UNL A   1      41.226  25.762  27.611  1.00  0.00     0.031 A 
ATOM     40  C   UNL A   1      40.630  26.824  28.519  1.00  0.00     0.074 A 
ATOM     41  C   UNL A   1      42.543  25.888  27.302  1.00  0.00     0.049 A 
ATOM     42  N   UNL A   1      41.113  28.002  28.847  1.00  0.00    -0.248 NA
ATOM     43  C   UNL A   1      39.338  26.522  29.151  1.00  0.00     0.031 C 
ATOM     44  C   UNL A   1      43.330  24.948  26.497  1.00  0.00     0.029 A 
ATOM     45  N   UNL A   1      43.466  26.870  27.612  1.00  0.00    -0.354 N 
ATOM     46  C   UNL A   1      40.158  28.611  29.660  1.00  0.00     0.074 A 
ATOM     47  C   UNL A   1      39.078  27.654  29.800  1.00  0.00     0.031 C 
ATOM     48  C   UNL A   1      44.596  25.361  26.412  1.00  0.00     0.029 A 
ATOM     49  C   UNL A   1      44.688  26.682  27.003  1.00  0.00     0.049 A 
ATOM     50  H   UNL A   1      43.270  27.628  28.209  1.00  0.00     0.167 HD
ATOM     51  C   UNL A   1      40.174  29.853  30.219  1.00  0.00     0.037 A 
ATOM     52  C   UNL A   1      45.749  27.490  26.819  1.00  0.00     0.037 A 
ATOM     53  C   UNL A   1      41.277  30.787  30.124  1.00  0.00     0.049 A 
ATOM     54  C   UNL A   1      45.712  28.883  27.357  1.00  0.00     0.074 A 
ATOM     55  C   UNL A   1      41.383  32.059  30.667  1.00  0.00     0.029 A 
ATOM     56  N   UNL A   1      42.467  30.550  29.452  1.00  0.00    -0.354 N 
ATOM     57  N   UNL A   1      44.766  29.473  28.041  1.00  0.00    -0.248 NA
ATOM     58  C   UNL A   1      46.881  29.729  27.080  1.00  0.00     0.031 C 
ATOM     59  C   UNL A   1      42.610  32.610  30.278  1.00  0.00     0.029 A 
ATOM     60  C   UNL A   1      43.297  31.660  29.543  1.00  0.00     0.049 A 
ATOM     61  H   UNL A   1      42.692  29.716  28.979  1.00  0.00     0.167 HD
ATOM     62  C   UNL A   1      45.230  30.754  28.296  1.00  0.00     0.074 A 
ATOM     63  C   UNL A   1      46.550  30.849  27.706  1.00  0.00     0.031 C 
ATOM     64  C   UNL A   1      44.612  31.757  28.960  1.00  0.00     0.037 A 
BRANCH  51  65
ATOM     65  C   UNL A   1      38.936  30.325  30.940  1.00  0.00     0.057 A 
ATOM     66  C   UNL A   1      38.011  31.204  30.365  1.00  0.00     0.134 A 
ATOM     67  C   UNL A   1      38.633  29.827  32.218  1.00  0.00     0.134 A 
ATOM     68  F   UNL A   1      38.227  31.712  29.143  1.00  0.00    -0.206 F 
ATOM     69  C   UNL A   1      36.853  31.597  31.044  1.00  0.00     0.040 A 
ATOM     70  C   UNL A   1      37.466  30.190  32.894  1.00  0.00     0.040 A 
ATOM     71  F   UNL A   1      39.457  28.959  32.823  1.00  0.00    -0.206 F 
ATOM     72  C   UNL A   1      36.575  31.086  32.311  1.00  0.00     0.006 A 
ENDBRANCH  51  65
BRANCH  52  73
ATOM     73  C   UNL A   1      46.899  27.018  25.999  1.00  0.00     0.057 A 
ATOM     74  C   UNL A   1      46.970  27.282  24.629  1.00  0.00     0.134 A 
ATOM     75  C   UNL A   1      47.970  26.319  26.577  1.00  0.00     0.134 A 
ATOM     76  F   UNL A   1      45.968  27.926  24.014  1.00  0.00    -0.206 F 
ATOM     77  C   UNL A   1      48.060  26.867  23.861  1.00  0.00     0.040 A 
ATOM     78  C   UNL A   1      49.082  25.930  25.830  1.00  0.00     0.040 A 
ATOM     79  F   UNL A   1      47.971  26.042  27.891  1.00  0.00    -0.206 F 
ATOM     80  C   UNL A   1      49.124  26.199  24.464  1.00  0.00     0.006 A 
ENDBRANCH  52  73
BRANCH  64  81
ATOM     81  C   UNL A   1      45.380  33.034  29.128  1.00  0.00     0.057 A 
ATOM     82  C   UNL A   1      46.225  33.255  30.222  1.00  0.00     0.134 A 
ATOM     83  C   UNL A   1      45.272  34.057  28.177  1.00  0.00     0.134 A 
ATOM     84  F   UNL A   1      46.353  32.325  31.182  1.00  0.00    -0.206 F 
ATOM     85  C   UNL A   1      46.919  34.456  30.377  1.00  0.00     0.040 A 
ATOM     86  C   UNL A   1      45.982  35.252  28.306  1.00  0.00     0.040 A 
ATOM     87  F   UNL A   1      44.478  33.911  27.106  1.00  0.00    -0.206 F 
ATOM     88  C   UNL A   1      46.803  35.457  29.412  1.00  0.00     0.006 A 
ENDBRANCH  64  81
ENDBRANCH  38  39
ENDBRANCH  31  33
ENDBRANCH  30  31
ENDBRANCH  29  30
ENDBRANCH   1  29
TORSDOF 17
ENDMDL
MODEL 3
REMARK VINA RESULT:     -11.7      1.492      6.266
REMARK SMILES Cc1cc(=O)oc2cc(O[C@@H](C)C(=O)N[C@H](CC(C)C)C(=O)OCCOC(=O)c3ccc(-c4c5nc(c(-c6c(F)cccc6F)c6ccc([nH]6)c(-c6c(F)cccc6F)c6nc(c(-c7c(F)cccc7F)c7ccc4[nH]7)C=C6)C=C5)cc3)ccc12
REMARK SMILES IDX 24 1 23 2 21 3 22 4 16 5 15 6 13 7 14 8 11 10 12 11 10 12
REMARK SMILES IDX 9 13 1 14 2 15 3 16 85 17 4 18 7 19 84 20 5 21 6 22 8 23
REMARK SMILES IDX 83 24 17 25 18 26 19 27 20 28 25 29 26 30 27 31 28 32 29 33
REMARK SMILES IDX 30 34 82 35 31 36 81 37 32 38 33 39 34 40 75 41 35 42 80 43
REMARK SMILES IDX 74 44 76 45 36 46 79 47 73 48 72 49 37 51 63 52 46 53 62 54
REMARK SMILES IDX 47 55 50 56 61 57 77 58 48 59 49 60 60 62 78 63 51 64 38 65
REMARK SMILES IDX 39 66 44 67 40 68 41 69 43 70 45 71 42 72 64 73 65 74 70 75
REMARK SMILES IDX 66 76 67 77 69 78 71 79 68 80 52 81 53 82 58 83 54 84 55 85
REMARK SMILES IDX 57 86 59 87 56 88
REMARK H PARENT 15 9 76 50 50 61
REMARK Flexibility Score: inf
ROOT
ATOM      1  C   UNL A   1      39.934  21.977  26.645  1.00  0.00     0.274 C 
ENDROOT
BRANCH   1   2
ATOM      2  O   UNL A   1      38.762  21.885  25.672  1.00  0.00    -0.461 OA
BRANCH   2   3
ATOM      3  C   UNL A   1      37.805  21.032  25.201  1.00  0.00     0.328 C 
ATOM      4  O   UNL A   1      38.110  19.847  24.993  1.00  0.00    -0.250 OA
BRANCH   3   5
ATOM      5  C   UNL A   1      36.312  21.308  25.065  1.00  0.00     0.192 C 
BRANCH   5   6
ATOM      6  N   UNL A   1      35.511  20.121  25.002  1.00  0.00    -0.339 N 
ATOM      7  C   UNL A   1      34.151  20.176  25.173  1.00  0.00     0.261 C 
ATOM      8  O   UNL A   1      33.507  19.185  24.808  1.00  0.00    -0.271 OA
ATOM      9  H   UNL A   1      35.943  19.254  24.834  1.00  0.00     0.164 HD
BRANCH   7  10
ATOM     10  C   UNL A   1      33.413  21.415  25.925  1.00  0.00     0.258 C 
ATOM     11  C   UNL A   1      33.815  21.453  27.398  1.00  0.00     0.064 C 
BRANCH  10  12
ATOM     12  O   UNL A   1      32.284  22.215  25.561  1.00  0.00    -0.481 OA
BRANCH  12  13
ATOM     13  C   UNL A   1      31.788  23.474  25.457  1.00  0.00     0.124 A 
ATOM     14  C   UNL A   1      31.779  28.647  26.539  1.00  0.00     0.045 C 
ATOM     15  C   UNL A   1      31.311  27.763  25.410  1.00  0.00    -0.033 A 
ATOM     16  C   UNL A   1      30.917  28.242  24.226  1.00  0.00     0.098 A 
ATOM     17  C   UNL A   1      31.342  26.307  25.532  1.00  0.00     0.021 A 
ATOM     18  C   UNL A   1      30.483  27.377  23.117  1.00  0.00     0.336 A 
ATOM     19  C   UNL A   1      30.865  25.461  24.509  1.00  0.00     0.142 A 
ATOM     20  C   UNL A   1      31.945  25.713  26.600  1.00  0.00     0.016 A 
ATOM     21  O   UNL A   1      30.279  27.859  22.001  1.00  0.00    -0.246 OA
ATOM     22  O   UNL A   1      30.265  26.036  23.375  1.00  0.00    -0.423 OA
ATOM     23  C   UNL A   1      31.052  24.051  24.462  1.00  0.00     0.094 A 
ATOM     24  C   UNL A   1      32.114  24.340  26.547  1.00  0.00     0.047 A 
ENDBRANCH  12  13
ENDBRANCH  10  12
ENDBRANCH   7  10
ENDBRANCH   5   6
BRANCH   5  25
ATOM     25  C   UNL A   1      36.245  22.343  23.874  1.00  0.00     0.040 C 
BRANCH  25  26
ATOM     26  C   UNL A   1      35.802  23.830  24.159  1.00  0.00    -0.015 C 
ATOM     27  C   UNL A   1      34.516  24.327  23.498  1.00  0.00     0.007 C 
ATOM     28  C   UNL A   1      35.691  24.158  25.665  1.00  0.00     0.007 C 
ENDBRANCH  25  26
ENDBRANCH   5  25
ENDBRANCH   3   5
ENDBRANCH   2   3
ENDBRANCH   1   2
BRANCH   1  29
ATOM     29  C   UNL A   1      41.496  22.180  26.126  1.00  0.00     0.275 C 
BRANCH  29  30
ATOM     30  O   UNL A   1      42.334  23.267  26.711  1.00  0.00    -0.458 OA
BRANCH  30  31
ATOM     31  C   UNL A   1      42.256  24.582  26.254  1.00  0.00     0.338 C 
ATOM     32  O   UNL A   1      42.308  24.904  25.077  1.00  0.00    -0.246 OA
BRANCH  31  33
ATOM     33  C   UNL A   1      41.922  25.601  27.357  1.00  0.00     0.060 A 
ATOM     34  C   UNL A   1      40.797  25.414  28.140  1.00  0.00     0.016 A 
ATOM     35  C   UNL A   1      42.599  26.822  27.549  1.00  0.00     0.016 A 
ATOM     36  C   UNL A   1      40.255  26.440  28.931  1.00  0.00     0.010 A 
ATOM     37  C   UNL A   1      42.163  27.778  28.528  1.00  0.00     0.010 A 
ATOM     38  C   UNL A   1      40.978  27.591  29.261  1.00  0.00    -0.014 A 
BRANCH  38  39
ATOM     39  C   UNL A   1      40.543  28.435  30.449  1.00  0.00     0.031 A 
ATOM     40  C   UNL A   1      39.436  29.473  30.382  1.00  0.00     0.074 A 
ATOM     41  C   UNL A   1      41.188  28.303  31.638  1.00  0.00     0.049 A 
ATOM     42  N   UNL A   1      39.171  30.458  31.211  1.00  0.00    -0.248 NA
ATOM     43  C   UNL A   1      38.501  29.388  29.253  1.00  0.00     0.031 C 
ATOM     44  C   UNL A   1      42.240  27.325  31.940  1.00  0.00     0.029 A 
ATOM     45  N   UNL A   1      41.072  29.002  32.825  1.00  0.00    -0.354 N 
ATOM     46  C   UNL A   1      38.090  31.153  30.671  1.00  0.00     0.074 A 
ATOM     47  C   UNL A   1      37.729  30.452  29.453  1.00  0.00     0.031 C 
ATOM     48  C   UNL A   1      42.636  27.452  33.209  1.00  0.00     0.029 A 
ATOM     49  C   UNL A   1      42.002  28.627  33.772  1.00  0.00     0.049 A 
ATOM     50  H   UNL A   1      40.394  29.698  32.979  1.00  0.00     0.167 HD
ATOM     51  C   UNL A   1      37.471  32.273  31.136  1.00  0.00     0.037 A 
ATOM     52  C   UNL A   1      42.410  29.193  34.923  1.00  0.00     0.037 A 
ATOM     53  C   UNL A   1      37.796  32.940  32.380  1.00  0.00     0.049 A 
ATOM     54  C   UNL A   1      41.787  30.475  35.372  1.00  0.00     0.074 A 
ATOM     55  C   UNL A   1      37.214  34.072  32.933  1.00  0.00     0.029 A 
ATOM     56  N   UNL A   1      38.780  32.533  33.269  1.00  0.00    -0.354 N 
ATOM     57  N   UNL A   1      40.832  31.166  34.803  1.00  0.00    -0.248 NA
ATOM     58  C   UNL A   1      42.310  31.066  36.610  1.00  0.00     0.031 C 
ATOM     59  C   UNL A   1      37.882  34.380  34.124  1.00  0.00     0.029 A 
ATOM     60  C   UNL A   1      38.840  33.407  34.347  1.00  0.00     0.049 A 
ATOM     61  H   UNL A   1      39.353  31.741  33.152  1.00  0.00     0.167 HD
ATOM     62  C   UNL A   1      40.624  32.264  35.622  1.00  0.00     0.074 A 
ATOM     63  C   UNL A   1      41.541  32.138  36.736  1.00  0.00     0.031 C 
ATOM     64  C   UNL A   1      39.749  33.283  35.459  1.00  0.00     0.037 A 
BRANCH  51  65
ATOM     65  C   UNL A   1      36.410  32.910  30.272  1.00  0.00     0.057 A 
ATOM     66  C   UNL A   1      36.711  33.671  29.136  1.00  0.00     0.134 A 
ATOM     67  C   UNL A   1      35.051  32.695  30.554  1.00  0.00     0.134 A 
ATOM     68  F   UNL A   1      37.987  33.909  28.798  1.00  0.00    -0.206 F 
ATOM     69  C   UNL A   1      35.706  34.221  28.334  1.00  0.00     0.040 A 
ATOM     70  C   UNL A   1      34.038  33.216  29.744  1.00  0.00     0.040 A 
ATOM     71  F   UNL A   1      34.684  31.954  31.610  1.00  0.00    -0.206 F 
ATOM     72  C   UNL A   1      34.364  33.990  28.635  1.00  0.00     0.006 A 
ENDBRANCH  51  65
BRANCH  52  73
ATOM     73  C   UNL A   1      43.541  28.589  35.679  1.00  0.00     0.057 A 
ATOM     74  C   UNL A   1      44.856  29.021  35.486  1.00  0.00     0.134 A 
ATOM     75  C   UNL A   1      43.327  27.587  36.638  1.00  0.00     0.134 A 
ATOM     76  F   UNL A   1      45.129  29.960  34.569  1.00  0.00    -0.206 F 
ATOM     77  C   UNL A   1      45.917  28.478  36.213  1.00  0.00     0.040 A 
ATOM     78  C   UNL A   1      44.372  27.061  37.397  1.00  0.00     0.040 A 
ATOM     79  F   UNL A   1      42.086  27.134  36.881  1.00  0.00    -0.206 F 
ATOM     80  C   UNL A   1      45.674  27.503  37.179  1.00  0.00     0.006 A 
ENDBRANCH  52  73
BRANCH  64  81
ATOM     81  C   UNL A   1      39.708  34.321  36.541  1.00  0.00     0.057 A 
ATOM     82  C   UNL A   1      38.948  34.152  37.704  1.00  0.00     0.134 A 
ATOM     83  C   UNL A   1      40.442  35.507  36.414  1.00  0.00     0.134 A 
ATOM     84  F   UNL A   1      38.201  33.049  37.875  1.00  0.00    -0.206 F 
ATOM     85  C   UNL A   1      38.902  35.135  38.694  1.00  0.00     0.040 A 
ATOM     86  C   UNL A   1      40.426  36.485  37.410  1.00  0.00     0.040 A 
ATOM     87  F   UNL A   1      41.189  35.733  35.324  1.00  0.00    -0.206 F 
ATOM     88  C   UNL A   1      39.649  36.303  38.551  1.00  0.00     0.006 A 
ENDBRANCH  64  81
ENDBRANCH  38  39
ENDBRANCH  31  33
ENDBRANCH  30  31
ENDBRANCH  29  30
ENDBRANCH   1  29
TORSDOF 17
ENDMDL
