MODEL 1
REMARK VINA RESULT:     -12.6      0.000      0.000
REMARK SMILES Cc1ccc2c(c1)c(-c1ccnc3c(C)cccc13)c(C)n2CC(=O)OCCOC(=O)c1ccc(-c2c3nc(c(-c4c(F)cccc4F)c4ccc([nH]4)c(-c4c(F)cccc4F)c4nc(c(-c5c(F)cccc5F)c5ccc2[nH]5)C=C4)C=C3)cc1
REMARK SMILES IDX 27 1 26 2 24 3 25 4 23 5 22 6 1 7 2 8 3 9 7 10 4 11 6 12
REMARK SMILES IDX 5 13 8 14 20 15 21 16 9 17 10 18 19 19 11 20 13 21 18 22
REMARK SMILES IDX 12 23 14 24 17 25 15 26 16 27 28 28 29 29 30 30 31 31 32 32
REMARK SMILES IDX 33 33 85 34 34 35 84 36 35 37 36 38 37 39 78 40 38 41 83 42
REMARK SMILES IDX 77 43 79 44 39 45 82 46 76 47 75 48 40 50 66 51 49 52 65 53
REMARK SMILES IDX 50 54 53 55 64 56 80 57 51 58 52 59 63 61 81 62 54 63 41 64
REMARK SMILES IDX 42 65 47 66 43 67 44 68 46 69 48 70 45 71 67 72 68 73 73 74
REMARK SMILES IDX 69 75 70 76 72 77 74 78 71 79 55 80 56 81 61 82 57 83 58 84
REMARK SMILES IDX 60 85 62 86 59 87
REMARK H PARENT 79 49 53 60
REMARK Flexibility Score: inf
ROOT
ATOM      1  C   UNL A   1      32.449  29.604  25.884  1.00  0.00     0.274 C 
ENDROOT
BRANCH   1   2
ATOM      2  O   UNL A   1      32.651  28.225  26.297  1.00  0.00    -0.461 OA
BRANCH   2   3
ATOM      3  C   UNL A   1      31.603  27.627  26.918  1.00  0.00     0.326 C 
ATOM      4  O   UNL A   1      31.288  27.853  28.086  1.00  0.00    -0.250 OA
BRANCH   3   5
ATOM      5  C   UNL A   1      30.785  26.669  26.088  1.00  0.00     0.244 C 
BRANCH   5   6
ATOM      6  N   UNL A   1      31.450  25.664  25.268  1.00  0.00    -0.333 N 
ATOM      7  C   UNL A   1      32.615  25.560  19.749  1.00  0.00     0.044 C 
ATOM      8  C   UNL A   1      32.230  25.615  21.194  1.00  0.00    -0.050 A 
ATOM      9  C   UNL A   1      31.598  26.756  21.690  1.00  0.00     0.005 A 
ATOM     10  C   UNL A   1      32.549  24.558  22.061  1.00  0.00     0.014 A 
ATOM     11  C   UNL A   1      31.259  26.868  23.037  1.00  0.00     0.027 A 
ATOM     12  C   UNL A   1      32.263  24.670  23.435  1.00  0.00     0.008 A 
ATOM     13  C   UNL A   1      31.613  25.816  23.897  1.00  0.00     0.049 A 
ATOM     14  C   UNL A   1      32.522  23.856  24.568  1.00  0.00     0.011 A 
ATOM     15  C   UNL A   1      32.276  24.634  25.686  1.00  0.00     0.024 A 
ATOM     16  C   UNL A   1      32.799  24.411  27.057  1.00  0.00     0.065 C 
BRANCH  14  17
ATOM     17  C   UNL A   1      33.119  22.534  24.682  1.00  0.00    -0.005 A 
ATOM     18  C   UNL A   1      32.288  21.421  24.758  1.00  0.00     0.029 A 
ATOM     19  C   UNL A   1      34.531  22.380  24.641  1.00  0.00     0.008 A 
ATOM     20  C   UNL A   1      32.889  20.185  24.815  1.00  0.00     0.112 A 
ATOM     21  C   UNL A   1      35.044  21.069  24.737  1.00  0.00     0.074 A 
ATOM     22  C   UNL A   1      35.430  23.469  24.502  1.00  0.00     0.011 A 
ATOM     23  N   UNL A   1      34.227  19.997  24.824  1.00  0.00    -0.256 NA
ATOM     24  C   UNL A   1      36.439  20.898  24.735  1.00  0.00    -0.025 A 
ATOM     25  C   UNL A   1      36.805  23.279  24.473  1.00  0.00     0.001 A 
ATOM     26  C   UNL A   1      37.063  19.537  24.905  1.00  0.00     0.047 C 
ATOM     27  C   UNL A   1      37.309  21.996  24.603  1.00  0.00     0.005 A 
ENDBRANCH  14  17
ENDBRANCH   5   6
ENDBRANCH   3   5
ENDBRANCH   2   3
ENDBRANCH   1   2
BRANCH   1  28
ATOM     28  C   UNL A   1      32.927  30.590  26.955  1.00  0.00     0.275 C 
BRANCH  28  29
ATOM     29  O   UNL A   1      34.357  30.504  27.063  1.00  0.00    -0.458 OA
BRANCH  29  30
ATOM     30  C   UNL A   1      34.952  31.476  27.791  1.00  0.00     0.338 C 
ATOM     31  O   UNL A   1      34.443  32.499  28.222  1.00  0.00    -0.246 OA
BRANCH  30  32
ATOM     32  C   UNL A   1      36.165  30.857  28.348  1.00  0.00     0.060 A 
ATOM     33  C   UNL A   1      37.248  31.570  28.848  1.00  0.00     0.016 A 
ATOM     34  C   UNL A   1      36.269  29.489  28.134  1.00  0.00     0.016 A 
ATOM     35  C   UNL A   1      38.466  30.907  29.011  1.00  0.00     0.010 A 
ATOM     36  C   UNL A   1      37.483  28.842  28.236  1.00  0.00     0.010 A 
ATOM     37  C   UNL A   1      38.598  29.562  28.626  1.00  0.00    -0.014 A 
BRANCH  37  38
ATOM     38  C   UNL A   1      39.808  28.814  28.932  1.00  0.00     0.031 A 
ATOM     39  C   UNL A   1      40.047  28.745  30.389  1.00  0.00     0.074 A 
ATOM     40  C   UNL A   1      40.600  28.100  28.111  1.00  0.00     0.049 A 
ATOM     41  N   UNL A   1      40.780  29.554  31.074  1.00  0.00    -0.248 NA
ATOM     42  C   UNL A   1      39.246  27.817  31.200  1.00  0.00     0.031 C 
ATOM     43  C   UNL A   1      40.373  27.687  26.728  1.00  0.00     0.029 A 
ATOM     44  N   UNL A   1      41.819  27.552  28.410  1.00  0.00    -0.354 N 
ATOM     45  C   UNL A   1      40.709  29.100  32.383  1.00  0.00     0.074 A 
ATOM     46  C   UNL A   1      39.594  28.194  32.431  1.00  0.00     0.031 C 
ATOM     47  C   UNL A   1      41.360  26.834  26.350  1.00  0.00     0.029 A 
ATOM     48  C   UNL A   1      42.361  26.762  27.406  1.00  0.00     0.049 A 
ATOM     49  H   UNL A   1      42.274  27.706  29.269  1.00  0.00     0.167 HD
ATOM     50  C   UNL A   1      41.752  29.301  33.231  1.00  0.00     0.037 A 
ATOM     51  C   UNL A   1      43.556  26.119  27.443  1.00  0.00     0.037 A 
ATOM     52  C   UNL A   1      42.699  30.231  32.655  1.00  0.00     0.049 A 
ATOM     53  C   UNL A   1      44.406  26.801  28.448  1.00  0.00     0.074 A 
ATOM     54  C   UNL A   1      42.707  31.565  32.309  1.00  0.00     0.029 A 
ATOM     55  N   UNL A   1      43.750  29.643  31.998  1.00  0.00    -0.354 N 
ATOM     56  N   UNL A   1      44.917  27.987  28.284  1.00  0.00    -0.248 NA
ATOM     57  C   UNL A   1      44.485  26.276  29.805  1.00  0.00     0.031 C 
ATOM     58  C   UNL A   1      43.610  31.678  31.210  1.00  0.00     0.029 A 
ATOM     59  C   UNL A   1      44.138  30.415  30.937  1.00  0.00     0.049 A 
ATOM     60  H   UNL A   1      44.166  28.788  32.255  1.00  0.00     0.167 HD
ATOM     61  C   UNL A   1      44.967  28.522  29.556  1.00  0.00     0.074 A 
ATOM     62  C   UNL A   1      44.883  27.376  30.449  1.00  0.00     0.031 C 
ATOM     63  C   UNL A   1      44.756  29.855  29.754  1.00  0.00     0.037 A 
BRANCH  50  64
ATOM     64  C   UNL A   1      42.176  28.345  34.326  1.00  0.00     0.057 A 
ATOM     65  C   UNL A   1      41.885  28.493  35.697  1.00  0.00     0.134 A 
ATOM     66  C   UNL A   1      42.616  27.060  33.949  1.00  0.00     0.134 A 
ATOM     67  F   UNL A   1      41.413  29.626  36.224  1.00  0.00    -0.206 F 
ATOM     68  C   UNL A   1      41.967  27.434  36.607  1.00  0.00     0.040 A 
ATOM     69  C   UNL A   1      42.650  25.984  34.841  1.00  0.00     0.040 A 
ATOM     70  F   UNL A   1      42.939  26.788  32.676  1.00  0.00    -0.206 F 
ATOM     71  C   UNL A   1      42.311  26.165  36.174  1.00  0.00     0.006 A 
ENDBRANCH  50  64
BRANCH  51  72
ATOM     72  C   UNL A   1      44.045  24.911  26.743  1.00  0.00     0.057 A 
ATOM     73  C   UNL A   1      44.761  25.011  25.541  1.00  0.00     0.134 A 
ATOM     74  C   UNL A   1      43.570  23.630  27.073  1.00  0.00     0.134 A 
ATOM     75  F   UNL A   1      45.210  26.197  25.105  1.00  0.00    -0.206 F 
ATOM     76  C   UNL A   1      44.959  23.911  24.697  1.00  0.00     0.040 A 
ATOM     77  C   UNL A   1      43.757  22.523  26.236  1.00  0.00     0.040 A 
ATOM     78  F   UNL A   1      42.850  23.433  28.188  1.00  0.00    -0.206 F 
ATOM     79  C   UNL A   1      44.440  22.666  25.034  1.00  0.00     0.006 A 
ENDBRANCH  51  72
BRANCH  63  80
ATOM     80  C   UNL A   1      44.993  30.765  28.584  1.00  0.00     0.057 A 
ATOM     81  C   UNL A   1      43.912  31.055  27.743  1.00  0.00     0.134 A 
ATOM     82  C   UNL A   1      46.237  31.307  28.232  1.00  0.00     0.134 A 
ATOM     83  F   UNL A   1      42.700  30.535  27.994  1.00  0.00    -0.206 F 
ATOM     84  C   UNL A   1      44.052  31.860  26.612  1.00  0.00     0.040 A 
ATOM     85  C   UNL A   1      46.381  32.149  27.125  1.00  0.00     0.040 A 
ATOM     86  F   UNL A   1      47.346  31.015  28.925  1.00  0.00    -0.206 F 
ATOM     87  C   UNL A   1      45.287  32.424  26.309  1.00  0.00     0.006 A 
ENDBRANCH  63  80
ENDBRANCH  37  38
ENDBRANCH  30  32
ENDBRANCH  29  30
ENDBRANCH  28  29
ENDBRANCH   1  28
TORSDOF 13
ENDMDL
MODEL 2
REMARK VINA RESULT:     -12.6      2.891      7.982
REMARK SMILES Cc1ccc2c(c1)c(-c1ccnc3c(C)cccc13)c(C)n2CC(=O)OCCOC(=O)c1ccc(-c2c3nc(c(-c4c(F)cccc4F)c4ccc([nH]4)c(-c4c(F)cccc4F)c4nc(c(-c5c(F)cccc5F)c5ccc2[nH]5)C=C4)C=C3)cc1
REMARK SMILES IDX 27 1 26 2 24 3 25 4 23 5 22 6 1 7 2 8 3 9 7 10 4 11 6 12
REMARK SMILES IDX 5 13 8 14 20 15 21 16 9 17 10 18 19 19 11 20 13 21 18 22
REMARK SMILES IDX 12 23 14 24 17 25 15 26 16 27 28 28 29 29 30 30 31 31 32 32
REMARK SMILES IDX 33 33 85 34 34 35 84 36 35 37 36 38 37 39 78 40 38 41 83 42
REMARK SMILES IDX 77 43 79 44 39 45 82 46 76 47 75 48 40 50 66 51 49 52 65 53
REMARK SMILES IDX 50 54 53 55 64 56 80 57 51 58 52 59 63 61 81 62 54 63 41 64
REMARK SMILES IDX 42 65 47 66 43 67 44 68 46 69 48 70 45 71 67 72 68 73 73 74
REMARK SMILES IDX 69 75 70 76 72 77 74 78 71 79 55 80 56 81 61 82 57 83 58 84
REMARK SMILES IDX 60 85 62 86 59 87
REMARK H PARENT 79 49 53 60
REMARK Flexibility Score: inf
ROOT
ATOM      1  C   UNL A   1      36.582  22.780  25.564  1.00  0.00     0.274 C 
ENDROOT
BRANCH   1   2
ATOM      2  O   UNL A   1      35.576  22.294  24.633  1.00  0.00    -0.461 OA
BRANCH   2   3
ATOM      3  C   UNL A   1      35.508  22.935  23.438  1.00  0.00     0.326 C 
ATOM      4  O   UNL A   1      36.498  23.331  22.823  1.00  0.00    -0.250 OA
BRANCH   3   5
ATOM      5  C   UNL A   1      34.131  23.120  22.850  1.00  0.00     0.244 C 
BRANCH   5   6
ATOM      6  N   UNL A   1      33.161  23.976  23.523  1.00  0.00    -0.333 N 
ATOM      7  C   UNL A   1      29.309  22.817  27.478  1.00  0.00     0.044 C 
ATOM      8  C   UNL A   1      30.307  23.056  26.388  1.00  0.00    -0.050 A 
ATOM      9  C   UNL A   1      31.119  22.004  25.964  1.00  0.00     0.005 A 
ATOM     10  C   UNL A   1      30.470  24.336  25.834  1.00  0.00     0.014 A 
ATOM     11  C   UNL A   1      32.091  22.191  24.983  1.00  0.00     0.027 A 
ATOM     12  C   UNL A   1      31.480  24.560  24.879  1.00  0.00     0.008 A 
ATOM     13  C   UNL A   1      32.263  23.483  24.460  1.00  0.00     0.049 A 
ATOM     14  C   UNL A   1      31.962  25.710  24.202  1.00  0.00     0.011 A 
ATOM     15  C   UNL A   1      33.167  25.357  23.620  1.00  0.00     0.024 A 
ATOM     16  C   UNL A   1      34.249  26.277  23.191  1.00  0.00     0.065 C 
BRANCH  14  17
ATOM     17  C   UNL A   1      31.497  27.089  24.205  1.00  0.00    -0.005 A 
ATOM     18  C   UNL A   1      30.630  27.512  23.202  1.00  0.00     0.029 A 
ATOM     19  C   UNL A   1      31.867  27.967  25.259  1.00  0.00     0.008 A 
ATOM     20  C   UNL A   1      30.173  28.808  23.266  1.00  0.00     0.112 A 
ATOM     21  C   UNL A   1      31.366  29.286  25.211  1.00  0.00     0.074 A 
ATOM     22  C   UNL A   1      32.697  27.579  26.342  1.00  0.00     0.011 A 
ATOM     23  N   UNL A   1      30.534  29.688  24.225  1.00  0.00    -0.256 NA
ATOM     24  C   UNL A   1      31.748  30.181  26.224  1.00  0.00    -0.025 A 
ATOM     25  C   UNL A   1      33.042  28.469  27.350  1.00  0.00     0.001 A 
ATOM     26  C   UNL A   1      31.312  31.623  26.204  1.00  0.00     0.047 C 
ATOM     27  C   UNL A   1      32.579  29.772  27.283  1.00  0.00     0.005 A 
ENDBRANCH  14  17
ENDBRANCH   5   6
ENDBRANCH   3   5
ENDBRANCH   2   3
ENDBRANCH   1   2
BRANCH   1  28
ATOM     28  C   UNL A   1      37.778  21.826  25.651  1.00  0.00     0.275 C 
BRANCH  28  29
ATOM     29  O   UNL A   1      38.986  22.599  25.735  1.00  0.00    -0.458 OA
BRANCH  29  30
ATOM     30  C   UNL A   1      39.692  22.465  26.881  1.00  0.00     0.338 C 
ATOM     31  O   UNL A   1      40.222  21.455  27.314  1.00  0.00    -0.246 OA
BRANCH  30  32
ATOM     32  C   UNL A   1      40.086  23.833  27.256  1.00  0.00     0.060 A 
ATOM     33  C   UNL A   1      41.191  24.140  28.039  1.00  0.00     0.016 A 
ATOM     34  C   UNL A   1      39.141  24.809  26.967  1.00  0.00     0.016 A 
ATOM     35  C   UNL A   1      41.264  25.407  28.623  1.00  0.00     0.010 A 
ATOM     36  C   UNL A   1      39.176  26.041  27.589  1.00  0.00     0.010 A 
ATOM     37  C   UNL A   1      40.213  26.325  28.459  1.00  0.00    -0.014 A 
BRANCH  37  38
ATOM     38  C   UNL A   1      40.341  27.697  28.927  1.00  0.00     0.031 A 
ATOM     39  C   UNL A   1      41.472  28.387  28.272  1.00  0.00     0.074 A 
ATOM     40  C   UNL A   1      39.517  28.409  29.719  1.00  0.00     0.049 A 
ATOM     41  N   UNL A   1      42.671  28.477  28.734  1.00  0.00    -0.248 NA
ATOM     42  C   UNL A   1      41.317  28.855  26.887  1.00  0.00     0.031 C 
ATOM     43  C   UNL A   1      38.161  28.098  30.168  1.00  0.00     0.029 A 
ATOM     44  N   UNL A   1      39.760  29.639  30.269  1.00  0.00    -0.354 N 
ATOM     45  C   UNL A   1      43.377  29.209  27.790  1.00  0.00     0.074 A 
ATOM     46  C   UNL A   1      42.570  29.211  26.601  1.00  0.00     0.031 C 
ATOM     47  C   UNL A   1      37.647  29.179  30.809  1.00  0.00     0.029 A 
ATOM     48  C   UNL A   1      38.684  30.192  30.947  1.00  0.00     0.049 A 
ATOM     49  H   UNL A   1      40.629  30.094  30.189  1.00  0.00     0.167 HD
ATOM     50  C   UNL A   1      44.429  29.980  28.174  1.00  0.00     0.037 A 
ATOM     51  C   UNL A   1      38.665  31.388  31.591  1.00  0.00     0.037 A 
ATOM     52  C   UNL A   1      44.803  29.680  29.539  1.00  0.00     0.049 A 
ATOM     53  C   UNL A   1      40.065  31.748  31.916  1.00  0.00     0.074 A 
ATOM     54  C   UNL A   1      45.329  28.602  30.218  1.00  0.00     0.029 A 
ATOM     55  N   UNL A   1      44.251  30.512  30.479  1.00  0.00    -0.354 N 
ATOM     56  N   UNL A   1      40.782  31.142  32.818  1.00  0.00    -0.248 NA
ATOM     57  C   UNL A   1      40.807  32.639  31.033  1.00  0.00     0.031 C 
ATOM     58  C   UNL A   1      44.813  28.687  31.546  1.00  0.00     0.029 A 
ATOM     59  C   UNL A   1      44.009  29.824  31.637  1.00  0.00     0.049 A 
ATOM     60  H   UNL A   1      44.058  31.468  30.341  1.00  0.00     0.167 HD
ATOM     61  C   UNL A   1      42.076  31.219  32.343  1.00  0.00     0.074 A 
ATOM     62  C   UNL A   1      42.055  32.302  31.371  1.00  0.00     0.031 C 
ATOM     63  C   UNL A   1      42.953  30.197  32.555  1.00  0.00     0.037 A 
BRANCH  50  64
ATOM     64  C   UNL A   1      44.814  31.300  27.539  1.00  0.00     0.057 A 
ATOM     65  C   UNL A   1      44.201  32.541  27.802  1.00  0.00     0.134 A 
ATOM     66  C   UNL A   1      46.058  31.381  26.882  1.00  0.00     0.134 A 
ATOM     67  F   UNL A   1      43.043  32.658  28.457  1.00  0.00    -0.206 F 
ATOM     68  C   UNL A   1      44.804  33.765  27.491  1.00  0.00     0.040 A 
ATOM     69  C   UNL A   1      46.691  32.599  26.615  1.00  0.00     0.040 A 
ATOM     70  F   UNL A   1      46.741  30.272  26.561  1.00  0.00    -0.206 F 
ATOM     71  C   UNL A   1      46.070  33.798  26.932  1.00  0.00     0.006 A 
ENDBRANCH  50  64
BRANCH  51  72
ATOM     72  C   UNL A   1      37.558  32.316  31.910  1.00  0.00     0.057 A 
ATOM     73  C   UNL A   1      36.837  32.198  33.108  1.00  0.00     0.134 A 
ATOM     74  C   UNL A   1      36.989  33.144  30.927  1.00  0.00     0.134 A 
ATOM     75  F   UNL A   1      37.263  31.389  34.089  1.00  0.00    -0.206 F 
ATOM     76  C   UNL A   1      35.604  32.833  33.302  1.00  0.00     0.040 A 
ATOM     77  C   UNL A   1      35.755  33.781  31.107  1.00  0.00     0.040 A 
ATOM     78  F   UNL A   1      37.585  33.302  29.736  1.00  0.00    -0.206 F 
ATOM     79  C   UNL A   1      35.050  33.612  32.293  1.00  0.00     0.006 A 
ENDBRANCH  51  72
BRANCH  63  80
ATOM     80  C   UNL A   1      42.668  29.282  33.710  1.00  0.00     0.057 A 
ATOM     81  C   UNL A   1      41.926  28.119  33.466  1.00  0.00     0.134 A 
ATOM     82  C   UNL A   1      43.041  29.530  35.038  1.00  0.00     0.134 A 
ATOM     83  F   UNL A   1      41.497  27.839  32.225  1.00  0.00    -0.206 F 
ATOM     84  C   UNL A   1      41.583  27.234  34.487  1.00  0.00     0.040 A 
ATOM     85  C   UNL A   1      42.740  28.629  36.065  1.00  0.00     0.040 A 
ATOM     86  F   UNL A   1      43.676  30.658  35.384  1.00  0.00    -0.206 F 
ATOM     87  C   UNL A   1      42.004  27.479  35.790  1.00  0.00     0.006 A 
ENDBRANCH  63  80
ENDBRANCH  37  38
ENDBRANCH  30  32
ENDBRANCH  29  30
ENDBRANCH  28  29
ENDBRANCH   1  28
TORSDOF 13
ENDMDL
MODEL 3
REMARK VINA RESULT:     -12.6      4.460      8.451
REMARK SMILES Cc1ccc2c(c1)c(-c1ccnc3c(C)cccc13)c(C)n2CC(=O)OCCOC(=O)c1ccc(-c2c3nc(c(-c4c(F)cccc4F)c4ccc([nH]4)c(-c4c(F)cccc4F)c4nc(c(-c5c(F)cccc5F)c5ccc2[nH]5)C=C4)C=C3)cc1
REMARK SMILES IDX 27 1 26 2 24 3 25 4 23 5 22 6 1 7 2 8 3 9 7 10 4 11 6 12
REMARK SMILES IDX 5 13 8 14 20 15 21 16 9 17 10 18 19 19 11 20 13 21 18 22
REMARK SMILES IDX 12 23 14 24 17 25 15 26 16 27 28 28 29 29 30 30 31 31 32 32
REMARK SMILES IDX 33 33 85 34 34 35 84 36 35 37 36 38 37 39 78 40 38 41 83 42
REMARK SMILES IDX 77 43 79 44 39 45 82 46 76 47 75 48 40 50 66 51 49 52 65 53
REMARK SMILES IDX 50 54 53 55 64 56 80 57 51 58 52 59 63 61 81 62 54 63 41 64
REMARK SMILES IDX 42 65 47 66 43 67 44 68 46 69 48 70 45 71 67 72 68 73 73 74
REMARK SMILES IDX 69 75 70 76 72 77 74 78 71 79 55 80 56 81 61 82 57 83 58 84
REMARK SMILES IDX 60 85 62 86 59 87
REMARK H PARENT 79 49 53 60
REMARK Flexibility Score: inf
ROOT
ATOM      1  C   UNL A   1      34.249  34.794  28.944  1.00  0.00     0.274 C 
ENDROOT
BRANCH   1   2
ATOM      2  O   UNL A   1      33.622  33.850  29.856  1.00  0.00    -0.461 OA
BRANCH   2   3
ATOM      3  C   UNL A   1      34.269  33.632  31.029  1.00  0.00     0.326 C 
ATOM      4  O   UNL A   1      34.071  32.648  31.741  1.00  0.00    -0.250 OA
BRANCH   3   5
ATOM      5  C   UNL A   1      35.306  34.654  31.427  1.00  0.00     0.244 C 
BRANCH   5   6
ATOM      6  N   UNL A   1      36.495  34.238  32.160  1.00  0.00    -0.333 N 
ATOM      7  C   UNL A   1      41.948  34.281  30.712  1.00  0.00     0.044 C 
ATOM      8  C   UNL A   1      40.484  34.238  31.021  1.00  0.00    -0.050 A 
ATOM      9  C   UNL A   1      39.574  34.741  30.090  1.00  0.00     0.005 A 
ATOM     10  C   UNL A   1      40.026  33.752  32.256  1.00  0.00     0.014 A 
ATOM     11  C   UNL A   1      38.206  34.760  30.353  1.00  0.00     0.027 A 
ATOM     12  C   UNL A   1      38.654  33.809  32.565  1.00  0.00     0.008 A 
ATOM     13  C   UNL A   1      37.767  34.299  31.605  1.00  0.00     0.049 A 
ATOM     14  C   UNL A   1      37.886  33.498  33.717  1.00  0.00     0.011 A 
ATOM     15  C   UNL A   1      36.632  34.050  33.525  1.00  0.00     0.024 A 
ATOM     16  C   UNL A   1      35.636  34.381  34.574  1.00  0.00     0.065 C 
BRANCH  14  17
ATOM     17  C   UNL A   1      38.266  32.907  34.991  1.00  0.00    -0.005 A 
ATOM     18  C   UNL A   1      38.041  31.550  35.201  1.00  0.00     0.029 A 
ATOM     19  C   UNL A   1      38.926  33.691  35.976  1.00  0.00     0.008 A 
ATOM     20  C   UNL A   1      38.459  31.018  36.399  1.00  0.00     0.112 A 
ATOM     21  C   UNL A   1      39.284  33.052  37.182  1.00  0.00     0.074 A 
ATOM     22  C   UNL A   1      39.240  35.064  35.797  1.00  0.00     0.011 A 
ATOM     23  N   UNL A   1      39.048  31.737  37.378  1.00  0.00    -0.256 NA
ATOM     24  C   UNL A   1      39.905  33.818  38.182  1.00  0.00    -0.025 A 
ATOM     25  C   UNL A   1      39.879  35.799  36.787  1.00  0.00     0.001 A 
ATOM     26  C   UNL A   1      40.253  33.225  39.523  1.00  0.00     0.047 C 
ATOM     27  C   UNL A   1      40.198  35.180  37.983  1.00  0.00     0.005 A 
ENDBRANCH  14  17
ENDBRANCH   5   6
ENDBRANCH   3   5
ENDBRANCH   2   3
ENDBRANCH   1   2
BRANCH   1  28
ATOM     28  C   UNL A   1      34.554  34.149  27.587  1.00  0.00     0.275 C 
BRANCH  28  29
ATOM     29  O   UNL A   1      35.589  33.168  27.760  1.00  0.00    -0.458 OA
BRANCH  29  30
ATOM     30  C   UNL A   1      35.171  31.886  27.871  1.00  0.00     0.338 C 
ATOM     31  O   UNL A   1      34.219  31.363  27.313  1.00  0.00    -0.246 OA
BRANCH  30  32
ATOM     32  C   UNL A   1      36.324  31.147  28.408  1.00  0.00     0.060 A 
ATOM     33  C   UNL A   1      37.434  31.746  28.990  1.00  0.00     0.016 A 
ATOM     34  C   UNL A   1      36.347  29.796  28.089  1.00  0.00     0.016 A 
ATOM     35  C   UNL A   1      38.602  30.993  29.131  1.00  0.00     0.010 A 
ATOM     36  C   UNL A   1      37.515  29.063  28.170  1.00  0.00     0.010 A 
ATOM     37  C   UNL A   1      38.660  29.676  28.645  1.00  0.00    -0.014 A 
BRANCH  37  38
ATOM     38  C   UNL A   1      39.810  28.829  28.921  1.00  0.00     0.031 A 
ATOM     39  C   UNL A   1      40.032  28.675  30.374  1.00  0.00     0.074 A 
ATOM     40  C   UNL A   1      40.555  28.097  28.071  1.00  0.00     0.049 A 
ATOM     41  N   UNL A   1      40.816  29.396  31.099  1.00  0.00    -0.248 NA
ATOM     42  C   UNL A   1      39.159  27.771  31.137  1.00  0.00     0.031 C 
ATOM     43  C   UNL A   1      40.310  27.767  26.669  1.00  0.00     0.029 A 
ATOM     44  N   UNL A   1      41.729  27.448  28.350  1.00  0.00    -0.354 N 
ATOM     45  C   UNL A   1      40.701  28.888  32.385  1.00  0.00     0.074 A 
ATOM     46  C   UNL A   1      39.523  28.065  32.386  1.00  0.00     0.031 C 
ATOM     47  C   UNL A   1      41.235  26.862  26.257  1.00  0.00     0.029 A 
ATOM     48  C   UNL A   1      42.220  26.669  27.313  1.00  0.00     0.049 A 
ATOM     49  H   UNL A   1      42.186  27.529  29.217  1.00  0.00     0.167 HD
ATOM     50  C   UNL A   1      41.749  28.974  33.246  1.00  0.00     0.037 A 
ATOM     51  C   UNL A   1      43.365  25.939  27.325  1.00  0.00     0.037 A 
ATOM     52  C   UNL A   1      42.766  29.857  32.719  1.00  0.00     0.049 A 
ATOM     53  C   UNL A   1      44.253  26.510  28.365  1.00  0.00     0.074 A 
ATOM     54  C   UNL A   1      42.874  31.202  32.436  1.00  0.00     0.029 A 
ATOM     55  N   UNL A   1      43.777  29.225  32.041  1.00  0.00    -0.354 N 
ATOM     56  N   UNL A   1      44.851  27.662  28.259  1.00  0.00    -0.248 NA
ATOM     57  C   UNL A   1      44.283  25.918  29.696  1.00  0.00     0.031 C 
ATOM     58  C   UNL A   1      43.792  31.300  31.347  1.00  0.00     0.029 A 
ATOM     59  C   UNL A   1      44.228  30.016  31.019  1.00  0.00     0.049 A 
ATOM     60  H   UNL A   1      44.128  28.332  32.260  1.00  0.00     0.167 HD
ATOM     61  C   UNL A   1      44.930  28.133  29.554  1.00  0.00     0.074 A 
ATOM     62  C   UNL A   1      44.755  26.956  30.393  1.00  0.00     0.031 C 
ATOM     63  C   UNL A   1      44.814  29.467  29.814  1.00  0.00     0.037 A 
BRANCH  50  64
ATOM     64  C   UNL A   1      42.094  27.940  34.298  1.00  0.00     0.057 A 
ATOM     65  C   UNL A   1      42.854  26.773  34.077  1.00  0.00     0.134 A 
ATOM     66  C   UNL A   1      41.929  28.291  35.652  1.00  0.00     0.134 A 
ATOM     67  F   UNL A   1      43.150  26.316  32.858  1.00  0.00    -0.206 F 
ATOM     68  C   UNL A   1      43.452  26.051  35.115  1.00  0.00     0.040 A 
ATOM     69  C   UNL A   1      42.565  27.606  36.692  1.00  0.00     0.040 A 
ATOM     70  F   UNL A   1      41.216  29.373  36.002  1.00  0.00    -0.206 F 
ATOM     71  C   UNL A   1      43.342  26.488  36.424  1.00  0.00     0.006 A 
ENDBRANCH  50  64
BRANCH  51  72
ATOM     72  C   UNL A   1      43.770  24.732  26.572  1.00  0.00     0.057 A 
ATOM     73  C   UNL A   1      44.693  24.812  25.519  1.00  0.00     0.134 A 
ATOM     74  C   UNL A   1      43.046  23.531  26.667  1.00  0.00     0.134 A 
ATOM     75  F   UNL A   1      45.395  25.934  25.305  1.00  0.00    -0.206 F 
ATOM     76  C   UNL A   1      44.859  23.776  24.591  1.00  0.00     0.040 A 
ATOM     77  C   UNL A   1      43.198  22.490  25.744  1.00  0.00     0.040 A 
ATOM     78  F   UNL A   1      42.118  23.364  27.622  1.00  0.00    -0.206 F 
ATOM     79  C   UNL A   1      44.096  22.618  24.691  1.00  0.00     0.006 A 
ENDBRANCH  51  72
BRANCH  63  80
ATOM     80  C   UNL A   1      45.125  30.410  28.689  1.00  0.00     0.057 A 
ATOM     81  C   UNL A   1      46.419  30.940  28.608  1.00  0.00     0.134 A 
ATOM     82  C   UNL A   1      44.198  30.849  27.733  1.00  0.00     0.134 A 
ATOM     83  F   UNL A   1      47.348  30.597  29.515  1.00  0.00    -0.206 F 
ATOM     84  C   UNL A   1      46.783  31.852  27.618  1.00  0.00     0.040 A 
ATOM     85  C   UNL A   1      44.561  31.731  26.711  1.00  0.00     0.040 A 
ATOM     86  F   UNL A   1      42.914  30.467  27.781  1.00  0.00    -0.206 F 
ATOM     87  C   UNL A   1      45.857  32.238  26.654  1.00  0.00     0.006 A 
ENDBRANCH  63  80
ENDBRANCH  37  38
ENDBRANCH  30  32
ENDBRANCH  29  30
ENDBRANCH  28  29
ENDBRANCH   1  28
TORSDOF 13
ENDMDL
