MODEL 1
REMARK VINA RESULT:     -11.6      0.000      0.000
REMARK SMILES C[C@@H](NC(=O)c1cc(C(=O)OCCOC(=O)c2ccc(-c3c4nc(c(-c5c(F)cccc5F)c5ccc([nH]5)c(-c5c(F)cccc5F)c5nc(c(-c6c(F)cccc6F)c6ccc3[nH]6)C=C5)C=C4)cc2)n(C)n1)c1ccccc1
REMARK SMILES IDX 12 1 11 2 9 3 10 4 8 5 6 6 7 7 73 8 71 9 72 10 4 11 3 12
REMARK SMILES IDX 5 14 2 15 1 16 74 17 75 18 79 19 76 20 78 21 77 22 13 23
REMARK SMILES IDX 14 24 15 25 16 26 17 27 18 28 70 29 19 30 69 31 20 32 21 33
REMARK SMILES IDX 22 34 63 35 23 36 68 37 62 38 64 39 24 40 67 41 61 42 60 43
REMARK SMILES IDX 25 45 51 46 34 47 50 48 35 49 38 50 49 51 65 52 36 53 37 54
REMARK SMILES IDX 48 56 66 57 39 58 26 59 27 60 32 61 28 62 29 63 31 64 33 65
REMARK SMILES IDX 30 66 52 67 53 68 58 69 54 70 55 71 57 72 59 73 56 74 40 75
REMARK SMILES IDX 41 76 46 77 42 78 43 79 45 80 47 81 44 82
REMARK H PARENT 3 13 64 44 38 55
REMARK Flexibility Score: inf
ROOT
ATOM      1  C   UNL A   1      34.489  20.758  25.411  1.00  0.00     0.275 C 
ENDROOT
BRANCH   1   2
ATOM      2  O   UNL A   1      33.731  21.342  24.326  1.00  0.00    -0.457 OA
BRANCH   2   3
ATOM      3  C   UNL A   1      32.759  22.240  24.648  1.00  0.00     0.356 C 
ATOM      4  O   UNL A   1      31.952  22.091  25.557  1.00  0.00    -0.244 OA
BRANCH   3   5
ATOM      5  C   UNL A   1      32.915  23.455  23.886  1.00  0.00     0.146 A 
ATOM      6  C   UNL A   1      32.450  25.222  22.588  1.00  0.00     0.151 A 
ATOM      7  C   UNL A   1      32.165  23.846  22.784  1.00  0.00     0.071 A 
ATOM      8  N   UNL A   1      33.488  25.594  23.353  1.00  0.00    -0.167 NA
ATOM      9  N   UNL A   1      33.783  24.502  24.088  1.00  0.00    -0.260 N 
ATOM     10  C   UNL A   1      34.990  24.543  24.879  1.00  0.00     0.174 C 
BRANCH   6  11
ATOM     11  C   UNL A   1      31.796  26.147  21.660  1.00  0.00     0.272 C 
ATOM     12  N   UNL A   1      31.219  27.313  22.121  1.00  0.00    -0.344 N 
ATOM     13  H   UNL A   1      31.472  28.129  21.631  1.00  0.00     0.164 HD
ATOM     14  O   UNL A   1      31.767  25.927  20.448  1.00  0.00    -0.267 OA
BRANCH  12  15
ATOM     15  C   UNL A   1      30.281  27.518  23.238  1.00  0.00     0.109 C 
ATOM     16  C   UNL A   1      29.212  28.532  22.796  1.00  0.00     0.036 C 
BRANCH  15  17
ATOM     17  C   UNL A   1      30.884  27.880  24.584  1.00  0.00    -0.026 A 
ATOM     18  C   UNL A   1      31.358  29.180  24.774  1.00  0.00     0.006 A 
ATOM     19  C   UNL A   1      31.045  26.984  25.651  1.00  0.00     0.006 A 
ATOM     20  C   UNL A   1      31.859  29.605  26.002  1.00  0.00     0.000 A 
ATOM     21  C   UNL A   1      31.630  27.390  26.860  1.00  0.00     0.000 A 
ATOM     22  C   UNL A   1      32.017  28.709  27.044  1.00  0.00     0.000 A 
ENDBRANCH  15  17
ENDBRANCH  12  15
ENDBRANCH   6  11
ENDBRANCH   3   5
ENDBRANCH   2   3
ENDBRANCH   1   2
BRANCH   1  23
ATOM     23  C   UNL A   1      35.940  20.540  24.973  1.00  0.00     0.275 C 
BRANCH  23  24
ATOM     24  O   UNL A   1      36.783  21.470  25.677  1.00  0.00    -0.458 OA
BRANCH  24  25
ATOM     25  C   UNL A   1      38.104  21.150  25.714  1.00  0.00     0.338 C 
ATOM     26  O   UNL A   1      38.593  20.102  25.326  1.00  0.00    -0.246 OA
BRANCH  25  27
ATOM     27  C   UNL A   1      38.896  22.317  26.203  1.00  0.00     0.060 A 
ATOM     28  C   UNL A   1      40.083  22.140  26.920  1.00  0.00     0.016 A 
ATOM     29  C   UNL A   1      38.400  23.614  26.026  1.00  0.00     0.016 A 
ATOM     30  C   UNL A   1      40.730  23.234  27.501  1.00  0.00     0.010 A 
ATOM     31  C   UNL A   1      39.107  24.720  26.528  1.00  0.00     0.010 A 
ATOM     32  C   UNL A   1      40.285  24.545  27.273  1.00  0.00    -0.014 A 
BRANCH  32  33
ATOM     33  C   UNL A   1      41.085  25.716  27.747  1.00  0.00     0.031 A 
ATOM     34  C   UNL A   1      40.478  26.789  28.614  1.00  0.00     0.074 A 
ATOM     35  C   UNL A   1      42.377  25.837  27.376  1.00  0.00     0.049 A 
ATOM     36  N   UNL A   1      40.950  27.977  28.908  1.00  0.00    -0.248 NA
ATOM     37  C   UNL A   1      39.172  26.497  29.225  1.00  0.00     0.031 C 
ATOM     38  C   UNL A   1      43.125  24.873  26.566  1.00  0.00     0.029 A 
ATOM     39  N   UNL A   1      43.295  26.830  27.628  1.00  0.00    -0.354 N 
ATOM     40  C   UNL A   1      39.981  28.594  29.691  1.00  0.00     0.074 A 
ATOM     41  C   UNL A   1      38.896  27.643  29.837  1.00  0.00     0.031 C 
ATOM     42  C   UNL A   1      44.388  25.296  26.424  1.00  0.00     0.029 A 
ATOM     43  C   UNL A   1      44.517  26.611  27.036  1.00  0.00     0.049 A 
ATOM     44  H   UNL A   1      43.098  27.621  28.181  1.00  0.00     0.167 HD
ATOM     45  C   UNL A   1      39.992  29.839  30.228  1.00  0.00     0.037 A 
ATOM     46  C   UNL A   1      45.605  27.396  26.930  1.00  0.00     0.037 A 
ATOM     47  C   UNL A   1      41.088  30.773  30.122  1.00  0.00     0.049 A 
ATOM     48  C   UNL A   1      45.582  28.778  27.508  1.00  0.00     0.074 A 
ATOM     49  C   UNL A   1      41.174  32.064  30.619  1.00  0.00     0.029 A 
ATOM     50  N   UNL A   1      42.296  30.509  29.498  1.00  0.00    -0.354 N 
ATOM     51  N   UNL A   1      44.620  29.383  28.158  1.00  0.00    -0.248 NA
ATOM     52  C   UNL A   1      46.787  29.598  27.312  1.00  0.00     0.031 C 
ATOM     53  C   UNL A   1      42.428  32.587  30.281  1.00  0.00     0.029 A 
ATOM     54  C   UNL A   1      43.134  31.609  29.602  1.00  0.00     0.049 A 
ATOM     55  H   UNL A   1      42.527  29.664  29.047  1.00  0.00     0.167 HD
ATOM     56  C   UNL A   1      45.102  30.651  28.451  1.00  0.00     0.074 A 
ATOM     57  C   UNL A   1      46.451  30.721  27.931  1.00  0.00     0.031 C 
ATOM     58  C   UNL A   1      44.475  31.670  29.085  1.00  0.00     0.037 A 
BRANCH  45  59
ATOM     59  C   UNL A   1      38.770  30.294  30.971  1.00  0.00     0.057 A 
ATOM     60  C   UNL A   1      37.709  30.941  30.327  1.00  0.00     0.134 A 
ATOM     61  C   UNL A   1      38.618  30.001  32.334  1.00  0.00     0.134 A 
ATOM     62  F   UNL A   1      37.795  31.256  29.026  1.00  0.00    -0.206 F 
ATOM     63  C   UNL A   1      36.543  31.287  31.014  1.00  0.00     0.040 A 
ATOM     64  C   UNL A   1      37.449  30.324  33.026  1.00  0.00     0.040 A 
ATOM     65  F   UNL A   1      39.593  29.372  33.008  1.00  0.00    -0.206 F 
ATOM     66  C   UNL A   1      36.407  30.970  32.364  1.00  0.00     0.006 A 
ENDBRANCH  45  59
BRANCH  46  67
ATOM     67  C   UNL A   1      46.792  26.912  26.181  1.00  0.00     0.057 A 
ATOM     68  C   UNL A   1      47.793  26.167  26.816  1.00  0.00     0.134 A 
ATOM     69  C   UNL A   1      46.950  27.179  24.816  1.00  0.00     0.134 A 
ATOM     70  F   UNL A   1      47.708  25.904  28.128  1.00  0.00    -0.206 F 
ATOM     71  C   UNL A   1      48.913  25.713  26.121  1.00  0.00     0.040 A 
ATOM     72  C   UNL A   1      48.051  26.706  24.102  1.00  0.00     0.040 A 
ATOM     73  F   UNL A   1      46.023  27.885  24.152  1.00  0.00    -0.206 F 
ATOM     74  C   UNL A   1      49.040  25.975  24.757  1.00  0.00     0.006 A 
ENDBRANCH  46  67
BRANCH  58  75
ATOM     75  C   UNL A   1      45.259  32.932  29.275  1.00  0.00     0.057 A 
ATOM     76  C   UNL A   1      46.076  33.128  30.396  1.00  0.00     0.134 A 
ATOM     77  C   UNL A   1      45.196  33.962  28.329  1.00  0.00     0.134 A 
ATOM     78  F   UNL A   1      46.163  32.186  31.346  1.00  0.00    -0.206 F 
ATOM     79  C   UNL A   1      46.787  34.315  30.579  1.00  0.00     0.040 A 
ATOM     80  C   UNL A   1      45.917  35.145  28.492  1.00  0.00     0.040 A 
ATOM     81  F   UNL A   1      44.434  33.833  27.233  1.00  0.00    -0.206 F 
ATOM     82  C   UNL A   1      46.710  35.326  29.624  1.00  0.00     0.006 A 
ENDBRANCH  58  75
ENDBRANCH  32  33
ENDBRANCH  25  27
ENDBRANCH  24  25
ENDBRANCH  23  24
ENDBRANCH   1  23
TORSDOF 14
ENDMDL
MODEL 2
REMARK VINA RESULT:     -11.6      1.387      2.119
REMARK SMILES C[C@@H](NC(=O)c1cc(C(=O)OCCOC(=O)c2ccc(-c3c4nc(c(-c5c(F)cccc5F)c5ccc([nH]5)c(-c5c(F)cccc5F)c5nc(c(-c6c(F)cccc6F)c6ccc3[nH]6)C=C5)C=C4)cc2)n(C)n1)c1ccccc1
REMARK SMILES IDX 12 1 11 2 9 3 10 4 8 5 6 6 7 7 73 8 71 9 72 10 4 11 3 12
REMARK SMILES IDX 5 14 2 15 1 16 74 17 75 18 79 19 76 20 78 21 77 22 13 23
REMARK SMILES IDX 14 24 15 25 16 26 17 27 18 28 70 29 19 30 69 31 20 32 21 33
REMARK SMILES IDX 22 34 63 35 23 36 68 37 62 38 64 39 24 40 67 41 61 42 60 43
REMARK SMILES IDX 25 45 51 46 34 47 50 48 35 49 38 50 49 51 65 52 36 53 37 54
REMARK SMILES IDX 48 56 66 57 39 58 26 59 27 60 32 61 28 62 29 63 31 64 33 65
REMARK SMILES IDX 30 66 52 67 53 68 58 69 54 70 55 71 57 72 59 73 56 74 40 75
REMARK SMILES IDX 41 76 46 77 42 78 43 79 45 80 47 81 44 82
REMARK H PARENT 3 13 64 44 38 55
REMARK Flexibility Score: inf
ROOT
ATOM      1  C   UNL A   1      34.813  20.471  25.033  1.00  0.00     0.275 C 
ENDROOT
BRANCH   1   2
ATOM      2  O   UNL A   1      33.662  21.056  24.381  1.00  0.00    -0.457 OA
BRANCH   2   3
ATOM      3  C   UNL A   1      32.463  20.969  25.022  1.00  0.00     0.356 C 
ATOM      4  O   UNL A   1      31.817  19.936  25.147  1.00  0.00    -0.244 OA
BRANCH   3   5
ATOM      5  C   UNL A   1      32.140  22.216  25.672  1.00  0.00     0.146 A 
ATOM      6  C   UNL A   1      31.081  24.114  26.220  1.00  0.00     0.151 A 
ATOM      7  C   UNL A   1      31.424  23.275  25.128  1.00  0.00     0.071 A 
ATOM      8  N   UNL A   1      31.748  23.736  27.322  1.00  0.00    -0.167 NA
ATOM      9  N   UNL A   1      32.417  22.624  26.955  1.00  0.00    -0.260 N 
ATOM     10  C   UNL A   1      33.380  22.093  27.891  1.00  0.00     0.174 C 
BRANCH   6  11
ATOM     11  C   UNL A   1      30.189  25.275  26.208  1.00  0.00     0.272 C 
ATOM     12  N   UNL A   1      30.563  26.441  25.570  1.00  0.00    -0.344 N 
ATOM     13  H   UNL A   1      29.891  26.818  24.956  1.00  0.00     0.164 HD
ATOM     14  O   UNL A   1      29.077  25.237  26.738  1.00  0.00    -0.267 OA
BRANCH  12  15
ATOM     15  C   UNL A   1      31.819  27.205  25.671  1.00  0.00     0.109 C 
ATOM     16  C   UNL A   1      31.536  28.507  26.439  1.00  0.00     0.036 C 
BRANCH  15  17
ATOM     17  C   UNL A   1      32.572  27.462  24.377  1.00  0.00    -0.026 A 
ATOM     18  C   UNL A   1      33.207  28.694  24.209  1.00  0.00     0.006 A 
ATOM     19  C   UNL A   1      32.642  26.560  23.305  1.00  0.00     0.006 A 
ATOM     20  C   UNL A   1      33.975  28.975  23.082  1.00  0.00     0.000 A 
ATOM     21  C   UNL A   1      33.344  26.878  22.133  1.00  0.00     0.000 A 
ATOM     22  C   UNL A   1      34.031  28.079  22.030  1.00  0.00     0.000 A 
ENDBRANCH  15  17
ENDBRANCH  12  15
ENDBRANCH   6  11
ENDBRANCH   3   5
ENDBRANCH   2   3
ENDBRANCH   1   2
BRANCH   1  23
ATOM     23  C   UNL A   1      36.076  21.249  24.653  1.00  0.00     0.275 C 
BRANCH  23  24
ATOM     24  O   UNL A   1      36.820  21.541  25.850  1.00  0.00    -0.458 OA
BRANCH  24  25
ATOM     25  C   UNL A   1      38.147  21.251  25.800  1.00  0.00     0.338 C 
ATOM     26  O   UNL A   1      38.636  20.229  25.347  1.00  0.00    -0.246 OA
BRANCH  25  27
ATOM     27  C   UNL A   1      38.942  22.419  26.283  1.00  0.00     0.060 A 
ATOM     28  C   UNL A   1      40.110  22.244  27.030  1.00  0.00     0.016 A 
ATOM     29  C   UNL A   1      38.465  23.718  26.067  1.00  0.00     0.016 A 
ATOM     30  C   UNL A   1      40.756  23.343  27.603  1.00  0.00     0.010 A 
ATOM     31  C   UNL A   1      39.172  24.826  26.562  1.00  0.00     0.010 A 
ATOM     32  C   UNL A   1      40.332  24.654  27.338  1.00  0.00    -0.014 A 
BRANCH  32  33
ATOM     33  C   UNL A   1      41.133  25.826  27.806  1.00  0.00     0.031 A 
ATOM     34  C   UNL A   1      40.534  26.894  28.684  1.00  0.00     0.074 A 
ATOM     35  C   UNL A   1      42.420  25.953  27.419  1.00  0.00     0.049 A 
ATOM     36  N   UNL A   1      41.006  28.083  28.977  1.00  0.00    -0.248 NA
ATOM     37  C   UNL A   1      39.237  26.595  29.311  1.00  0.00     0.031 C 
ATOM     38  C   UNL A   1      43.161  24.994  26.596  1.00  0.00     0.029 A 
ATOM     39  N   UNL A   1      43.339  26.947  27.663  1.00  0.00    -0.354 N 
ATOM     40  C   UNL A   1      40.046  28.694  29.774  1.00  0.00     0.074 A 
ATOM     41  C   UNL A   1      38.966  27.738  29.931  1.00  0.00     0.031 C 
ATOM     42  C   UNL A   1      44.421  25.421  26.439  1.00  0.00     0.029 A 
ATOM     43  C   UNL A   1      44.553  26.735  27.054  1.00  0.00     0.049 A 
ATOM     44  H   UNL A   1      43.146  27.735  28.221  1.00  0.00     0.167 HD
ATOM     45  C   UNL A   1      40.060  29.936  30.315  1.00  0.00     0.037 A 
ATOM     46  C   UNL A   1      45.638  27.523  26.938  1.00  0.00     0.037 A 
ATOM     47  C   UNL A   1      41.152  30.874  30.198  1.00  0.00     0.049 A 
ATOM     48  C   UNL A   1      45.618  28.903  27.520  1.00  0.00     0.074 A 
ATOM     49  C   UNL A   1      41.239  32.164  30.700  1.00  0.00     0.029 A 
ATOM     50  N   UNL A   1      42.352  30.617  29.558  1.00  0.00    -0.354 N 
ATOM     51  N   UNL A   1      44.662  29.503  28.185  1.00  0.00    -0.248 NA
ATOM     52  C   UNL A   1      46.818  29.727  27.312  1.00  0.00     0.031 C 
ATOM     53  C   UNL A   1      42.487  32.692  30.347  1.00  0.00     0.029 A 
ATOM     54  C   UNL A   1      43.187  31.719  29.656  1.00  0.00     0.049 A 
ATOM     55  H   UNL A   1      42.579  29.774  29.101  1.00  0.00     0.167 HD
ATOM     56  C   UNL A   1      45.144  30.771  28.477  1.00  0.00     0.074 A 
ATOM     57  C   UNL A   1      46.486  30.847  27.940  1.00  0.00     0.031 C 
ATOM     58  C   UNL A   1      44.522  31.785  29.121  1.00  0.00     0.037 A 
BRANCH  45  59
ATOM     59  C   UNL A   1      38.846  30.385  31.076  1.00  0.00     0.057 A 
ATOM     60  C   UNL A   1      38.721  30.186  32.456  1.00  0.00     0.134 A 
ATOM     61  C   UNL A   1      37.830  31.104  30.432  1.00  0.00     0.134 A 
ATOM     62  F   UNL A   1      39.655  29.499  33.131  1.00  0.00    -0.206 F 
ATOM     63  C   UNL A   1      37.624  30.679  33.166  1.00  0.00     0.040 A 
ATOM     64  C   UNL A   1      36.739  31.620  31.134  1.00  0.00     0.040 A 
ATOM     65  F   UNL A   1      37.894  31.340  29.112  1.00  0.00    -0.206 F 
ATOM     66  C   UNL A   1      36.634  31.406  32.507  1.00  0.00     0.006 A 
ENDBRANCH  45  59
BRANCH  46  67
ATOM     67  C   UNL A   1      46.816  27.045  26.172  1.00  0.00     0.057 A 
ATOM     68  C   UNL A   1      47.847  26.337  26.800  1.00  0.00     0.134 A 
ATOM     69  C   UNL A   1      46.937  27.282  24.798  1.00  0.00     0.134 A 
ATOM     70  F   UNL A   1      47.799  26.103  28.119  1.00  0.00    -0.206 F 
ATOM     71  C   UNL A   1      48.961  25.889  26.088  1.00  0.00     0.040 A 
ATOM     72  C   UNL A   1      48.030  26.815  24.068  1.00  0.00     0.040 A 
ATOM     73  F   UNL A   1      45.980  27.953  24.139  1.00  0.00    -0.206 F 
ATOM     74  C   UNL A   1      49.049  26.120  24.716  1.00  0.00     0.006 A 
ENDBRANCH  46  67
BRANCH  58  75
ATOM     75  C   UNL A   1      45.304  33.050  29.306  1.00  0.00     0.057 A 
ATOM     76  C   UNL A   1      46.130  33.247  30.421  1.00  0.00     0.134 A 
ATOM     77  C   UNL A   1      45.232  34.080  28.361  1.00  0.00     0.134 A 
ATOM     78  F   UNL A   1      46.227  32.304  31.370  1.00  0.00    -0.206 F 
ATOM     79  C   UNL A   1      46.839  34.436  30.599  1.00  0.00     0.040 A 
ATOM     80  C   UNL A   1      45.951  35.265  28.520  1.00  0.00     0.040 A 
ATOM     81  F   UNL A   1      44.461  33.950  27.271  1.00  0.00    -0.206 F 
ATOM     82  C   UNL A   1      46.752  35.447  29.645  1.00  0.00     0.006 A 
ENDBRANCH  58  75
ENDBRANCH  32  33
ENDBRANCH  25  27
ENDBRANCH  24  25
ENDBRANCH  23  24
ENDBRANCH   1  23
TORSDOF 14
ENDMDL
MODEL 3
REMARK VINA RESULT:     -11.5      3.809      8.805
REMARK SMILES C[C@@H](NC(=O)c1cc(C(=O)OCCOC(=O)c2ccc(-c3c4nc(c(-c5c(F)cccc5F)c5ccc([nH]5)c(-c5c(F)cccc5F)c5nc(c(-c6c(F)cccc6F)c6ccc3[nH]6)C=C5)C=C4)cc2)n(C)n1)c1ccccc1
REMARK SMILES IDX 12 1 11 2 9 3 10 4 8 5 6 6 7 7 73 8 71 9 72 10 4 11 3 12
REMARK SMILES IDX 5 14 2 15 1 16 74 17 75 18 79 19 76 20 78 21 77 22 13 23
REMARK SMILES IDX 14 24 15 25 16 26 17 27 18 28 70 29 19 30 69 31 20 32 21 33
REMARK SMILES IDX 22 34 63 35 23 36 68 37 62 38 64 39 24 40 67 41 61 42 60 43
REMARK SMILES IDX 25 45 51 46 34 47 50 48 35 49 38 50 49 51 65 52 36 53 37 54
REMARK SMILES IDX 48 56 66 57 39 58 26 59 27 60 32 61 28 62 29 63 31 64 33 65
REMARK SMILES IDX 30 66 52 67 53 68 58 69 54 70 55 71 57 72 59 73 56 74 40 75
REMARK SMILES IDX 41 76 46 77 42 78 43 79 45 80 47 81 44 82
REMARK H PARENT 3 13 64 44 38 55
REMARK Flexibility Score: inf
ROOT
ATOM      1  C   UNL A   1      31.190  28.998  24.845  1.00  0.00     0.275 C 
ENDROOT
BRANCH   1   2
ATOM      2  O   UNL A   1      31.770  28.024  25.743  1.00  0.00    -0.457 OA
BRANCH   2   3
ATOM      3  C   UNL A   1      32.729  27.198  25.241  1.00  0.00     0.356 C 
ATOM      4  O   UNL A   1      33.918  27.482  25.163  1.00  0.00    -0.244 OA
BRANCH   3   5
ATOM      5  C   UNL A   1      32.184  25.889  24.971  1.00  0.00     0.146 A 
ATOM      6  C   UNL A   1      31.404  23.810  25.271  1.00  0.00     0.151 A 
ATOM      7  C   UNL A   1      32.379  24.737  25.722  1.00  0.00     0.071 A 
ATOM      8  N   UNL A   1      30.815  24.263  24.154  1.00  0.00    -0.167 NA
ATOM      9  N   UNL A   1      31.336  25.492  23.964  1.00  0.00    -0.260 N 
ATOM     10  C   UNL A   1      31.027  26.158  22.721  1.00  0.00     0.174 C 
BRANCH   6  11
ATOM     11  C   UNL A   1      31.078  22.505  25.850  1.00  0.00     0.272 C 
ATOM     12  N   UNL A   1      31.978  21.460  25.779  1.00  0.00    -0.344 N 
ATOM     13  H   UNL A   1      32.149  20.995  26.630  1.00  0.00     0.164 HD
ATOM     14  O   UNL A   1      30.012  22.310  26.436  1.00  0.00    -0.267 OA
BRANCH  12  15
ATOM     15  C   UNL A   1      32.722  20.939  24.619  1.00  0.00     0.109 C 
ATOM     16  C   UNL A   1      32.591  19.407  24.606  1.00  0.00     0.036 C 
BRANCH  15  17
ATOM     17  C   UNL A   1      34.165  21.387  24.471  1.00  0.00    -0.026 A 
ATOM     18  C   UNL A   1      34.442  22.487  23.657  1.00  0.00     0.006 A 
ATOM     19  C   UNL A   1      35.263  20.743  25.062  1.00  0.00     0.006 A 
ATOM     20  C   UNL A   1      35.730  22.999  23.529  1.00  0.00     0.000 A 
ATOM     21  C   UNL A   1      36.572  21.207  24.863  1.00  0.00     0.000 A 
ATOM     22  C   UNL A   1      36.804  22.351  24.113  1.00  0.00     0.000 A 
ENDBRANCH  15  17
ENDBRANCH  12  15
ENDBRANCH   6  11
ENDBRANCH   3   5
ENDBRANCH   2   3
ENDBRANCH   1   2
BRANCH   1  23
ATOM     23  C   UNL A   1      31.391  30.408  25.407  1.00  0.00     0.275 C 
BRANCH  23  24
ATOM     24  O   UNL A   1      32.734  30.521  25.911  1.00  0.00    -0.458 OA
BRANCH  24  25
ATOM     25  C   UNL A   1      32.924  31.471  26.865  1.00  0.00     0.338 C 
ATOM     26  O   UNL A   1      32.137  32.358  27.152  1.00  0.00    -0.246 OA
BRANCH  25  27
ATOM     27  C   UNL A   1      34.198  31.211  27.596  1.00  0.00     0.060 A 
ATOM     28  C   UNL A   1      35.069  32.251  27.933  1.00  0.00     0.016 A 
ATOM     29  C   UNL A   1      34.582  29.893  27.872  1.00  0.00     0.016 A 
ATOM     30  C   UNL A   1      36.325  31.976  28.479  1.00  0.00     0.010 A 
ATOM     31  C   UNL A   1      35.804  29.627  28.512  1.00  0.00     0.010 A 
ATOM     32  C   UNL A   1      36.695  30.667  28.827  1.00  0.00    -0.014 A 
BRANCH  32  33
ATOM     33  C   UNL A   1      37.963  30.405  29.573  1.00  0.00     0.031 A 
ATOM     34  C   UNL A   1      39.059  29.549  28.994  1.00  0.00     0.074 A 
ATOM     35  C   UNL A   1      38.131  30.923  30.809  1.00  0.00     0.049 A 
ATOM     36  N   UNL A   1      40.102  29.026  29.593  1.00  0.00    -0.248 NA
ATOM     37  C   UNL A   1      38.974  29.233  27.559  1.00  0.00     0.031 C 
ATOM     38  C   UNL A   1      37.182  31.797  31.502  1.00  0.00     0.029 A 
ATOM     39  N   UNL A   1      39.162  30.786  31.709  1.00  0.00    -0.354 N 
ATOM     40  C   UNL A   1      40.768  28.278  28.628  1.00  0.00     0.074 A 
ATOM     41  C   UNL A   1      40.015  28.424  27.397  1.00  0.00     0.031 C 
ATOM     42  C   UNL A   1      37.688  32.150  32.691  1.00  0.00     0.029 A 
ATOM     43  C   UNL A   1      38.945  31.443  32.896  1.00  0.00     0.049 A 
ATOM     44  H   UNL A   1      39.978  30.268  31.519  1.00  0.00     0.167 HD
ATOM     45  C   UNL A   1      41.892  27.533  28.761  1.00  0.00     0.037 A 
ATOM     46  C   UNL A   1      39.635  31.438  34.052  1.00  0.00     0.037 A 
ATOM     47  C   UNL A   1      42.668  27.420  29.973  1.00  0.00     0.049 A 
ATOM     48  C   UNL A   1      40.859  30.584  34.182  1.00  0.00     0.074 A 
ATOM     49  C   UNL A   1      43.812  26.669  30.200  1.00  0.00     0.029 A 
ATOM     50  N   UNL A   1      42.398  28.093  31.153  1.00  0.00    -0.354 N 
ATOM     51  N   UNL A   1      41.417  29.804  33.291  1.00  0.00    -0.248 NA
ATOM     52  C   UNL A   1      41.534  30.589  35.489  1.00  0.00     0.031 C 
ATOM     53  C   UNL A   1      44.222  26.875  31.522  1.00  0.00     0.029 A 
ATOM     54  C   UNL A   1      43.353  27.780  32.107  1.00  0.00     0.049 A 
ATOM     55  H   UNL A   1      41.639  28.704  31.293  1.00  0.00     0.167 HD
ATOM     56  C   UNL A   1      42.508  29.227  33.926  1.00  0.00     0.074 A 
ATOM     57  C   UNL A   1      42.549  29.765  35.269  1.00  0.00     0.031 C 
ATOM     58  C   UNL A   1      43.389  28.321  33.440  1.00  0.00     0.037 A 
BRANCH  45  59
ATOM     59  C   UNL A   1      42.359  26.749  27.569  1.00  0.00     0.057 A 
ATOM     60  C   UNL A   1      41.942  25.433  27.338  1.00  0.00     0.134 A 
ATOM     61  C   UNL A   1      43.168  27.351  26.595  1.00  0.00     0.134 A 
ATOM     62  F   UNL A   1      41.174  24.796  28.235  1.00  0.00    -0.206 F 
ATOM     63  C   UNL A   1      42.319  24.741  26.184  1.00  0.00     0.040 A 
ATOM     64  C   UNL A   1      43.534  26.678  25.428  1.00  0.00     0.040 A 
ATOM     65  F   UNL A   1      43.593  28.615  26.749  1.00  0.00    -0.206 F 
ATOM     66  C   UNL A   1      43.109  25.367  25.222  1.00  0.00     0.006 A 
ENDBRANCH  45  59
BRANCH  46  67
ATOM     67  C   UNL A   1      39.136  32.222  35.210  1.00  0.00     0.057 A 
ATOM     68  C   UNL A   1      39.432  33.584  35.341  1.00  0.00     0.134 A 
ATOM     69  C   UNL A   1      38.352  31.630  36.207  1.00  0.00     0.134 A 
ATOM     70  F   UNL A   1      40.200  34.199  34.431  1.00  0.00    -0.206 F 
ATOM     71  C   UNL A   1      38.971  34.326  36.429  1.00  0.00     0.040 A 
ATOM     72  C   UNL A   1      37.861  32.367  37.285  1.00  0.00     0.040 A 
ATOM     73  F   UNL A   1      38.033  30.329  36.135  1.00  0.00    -0.206 F 
ATOM     74  C   UNL A   1      38.176  33.720  37.400  1.00  0.00     0.006 A 
ENDBRANCH  46  67
BRANCH  58  75
ATOM     75  C   UNL A   1      44.487  27.884  34.361  1.00  0.00     0.057 A 
ATOM     76  C   UNL A   1      45.701  28.580  34.437  1.00  0.00     0.134 A 
ATOM     77  C   UNL A   1      44.329  26.760  35.178  1.00  0.00     0.134 A 
ATOM     78  F   UNL A   1      45.919  29.654  33.666  1.00  0.00    -0.206 F 
ATOM     79  C   UNL A   1      46.729  28.156  35.280  1.00  0.00     0.040 A 
ATOM     80  C   UNL A   1      45.343  26.337  36.038  1.00  0.00     0.040 A 
ATOM     81  F   UNL A   1      43.189  26.054  35.152  1.00  0.00    -0.206 F 
ATOM     82  C   UNL A   1      46.550  27.033  36.086  1.00  0.00     0.006 A 
ENDBRANCH  58  75
ENDBRANCH  32  33
ENDBRANCH  25  27
ENDBRANCH  24  25
ENDBRANCH  23  24
ENDBRANCH   1  23
TORSDOF 14
ENDMDL
