MODEL 1
REMARK VINA RESULT:     -11.1      0.000      0.000
REMARK SMILES CC(C)=CC(=O)Nc1ccc(C(=O)OCCOC(=O)c2ccc(-c3c4nc(c(-c5c(F)cccc5F)c5ccc([nH]5)c(-c5c(F)cccc5F)c5nc(c(-c6c(F)cccc6F)c6ccc3[nH]6)C=C5)C=C4)cc2)cc1
REMARK SMILES IDX 15 1 14 2 12 3 13 4 11 5 8 6 9 7 75 8 10 9 74 10 7 11 5 12
REMARK SMILES IDX 6 13 4 15 1 16 2 17 3 18 16 19 17 20 18 21 19 22 20 23 21 24
REMARK SMILES IDX 73 25 22 26 72 27 23 28 24 29 25 30 66 31 26 32 71 33 65 34
REMARK SMILES IDX 67 35 27 36 70 37 64 38 63 39 28 41 54 42 37 43 53 44 38 45
REMARK SMILES IDX 41 46 52 47 68 48 39 49 40 50 51 52 69 53 42 54 29 55 30 56
REMARK SMILES IDX 35 57 31 58 32 59 34 60 36 61 33 62 55 63 56 64 61 65 57 66
REMARK SMILES IDX 58 67 60 68 62 69 59 70 43 71 44 72 49 73 45 74 46 75 48 76
REMARK SMILES IDX 50 77 47 78
REMARK H PARENT 7 14 67 40 41 51
REMARK Flexibility Score: inf
ROOT
ATOM      1  C   UNL A   1      42.434  20.526  26.263  1.00  0.00     0.275 C 
ENDROOT
BRANCH   1   2
ATOM      2  O   UNL A   1      41.183  21.042  25.767  1.00  0.00    -0.458 OA
BRANCH   2   3
ATOM      3  C   UNL A   1      40.293  21.385  26.727  1.00  0.00     0.338 C 
ATOM      4  O   UNL A   1      40.469  21.342  27.936  1.00  0.00    -0.246 OA
BRANCH   3   5
ATOM      5  C   UNL A   1      39.018  21.851  26.144  1.00  0.00     0.060 A 
ATOM      6  C   UNL A   1      36.983  22.807  24.511  1.00  0.00     0.041 A 
ATOM      7  C   UNL A   1      37.250  21.440  24.534  1.00  0.00     0.027 A 
ATOM      8  C   UNL A   1      37.599  23.659  25.435  1.00  0.00     0.027 A 
ATOM      9  C   UNL A   1      38.305  20.975  25.314  1.00  0.00     0.018 A 
ATOM     10  C   UNL A   1      38.617  23.181  26.263  1.00  0.00     0.018 A 
BRANCH   6  11
ATOM     11  N   UNL A   1      36.208  23.276  23.442  1.00  0.00    -0.323 N 
ATOM     12  C   UNL A   1      34.843  23.374  23.361  1.00  0.00     0.248 C 
ATOM     13  O   UNL A   1      34.304  23.760  22.325  1.00  0.00    -0.270 OA
ATOM     14  H   UNL A   1      36.708  23.574  22.648  1.00  0.00     0.170 HD
BRANCH  12  15
ATOM     15  C   UNL A   1      33.998  23.041  24.539  1.00  0.00     0.070 C 
ATOM     16  C   UNL A   1      33.963  25.343  25.620  1.00  0.00     0.039 C 
ATOM     17  C   UNL A   1      33.630  23.876  25.533  1.00  0.00    -0.071 C 
ATOM     18  C   UNL A   1      32.830  23.364  26.700  1.00  0.00     0.039 C 
ENDBRANCH  12  15
ENDBRANCH   6  11
ENDBRANCH   3   5
ENDBRANCH   2   3
ENDBRANCH   1   2
BRANCH   1  19
ATOM     19  C   UNL A   1      43.615  21.262  25.632  1.00  0.00     0.275 C 
BRANCH  19  20
ATOM     20  O   UNL A   1      43.820  22.526  26.292  1.00  0.00    -0.458 OA
BRANCH  20  21
ATOM     21  C   UNL A   1      43.540  23.628  25.564  1.00  0.00     0.338 C 
ATOM     22  O   UNL A   1      43.732  23.791  24.364  1.00  0.00    -0.246 OA
BRANCH  21  23
ATOM     23  C   UNL A   1      42.945  24.673  26.415  1.00  0.00     0.060 A 
ATOM     24  C   UNL A   1      43.343  26.003  26.287  1.00  0.00     0.016 A 
ATOM     25  C   UNL A   1      42.081  24.308  27.445  1.00  0.00     0.016 A 
ATOM     26  C   UNL A   1      42.975  26.945  27.247  1.00  0.00     0.010 A 
ATOM     27  C   UNL A   1      41.622  25.277  28.344  1.00  0.00     0.010 A 
ATOM     28  C   UNL A   1      42.101  26.599  28.288  1.00  0.00    -0.014 A 
BRANCH  28  29
ATOM     29  C   UNL A   1      41.728  27.586  29.344  1.00  0.00     0.031 A 
ATOM     30  C   UNL A   1      42.540  27.670  30.613  1.00  0.00     0.074 A 
ATOM     31  C   UNL A   1      40.675  28.413  29.190  1.00  0.00     0.049 A 
ATOM     32  N   UNL A   1      42.256  28.271  31.742  1.00  0.00    -0.248 NA
ATOM     33  C   UNL A   1      43.835  26.970  30.618  1.00  0.00     0.031 C 
ATOM     34  C   UNL A   1      39.820  28.494  28.006  1.00  0.00     0.029 A 
ATOM     35  N   UNL A   1      40.146  29.351  30.042  1.00  0.00    -0.354 N 
ATOM     36  C   UNL A   1      43.293  27.954  32.611  1.00  0.00     0.074 A 
ATOM     37  C   UNL A   1      44.222  27.122  31.876  1.00  0.00     0.031 C 
ATOM     38  C   UNL A   1      38.904  29.459  28.187  1.00  0.00     0.029 A 
ATOM     39  C   UNL A   1      39.046  30.000  29.535  1.00  0.00     0.049 A 
ATOM     40  H   UNL A   1      40.520  29.542  30.934  1.00  0.00     0.167 HD
ATOM     41  C   UNL A   1      43.452  28.316  33.908  1.00  0.00     0.037 A 
ATOM     42  C   UNL A   1      38.215  30.896  30.099  1.00  0.00     0.037 A 
ATOM     43  C   UNL A   1      42.575  29.209  34.617  1.00  0.00     0.049 A 
ATOM     44  C   UNL A   1      38.415  31.294  31.532  1.00  0.00     0.074 A 
ATOM     45  C   UNL A   1      42.660  29.643  35.929  1.00  0.00     0.029 A 
ATOM     46  N   UNL A   1      41.469  29.833  34.062  1.00  0.00    -0.354 N 
ATOM     47  N   UNL A   1      39.342  30.909  32.374  1.00  0.00    -0.248 NA
ATOM     48  C   UNL A   1      37.432  32.227  32.104  1.00  0.00     0.031 C 
ATOM     49  C   UNL A   1      41.597  30.518  36.172  1.00  0.00     0.029 A 
ATOM     50  C   UNL A   1      40.866  30.649  35.003  1.00  0.00     0.049 A 
ATOM     51  H   UNL A   1      41.159  29.714  33.135  1.00  0.00     0.167 HD
ATOM     52  C   UNL A   1      39.056  31.550  33.572  1.00  0.00     0.074 A 
ATOM     53  C   UNL A   1      37.883  32.368  33.342  1.00  0.00     0.031 C 
ATOM     54  C   UNL A   1      39.702  31.459  34.759  1.00  0.00     0.037 A 
BRANCH  41  55
ATOM     55  C   UNL A   1      44.604  27.717  34.657  1.00  0.00     0.057 A 
ATOM     56  C   UNL A   1      45.848  28.350  34.743  1.00  0.00     0.134 A 
ATOM     57  C   UNL A   1      44.448  26.499  35.332  1.00  0.00     0.134 A 
ATOM     58  F   UNL A   1      46.066  29.511  34.107  1.00  0.00    -0.206 F 
ATOM     59  C   UNL A   1      46.903  27.785  35.463  1.00  0.00     0.040 A 
ATOM     60  C   UNL A   1      45.488  25.934  36.070  1.00  0.00     0.040 A 
ATOM     61  F   UNL A   1      43.278  25.844  35.291  1.00  0.00    -0.206 F 
ATOM     62  C   UNL A   1      46.722  26.576  36.133  1.00  0.00     0.006 A 
ENDBRANCH  41  55
BRANCH  42  63
ATOM     63  C   UNL A   1      37.083  31.448  29.314  1.00  0.00     0.057 A 
ATOM     64  C   UNL A   1      37.147  32.732  28.765  1.00  0.00     0.134 A 
ATOM     65  C   UNL A   1      35.920  30.702  29.087  1.00  0.00     0.134 A 
ATOM     66  F   UNL A   1      38.225  33.502  28.970  1.00  0.00    -0.206 F 
ATOM     67  C   UNL A   1      36.092  33.260  28.018  1.00  0.00     0.040 A 
ATOM     68  C   UNL A   1      34.867  31.207  28.324  1.00  0.00     0.040 A 
ATOM     69  F   UNL A   1      35.800  29.465  29.588  1.00  0.00    -0.206 F 
ATOM     70  C   UNL A   1      34.950  32.492  27.789  1.00  0.00     0.006 A 
ENDBRANCH  42  63
BRANCH  54  71
ATOM     71  C   UNL A   1      39.163  32.278  35.890  1.00  0.00     0.057 A 
ATOM     72  C   UNL A   1      39.545  33.612  36.076  1.00  0.00     0.134 A 
ATOM     73  C   UNL A   1      38.232  31.736  36.785  1.00  0.00     0.134 A 
ATOM     74  F   UNL A   1      40.443  34.181  35.258  1.00  0.00    -0.206 F 
ATOM     75  C   UNL A   1      39.031  34.376  37.124  1.00  0.00     0.040 A 
ATOM     76  C   UNL A   1      37.699  32.495  37.827  1.00  0.00     0.040 A 
ATOM     77  F   UNL A   1      37.823  30.465  36.656  1.00  0.00    -0.206 F 
ATOM     78  C   UNL A   1      38.101  33.818  38.001  1.00  0.00     0.006 A 
ENDBRANCH  54  71
ENDBRANCH  28  29
ENDBRANCH  21  23
ENDBRANCH  20  21
ENDBRANCH  19  20
ENDBRANCH   1  19
TORSDOF 13
ENDMDL
MODEL 2
REMARK VINA RESULT:     -11.0      5.048     10.151
REMARK SMILES CC(C)=CC(=O)Nc1ccc(C(=O)OCCOC(=O)c2ccc(-c3c4nc(c(-c5c(F)cccc5F)c5ccc([nH]5)c(-c5c(F)cccc5F)c5nc(c(-c6c(F)cccc6F)c6ccc3[nH]6)C=C5)C=C4)cc2)cc1
REMARK SMILES IDX 15 1 14 2 12 3 13 4 11 5 8 6 9 7 75 8 10 9 74 10 7 11 5 12
REMARK SMILES IDX 6 13 4 15 1 16 2 17 3 18 16 19 17 20 18 21 19 22 20 23 21 24
REMARK SMILES IDX 73 25 22 26 72 27 23 28 24 29 25 30 66 31 26 32 71 33 65 34
REMARK SMILES IDX 67 35 27 36 70 37 64 38 63 39 28 41 54 42 37 43 53 44 38 45
REMARK SMILES IDX 41 46 52 47 68 48 39 49 40 50 51 52 69 53 42 54 29 55 30 56
REMARK SMILES IDX 35 57 31 58 32 59 34 60 36 61 33 62 55 63 56 64 61 65 57 66
REMARK SMILES IDX 58 67 60 68 62 69 59 70 43 71 44 72 49 73 45 74 46 75 48 76
REMARK SMILES IDX 50 77 47 78
REMARK H PARENT 7 14 67 40 41 51
REMARK Flexibility Score: inf
ROOT
ATOM      1  C   UNL A   1      34.208  33.971  29.459  1.00  0.00     0.275 C 
ENDROOT
BRANCH   1   2
ATOM      2  O   UNL A   1      33.678  32.751  28.906  1.00  0.00    -0.458 OA
BRANCH   2   3
ATOM      3  C   UNL A   1      34.400  32.232  27.886  1.00  0.00     0.338 C 
ATOM      4  O   UNL A   1      35.417  32.701  27.397  1.00  0.00    -0.246 OA
BRANCH   3   5
ATOM      5  C   UNL A   1      33.816  30.967  27.395  1.00  0.00     0.060 A 
ATOM      6  C   UNL A   1      32.458  28.563  27.071  1.00  0.00     0.041 A 
ATOM      7  C   UNL A   1      31.798  29.759  26.795  1.00  0.00     0.027 A 
ATOM      8  C   UNL A   1      33.835  28.563  27.323  1.00  0.00     0.027 A 
ATOM      9  C   UNL A   1      32.468  30.960  27.010  1.00  0.00     0.018 A 
ATOM     10  C   UNL A   1      34.522  29.768  27.479  1.00  0.00     0.018 A 
BRANCH   6  11
ATOM     11  N   UNL A   1      31.654  27.427  27.230  1.00  0.00    -0.323 N 
ATOM     12  C   UNL A   1      31.331  26.478  26.296  1.00  0.00     0.248 C 
ATOM     13  O   UNL A   1      30.564  25.559  26.577  1.00  0.00    -0.270 OA
ATOM     14  H   UNL A   1      31.272  27.293  28.128  1.00  0.00     0.170 HD
BRANCH  12  15
ATOM     15  C   UNL A   1      31.930  26.533  24.935  1.00  0.00     0.070 C 
ATOM     16  C   UNL A   1      34.073  25.255  25.433  1.00  0.00     0.039 C 
ATOM     17  C   UNL A   1      33.124  26.029  24.555  1.00  0.00    -0.071 C 
ATOM     18  C   UNL A   1      33.624  26.234  23.151  1.00  0.00     0.039 C 
ENDBRANCH  12  15
ENDBRANCH   6  11
ENDBRANCH   3   5
ENDBRANCH   2   3
ENDBRANCH   1   2
BRANCH   1  19
ATOM     19  C   UNL A   1      34.504  33.810  30.949  1.00  0.00     0.275 C 
BRANCH  19  20
ATOM     20  O   UNL A   1      34.634  32.415  31.280  1.00  0.00    -0.458 OA
BRANCH  20  21
ATOM     21  C   UNL A   1      35.570  32.109  32.205  1.00  0.00     0.338 C 
ATOM     22  O   UNL A   1      35.556  32.400  33.396  1.00  0.00    -0.246 OA
BRANCH  21  23
ATOM     23  C   UNL A   1      36.672  31.347  31.593  1.00  0.00     0.060 A 
ATOM     24  C   UNL A   1      37.530  30.583  32.382  1.00  0.00     0.016 A 
ATOM     25  C   UNL A   1      36.940  31.499  30.234  1.00  0.00     0.016 A 
ATOM     26  C   UNL A   1      38.711  30.069  31.849  1.00  0.00     0.010 A 
ATOM     27  C   UNL A   1      38.067  30.889  29.675  1.00  0.00     0.010 A 
ATOM     28  C   UNL A   1      38.995  30.206  30.482  1.00  0.00    -0.014 A 
BRANCH  28  29
ATOM     29  C   UNL A   1      40.272  29.695  29.903  1.00  0.00     0.031 A 
ATOM     30  C   UNL A   1      41.468  30.609  29.796  1.00  0.00     0.074 A 
ATOM     31  C   UNL A   1      40.386  28.423  29.472  1.00  0.00     0.049 A 
ATOM     32  N   UNL A   1      42.576  30.449  29.117  1.00  0.00    -0.248 NA
ATOM     33  C   UNL A   1      41.397  31.879  30.535  1.00  0.00     0.031 C 
ATOM     34  C   UNL A   1      39.344  27.398  29.551  1.00  0.00     0.029 A 
ATOM     35  N   UNL A   1      41.442  27.773  28.880  1.00  0.00    -0.354 N 
ATOM     36  C   UNL A   1      43.294  31.627  29.282  1.00  0.00     0.074 A 
ATOM     37  C   UNL A   1      42.506  32.487  30.138  1.00  0.00     0.031 C 
ATOM     38  C   UNL A   1      39.825  26.241  29.070  1.00  0.00     0.029 A 
ATOM     39  C   UNL A   1      41.175  26.463  28.563  1.00  0.00     0.049 A 
ATOM     40  H   UNL A   1      42.308  28.205  28.699  1.00  0.00     0.167 HD
ATOM     41  C   UNL A   1      44.499  31.965  28.760  1.00  0.00     0.037 A 
ATOM     42  C   UNL A   1      41.911  25.550  27.900  1.00  0.00     0.037 A 
ATOM     43  C   UNL A   1      45.324  31.084  27.977  1.00  0.00     0.049 A 
ATOM     44  C   UNL A   1      43.247  25.941  27.340  1.00  0.00     0.074 A 
ATOM     45  C   UNL A   1      46.564  31.333  27.414  1.00  0.00     0.029 A 
ATOM     46  N   UNL A   1      45.006  29.769  27.675  1.00  0.00    -0.354 N 
ATOM     47  N   UNL A   1      43.871  27.089  27.417  1.00  0.00    -0.248 NA
ATOM     48  C   UNL A   1      43.969  24.914  26.571  1.00  0.00     0.031 C 
ATOM     49  C   UNL A   1      46.989  30.173  26.758  1.00  0.00     0.029 A 
ATOM     50  C   UNL A   1      46.026  29.194  26.937  1.00  0.00     0.049 A 
ATOM     51  H   UNL A   1      44.177  29.311  27.946  1.00  0.00     0.167 HD
ATOM     52  C   UNL A   1      45.055  26.927  26.710  1.00  0.00     0.074 A 
ATOM     53  C   UNL A   1      45.074  25.561  26.230  1.00  0.00     0.031 C 
ATOM     54  C   UNL A   1      46.032  27.834  26.470  1.00  0.00     0.037 A 
BRANCH  41  55
ATOM     55  C   UNL A   1      44.985  33.364  28.991  1.00  0.00     0.057 A 
ATOM     56  C   UNL A   1      44.635  34.425  28.148  1.00  0.00     0.134 A 
ATOM     57  C   UNL A   1      45.791  33.656  30.099  1.00  0.00     0.134 A 
ATOM     58  F   UNL A   1      43.879  34.209  27.062  1.00  0.00    -0.206 F 
ATOM     59  C   UNL A   1      45.083  35.725  28.392  1.00  0.00     0.040 A 
ATOM     60  C   UNL A   1      46.229  34.954  30.364  1.00  0.00     0.040 A 
ATOM     61  F   UNL A   1      46.159  32.683  30.948  1.00  0.00    -0.206 F 
ATOM     62  C   UNL A   1      45.877  35.992  29.506  1.00  0.00     0.006 A 
ENDBRANCH  41  55
BRANCH  42  63
ATOM     63  C   UNL A   1      41.374  24.183  27.690  1.00  0.00     0.057 A 
ATOM     64  C   UNL A   1      40.374  23.941  26.743  1.00  0.00     0.134 A 
ATOM     65  C   UNL A   1      41.854  23.090  28.421  1.00  0.00     0.134 A 
ATOM     66  F   UNL A   1      39.858  24.953  26.031  1.00  0.00    -0.206 F 
ATOM     67  C   UNL A   1      39.866  22.658  26.530  1.00  0.00     0.040 A 
ATOM     68  C   UNL A   1      41.373  21.799  28.203  1.00  0.00     0.040 A 
ATOM     69  F   UNL A   1      42.813  23.259  29.342  1.00  0.00    -0.206 F 
ATOM     70  C   UNL A   1      40.372  21.581  27.257  1.00  0.00     0.006 A 
ENDBRANCH  42  63
BRANCH  54  71
ATOM     71  C   UNL A   1      47.208  27.368  25.669  1.00  0.00     0.057 A 
ATOM     72  C   UNL A   1      48.272  26.679  26.263  1.00  0.00     0.134 A 
ATOM     73  C   UNL A   1      47.264  27.586  24.287  1.00  0.00     0.134 A 
ATOM     74  F   UNL A   1      48.281  26.453  27.586  1.00  0.00    -0.206 F 
ATOM     75  C   UNL A   1      49.362  26.237  25.512  1.00  0.00     0.040 A 
ATOM     76  C   UNL A   1      48.340  27.134  23.523  1.00  0.00     0.040 A 
ATOM     77  F   UNL A   1      46.273  28.237  23.660  1.00  0.00    -0.206 F 
ATOM     78  C   UNL A   1      49.395  26.460  24.136  1.00  0.00     0.006 A 
ENDBRANCH  54  71
ENDBRANCH  28  29
ENDBRANCH  21  23
ENDBRANCH  20  21
ENDBRANCH  19  20
ENDBRANCH   1  19
TORSDOF 13
ENDMDL
MODEL 3
REMARK VINA RESULT:     -10.8      4.992      7.436
REMARK SMILES CC(C)=CC(=O)Nc1ccc(C(=O)OCCOC(=O)c2ccc(-c3c4nc(c(-c5c(F)cccc5F)c5ccc([nH]5)c(-c5c(F)cccc5F)c5nc(c(-c6c(F)cccc6F)c6ccc3[nH]6)C=C5)C=C4)cc2)cc1
REMARK SMILES IDX 15 1 14 2 12 3 13 4 11 5 8 6 9 7 75 8 10 9 74 10 7 11 5 12
REMARK SMILES IDX 6 13 4 15 1 16 2 17 3 18 16 19 17 20 18 21 19 22 20 23 21 24
REMARK SMILES IDX 73 25 22 26 72 27 23 28 24 29 25 30 66 31 26 32 71 33 65 34
REMARK SMILES IDX 67 35 27 36 70 37 64 38 63 39 28 41 54 42 37 43 53 44 38 45
REMARK SMILES IDX 41 46 52 47 68 48 39 49 40 50 51 52 69 53 42 54 29 55 30 56
REMARK SMILES IDX 35 57 31 58 32 59 34 60 36 61 33 62 55 63 56 64 61 65 57 66
REMARK SMILES IDX 58 67 60 68 62 69 59 70 43 71 44 72 49 73 45 74 46 75 48 76
REMARK SMILES IDX 50 77 47 78
REMARK H PARENT 7 14 67 40 41 51
REMARK Flexibility Score: inf
ROOT
ATOM      1  C   UNL A   1      42.201  19.217  26.822  1.00  0.00     0.275 C 
ENDROOT
BRANCH   1   2
ATOM      2  O   UNL A   1      41.481  20.243  26.112  1.00  0.00    -0.458 OA
BRANCH   2   3
ATOM      3  C   UNL A   1      41.326  21.400  26.795  1.00  0.00     0.338 C 
ATOM      4  O   UNL A   1      42.158  21.947  27.505  1.00  0.00    -0.246 OA
BRANCH   3   5
ATOM      5  C   UNL A   1      39.984  21.980  26.584  1.00  0.00     0.060 A 
ATOM      6  C   UNL A   1      37.705  23.236  25.606  1.00  0.00     0.041 A 
ATOM      7  C   UNL A   1      37.899  21.881  25.346  1.00  0.00     0.027 A 
ATOM      8  C   UNL A   1      38.545  23.906  26.504  1.00  0.00     0.027 A 
ATOM      9  C   UNL A   1      39.068  21.272  25.794  1.00  0.00     0.018 A 
ATOM     10  C   UNL A   1      39.686  23.276  27.003  1.00  0.00     0.018 A 
BRANCH   6  11
ATOM     11  N   UNL A   1      36.750  23.894  24.821  1.00  0.00    -0.323 N 
ATOM     12  C   UNL A   1      35.400  23.996  25.033  1.00  0.00     0.248 C 
ATOM     13  O   UNL A   1      34.680  24.568  24.217  1.00  0.00    -0.270 OA
ATOM     14  H   UNL A   1      37.093  24.340  24.013  1.00  0.00     0.170 HD
BRANCH  12  15
ATOM     15  C   UNL A   1      34.794  23.440  26.272  1.00  0.00     0.070 C 
ATOM     16  C   UNL A   1      34.163  21.147  25.368  1.00  0.00     0.039 C 
ATOM     17  C   UNL A   1      34.235  22.220  26.423  1.00  0.00    -0.071 C 
ATOM     18  C   UNL A   1      33.594  21.833  27.729  1.00  0.00     0.039 C 
ENDBRANCH  12  15
ENDBRANCH   6  11
ENDBRANCH   3   5
ENDBRANCH   2   3
ENDBRANCH   1   2
BRANCH   1  19
ATOM     19  C   UNL A   1      43.107  18.432  25.874  1.00  0.00     0.275 C 
BRANCH  19  20
ATOM     20  O   UNL A   1      43.295  19.166  24.649  1.00  0.00    -0.458 OA
BRANCH  20  21
ATOM     21  C   UNL A   1      44.576  19.391  24.283  1.00  0.00     0.338 C 
ATOM     22  O   UNL A   1      45.354  18.588  23.780  1.00  0.00    -0.246 OA
BRANCH  21  23
ATOM     23  C   UNL A   1      44.959  20.784  24.571  1.00  0.00     0.060 A 
ATOM     24  C   UNL A   1      45.591  21.112  25.769  1.00  0.00     0.016 A 
ATOM     25  C   UNL A   1      44.565  21.797  23.700  1.00  0.00     0.016 A 
ATOM     26  C   UNL A   1      45.727  22.446  26.153  1.00  0.00     0.010 A 
ATOM     27  C   UNL A   1      44.803  23.134  24.035  1.00  0.00     0.010 A 
ATOM     28  C   UNL A   1      45.343  23.480  25.288  1.00  0.00    -0.014 A 
BRANCH  28  29
ATOM     29  C   UNL A   1      45.446  24.911  25.700  1.00  0.00     0.031 A 
ATOM     30  C   UNL A   1      46.753  25.648  25.537  1.00  0.00     0.074 A 
ATOM     31  C   UNL A   1      44.389  25.569  26.217  1.00  0.00     0.049 A 
ATOM     32  N   UNL A   1      47.127  26.796  26.043  1.00  0.00    -0.248 NA
ATOM     33  C   UNL A   1      47.781  24.996  24.710  1.00  0.00     0.031 C 
ATOM     34  C   UNL A   1      43.045  25.019  26.393  1.00  0.00     0.029 A 
ATOM     35  N   UNL A   1      44.283  26.855  26.689  1.00  0.00    -0.354 N 
ATOM     36  C   UNL A   1      48.454  26.963  25.664  1.00  0.00     0.074 A 
ATOM     37  C   UNL A   1      48.816  25.807  24.872  1.00  0.00     0.031 C 
ATOM     38  C   UNL A   1      42.240  25.972  26.890  1.00  0.00     0.029 A 
ATOM     39  C   UNL A   1      43.031  27.169  27.157  1.00  0.00     0.049 A 
ATOM     40  H   UNL A   1      45.035  27.492  26.692  1.00  0.00     0.167 HD
ATOM     41  C   UNL A   1      49.297  27.983  25.958  1.00  0.00     0.037 A 
ATOM     42  C   UNL A   1      42.572  28.276  27.772  1.00  0.00     0.037 A 
ATOM     43  C   UNL A   1      48.918  29.172  26.675  1.00  0.00     0.049 A 
ATOM     44  C   UNL A   1      43.519  29.400  28.078  1.00  0.00     0.074 A 
ATOM     45  C   UNL A   1      49.700  30.264  27.011  1.00  0.00     0.029 A 
ATOM     46  N   UNL A   1      47.639  29.439  27.136  1.00  0.00    -0.354 N 
ATOM     47  N   UNL A   1      44.795  29.502  27.803  1.00  0.00    -0.248 NA
ATOM     48  C   UNL A   1      42.967  30.550  28.809  1.00  0.00     0.031 C 
ATOM     49  C   UNL A   1      48.896  31.187  27.690  1.00  0.00     0.029 A 
ATOM     50  C   UNL A   1      47.609  30.679  27.751  1.00  0.00     0.049 A 
ATOM     51  H   UNL A   1      46.866  28.837  27.040  1.00  0.00     0.167 HD
ATOM     52  C   UNL A   1      45.200  30.723  28.326  1.00  0.00     0.074 A 
ATOM     53  C   UNL A   1      44.028  31.338  28.913  1.00  0.00     0.031 C 
ATOM     54  C   UNL A   1      46.435  31.279  28.328  1.00  0.00     0.037 A 
BRANCH  41  55
ATOM     55  C   UNL A   1      50.727  27.843  25.533  1.00  0.00     0.057 A 
ATOM     56  C   UNL A   1      51.149  28.125  24.229  1.00  0.00     0.134 A 
ATOM     57  C   UNL A   1      51.702  27.450  26.459  1.00  0.00     0.134 A 
ATOM     58  F   UNL A   1      50.262  28.490  23.292  1.00  0.00    -0.206 F 
ATOM     59  C   UNL A   1      52.490  28.007  23.857  1.00  0.00     0.040 A 
ATOM     60  C   UNL A   1      53.048  27.348  26.105  1.00  0.00     0.040 A 
ATOM     61  F   UNL A   1      51.362  27.169  27.726  1.00  0.00    -0.206 F 
ATOM     62  C   UNL A   1      53.444  27.623  24.799  1.00  0.00     0.006 A 
ENDBRANCH  41  55
BRANCH  42  63
ATOM     63  C   UNL A   1      41.149  28.355  28.183  1.00  0.00     0.057 A 
ATOM     64  C   UNL A   1      40.178  28.866  27.316  1.00  0.00     0.134 A 
ATOM     65  C   UNL A   1      40.727  27.916  29.443  1.00  0.00     0.134 A 
ATOM     66  F   UNL A   1      40.528  29.326  26.105  1.00  0.00    -0.206 F 
ATOM     67  C   UNL A   1      38.834  28.940  27.687  1.00  0.00     0.040 A 
ATOM     68  C   UNL A   1      39.384  27.961  29.819  1.00  0.00     0.040 A 
ATOM     69  F   UNL A   1      41.611  27.416  30.317  1.00  0.00    -0.206 F 
ATOM     70  C   UNL A   1      38.433  28.478  28.940  1.00  0.00     0.006 A 
ENDBRANCH  42  63
BRANCH  54  71
ATOM     71  C   UNL A   1      46.573  32.624  28.970  1.00  0.00     0.057 A 
ATOM     72  C   UNL A   1      46.402  33.805  28.239  1.00  0.00     0.134 A 
ATOM     73  C   UNL A   1      46.852  32.738  30.338  1.00  0.00     0.134 A 
ATOM     74  F   UNL A   1      46.147  33.758  26.923  1.00  0.00    -0.206 F 
ATOM     75  C   UNL A   1      46.520  35.057  28.843  1.00  0.00     0.040 A 
ATOM     76  C   UNL A   1      46.956  33.984  30.956  1.00  0.00     0.040 A 
ATOM     77  F   UNL A   1      47.021  31.642  31.092  1.00  0.00    -0.206 F 
ATOM     78  C   UNL A   1      46.793  35.149  30.208  1.00  0.00     0.006 A 
ENDBRANCH  54  71
ENDBRANCH  28  29
ENDBRANCH  21  23
ENDBRANCH  20  21
ENDBRANCH  19  20
ENDBRANCH   1  19
TORSDOF 13
ENDMDL
