MODEL 1
REMARK VINA RESULT:     -10.1      0.000      0.000
REMARK SMILES CCCc1noc(C2C[NH+](CC(=O)OCCOC(=O)c3ccc(-c4c5nc(c(-c6c(F)cccc6F)c6ccc([nH]6)c(-c6c(F)cccc6F)c6nc(c(-c7c(F)cccc7F)c7ccc4[nH]7)C=C6)C=C5)cc3)C2)n1
REMARK SMILES IDX 15 1 14 2 12 3 13 4 11 5 10 6 8 7 9 8 74 9 7 11 4 12 5 13
REMARK SMILES IDX 75 14 6 15 3 16 2 17 1 18 16 19 17 20 18 21 19 22 20 23
REMARK SMILES IDX 21 24 73 25 22 26 72 27 23 28 24 29 25 30 66 31 26 32 71 33
REMARK SMILES IDX 65 34 67 35 27 36 70 37 64 38 63 39 28 41 54 42 37 43 53 44
REMARK SMILES IDX 38 45 41 46 52 47 68 48 39 49 40 50 51 52 69 53 42 54 29 55
REMARK SMILES IDX 30 56 35 57 31 58 32 59 34 60 36 61 33 62 55 63 56 64 61 65
REMARK SMILES IDX 57 66 58 67 60 68 62 69 59 70 43 71 44 72 49 73 45 74 46 75
REMARK SMILES IDX 48 76 50 77 47 78
REMARK H PARENT 10 10 67 40 41 51
REMARK Flexibility Score: inf
ROOT
ATOM      1  C   UNL A   1      43.982  17.696  26.396  1.00  0.00     0.274 C 
ENDROOT
BRANCH   1   2
ATOM      2  O   UNL A   1      44.331  18.066  25.043  1.00  0.00    -0.458 OA
BRANCH   2   3
ATOM      3  C   UNL A   1      45.489  18.758  24.876  1.00  0.00     0.361 C 
ATOM      4  O   UNL A   1      46.543  18.463  25.433  1.00  0.00    -0.245 OA
BRANCH   3   5
ATOM      5  C   UNL A   1      45.349  20.017  24.027  1.00  0.00     0.386 C 
BRANCH   5   6
ATOM      6  N   UNL A   1      44.679  21.235  24.535  1.00  0.00    -0.324 N 
ATOM      7  C   UNL A   1      45.887  22.987  24.538  1.00  0.00     0.188 C 
ATOM      8  C   UNL A   1      45.385  21.985  25.590  1.00  0.00     0.282 C 
ATOM      9  C   UNL A   1      44.754  22.407  23.655  1.00  0.00     0.282 C 
ATOM     10  H   UNL A   1      43.784  20.794  24.744  1.00  0.00     0.348 HD
BRANCH   7  11
ATOM     11  C   UNL A   1      45.766  24.466  24.793  1.00  0.00     0.241 A 
ATOM     12  C   UNL A   1      45.132  26.427  25.172  1.00  0.00     0.171 A 
ATOM     13  N   UNL A   1      46.404  26.584  24.791  1.00  0.00    -0.062 NA
ATOM     14  N   UNL A   1      44.687  25.124  25.162  1.00  0.00    -0.196 NA
ATOM     15  O   UNL A   1      46.838  25.288  24.576  1.00  0.00    -0.339 OA
BRANCH  12  16
ATOM     16  C   UNL A   1      44.250  27.577  25.493  1.00  0.00     0.081 C 
BRANCH  16  17
ATOM     17  C   UNL A   1      42.750  27.312  25.325  1.00  0.00     0.005 C 
ATOM     18  C   UNL A   1      41.865  28.520  25.613  1.00  0.00     0.004 C 
ENDBRANCH  16  17
ENDBRANCH  12  16
ENDBRANCH   7  11
ENDBRANCH   5   6
ENDBRANCH   3   5
ENDBRANCH   2   3
ENDBRANCH   1   2
BRANCH   1  19
ATOM     19  C   UNL A   1      42.630  18.278  26.821  1.00  0.00     0.275 C 
BRANCH  19  20
ATOM     20  O   UNL A   1      42.027  18.975  25.716  1.00  0.00    -0.458 OA
BRANCH  20  21
ATOM     21  C   UNL A   1      40.887  19.655  25.970  1.00  0.00     0.338 C 
ATOM     22  O   UNL A   1      39.742  19.289  25.776  1.00  0.00    -0.246 OA
BRANCH  21  23
ATOM     23  C   UNL A   1      41.230  20.965  26.544  1.00  0.00     0.060 A 
ATOM     24  C   UNL A   1      41.593  22.025  25.709  1.00  0.00     0.016 A 
ATOM     25  C   UNL A   1      41.256  21.114  27.931  1.00  0.00     0.016 A 
ATOM     26  C   UNL A   1      41.996  23.240  26.259  1.00  0.00     0.010 A 
ATOM     27  C   UNL A   1      41.620  22.344  28.481  1.00  0.00     0.010 A 
ATOM     28  C   UNL A   1      42.003  23.411  27.650  1.00  0.00    -0.014 A 
BRANCH  28  29
ATOM     29  C   UNL A   1      42.420  24.701  28.248  1.00  0.00     0.031 A 
ATOM     30  C   UNL A   1      41.407  25.785  28.472  1.00  0.00     0.074 A 
ATOM     31  C   UNL A   1      43.713  24.906  28.557  1.00  0.00     0.049 A 
ATOM     32  N   UNL A   1      41.593  27.028  28.836  1.00  0.00    -0.248 NA
ATOM     33  C   UNL A   1      39.998  25.424  28.250  1.00  0.00     0.031 C 
ATOM     34  C   UNL A   1      44.783  23.919  28.414  1.00  0.00     0.029 A 
ATOM     35  N   UNL A   1      44.348  26.022  29.041  1.00  0.00    -0.354 N 
ATOM     36  C   UNL A   1      40.331  27.606  28.860  1.00  0.00     0.074 A 
ATOM     37  C   UNL A   1      39.387  26.581  28.466  1.00  0.00     0.031 C 
ATOM     38  C   UNL A   1      45.945  24.476  28.793  1.00  0.00     0.029 A 
ATOM     39  C   UNL A   1      45.707  25.869  29.159  1.00  0.00     0.049 A 
ATOM     40  H   UNL A   1      43.874  26.852  29.280  1.00  0.00     0.167 HD
ATOM     41  C   UNL A   1      39.992  28.878  29.180  1.00  0.00     0.037 A 
ATOM     42  C   UNL A   1      46.658  26.762  29.490  1.00  0.00     0.037 A 
ATOM     43  C   UNL A   1      40.933  29.889  29.587  1.00  0.00     0.049 A 
ATOM     44  C   UNL A   1      46.262  28.176  29.802  1.00  0.00     0.074 A 
ATOM     45  C   UNL A   1      40.687  31.203  29.949  1.00  0.00     0.029 A 
ATOM     46  N   UNL A   1      42.302  29.696  29.689  1.00  0.00    -0.354 N 
ATOM     47  N   UNL A   1      45.069  28.717  29.808  1.00  0.00    -0.248 NA
ATOM     48  C   UNL A   1      47.348  29.107  30.144  1.00  0.00     0.031 C 
ATOM     49  C   UNL A   1      41.912  31.813  30.241  1.00  0.00     0.029 A 
ATOM     50  C   UNL A   1      42.916  30.869  30.094  1.00  0.00     0.049 A 
ATOM     51  H   UNL A   1      42.769  28.850  29.502  1.00  0.00     0.167 HD
ATOM     52  C   UNL A   1      45.255  30.044  30.167  1.00  0.00     0.074 A 
ATOM     53  C   UNL A   1      46.676  30.225  30.383  1.00  0.00     0.031 C 
ATOM     54  C   UNL A   1      44.332  31.028  30.304  1.00  0.00     0.037 A 
BRANCH  41  55
ATOM     55  C   UNL A   1      38.545  29.253  29.078  1.00  0.00     0.057 A 
ATOM     56  C   UNL A   1      37.693  29.218  30.187  1.00  0.00     0.134 A 
ATOM     57  C   UNL A   1      38.007  29.684  27.860  1.00  0.00     0.134 A 
ATOM     58  F   UNL A   1      38.145  28.800  31.379  1.00  0.00    -0.206 F 
ATOM     59  C   UNL A   1      36.349  29.584  30.086  1.00  0.00     0.040 A 
ATOM     60  C   UNL A   1      36.670  30.071  27.749  1.00  0.00     0.040 A 
ATOM     61  F   UNL A   1      38.772  29.742  26.759  1.00  0.00    -0.206 F 
ATOM     62  C   UNL A   1      35.837  30.017  28.864  1.00  0.00     0.006 A 
ENDBRANCH  41  55
BRANCH  42  63
ATOM     63  C   UNL A   1      48.080  26.345  29.516  1.00  0.00     0.057 A 
ATOM     64  C   UNL A   1      48.645  25.779  30.663  1.00  0.00     0.134 A 
ATOM     65  C   UNL A   1      48.903  26.492  28.392  1.00  0.00     0.134 A 
ATOM     66  F   UNL A   1      47.910  25.635  31.775  1.00  0.00    -0.206 F 
ATOM     67  C   UNL A   1      49.981  25.378  30.696  1.00  0.00     0.040 A 
ATOM     68  C   UNL A   1      50.235  26.076  28.405  1.00  0.00     0.040 A 
ATOM     69  F   UNL A   1      48.417  27.026  27.263  1.00  0.00    -0.206 F 
ATOM     70  C   UNL A   1      50.778  25.519  29.561  1.00  0.00     0.006 A 
ENDBRANCH  42  63
BRANCH  54  71
ATOM     71  C   UNL A   1      44.832  32.374  30.728  1.00  0.00     0.057 A 
ATOM     72  C   UNL A   1      44.949  32.722  32.078  1.00  0.00     0.134 A 
ATOM     73  C   UNL A   1      45.227  33.320  29.774  1.00  0.00     0.134 A 
ATOM     74  F   UNL A   1      44.573  31.862  33.037  1.00  0.00    -0.206 F 
ATOM     75  C   UNL A   1      45.427  33.974  32.467  1.00  0.00     0.040 A 
ATOM     76  C   UNL A   1      45.723  34.569  30.151  1.00  0.00     0.040 A 
ATOM     77  F   UNL A   1      45.143  33.044  28.465  1.00  0.00    -0.206 F 
ATOM     78  C   UNL A   1      45.820  34.900  31.502  1.00  0.00     0.006 A 
ENDBRANCH  54  71
ENDBRANCH  28  29
ENDBRANCH  21  23
ENDBRANCH  20  21
ENDBRANCH  19  20
ENDBRANCH   1  19
TORSDOF 15
ENDMDL
MODEL 2
REMARK VINA RESULT:      -9.3      0.754      6.547
REMARK SMILES CCCc1noc(C2C[NH+](CC(=O)OCCOC(=O)c3ccc(-c4c5nc(c(-c6c(F)cccc6F)c6ccc([nH]6)c(-c6c(F)cccc6F)c6nc(c(-c7c(F)cccc7F)c7ccc4[nH]7)C=C6)C=C5)cc3)C2)n1
REMARK SMILES IDX 15 1 14 2 12 3 13 4 11 5 10 6 8 7 9 8 74 9 7 11 4 12 5 13
REMARK SMILES IDX 75 14 6 15 3 16 2 17 1 18 16 19 17 20 18 21 19 22 20 23
REMARK SMILES IDX 21 24 73 25 22 26 72 27 23 28 24 29 25 30 66 31 26 32 71 33
REMARK SMILES IDX 65 34 67 35 27 36 70 37 64 38 63 39 28 41 54 42 37 43 53 44
REMARK SMILES IDX 38 45 41 46 52 47 68 48 39 49 40 50 51 52 69 53 42 54 29 55
REMARK SMILES IDX 30 56 35 57 31 58 32 59 34 60 36 61 33 62 55 63 56 64 61 65
REMARK SMILES IDX 57 66 58 67 60 68 62 69 59 70 43 71 44 72 49 73 45 74 46 75
REMARK SMILES IDX 48 76 50 77 47 78
REMARK H PARENT 10 10 67 40 41 51
REMARK Flexibility Score: inf
ROOT
ATOM      1  C   UNL A   1      44.046  17.733  26.513  1.00  0.00     0.274 C 
ENDROOT
BRANCH   1   2
ATOM      2  O   UNL A   1      44.417  18.068  25.157  1.00  0.00    -0.458 OA
BRANCH   2   3
ATOM      3  C   UNL A   1      45.568  18.771  24.991  1.00  0.00     0.361 C 
ATOM      4  O   UNL A   1      46.617  18.504  25.570  1.00  0.00    -0.245 OA
BRANCH   3   5
ATOM      5  C   UNL A   1      45.423  20.009  24.110  1.00  0.00     0.386 C 
BRANCH   5   6
ATOM      6  N   UNL A   1      44.896  21.288  24.636  1.00  0.00    -0.324 N 
ATOM      7  C   UNL A   1      46.212  22.949  24.439  1.00  0.00     0.188 C 
ATOM      8  C   UNL A   1      45.761  22.020  25.579  1.00  0.00     0.282 C 
ATOM      9  C   UNL A   1      44.953  22.421  23.705  1.00  0.00     0.282 C 
ATOM     10  H   UNL A   1      44.001  20.918  24.956  1.00  0.00     0.348 HD
BRANCH   7  11
ATOM     11  C   UNL A   1      46.218  24.440  24.644  1.00  0.00     0.241 A 
ATOM     12  C   UNL A   1      45.755  26.461  24.940  1.00  0.00     0.171 A 
ATOM     13  N   UNL A   1      47.047  26.490  24.600  1.00  0.00    -0.062 NA
ATOM     14  N   UNL A   1      45.193  25.205  24.955  1.00  0.00    -0.196 NA
ATOM     15  O   UNL A   1      47.367  25.154  24.440  1.00  0.00    -0.339 OA
BRANCH  12  16
ATOM     16  C   UNL A   1      44.972  27.697  25.195  1.00  0.00     0.081 C 
BRANCH  16  17
ATOM     17  C   UNL A   1      43.701  27.500  26.029  1.00  0.00     0.005 C 
ATOM     18  C   UNL A   1      42.419  27.934  25.327  1.00  0.00     0.004 C 
ENDBRANCH  16  17
ENDBRANCH  12  16
ENDBRANCH   7  11
ENDBRANCH   5   6
ENDBRANCH   3   5
ENDBRANCH   2   3
ENDBRANCH   1   2
BRANCH   1  19
ATOM     19  C   UNL A   1      42.716  18.374  26.920  1.00  0.00     0.275 C 
BRANCH  19  20
ATOM     20  O   UNL A   1      42.058  18.916  25.761  1.00  0.00    -0.458 OA
BRANCH  20  21
ATOM     21  C   UNL A   1      40.951  19.660  25.978  1.00  0.00     0.338 C 
ATOM     22  O   UNL A   1      39.793  19.357  25.754  1.00  0.00    -0.246 OA
BRANCH  21  23
ATOM     23  C   UNL A   1      41.350  20.955  26.551  1.00  0.00     0.060 A 
ATOM     24  C   UNL A   1      41.162  21.209  27.912  1.00  0.00     0.016 A 
ATOM     25  C   UNL A   1      41.850  21.947  25.707  1.00  0.00     0.016 A 
ATOM     26  C   UNL A   1      41.465  22.464  28.435  1.00  0.00     0.010 A 
ATOM     27  C   UNL A   1      42.192  23.190  26.240  1.00  0.00     0.010 A 
ATOM     28  C   UNL A   1      41.991  23.461  27.604  1.00  0.00    -0.014 A 
BRANCH  28  29
ATOM     29  C   UNL A   1      42.327  24.798  28.150  1.00  0.00     0.031 A 
ATOM     30  C   UNL A   1      43.719  25.082  28.632  1.00  0.00     0.074 A 
ATOM     31  C   UNL A   1      41.371  25.740  28.241  1.00  0.00     0.049 A 
ATOM     32  N   UNL A   1      44.173  26.125  29.279  1.00  0.00    -0.248 NA
ATOM     33  C   UNL A   1      44.733  24.053  28.356  1.00  0.00     0.031 C 
ATOM     34  C   UNL A   1      39.991  25.593  27.778  1.00  0.00     0.029 A 
ATOM     35  N   UNL A   1      41.414  27.005  28.771  1.00  0.00    -0.354 N 
ATOM     36  C   UNL A   1      45.517  25.867  29.513  1.00  0.00     0.074 A 
ATOM     37  C   UNL A   1      45.804  24.566  28.945  1.00  0.00     0.031 C 
ATOM     38  C   UNL A   1      39.315  26.720  28.052  1.00  0.00     0.029 A 
ATOM     39  C   UNL A   1      40.201  27.647  28.751  1.00  0.00     0.049 A 
ATOM     40  H   UNL A   1      42.236  27.412  29.131  1.00  0.00     0.167 HD
ATOM     41  C   UNL A   1      46.427  26.646  30.144  1.00  0.00     0.037 A 
ATOM     42  C   UNL A   1      39.835  28.834  29.270  1.00  0.00     0.037 A 
ATOM     43  C   UNL A   1      46.141  27.946  30.692  1.00  0.00     0.049 A 
ATOM     44  C   UNL A   1      40.852  29.662  30.001  1.00  0.00     0.074 A 
ATOM     45  C   UNL A   1      46.998  28.821  31.336  1.00  0.00     0.029 A 
ATOM     46  N   UNL A   1      44.897  28.559  30.657  1.00  0.00    -0.354 N 
ATOM     47  N   UNL A   1      42.116  29.403  30.229  1.00  0.00    -0.248 NA
ATOM     48  C   UNL A   1      40.389  30.942  30.555  1.00  0.00     0.031 C 
ATOM     49  C   UNL A   1      46.267  29.952  31.717  1.00  0.00     0.029 A 
ATOM     50  C   UNL A   1      44.961  29.795  31.279  1.00  0.00     0.049 A 
ATOM     51  H   UNL A   1      44.088  28.174  30.248  1.00  0.00     0.167 HD
ATOM     52  C   UNL A   1      42.604  30.491  30.939  1.00  0.00     0.074 A 
ATOM     53  C   UNL A   1      41.502  31.419  31.094  1.00  0.00     0.031 C 
ATOM     54  C   UNL A   1      43.853  30.703  31.422  1.00  0.00     0.037 A 
BRANCH  41  55
ATOM     55  C   UNL A   1      47.814  26.100  30.299  1.00  0.00     0.057 A 
ATOM     56  C   UNL A   1      48.734  26.110  29.245  1.00  0.00     0.134 A 
ATOM     57  C   UNL A   1      48.242  25.585  31.529  1.00  0.00     0.134 A 
ATOM     58  F   UNL A   1      48.379  26.576  28.038  1.00  0.00    -0.206 F 
ATOM     59  C   UNL A   1      50.029  25.612  29.403  1.00  0.00     0.040 A 
ATOM     60  C   UNL A   1      49.540  25.103  31.705  1.00  0.00     0.040 A 
ATOM     61  F   UNL A   1      47.409  25.549  32.580  1.00  0.00    -0.206 F 
ATOM     62  C   UNL A   1      50.436  25.112  30.639  1.00  0.00     0.006 A 
ENDBRANCH  41  55
BRANCH  42  63
ATOM     63  C   UNL A   1      38.433  29.294  29.135  1.00  0.00     0.057 A 
ATOM     64  C   UNL A   1      37.944  29.773  27.916  1.00  0.00     0.134 A 
ATOM     65  C   UNL A   1      37.546  29.254  30.219  1.00  0.00     0.134 A 
ATOM     66  F   UNL A   1      38.754  29.854  26.850  1.00  0.00    -0.206 F 
ATOM     67  C   UNL A   1      36.624  30.203  27.777  1.00  0.00     0.040 A 
ATOM     68  C   UNL A   1      36.217  29.661  30.088  1.00  0.00     0.040 A 
ATOM     69  F   UNL A   1      37.956  28.802  31.412  1.00  0.00    -0.206 F 
ATOM     70  C   UNL A   1      35.754  30.140  28.865  1.00  0.00     0.006 A 
ENDBRANCH  42  63
BRANCH  54  71
ATOM     71  C   UNL A   1      44.093  31.996  32.140  1.00  0.00     0.057 A 
ATOM     72  C   UNL A   1      43.932  32.106  33.525  1.00  0.00     0.134 A 
ATOM     73  C   UNL A   1      44.515  33.132  31.440  1.00  0.00     0.134 A 
ATOM     74  F   UNL A   1      43.516  31.055  34.248  1.00  0.00    -0.206 F 
ATOM     75  C   UNL A   1      44.168  33.310  34.190  1.00  0.00     0.040 A 
ATOM     76  C   UNL A   1      44.771  34.336  32.095  1.00  0.00     0.040 A 
ATOM     77  F   UNL A   1      44.691  33.087  30.111  1.00  0.00    -0.206 F 
ATOM     78  C   UNL A   1      44.593  34.429  33.475  1.00  0.00     0.006 A 
ENDBRANCH  54  71
ENDBRANCH  28  29
ENDBRANCH  21  23
ENDBRANCH  20  21
ENDBRANCH  19  20
ENDBRANCH   1  19
TORSDOF 15
ENDMDL
MODEL 3
REMARK VINA RESULT:      -9.2      5.807     11.676
REMARK SMILES CCCc1noc(C2C[NH+](CC(=O)OCCOC(=O)c3ccc(-c4c5nc(c(-c6c(F)cccc6F)c6ccc([nH]6)c(-c6c(F)cccc6F)c6nc(c(-c7c(F)cccc7F)c7ccc4[nH]7)C=C6)C=C5)cc3)C2)n1
REMARK SMILES IDX 15 1 14 2 12 3 13 4 11 5 10 6 8 7 9 8 74 9 7 11 4 12 5 13
REMARK SMILES IDX 75 14 6 15 3 16 2 17 1 18 16 19 17 20 18 21 19 22 20 23
REMARK SMILES IDX 21 24 73 25 22 26 72 27 23 28 24 29 25 30 66 31 26 32 71 33
REMARK SMILES IDX 65 34 67 35 27 36 70 37 64 38 63 39 28 41 54 42 37 43 53 44
REMARK SMILES IDX 38 45 41 46 52 47 68 48 39 49 40 50 51 52 69 53 42 54 29 55
REMARK SMILES IDX 30 56 35 57 31 58 32 59 34 60 36 61 33 62 55 63 56 64 61 65
REMARK SMILES IDX 57 66 58 67 60 68 62 69 59 70 43 71 44 72 49 73 45 74 46 75
REMARK SMILES IDX 48 76 50 77 47 78
REMARK H PARENT 10 10 67 40 41 51
REMARK Flexibility Score: inf
ROOT
ATOM      1  C   UNL A   1      35.121  35.195  34.074  1.00  0.00     0.274 C 
ENDROOT
BRANCH   1   2
ATOM      2  O   UNL A   1      35.055  36.098  32.947  1.00  0.00    -0.458 OA
BRANCH   2   3
ATOM      3  C   UNL A   1      34.091  37.054  32.982  1.00  0.00     0.361 C 
ATOM      4  O   UNL A   1      33.545  37.431  34.015  1.00  0.00    -0.245 OA
BRANCH   3   5
ATOM      5  C   UNL A   1      33.646  37.544  31.608  1.00  0.00     0.386 C 
BRANCH   5   6
ATOM      6  N   UNL A   1      32.743  36.749  30.746  1.00  0.00    -0.324 N 
ATOM      7  C   UNL A   1      33.696  35.211  29.626  1.00  0.00     0.188 C 
ATOM      8  C   UNL A   1      33.132  36.611  29.331  1.00  0.00     0.282 C 
ATOM      9  C   UNL A   1      32.836  35.294  30.913  1.00  0.00     0.282 C 
ATOM     10  H   UNL A   1      31.887  37.249  30.987  1.00  0.00     0.348 HD
BRANCH   7  11
ATOM     11  C   UNL A   1      33.341  34.055  28.729  1.00  0.00     0.241 A 
ATOM     12  C   UNL A   1      33.288  32.300  27.586  1.00  0.00     0.171 A 
ATOM     13  N   UNL A   1      32.215  32.976  27.161  1.00  0.00    -0.062 NA
ATOM     14  N   UNL A   1      34.032  32.950  28.544  1.00  0.00    -0.196 NA
ATOM     15  O   UNL A   1      32.225  34.118  27.940  1.00  0.00    -0.339 OA
BRANCH  12  16
ATOM     16  C   UNL A   1      33.687  30.995  27.002  1.00  0.00     0.081 C 
BRANCH  16  17
ATOM     17  C   UNL A   1      34.486  30.082  27.940  1.00  0.00     0.005 C 
ATOM     18  C   UNL A   1      35.766  29.523  27.328  1.00  0.00     0.004 C 
ENDBRANCH  16  17
ENDBRANCH  12  16
ENDBRANCH   7  11
ENDBRANCH   5   6
ENDBRANCH   3   5
ENDBRANCH   2   3
ENDBRANCH   1   2
BRANCH   1  19
ATOM     19  C   UNL A   1      34.781  33.755  33.679  1.00  0.00     0.275 C 
BRANCH  19  20
ATOM     20  O   UNL A   1      35.865  33.184  32.923  1.00  0.00    -0.458 OA
BRANCH  20  21
ATOM     21  C   UNL A   1      35.536  32.318  31.940  1.00  0.00     0.338 C 
ATOM     22  O   UNL A   1      34.423  32.046  31.527  1.00  0.00    -0.246 OA
BRANCH  21  23
ATOM     23  C   UNL A   1      36.765  31.712  31.405  1.00  0.00     0.060 A 
ATOM     24  C   UNL A   1      37.704  31.143  32.270  1.00  0.00     0.016 A 
ATOM     25  C   UNL A   1      37.014  31.778  30.034  1.00  0.00     0.016 A 
ATOM     26  C   UNL A   1      38.903  30.644  31.768  1.00  0.00     0.010 A 
ATOM     27  C   UNL A   1      38.198  31.240  29.526  1.00  0.00     0.010 A 
ATOM     28  C   UNL A   1      39.155  30.681  30.391  1.00  0.00    -0.014 A 
BRANCH  28  29
ATOM     29  C   UNL A   1      40.423  30.145  29.842  1.00  0.00     0.031 A 
ATOM     30  C   UNL A   1      41.607  31.050  29.671  1.00  0.00     0.074 A 
ATOM     31  C   UNL A   1      40.495  28.854  29.470  1.00  0.00     0.049 A 
ATOM     32  N   UNL A   1      42.747  30.816  29.071  1.00  0.00    -0.248 NA
ATOM     33  C   UNL A   1      41.491  32.401  30.242  1.00  0.00     0.031 C 
ATOM     34  C   UNL A   1      39.422  27.871  29.616  1.00  0.00     0.029 A 
ATOM     35  N   UNL A   1      41.514  28.154  28.875  1.00  0.00    -0.354 N 
ATOM     36  C   UNL A   1      43.473  31.995  29.168  1.00  0.00     0.074 A 
ATOM     37  C   UNL A   1      42.642  32.947  29.877  1.00  0.00     0.031 C 
ATOM     38  C   UNL A   1      39.836  26.695  29.116  1.00  0.00     0.029 A 
ATOM     39  C   UNL A   1      41.182  26.857  28.573  1.00  0.00     0.049 A 
ATOM     40  H   UNL A   1      42.398  28.544  28.683  1.00  0.00     0.167 HD
ATOM     41  C   UNL A   1      44.718  32.258  28.707  1.00  0.00     0.037 A 
ATOM     42  C   UNL A   1      41.870  25.915  27.902  1.00  0.00     0.037 A 
ATOM     43  C   UNL A   1      45.547  31.304  28.017  1.00  0.00     0.049 A 
ATOM     44  C   UNL A   1      43.233  26.243  27.365  1.00  0.00     0.074 A 
ATOM     45  C   UNL A   1      46.830  31.468  27.525  1.00  0.00     0.029 A 
ATOM     46  N   UNL A   1      45.171  30.001  27.726  1.00  0.00    -0.354 N 
ATOM     47  N   UNL A   1      43.905  27.365  27.449  1.00  0.00    -0.248 NA
ATOM     48  C   UNL A   1      43.929  25.177  26.631  1.00  0.00     0.031 C 
ATOM     49  C   UNL A   1      47.219  30.274  26.909  1.00  0.00     0.029 A 
ATOM     50  C   UNL A   1      46.191  29.355  27.048  1.00  0.00     0.049 A 
ATOM     51  H   UNL A   1      44.306  29.595  27.966  1.00  0.00     0.167 HD
ATOM     52  C   UNL A   1      45.107  27.138  26.794  1.00  0.00     0.074 A 
ATOM     53  C   UNL A   1      45.078  25.767  26.327  1.00  0.00     0.031 C 
ATOM     54  C   UNL A   1      46.142  27.990  26.593  1.00  0.00     0.037 A 
BRANCH  41  55
ATOM     55  C   UNL A   1      45.251  33.644  28.910  1.00  0.00     0.057 A 
ATOM     56  C   UNL A   1      45.012  34.670  27.989  1.00  0.00     0.134 A 
ATOM     57  C   UNL A   1      45.986  33.962  30.058  1.00  0.00     0.134 A 
ATOM     58  F   UNL A   1      44.326  34.426  26.862  1.00  0.00    -0.206 F 
ATOM     59  C   UNL A   1      45.499  35.963  28.194  1.00  0.00     0.040 A 
ATOM     60  C   UNL A   1      46.462  35.255  30.285  1.00  0.00     0.040 A 
ATOM     61  F   UNL A   1      46.248  33.024  30.981  1.00  0.00    -0.206 F 
ATOM     62  C   UNL A   1      46.222  36.258  29.349  1.00  0.00     0.006 A 
ENDBRANCH  41  55
BRANCH  42  63
ATOM     63  C   UNL A   1      41.265  24.580  27.682  1.00  0.00     0.057 A 
ATOM     64  C   UNL A   1      40.266  24.390  26.722  1.00  0.00     0.134 A 
ATOM     65  C   UNL A   1      41.680  23.462  28.417  1.00  0.00     0.134 A 
ATOM     66  F   UNL A   1      39.815  25.428  26.004  1.00  0.00    -0.206 F 
ATOM     67  C   UNL A   1      39.695  23.135  26.503  1.00  0.00     0.040 A 
ATOM     68  C   UNL A   1      41.132  22.198  28.193  1.00  0.00     0.040 A 
ATOM     69  F   UNL A   1      42.635  23.582  29.349  1.00  0.00    -0.206 F 
ATOM     70  C   UNL A   1      40.133  22.034  27.236  1.00  0.00     0.006 A 
ENDBRANCH  42  63
BRANCH  54  71
ATOM     71  C   UNL A   1      47.332  27.451  25.859  1.00  0.00     0.057 A 
ATOM     72  C   UNL A   1      47.458  27.580  24.472  1.00  0.00     0.134 A 
ATOM     73  C   UNL A   1      48.372  26.822  26.553  1.00  0.00     0.134 A 
ATOM     74  F   UNL A   1      46.485  28.161  23.752  1.00  0.00    -0.206 F 
ATOM     75  C   UNL A   1      48.573  27.086  23.795  1.00  0.00     0.040 A 
ATOM     76  C   UNL A   1      49.501  26.341  25.889  1.00  0.00     0.040 A 
ATOM     77  F   UNL A   1      48.312  26.673  27.884  1.00  0.00    -0.206 F 
ATOM     78  C   UNL A   1      49.601  26.469  24.504  1.00  0.00     0.006 A 
ENDBRANCH  54  71
ENDBRANCH  28  29
ENDBRANCH  21  23
ENDBRANCH  20  21
ENDBRANCH  19  20
ENDBRANCH   1  19
TORSDOF 15
ENDMDL
