MODEL 1
REMARK VINA RESULT:     -10.6      0.000      0.000
REMARK SMILES CC[NH2+][C@@]1(C(=O)OCCOC(=O)c2ccc(-c3c4nc(c(-c5c(F)cccc5F)c5ccc([nH]5)c(-c5c(F)cccc5F)c5nc(c(-c6c(F)cccc6F)c6ccc3[nH]6)C=C5)C=C4)cc2)CCC[C@@H]([N@@H+](C)[C@@H](C)C2CC2)C1
REMARK SMILES IDX 8 1 7 2 5 3 6 4 4 5 67 6 78 7 68 8 70 9 69 10 3 11 2 14 1 15
REMARK SMILES IDX 71 16 72 17 73 19 74 20 75 21 76 22 77 23 9 24 10 25 11 26
REMARK SMILES IDX 12 27 13 28 14 29 66 30 15 31 65 32 16 33 17 34 18 35 59 36
REMARK SMILES IDX 19 37 64 38 58 39 60 40 20 41 63 42 57 43 56 44 21 46 47 47
REMARK SMILES IDX 30 48 46 49 31 50 34 51 45 52 61 53 32 54 33 55 44 57 62 58
REMARK SMILES IDX 35 59 22 60 23 61 28 62 24 63 25 64 27 65 29 66 26 67 48 68
REMARK SMILES IDX 49 69 54 70 50 71 51 72 53 73 55 74 52 75 36 76 37 77 42 78
REMARK SMILES IDX 38 79 39 80 41 81 43 82 40 83
REMARK H PARENT 3 12 3 13 71 18 60 45 34 56
REMARK Flexibility Score: inf
ROOT
ATOM      1  C   UNL A   1      31.441  28.245  25.591  1.00  0.00     0.274 C 
ENDROOT
BRANCH   1   2
ATOM      2  O   UNL A   1      31.991  27.652  24.394  1.00  0.00    -0.457 OA
BRANCH   2   3
ATOM      3  C   UNL A   1      32.769  26.550  24.553  1.00  0.00     0.368 C 
ATOM      4  O   UNL A   1      33.567  26.395  25.476  1.00  0.00    -0.245 OA
BRANCH   3   5
ATOM      5  C   UNL A   1      32.647  25.536  23.377  1.00  0.00     0.200 C 
ATOM      6  C   UNL A   1      31.168  25.098  23.326  1.00  0.00     0.081 C 
ATOM      7  C   UNL A   1      33.564  24.302  23.454  1.00  0.00     0.146 C 
ATOM      8  C   UNL A   1      30.810  24.120  24.444  1.00  0.00     0.013 C 
ATOM      9  C   UNL A   1      33.182  23.197  24.444  1.00  0.00     0.190 C 
ATOM     10  C   UNL A   1      31.680  22.865  24.384  1.00  0.00     0.065 C 
BRANCH   5  11
ATOM     11  N   UNL A   1      32.908  26.277  22.089  1.00  0.00    -0.332 N 
ATOM     12  H   UNL A   1      32.916  27.276  22.293  1.00  0.00     0.347 HD
ATOM     13  H   UNL A   1      33.799  25.932  21.734  1.00  0.00     0.347 HD
BRANCH  11  14
ATOM     14  C   UNL A   1      31.921  26.037  21.033  1.00  0.00     0.257 C 
ATOM     15  C   UNL A   1      32.580  25.448  19.795  1.00  0.00     0.071 C 
ENDBRANCH  11  14
ENDBRANCH   5  11
BRANCH   9  16
ATOM     16  N   UNL A   1      34.140  22.065  24.386  1.00  0.00    -0.332 N 
ATOM     17  C   UNL A   1      35.475  22.509  23.978  1.00  0.00     0.333 C 
ATOM     18  H   UNL A   1      33.668  21.510  23.673  1.00  0.00     0.348 HD
BRANCH  16  19
ATOM     19  C   UNL A   1      34.219  21.050  25.457  1.00  0.00     0.184 C 
ATOM     20  C   UNL A   1      34.080  21.564  26.895  1.00  0.00     0.075 C 
BRANCH  19  21
ATOM     21  C   UNL A   1      33.316  19.842  25.252  1.00  0.00     0.047 C 
ATOM     22  C   UNL A   1      32.762  19.400  23.912  1.00  0.00     0.010 C 
ATOM     23  C   UNL A   1      33.870  18.621  24.543  1.00  0.00     0.010 C 
ENDBRANCH  19  21
ENDBRANCH  16  19
ENDBRANCH   9  16
ENDBRANCH   3   5
ENDBRANCH   2   3
ENDBRANCH   1   2
BRANCH   1  24
ATOM     24  C   UNL A   1      31.725  29.743  25.626  1.00  0.00     0.275 C 
BRANCH  24  25
ATOM     25  O   UNL A   1      32.075  30.113  26.971  1.00  0.00    -0.458 OA
BRANCH  25  26
ATOM     26  C   UNL A   1      32.759  31.268  27.108  1.00  0.00     0.338 C 
ATOM     27  O   UNL A   1      32.309  32.401  27.011  1.00  0.00    -0.246 OA
BRANCH  26  28
ATOM     28  C   UNL A   1      34.171  30.992  27.459  1.00  0.00     0.060 A 
ATOM     29  C   UNL A   1      34.628  29.686  27.613  1.00  0.00     0.016 A 
ATOM     30  C   UNL A   1      35.014  32.053  27.792  1.00  0.00     0.016 A 
ATOM     31  C   UNL A   1      35.843  29.443  28.256  1.00  0.00     0.010 A 
ATOM     32  C   UNL A   1      36.284  31.799  28.331  1.00  0.00     0.010 A 
ATOM     33  C   UNL A   1      36.687  30.491  28.652  1.00  0.00    -0.014 A 
BRANCH  33  34
ATOM     34  C   UNL A   1      37.901  30.241  29.500  1.00  0.00     0.031 A 
ATOM     35  C   UNL A   1      39.082  29.483  28.927  1.00  0.00     0.074 A 
ATOM     36  C   UNL A   1      38.018  30.719  30.757  1.00  0.00     0.049 A 
ATOM     37  N   UNL A   1      40.084  28.914  29.550  1.00  0.00    -0.248 NA
ATOM     38  C   UNL A   1      39.127  29.323  27.465  1.00  0.00     0.031 C 
ATOM     39  C   UNL A   1      37.030  31.532  31.464  1.00  0.00     0.029 A 
ATOM     40  N   UNL A   1      39.053  30.608  31.659  1.00  0.00    -0.354 N 
ATOM     41  C   UNL A   1      40.802  28.231  28.574  1.00  0.00     0.074 A 
ATOM     42  C   UNL A   1      40.143  28.486  27.312  1.00  0.00     0.031 C 
ATOM     43  C   UNL A   1      37.539  31.921  32.643  1.00  0.00     0.029 A 
ATOM     44  C   UNL A   1      38.835  31.282  32.836  1.00  0.00     0.049 A 
ATOM     45  H   UNL A   1      39.872  30.093  31.477  1.00  0.00     0.167 HD
ATOM     46  C   UNL A   1      41.903  27.453  28.719  1.00  0.00     0.037 A 
ATOM     47  C   UNL A   1      39.561  31.343  33.969  1.00  0.00     0.037 A 
ATOM     48  C   UNL A   1      42.645  27.308  29.945  1.00  0.00     0.049 A 
ATOM     49  C   UNL A   1      40.809  30.518  34.099  1.00  0.00     0.074 A 
ATOM     50  C   UNL A   1      43.773  26.541  30.188  1.00  0.00     0.029 A 
ATOM     51  N   UNL A   1      42.367  27.990  31.118  1.00  0.00    -0.354 N 
ATOM     52  N   UNL A   1      41.375  29.730  33.220  1.00  0.00    -0.248 NA
ATOM     53  C   UNL A   1      41.492  30.558  35.401  1.00  0.00     0.031 C 
ATOM     54  C   UNL A   1      44.174  26.755  31.513  1.00  0.00     0.029 A 
ATOM     55  C   UNL A   1      43.311  27.676  32.082  1.00  0.00     0.049 A 
ATOM     56  H   UNL A   1      41.611  28.607  31.247  1.00  0.00     0.167 HD
ATOM     57  C   UNL A   1      42.467  29.165  33.867  1.00  0.00     0.074 A 
ATOM     58  C   UNL A   1      42.510  29.732  35.198  1.00  0.00     0.031 C 
ATOM     59  C   UNL A   1      43.341  28.238  33.405  1.00  0.00     0.037 A 
BRANCH  46  60
ATOM     60  C   UNL A   1      42.357  26.657  27.530  1.00  0.00     0.057 A 
ATOM     61  C   UNL A   1      41.886  25.368  27.260  1.00  0.00     0.134 A 
ATOM     62  C   UNL A   1      43.249  27.226  26.610  1.00  0.00     0.134 A 
ATOM     63  F   UNL A   1      41.042  24.761  28.108  1.00  0.00    -0.206 F 
ATOM     64  C   UNL A   1      42.299  24.665  26.126  1.00  0.00     0.040 A 
ATOM     65  C   UNL A   1      43.650  26.543  25.461  1.00  0.00     0.040 A 
ATOM     66  F   UNL A   1      43.733  28.463  26.806  1.00  0.00    -0.206 F 
ATOM     67  C   UNL A   1      43.177  25.257  25.218  1.00  0.00     0.006 A 
ENDBRANCH  46  60
BRANCH  47  68
ATOM     68  C   UNL A   1      39.090  32.174  35.105  1.00  0.00     0.057 A 
ATOM     69  C   UNL A   1      39.416  33.531  35.189  1.00  0.00     0.134 A 
ATOM     70  C   UNL A   1      38.303  31.633  36.130  1.00  0.00     0.134 A 
ATOM     71  F   UNL A   1      40.195  34.098  34.256  1.00  0.00    -0.206 F 
ATOM     72  C   UNL A   1      38.976  34.323  36.251  1.00  0.00     0.040 A 
ATOM     73  C   UNL A   1      37.833  32.418  37.182  1.00  0.00     0.040 A 
ATOM     74  F   UNL A   1      37.962  30.336  36.108  1.00  0.00    -0.206 F 
ATOM     75  C   UNL A   1      38.173  33.768  37.246  1.00  0.00     0.006 A 
ENDBRANCH  47  68
BRANCH  59  76
ATOM     76  C   UNL A   1      44.414  27.790  34.349  1.00  0.00     0.057 A 
ATOM     77  C   UNL A   1      45.640  28.462  34.433  1.00  0.00     0.134 A 
ATOM     78  C   UNL A   1      44.221  26.683  35.182  1.00  0.00     0.134 A 
ATOM     79  F   UNL A   1      45.889  29.522  33.649  1.00  0.00    -0.206 F 
ATOM     80  C   UNL A   1      46.648  28.030  35.295  1.00  0.00     0.040 A 
ATOM     81  C   UNL A   1      45.216  26.253  36.062  1.00  0.00     0.040 A 
ATOM     82  F   UNL A   1      43.067  26.000  35.153  1.00  0.00    -0.206 F 
ATOM     83  C   UNL A   1      46.436  26.924  36.114  1.00  0.00     0.006 A 
ENDBRANCH  59  76
ENDBRANCH  33  34
ENDBRANCH  26  28
ENDBRANCH  25  26
ENDBRANCH  24  25
ENDBRANCH   1  24
TORSDOF 16
ENDMDL
MODEL 2
REMARK VINA RESULT:     -10.5      0.911      2.031
REMARK SMILES CC[NH2+][C@@]1(C(=O)OCCOC(=O)c2ccc(-c3c4nc(c(-c5c(F)cccc5F)c5ccc([nH]5)c(-c5c(F)cccc5F)c5nc(c(-c6c(F)cccc6F)c6ccc3[nH]6)C=C5)C=C4)cc2)CCC[C@@H]([N@@H+](C)[C@@H](C)C2CC2)C1
REMARK SMILES IDX 8 1 7 2 5 3 6 4 4 5 67 6 78 7 68 8 70 9 69 10 3 11 2 14 1 15
REMARK SMILES IDX 71 16 72 17 73 19 74 20 75 21 76 22 77 23 9 24 10 25 11 26
REMARK SMILES IDX 12 27 13 28 14 29 66 30 15 31 65 32 16 33 17 34 18 35 59 36
REMARK SMILES IDX 19 37 64 38 58 39 60 40 20 41 63 42 57 43 56 44 21 46 47 47
REMARK SMILES IDX 30 48 46 49 31 50 34 51 45 52 61 53 32 54 33 55 44 57 62 58
REMARK SMILES IDX 35 59 22 60 23 61 28 62 24 63 25 64 27 65 29 66 26 67 48 68
REMARK SMILES IDX 49 69 54 70 50 71 51 72 53 73 55 74 52 75 36 76 37 77 42 78
REMARK SMILES IDX 38 79 39 80 41 81 43 82 40 83
REMARK H PARENT 3 12 3 13 71 18 60 45 34 56
REMARK Flexibility Score: inf
ROOT
ATOM      1  C   UNL A   1      32.278  29.639  24.981  1.00  0.00     0.274 C 
ENDROOT
BRANCH   1   2
ATOM      2  O   UNL A   1      31.774  28.298  25.167  1.00  0.00    -0.457 OA
BRANCH   2   3
ATOM      3  C   UNL A   1      32.358  27.313  24.436  1.00  0.00     0.368 C 
ATOM      4  O   UNL A   1      33.527  27.337  24.054  1.00  0.00    -0.245 OA
BRANCH   3   5
ATOM      5  C   UNL A   1      31.365  26.189  24.015  1.00  0.00     0.200 C 
ATOM      6  C   UNL A   1      30.498  25.882  25.254  1.00  0.00     0.081 C 
ATOM      7  C   UNL A   1      32.002  24.895  23.478  1.00  0.00     0.146 C 
ATOM      8  C   UNL A   1      31.252  25.070  26.307  1.00  0.00     0.013 C 
ATOM      9  C   UNL A   1      32.643  23.946  24.496  1.00  0.00     0.190 C 
ATOM     10  C   UNL A   1      31.751  23.743  25.734  1.00  0.00     0.065 C 
BRANCH   5  11
ATOM     11  N   UNL A   1      30.427  26.756  22.979  1.00  0.00    -0.332 N 
ATOM     12  H   UNL A   1      30.876  27.566  22.552  1.00  0.00     0.347 HD
ATOM     13  H   UNL A   1      30.241  26.004  22.316  1.00  0.00     0.347 HD
BRANCH  11  14
ATOM     14  C   UNL A   1      29.124  27.179  23.499  1.00  0.00     0.257 C 
ATOM     15  C   UNL A   1      28.822  28.617  23.109  1.00  0.00     0.071 C 
ENDBRANCH  11  14
ENDBRANCH   5  11
BRANCH   9  16
ATOM     16  N   UNL A   1      33.187  22.734  23.836  1.00  0.00    -0.332 N 
ATOM     17  C   UNL A   1      33.157  22.855  22.376  1.00  0.00     0.333 C 
ATOM     18  H   UNL A   1      32.515  22.056  24.194  1.00  0.00     0.348 HD
BRANCH  16  19
ATOM     19  C   UNL A   1      34.436  22.087  24.292  1.00  0.00     0.184 C 
ATOM     20  C   UNL A   1      35.515  23.015  24.862  1.00  0.00     0.075 C 
BRANCH  19  21
ATOM     21  C   UNL A   1      34.229  20.902  25.225  1.00  0.00     0.047 C 
ATOM     22  C   UNL A   1      32.907  20.191  25.434  1.00  0.00     0.010 C 
ATOM     23  C   UNL A   1      33.978  19.530  24.628  1.00  0.00     0.010 C 
ENDBRANCH  19  21
ENDBRANCH  16  19
ENDBRANCH   9  16
ENDBRANCH   3   5
ENDBRANCH   2   3
ENDBRANCH   1   2
BRANCH   1  24
ATOM     24  C   UNL A   1      31.501  30.627  25.845  1.00  0.00     0.275 C 
BRANCH  24  25
ATOM     25  O   UNL A   1      32.146  30.722  27.126  1.00  0.00    -0.458 OA
BRANCH  25  26
ATOM     26  C   UNL A   1      32.915  31.813  27.323  1.00  0.00     0.338 C 
ATOM     27  O   UNL A   1      32.554  32.981  27.282  1.00  0.00    -0.246 OA
BRANCH  26  28
ATOM     28  C   UNL A   1      34.300  31.412  27.663  1.00  0.00     0.060 A 
ATOM     29  C   UNL A   1      34.631  30.073  27.852  1.00  0.00     0.016 A 
ATOM     30  C   UNL A   1      35.247  32.396  27.951  1.00  0.00     0.016 A 
ATOM     31  C   UNL A   1      35.827  29.733  28.485  1.00  0.00     0.010 A 
ATOM     32  C   UNL A   1      36.495  32.037  28.480  1.00  0.00     0.010 A 
ATOM     33  C   UNL A   1      36.775  30.706  28.837  1.00  0.00    -0.014 A 
BRANCH  33  34
ATOM     34  C   UNL A   1      37.973  30.365  29.675  1.00  0.00     0.031 A 
ATOM     35  C   UNL A   1      39.115  29.568  29.077  1.00  0.00     0.074 A 
ATOM     36  C   UNL A   1      38.113  30.793  30.949  1.00  0.00     0.049 A 
ATOM     37  N   UNL A   1      40.086  28.926  29.679  1.00  0.00    -0.248 NA
ATOM     38  C   UNL A   1      39.154  29.456  27.610  1.00  0.00     0.031 C 
ATOM     39  C   UNL A   1      37.167  31.631  31.684  1.00  0.00     0.029 A 
ATOM     40  N   UNL A   1      39.139  30.597  31.846  1.00  0.00    -0.354 N 
ATOM     41  C   UNL A   1      40.770  28.242  28.681  1.00  0.00     0.074 A 
ATOM     42  C   UNL A   1      40.126  28.574  27.428  1.00  0.00     0.031 C 
ATOM     43  C   UNL A   1      37.693  31.952  32.875  1.00  0.00     0.029 A 
ATOM     44  C   UNL A   1      38.954  31.241  33.046  1.00  0.00     0.049 A 
ATOM     45  H   UNL A   1      39.931  30.048  31.646  1.00  0.00     0.167 HD
ATOM     46  C   UNL A   1      41.828  27.404  28.798  1.00  0.00     0.037 A 
ATOM     47  C   UNL A   1      39.681  31.226  34.180  1.00  0.00     0.037 A 
ATOM     48  C   UNL A   1      42.561  27.179  30.018  1.00  0.00     0.049 A 
ATOM     49  C   UNL A   1      40.885  30.334  34.282  1.00  0.00     0.074 A 
ATOM     50  C   UNL A   1      43.647  26.348  30.235  1.00  0.00     0.029 A 
ATOM     51  N   UNL A   1      42.316  27.833  31.214  1.00  0.00    -0.354 N 
ATOM     52  N   UNL A   1      41.411  29.549  33.376  1.00  0.00    -0.248 NA
ATOM     53  C   UNL A   1      41.567  30.294  35.584  1.00  0.00     0.031 C 
ATOM     54  C   UNL A   1      44.057  26.495  31.566  1.00  0.00     0.029 A 
ATOM     55  C   UNL A   1      43.241  27.438  32.167  1.00  0.00     0.049 A 
ATOM     56  H   UNL A   1      41.592  28.483  31.365  1.00  0.00     0.167 HD
ATOM     57  C   UNL A   1      42.471  28.906  34.002  1.00  0.00     0.074 A 
ATOM     58  C   UNL A   1      42.541  29.424  35.352  1.00  0.00     0.031 C 
ATOM     59  C   UNL A   1      43.297  27.953  33.508  1.00  0.00     0.037 A 
BRANCH  46  60
ATOM     60  C   UNL A   1      42.243  26.628  27.583  1.00  0.00     0.057 A 
ATOM     61  C   UNL A   1      43.172  27.114  26.656  1.00  0.00     0.134 A 
ATOM     62  C   UNL A   1      41.735  25.338  27.371  1.00  0.00     0.134 A 
ATOM     63  F   UNL A   1      43.685  28.346  26.792  1.00  0.00    -0.206 F 
ATOM     64  C   UNL A   1      43.567  26.354  25.553  1.00  0.00     0.040 A 
ATOM     65  C   UNL A   1      42.140  24.559  26.287  1.00  0.00     0.040 A 
ATOM     66  F   UNL A   1      40.846  24.809  28.227  1.00  0.00    -0.206 F 
ATOM     67  C   UNL A   1      43.057  25.068  25.372  1.00  0.00     0.006 A 
ENDBRANCH  46  60
BRANCH  47  68
ATOM     68  C   UNL A   1      39.251  32.040  35.344  1.00  0.00     0.057 A 
ATOM     69  C   UNL A   1      38.406  31.507  36.323  1.00  0.00     0.134 A 
ATOM     70  C   UNL A   1      39.674  33.366  35.505  1.00  0.00     0.134 A 
ATOM     71  F   UNL A   1      37.941  30.256  36.205  1.00  0.00    -0.206 F 
ATOM     72  C   UNL A   1      37.997  32.263  37.424  1.00  0.00     0.040 A 
ATOM     73  C   UNL A   1      39.297  34.122  36.614  1.00  0.00     0.040 A 
ATOM     74  F   UNL A   1      40.481  33.934  34.597  1.00  0.00    -0.206 F 
ATOM     75  C   UNL A   1      38.453  33.572  37.576  1.00  0.00     0.006 A 
ENDBRANCH  47  68
BRANCH  59  76
ATOM     76  C   UNL A   1      44.345  27.418  34.436  1.00  0.00     0.057 A 
ATOM     77  C   UNL A   1      44.111  26.286  35.227  1.00  0.00     0.134 A 
ATOM     78  C   UNL A   1      45.596  28.035  34.538  1.00  0.00     0.134 A 
ATOM     79  F   UNL A   1      42.926  25.659  35.183  1.00  0.00    -0.206 F 
ATOM     80  C   UNL A   1      45.079  25.802  36.108  1.00  0.00     0.040 A 
ATOM     81  C   UNL A   1      46.579  27.549  35.402  1.00  0.00     0.040 A 
ATOM     82  F   UNL A   1      45.884  29.120  33.803  1.00  0.00    -0.206 F 
ATOM     83  C   UNL A   1      46.318  26.433  36.195  1.00  0.00     0.006 A 
ENDBRANCH  59  76
ENDBRANCH  33  34
ENDBRANCH  26  28
ENDBRANCH  25  26
ENDBRANCH  24  25
ENDBRANCH   1  24
TORSDOF 16
ENDMDL
MODEL 3
REMARK VINA RESULT:     -10.4      3.876      8.728
REMARK SMILES CC[NH2+][C@@]1(C(=O)OCCOC(=O)c2ccc(-c3c4nc(c(-c5c(F)cccc5F)c5ccc([nH]5)c(-c5c(F)cccc5F)c5nc(c(-c6c(F)cccc6F)c6ccc3[nH]6)C=C5)C=C4)cc2)CCC[C@@H]([N@@H+](C)[C@@H](C)C2CC2)C1
REMARK SMILES IDX 8 1 7 2 5 3 6 4 4 5 67 6 78 7 68 8 70 9 69 10 3 11 2 14 1 15
REMARK SMILES IDX 71 16 72 17 73 19 74 20 75 21 76 22 77 23 9 24 10 25 11 26
REMARK SMILES IDX 12 27 13 28 14 29 66 30 15 31 65 32 16 33 17 34 18 35 59 36
REMARK SMILES IDX 19 37 64 38 58 39 60 40 20 41 63 42 57 43 56 44 21 46 47 47
REMARK SMILES IDX 30 48 46 49 31 50 34 51 45 52 61 53 32 54 33 55 44 57 62 58
REMARK SMILES IDX 35 59 22 60 23 61 28 62 24 63 25 64 27 65 29 66 26 67 48 68
REMARK SMILES IDX 49 69 54 70 50 71 51 72 53 73 55 74 52 75 36 76 37 77 42 78
REMARK SMILES IDX 38 79 39 80 41 81 43 82 40 83
REMARK H PARENT 3 12 3 13 71 18 60 45 34 56
REMARK Flexibility Score: inf
ROOT
ATOM      1  C   UNL A   1      35.079  21.675  25.684  1.00  0.00     0.274 C 
ENDROOT
BRANCH   1   2
ATOM      2  O   UNL A   1      34.593  22.663  24.749  1.00  0.00    -0.457 OA
BRANCH   2   3
ATOM      3  C   UNL A   1      33.313  22.524  24.315  1.00  0.00     0.368 C 
ATOM      4  O   UNL A   1      32.960  21.724  23.451  1.00  0.00    -0.245 OA
BRANCH   3   5
ATOM      5  C   UNL A   1      32.337  23.569  24.935  1.00  0.00     0.200 C 
ATOM      6  C   UNL A   1      31.246  23.833  23.875  1.00  0.00     0.081 C 
ATOM      7  C   UNL A   1      32.970  24.896  25.388  1.00  0.00     0.146 C 
ATOM      8  C   UNL A   1      31.747  24.712  22.729  1.00  0.00     0.013 C 
ATOM      9  C   UNL A   1      33.356  25.904  24.300  1.00  0.00     0.190 C 
ATOM     10  C   UNL A   1      32.249  26.062  23.243  1.00  0.00     0.065 C 
BRANCH   5  11
ATOM     11  N   UNL A   1      31.636  22.920  26.103  1.00  0.00    -0.332 N 
ATOM     12  H   UNL A   1      31.385  21.969  25.835  1.00  0.00     0.347 HD
ATOM     13  H   UNL A   1      32.287  22.959  26.887  1.00  0.00     0.347 HD
BRANCH  11  14
ATOM     14  C   UNL A   1      30.418  23.606  26.544  1.00  0.00     0.257 C 
ATOM     15  C   UNL A   1      29.480  22.646  27.258  1.00  0.00     0.071 C 
ENDBRANCH  11  14
ENDBRANCH   5  11
BRANCH   9  16
ATOM     16  N   UNL A   1      33.926  27.141  24.888  1.00  0.00    -0.332 N 
ATOM     17  C   UNL A   1      33.893  28.255  23.938  1.00  0.00     0.333 C 
ATOM     18  H   UNL A   1      34.870  26.797  25.068  1.00  0.00     0.348 HD
BRANCH  16  19
ATOM     19  C   UNL A   1      33.579  27.593  26.252  1.00  0.00     0.184 C 
ATOM     20  C   UNL A   1      34.521  28.624  26.888  1.00  0.00     0.075 C 
BRANCH  19  21
ATOM     21  C   UNL A   1      32.134  28.041  26.422  1.00  0.00     0.047 C 
ATOM     22  C   UNL A   1      31.442  28.223  27.758  1.00  0.00     0.010 C 
ATOM     23  C   UNL A   1      31.853  29.426  26.973  1.00  0.00     0.010 C 
ENDBRANCH  19  21
ENDBRANCH  16  19
ENDBRANCH   9  16
ENDBRANCH   3   5
ENDBRANCH   2   3
ENDBRANCH   1   2
BRANCH   1  24
ATOM     24  C   UNL A   1      36.021  20.698  24.988  1.00  0.00     0.275 C 
BRANCH  24  25
ATOM     25  O   UNL A   1      37.246  21.384  24.676  1.00  0.00    -0.458 OA
BRANCH  25  26
ATOM     26  C   UNL A   1      38.332  21.010  25.385  1.00  0.00     0.338 C 
ATOM     27  O   UNL A   1      38.875  19.914  25.369  1.00  0.00    -0.246 OA
BRANCH  26  28
ATOM     28  C   UNL A   1      38.845  22.150  26.180  1.00  0.00     0.060 A 
ATOM     29  C   UNL A   1      38.282  23.418  26.058  1.00  0.00     0.016 A 
ATOM     30  C   UNL A   1      40.003  21.988  26.940  1.00  0.00     0.016 A 
ATOM     31  C   UNL A   1      38.967  24.533  26.544  1.00  0.00     0.010 A 
ATOM     32  C   UNL A   1      40.622  23.102  27.525  1.00  0.00     0.010 A 
ATOM     33  C   UNL A   1      40.162  24.405  27.265  1.00  0.00    -0.014 A 
BRANCH  33  34
ATOM     34  C   UNL A   1      40.989  25.605  27.630  1.00  0.00     0.031 A 
ATOM     35  C   UNL A   1      40.430  26.653  28.571  1.00  0.00     0.074 A 
ATOM     36  C   UNL A   1      42.258  25.770  27.197  1.00  0.00     0.049 A 
ATOM     37  N   UNL A   1      40.839  27.879  28.786  1.00  0.00    -0.248 NA
ATOM     38  C   UNL A   1      39.239  26.282  29.352  1.00  0.00     0.031 C 
ATOM     39  C   UNL A   1      43.005  24.844  26.347  1.00  0.00     0.029 A 
ATOM     40  N   UNL A   1      43.158  26.782  27.445  1.00  0.00    -0.354 N 
ATOM     41  C   UNL A   1      39.891  28.457  29.624  1.00  0.00     0.074 A 
ATOM     42  C   UNL A   1      38.905  27.437  29.909  1.00  0.00     0.031 C 
ATOM     43  C   UNL A   1      44.268  25.279  26.222  1.00  0.00     0.029 A 
ATOM     44  C   UNL A   1      44.390  26.578  26.872  1.00  0.00     0.049 A 
ATOM     45  H   UNL A   1      42.939  27.577  27.983  1.00  0.00     0.167 HD
ATOM     46  C   UNL A   1      39.842  29.724  30.102  1.00  0.00     0.037 A 
ATOM     47  C   UNL A   1      45.484  27.363  26.820  1.00  0.00     0.037 A 
ATOM     48  C   UNL A   1      40.888  30.700  29.940  1.00  0.00     0.049 A 
ATOM     49  C   UNL A   1      45.436  28.747  27.402  1.00  0.00     0.074 A 
ATOM     50  C   UNL A   1      40.927  32.010  30.388  1.00  0.00     0.029 A 
ATOM     51  N   UNL A   1      42.105  30.454  29.326  1.00  0.00    -0.354 N 
ATOM     52  N   UNL A   1      44.458  29.344  28.035  1.00  0.00    -0.248 NA
ATOM     53  C   UNL A   1      46.633  29.581  27.217  1.00  0.00     0.031 C 
ATOM     54  C   UNL A   1      42.167  32.559  30.040  1.00  0.00     0.029 A 
ATOM     55  C   UNL A   1      42.908  31.581  29.399  1.00  0.00     0.049 A 
ATOM     56  H   UNL A   1      42.361  29.604  28.900  1.00  0.00     0.167 HD
ATOM     57  C   UNL A   1      44.911  30.629  28.306  1.00  0.00     0.074 A 
ATOM     58  C   UNL A   1      46.268  30.712  27.807  1.00  0.00     0.031 C 
ATOM     59  C   UNL A   1      44.252  31.656  28.893  1.00  0.00     0.037 A 
BRANCH  46  60
ATOM     60  C   UNL A   1      38.594  30.152  30.818  1.00  0.00     0.057 A 
ATOM     61  C   UNL A   1      38.447  30.051  32.206  1.00  0.00     0.134 A 
ATOM     62  C   UNL A   1      37.538  30.728  30.096  1.00  0.00     0.134 A 
ATOM     63  F   UNL A   1      39.413  29.496  32.953  1.00  0.00    -0.206 F 
ATOM     64  C   UNL A   1      37.288  30.491  32.849  1.00  0.00     0.040 A 
ATOM     65  C   UNL A   1      36.386  31.194  30.730  1.00  0.00     0.040 A 
ATOM     66  F   UNL A   1      37.619  30.861  28.763  1.00  0.00    -0.206 F 
ATOM     67  C   UNL A   1      36.257  31.073  32.111  1.00  0.00     0.006 A 
ENDBRANCH  46  60
BRANCH  47  68
ATOM     68  C   UNL A   1      46.708  26.881  26.133  1.00  0.00     0.057 A 
ATOM     69  C   UNL A   1      46.940  27.174  24.785  1.00  0.00     0.134 A 
ATOM     70  C   UNL A   1      47.672  26.120  26.806  1.00  0.00     0.134 A 
ATOM     71  F   UNL A   1      46.037  27.869  24.080  1.00  0.00    -0.206 F 
ATOM     72  C   UNL A   1      48.089  26.728  24.129  1.00  0.00     0.040 A 
ATOM     73  C   UNL A   1      48.838  25.693  26.171  1.00  0.00     0.040 A 
ATOM     74  F   UNL A   1      47.504  25.803  28.098  1.00  0.00    -0.206 F 
ATOM     75  C   UNL A   1      49.047  25.994  24.827  1.00  0.00     0.006 A 
ENDBRANCH  47  68
BRANCH  59  76
ATOM     76  C   UNL A   1      44.995  32.949  29.029  1.00  0.00     0.057 A 
ATOM     77  C   UNL A   1      45.804  33.213  30.141  1.00  0.00     0.134 A 
ATOM     78  C   UNL A   1      44.907  33.935  28.040  1.00  0.00     0.134 A 
ATOM     79  F   UNL A   1      45.918  32.312  31.129  1.00  0.00    -0.206 F 
ATOM     80  C   UNL A   1      46.478  34.428  30.278  1.00  0.00     0.040 A 
ATOM     81  C   UNL A   1      45.591  35.146  28.157  1.00  0.00     0.040 A 
ATOM     82  F   UNL A   1      44.153  33.740  26.948  1.00  0.00    -0.206 F 
ATOM     83  C   UNL A   1      46.374  35.397  29.283  1.00  0.00     0.006 A 
ENDBRANCH  59  76
ENDBRANCH  33  34
ENDBRANCH  26  28
ENDBRANCH  25  26
ENDBRANCH  24  25
ENDBRANCH   1  24
TORSDOF 16
ENDMDL
