MODEL 1
REMARK VINA RESULT:     -11.8      0.000      0.000
REMARK SMILES Cc1ccccc1-n1nc(Cl)c(C(=O)OCCOC(=O)c2ccc(-c3c4nc(c(-c5c(F)cccc5F)c5ccc([nH]5)c(-c5c(F)cccc5F)c5nc(c(-c6c(F)cccc6F)c6ccc3[nH]6)C=C5)C=C4)cc2)n1
REMARK SMILES IDX 17 1 16 2 15 3 13 4 14 5 12 6 8 7 9 8 75 9 10 10 11 11 7 12
REMARK SMILES IDX 1 13 2 14 3 15 4 16 6 17 5 18 18 19 19 20 20 21 21 22 22 23
REMARK SMILES IDX 74 24 23 25 73 26 24 27 25 28 26 29 67 30 27 31 72 32 66 33
REMARK SMILES IDX 68 34 28 35 71 36 65 37 64 38 29 40 55 41 38 42 54 43 39 44
REMARK SMILES IDX 42 45 53 46 69 47 40 48 41 49 52 51 70 52 43 53 30 54 31 55
REMARK SMILES IDX 36 56 32 57 33 58 35 59 37 60 34 61 56 62 57 63 62 64 58 65
REMARK SMILES IDX 59 66 61 67 63 68 60 69 44 70 45 71 50 72 46 73 47 74 49 75
REMARK SMILES IDX 51 76 48 77
REMARK H PARENT 68 39 42 50
REMARK Flexibility Score: inf
ROOT
ATOM      1  C   UNL A   1      33.018  29.691  25.752  1.00  0.00     0.275 C 
ENDROOT
BRANCH   1   2
ATOM      2  C   UNL A   1      33.673  28.614  24.843  1.00  0.00     0.275 C 
BRANCH   2   3
ATOM      3  O   UNL A   1      32.889  27.855  23.917  1.00  0.00    -0.457 OA
BRANCH   3   4
ATOM      4  C   UNL A   1      33.501  27.330  22.832  1.00  0.00     0.362 C 
ATOM      5  O   UNL A   1      34.063  28.012  21.976  1.00  0.00    -0.244 OA
BRANCH   4   6
ATOM      6  C   UNL A   1      33.402  25.884  22.755  1.00  0.00     0.209 A 
ATOM      7  N   UNL A   1      33.739  23.841  23.127  1.00  0.00    -0.149 N 
ATOM      8  N   UNL A   1      33.287  23.832  21.848  1.00  0.00    -0.135 NA
ATOM      9  N   UNL A   1      33.639  25.037  23.783  1.00  0.00    -0.139 NA
ATOM     10  C   UNL A   1      33.100  25.127  21.612  1.00  0.00     0.186 A 
ATOM     11  Cl  UNL A   1      32.577  25.656  20.096  1.00  0.00    -0.057 Cl
BRANCH   7  12
ATOM     12  C   UNL A   1      34.626  22.835  23.589  1.00  0.00     0.089 A 
ATOM     13  C   UNL A   1      32.745  21.273  24.377  1.00  0.00     0.047 C 
ATOM     14  C   UNL A   1      34.185  21.696  24.286  1.00  0.00    -0.023 A 
ATOM     15  C   UNL A   1      35.155  20.876  24.893  1.00  0.00     0.006 A 
ATOM     16  C   UNL A   1      36.518  21.165  24.785  1.00  0.00     0.000 A 
ATOM     17  C   UNL A   1      36.003  23.084  23.428  1.00  0.00     0.030 A 
ATOM     18  C   UNL A   1      36.943  22.260  24.041  1.00  0.00     0.002 A 
ENDBRANCH   7  12
ENDBRANCH   4   6
ENDBRANCH   3   4
ENDBRANCH   2   3
ENDBRANCH   1   2
BRANCH   1  19
ATOM     19  O   UNL A   1      33.506  30.116  27.073  1.00  0.00    -0.458 OA
BRANCH  19  20
ATOM     20  C   UNL A   1      33.962  31.266  27.617  1.00  0.00     0.338 C 
ATOM     21  O   UNL A   1      33.297  32.290  27.674  1.00  0.00    -0.246 OA
BRANCH  20  22
ATOM     22  C   UNL A   1      35.311  31.244  28.164  1.00  0.00     0.060 A 
ATOM     23  C   UNL A   1      36.184  32.339  28.015  1.00  0.00     0.016 A 
ATOM     24  C   UNL A   1      35.665  30.124  28.893  1.00  0.00     0.016 A 
ATOM     25  C   UNL A   1      37.424  32.300  28.632  1.00  0.00     0.010 A 
ATOM     26  C   UNL A   1      36.732  30.215  29.729  1.00  0.00     0.010 A 
ATOM     27  C   UNL A   1      37.672  31.217  29.469  1.00  0.00    -0.014 A 
BRANCH  27  28
ATOM     28  C   UNL A   1      38.993  30.733  29.811  1.00  0.00     0.031 A 
ATOM     29  C   UNL A   1      39.495  29.537  29.140  1.00  0.00     0.074 A 
ATOM     30  C   UNL A   1      39.669  31.683  30.502  1.00  0.00     0.049 A 
ATOM     31  N   UNL A   1      40.250  28.653  29.683  1.00  0.00    -0.248 NA
ATOM     32  C   UNL A   1      39.100  29.193  27.771  1.00  0.00     0.031 C 
ATOM     33  C   UNL A   1      41.077  31.958  30.695  1.00  0.00     0.029 A 
ATOM     34  N   UNL A   1      39.045  32.709  31.237  1.00  0.00    -0.354 N 
ATOM     35  C   UNL A   1      40.784  27.932  28.633  1.00  0.00     0.074 A 
ATOM     36  C   UNL A   1      39.875  28.129  27.529  1.00  0.00     0.031 C 
ATOM     37  C   UNL A   1      41.205  32.836  31.717  1.00  0.00     0.029 A 
ATOM     38  C   UNL A   1      39.879  33.078  32.282  1.00  0.00     0.049 A 
ATOM     39  H   UNL A   1      38.162  33.099  31.042  1.00  0.00     0.167 HD
ATOM     40  C   UNL A   1      42.093  27.547  28.697  1.00  0.00     0.037 A 
ATOM     41  C   UNL A   1      39.441  32.743  33.532  1.00  0.00     0.037 A 
ATOM     42  C   UNL A   1      42.710  28.170  29.874  1.00  0.00     0.049 A 
ATOM     43  C   UNL A   1      40.225  31.553  34.023  1.00  0.00     0.074 A 
ATOM     44  C   UNL A   1      43.433  29.348  29.987  1.00  0.00     0.029 A 
ATOM     45  N   UNL A   1      42.274  27.853  31.156  1.00  0.00    -0.354 N 
ATOM     46  N   UNL A   1      40.767  30.661  33.238  1.00  0.00    -0.248 NA
ATOM     47  C   UNL A   1      40.512  31.325  35.432  1.00  0.00     0.031 C 
ATOM     48  C   UNL A   1      43.368  29.773  31.338  1.00  0.00     0.029 A 
ATOM     49  C   UNL A   1      42.593  28.867  32.043  1.00  0.00     0.049 A 
ATOM     50  H   UNL A   1      41.803  27.022  31.398  1.00  0.00     0.167 HD
ATOM     51  C   UNL A   1      41.498  29.790  33.987  1.00  0.00     0.074 A 
ATOM     52  C   UNL A   1      41.301  30.240  35.356  1.00  0.00     0.031 C 
ATOM     53  C   UNL A   1      42.224  28.769  33.446  1.00  0.00     0.037 A 
BRANCH  40  54
ATOM     54  C   UNL A   1      42.906  26.994  27.543  1.00  0.00     0.057 A 
ATOM     55  C   UNL A   1      43.349  27.840  26.505  1.00  0.00     0.134 A 
ATOM     56  C   UNL A   1      43.314  25.654  27.404  1.00  0.00     0.134 A 
ATOM     57  F   UNL A   1      43.138  29.163  26.534  1.00  0.00    -0.206 F 
ATOM     58  C   UNL A   1      44.052  27.381  25.383  1.00  0.00     0.040 A 
ATOM     59  C   UNL A   1      43.989  25.173  26.270  1.00  0.00     0.040 A 
ATOM     60  F   UNL A   1      43.128  24.758  28.383  1.00  0.00    -0.206 F 
ATOM     61  C   UNL A   1      44.355  26.037  25.249  1.00  0.00     0.006 A 
ENDBRANCH  40  54
BRANCH  41  62
ATOM     62  C   UNL A   1      37.953  32.927  33.703  1.00  0.00     0.057 A 
ATOM     63  C   UNL A   1      37.461  34.218  33.995  1.00  0.00     0.134 A 
ATOM     64  C   UNL A   1      37.006  31.989  33.275  1.00  0.00     0.134 A 
ATOM     65  F   UNL A   1      38.301  35.181  34.409  1.00  0.00    -0.206 F 
ATOM     66  C   UNL A   1      36.129  34.587  33.767  1.00  0.00     0.040 A 
ATOM     67  C   UNL A   1      35.662  32.342  33.066  1.00  0.00     0.040 A 
ATOM     68  F   UNL A   1      37.372  30.738  32.963  1.00  0.00    -0.206 F 
ATOM     69  C   UNL A   1      35.228  33.651  33.277  1.00  0.00     0.006 A 
ENDBRANCH  41  62
BRANCH  53  70
ATOM     70  C   UNL A   1      42.742  27.620  34.254  1.00  0.00     0.057 A 
ATOM     71  C   UNL A   1      44.054  27.561  34.741  1.00  0.00     0.134 A 
ATOM     72  C   UNL A   1      41.877  26.601  34.698  1.00  0.00     0.134 A 
ATOM     73  F   UNL A   1      44.933  28.549  34.515  1.00  0.00    -0.206 F 
ATOM     74  C   UNL A   1      44.508  26.502  35.527  1.00  0.00     0.040 A 
ATOM     75  C   UNL A   1      42.299  25.578  35.544  1.00  0.00     0.040 A 
ATOM     76  F   UNL A   1      40.580  26.570  34.354  1.00  0.00    -0.206 F 
ATOM     77  C   UNL A   1      43.628  25.509  35.936  1.00  0.00     0.006 A 
ENDBRANCH  53  70
ENDBRANCH  27  28
ENDBRANCH  20  22
ENDBRANCH  19  20
ENDBRANCH   1  19
TORSDOF 12
ENDMDL
MODEL 2
REMARK VINA RESULT:     -11.7      2.138      3.180
REMARK SMILES Cc1ccccc1-n1nc(Cl)c(C(=O)OCCOC(=O)c2ccc(-c3c4nc(c(-c5c(F)cccc5F)c5ccc([nH]5)c(-c5c(F)cccc5F)c5nc(c(-c6c(F)cccc6F)c6ccc3[nH]6)C=C5)C=C4)cc2)n1
REMARK SMILES IDX 17 1 16 2 15 3 13 4 14 5 12 6 8 7 9 8 75 9 10 10 11 11 7 12
REMARK SMILES IDX 1 13 2 14 3 15 4 16 6 17 5 18 18 19 19 20 20 21 21 22 22 23
REMARK SMILES IDX 74 24 23 25 73 26 24 27 25 28 26 29 67 30 27 31 72 32 66 33
REMARK SMILES IDX 68 34 28 35 71 36 65 37 64 38 29 40 55 41 38 42 54 43 39 44
REMARK SMILES IDX 42 45 53 46 69 47 40 48 41 49 52 51 70 52 43 53 30 54 31 55
REMARK SMILES IDX 36 56 32 57 33 58 35 59 37 60 34 61 56 62 57 63 62 64 58 65
REMARK SMILES IDX 59 66 61 67 63 68 60 69 44 70 45 71 50 72 46 73 47 74 49 75
REMARK SMILES IDX 51 76 48 77
REMARK H PARENT 68 39 42 50
REMARK Flexibility Score: inf
ROOT
ATOM      1  C   UNL A   1      33.590  29.800  26.830  1.00  0.00     0.275 C 
ENDROOT
BRANCH   1   2
ATOM      2  C   UNL A   1      32.072  29.780  26.497  1.00  0.00     0.275 C 
BRANCH   2   3
ATOM      3  O   UNL A   1      31.411  28.561  26.145  1.00  0.00    -0.457 OA
BRANCH   3   4
ATOM      4  C   UNL A   1      31.889  27.846  25.101  1.00  0.00     0.362 C 
ATOM      5  O   UNL A   1      31.760  28.194  23.928  1.00  0.00    -0.244 OA
BRANCH   4   6
ATOM      6  C   UNL A   1      32.539  26.611  25.496  1.00  0.00     0.209 A 
ATOM      7  N   UNL A   1      33.949  25.055  25.629  1.00  0.00    -0.149 N 
ATOM      8  N   UNL A   1      32.794  24.428  25.965  1.00  0.00    -0.135 NA
ATOM      9  N   UNL A   1      33.878  26.417  25.530  1.00  0.00    -0.139 NA
ATOM     10  C   UNL A   1      31.905  25.410  25.854  1.00  0.00     0.186 A 
ATOM     11  Cl  UNL A   1      30.263  25.117  26.125  1.00  0.00    -0.057 Cl
BRANCH   7  12
ATOM     12  C   UNL A   1      35.010  24.340  25.016  1.00  0.00     0.089 A 
ATOM     13  C   UNL A   1      33.821  24.147  22.748  1.00  0.00     0.047 C 
ATOM     14  C   UNL A   1      34.913  23.801  23.721  1.00  0.00    -0.023 A 
ATOM     15  C   UNL A   1      35.928  22.924  23.293  1.00  0.00     0.006 A 
ATOM     16  C   UNL A   1      37.014  22.617  24.116  1.00  0.00     0.000 A 
ATOM     17  C   UNL A   1      36.141  24.079  25.815  1.00  0.00     0.030 A 
ATOM     18  C   UNL A   1      37.129  23.205  25.371  1.00  0.00     0.002 A 
ENDBRANCH   7  12
ENDBRANCH   4   6
ENDBRANCH   3   4
ENDBRANCH   2   3
ENDBRANCH   1   2
BRANCH   1  19
ATOM     19  O   UNL A   1      34.355  30.966  27.297  1.00  0.00    -0.458 OA
BRANCH  19  20
ATOM     20  C   UNL A   1      35.071  31.282  28.398  1.00  0.00     0.338 C 
ATOM     21  O   UNL A   1      34.773  32.197  29.152  1.00  0.00    -0.246 OA
BRANCH  20  22
ATOM     22  C   UNL A   1      36.241  30.462  28.678  1.00  0.00     0.060 A 
ATOM     23  C   UNL A   1      36.393  29.791  29.907  1.00  0.00     0.016 A 
ATOM     24  C   UNL A   1      37.158  30.322  27.653  1.00  0.00     0.016 A 
ATOM     25  C   UNL A   1      37.482  28.953  30.086  1.00  0.00     0.010 A 
ATOM     26  C   UNL A   1      38.038  29.289  27.718  1.00  0.00     0.010 A 
ATOM     27  C   UNL A   1      38.293  28.736  28.977  1.00  0.00    -0.014 A 
BRANCH  27  28
ATOM     28  C   UNL A   1      39.678  28.323  29.045  1.00  0.00     0.031 A 
ATOM     29  C   UNL A   1      40.028  26.972  28.616  1.00  0.00     0.074 A 
ATOM     30  C   UNL A   1      40.475  29.406  29.221  1.00  0.00     0.049 A 
ATOM     31  N   UNL A   1      40.950  26.250  29.142  1.00  0.00    -0.248 NA
ATOM     32  C   UNL A   1      39.277  26.271  27.570  1.00  0.00     0.031 C 
ATOM     33  C   UNL A   1      41.865  29.677  28.917  1.00  0.00     0.029 A 
ATOM     34  N   UNL A   1      40.036  30.616  29.790  1.00  0.00    -0.354 N 
ATOM     35  C   UNL A   1      41.198  25.247  28.226  1.00  0.00     0.074 A 
ATOM     36  C   UNL A   1      40.004  25.157  27.420  1.00  0.00     0.031 C 
ATOM     37  C   UNL A   1      42.234  30.801  29.573  1.00  0.00     0.029 A 
ATOM     38  C   UNL A   1      41.113  31.235  30.406  1.00  0.00     0.049 A 
ATOM     39  H   UNL A   1      39.115  30.965  29.757  1.00  0.00     0.167 HD
ATOM     40  C   UNL A   1      42.488  24.852  28.015  1.00  0.00     0.037 A 
ATOM     41  C   UNL A   1      41.067  31.278  31.771  1.00  0.00     0.037 A 
ATOM     42  C   UNL A   1      43.383  25.758  28.744  1.00  0.00     0.049 A 
ATOM     43  C   UNL A   1      42.017  30.247  32.326  1.00  0.00     0.074 A 
ATOM     44  C   UNL A   1      44.049  26.897  28.314  1.00  0.00     0.029 A 
ATOM     45  N   UNL A   1      43.347  25.827  30.133  1.00  0.00    -0.354 N 
ATOM     46  N   UNL A   1      42.357  29.153  31.697  1.00  0.00    -0.248 NA
ATOM     47  C   UNL A   1      42.705  30.413  33.598  1.00  0.00     0.031 C 
ATOM     48  C   UNL A   1      44.350  27.684  29.454  1.00  0.00     0.029 A 
ATOM     49  C   UNL A   1      43.855  27.038  30.574  1.00  0.00     0.049 A 
ATOM     50  H   UNL A   1      43.007  25.114  30.721  1.00  0.00     0.167 HD
ATOM     51  C   UNL A   1      43.314  28.503  32.415  1.00  0.00     0.074 A 
ATOM     52  C   UNL A   1      43.492  29.324  33.602  1.00  0.00     0.031 C 
ATOM     53  C   UNL A   1      43.906  27.348  31.994  1.00  0.00     0.037 A 
BRANCH  40  54
ATOM     54  C   UNL A   1      42.966  23.972  26.877  1.00  0.00     0.057 A 
ATOM     55  C   UNL A   1      42.985  22.568  27.012  1.00  0.00     0.134 A 
ATOM     56  C   UNL A   1      43.389  24.433  25.616  1.00  0.00     0.134 A 
ATOM     57  F   UNL A   1      42.516  21.959  28.110  1.00  0.00    -0.206 F 
ATOM     58  C   UNL A   1      43.470  21.704  26.021  1.00  0.00     0.040 A 
ATOM     59  C   UNL A   1      43.909  23.582  24.626  1.00  0.00     0.040 A 
ATOM     60  F   UNL A   1      43.269  25.719  25.261  1.00  0.00    -0.206 F 
ATOM     61  C   UNL A   1      43.957  22.211  24.829  1.00  0.00     0.006 A 
ENDBRANCH  40  54
BRANCH  41  62
ATOM     62  C   UNL A   1      39.682  31.551  32.304  1.00  0.00     0.057 A 
ATOM     63  C   UNL A   1      38.982  30.499  32.937  1.00  0.00     0.134 A 
ATOM     64  C   UNL A   1      39.174  32.839  32.508  1.00  0.00     0.134 A 
ATOM     65  F   UNL A   1      39.402  29.232  32.797  1.00  0.00    -0.206 F 
ATOM     66  C   UNL A   1      37.911  30.726  33.811  1.00  0.00     0.040 A 
ATOM     67  C   UNL A   1      38.085  33.075  33.364  1.00  0.00     0.040 A 
ATOM     68  F   UNL A   1      39.771  33.906  31.959  1.00  0.00    -0.206 F 
ATOM     69  C   UNL A   1      37.474  32.022  34.045  1.00  0.00     0.006 A 
ENDBRANCH  41  62
BRANCH  53  70
ATOM     70  C   UNL A   1      44.689  26.455  32.904  1.00  0.00     0.057 A 
ATOM     71  C   UNL A   1      46.085  26.345  32.849  1.00  0.00     0.134 A 
ATOM     72  C   UNL A   1      44.064  25.787  33.975  1.00  0.00     0.134 A 
ATOM     73  F   UNL A   1      46.811  27.051  31.970  1.00  0.00    -0.206 F 
ATOM     74  C   UNL A   1      46.802  25.539  33.732  1.00  0.00     0.040 A 
ATOM     75  C   UNL A   1      44.777  25.039  34.908  1.00  0.00     0.040 A 
ATOM     76  F   UNL A   1      42.739  25.857  34.179  1.00  0.00    -0.206 F 
ATOM     77  C   UNL A   1      46.149  24.887  34.770  1.00  0.00     0.006 A 
ENDBRANCH  53  70
ENDBRANCH  27  28
ENDBRANCH  20  22
ENDBRANCH  19  20
ENDBRANCH   1  19
TORSDOF 12
ENDMDL
MODEL 3
REMARK VINA RESULT:     -11.6      3.088      8.112
REMARK SMILES Cc1ccccc1-n1nc(Cl)c(C(=O)OCCOC(=O)c2ccc(-c3c4nc(c(-c5c(F)cccc5F)c5ccc([nH]5)c(-c5c(F)cccc5F)c5nc(c(-c6c(F)cccc6F)c6ccc3[nH]6)C=C5)C=C4)cc2)n1
REMARK SMILES IDX 17 1 16 2 15 3 13 4 14 5 12 6 8 7 9 8 75 9 10 10 11 11 7 12
REMARK SMILES IDX 1 13 2 14 3 15 4 16 6 17 5 18 18 19 19 20 20 21 21 22 22 23
REMARK SMILES IDX 74 24 23 25 73 26 24 27 25 28 26 29 67 30 27 31 72 32 66 33
REMARK SMILES IDX 68 34 28 35 71 36 65 37 64 38 29 40 55 41 38 42 54 43 39 44
REMARK SMILES IDX 42 45 53 46 69 47 40 48 41 49 52 51 70 52 43 53 30 54 31 55
REMARK SMILES IDX 36 56 32 57 33 58 35 59 37 60 34 61 56 62 57 63 62 64 58 65
REMARK SMILES IDX 59 66 61 67 63 68 60 69 44 70 45 71 50 72 46 73 47 74 49 75
REMARK SMILES IDX 51 76 48 77
REMARK H PARENT 68 39 42 50
REMARK Flexibility Score: inf
ROOT
ATOM      1  C   UNL A   1      38.264  21.446  25.546  1.00  0.00     0.275 C 
ENDROOT
BRANCH   1   2
ATOM      2  C   UNL A   1      36.820  21.198  25.029  1.00  0.00     0.275 C 
BRANCH   2   3
ATOM      3  O   UNL A   1      36.107  22.216  24.319  1.00  0.00    -0.457 OA
BRANCH   3   4
ATOM      4  C   UNL A   1      34.849  22.517  24.714  1.00  0.00     0.362 C 
ATOM      5  O   UNL A   1      34.054  21.679  25.138  1.00  0.00    -0.244 OA
BRANCH   4   6
ATOM      6  C   UNL A   1      34.514  23.921  24.558  1.00  0.00     0.209 A 
ATOM      7  N   UNL A   1      34.009  25.911  25.013  1.00  0.00    -0.149 N 
ATOM      8  N   UNL A   1      33.503  25.763  23.763  1.00  0.00    -0.135 NA
ATOM      9  N   UNL A   1      34.801  24.889  25.458  1.00  0.00    -0.139 NA
ATOM     10  C   UNL A   1      33.804  24.497  23.493  1.00  0.00     0.186 A 
ATOM     11  Cl  UNL A   1      33.329  23.795  22.031  1.00  0.00    -0.057 Cl
BRANCH   7  12
ATOM     12  C   UNL A   1      33.422  26.823  25.929  1.00  0.00     0.089 A 
ATOM     13  C   UNL A   1      31.310  25.403  26.278  1.00  0.00     0.047 C 
ATOM     14  C   UNL A   1      32.116  26.663  26.425  1.00  0.00    -0.023 A 
ATOM     15  C   UNL A   1      31.549  27.731  27.147  1.00  0.00     0.006 A 
ATOM     16  C   UNL A   1      32.268  28.904  27.388  1.00  0.00     0.000 A 
ATOM     17  C   UNL A   1      34.164  27.980  26.232  1.00  0.00     0.030 A 
ATOM     18  C   UNL A   1      33.580  29.024  26.944  1.00  0.00     0.002 A 
ENDBRANCH   7  12
ENDBRANCH   4   6
ENDBRANCH   3   4
ENDBRANCH   2   3
ENDBRANCH   1   2
BRANCH   1  19
ATOM     19  O   UNL A   1      38.785  22.716  26.075  1.00  0.00    -0.458 OA
BRANCH  19  20
ATOM     20  C   UNL A   1      39.977  23.166  26.525  1.00  0.00     0.338 C 
ATOM     21  O   UNL A   1      40.989  22.481  26.540  1.00  0.00    -0.246 OA
BRANCH  20  22
ATOM     22  C   UNL A   1      40.024  24.543  26.994  1.00  0.00     0.060 A 
ATOM     23  C   UNL A   1      40.573  25.572  26.205  1.00  0.00     0.016 A 
ATOM     24  C   UNL A   1      39.441  24.798  28.222  1.00  0.00     0.016 A 
ATOM     25  C   UNL A   1      40.510  26.878  26.664  1.00  0.00     0.010 A 
ATOM     26  C   UNL A   1      39.115  26.083  28.521  1.00  0.00     0.010 A 
ATOM     27  C   UNL A   1      39.788  27.097  27.832  1.00  0.00    -0.014 A 
BRANCH  27  28
ATOM     28  C   UNL A   1      39.986  28.225  28.717  1.00  0.00     0.031 A 
ATOM     29  C   UNL A   1      38.975  29.279  28.744  1.00  0.00     0.074 A 
ATOM     30  C   UNL A   1      40.964  27.944  29.612  1.00  0.00     0.049 A 
ATOM     31  N   UNL A   1      39.220  30.527  28.919  1.00  0.00    -0.248 NA
ATOM     32  C   UNL A   1      37.559  29.002  28.484  1.00  0.00     0.031 C 
ATOM     33  C   UNL A   1      41.271  28.441  30.937  1.00  0.00     0.029 A 
ATOM     34  N   UNL A   1      41.977  26.992  29.391  1.00  0.00    -0.354 N 
ATOM     35  C   UNL A   1      38.006  31.095  29.252  1.00  0.00     0.074 A 
ATOM     36  C   UNL A   1      37.004  30.194  28.735  1.00  0.00     0.031 C 
ATOM     37  C   UNL A   1      42.525  28.049  31.261  1.00  0.00     0.029 A 
ATOM     38  C   UNL A   1      43.106  27.369  30.104  1.00  0.00     0.049 A 
ATOM     39  H   UNL A   1      41.898  26.191  28.823  1.00  0.00     0.167 HD
ATOM     40  C   UNL A   1      37.973  32.059  30.219  1.00  0.00     0.037 A 
ATOM     41  C   UNL A   1      44.168  27.783  29.351  1.00  0.00     0.037 A 
ATOM     42  C   UNL A   1      39.303  32.156  30.831  1.00  0.00     0.049 A 
ATOM     43  C   UNL A   1      44.265  29.286  29.425  1.00  0.00     0.074 A 
ATOM     44  C   UNL A   1      39.810  31.549  31.971  1.00  0.00     0.029 A 
ATOM     45  N   UNL A   1      40.402  32.565  30.083  1.00  0.00    -0.354 N 
ATOM     46  N   UNL A   1      43.245  30.073  29.642  1.00  0.00    -0.248 NA
ATOM     47  C   UNL A   1      45.530  30.000  29.329  1.00  0.00     0.031 C 
ATOM     48  C   UNL A   1      41.225  31.535  31.866  1.00  0.00     0.029 A 
ATOM     49  C   UNL A   1      41.578  32.114  30.659  1.00  0.00     0.049 A 
ATOM     50  H   UNL A   1      40.350  33.100  29.258  1.00  0.00     0.167 HD
ATOM     51  C   UNL A   1      43.689  31.355  29.766  1.00  0.00     0.074 A 
ATOM     52  C   UNL A   1      45.124  31.261  29.553  1.00  0.00     0.031 C 
ATOM     53  C   UNL A   1      42.864  32.405  30.044  1.00  0.00     0.037 A 
BRANCH  40  54
ATOM     54  C   UNL A   1      36.722  32.592  30.890  1.00  0.00     0.057 A 
ATOM     55  C   UNL A   1      36.028  33.693  30.347  1.00  0.00     0.134 A 
ATOM     56  C   UNL A   1      36.130  32.055  32.049  1.00  0.00     0.134 A 
ATOM     57  F   UNL A   1      36.396  34.257  29.188  1.00  0.00    -0.206 F 
ATOM     58  C   UNL A   1      34.903  34.268  30.950  1.00  0.00     0.040 A 
ATOM     59  C   UNL A   1      35.022  32.642  32.683  1.00  0.00     0.040 A 
ATOM     60  F   UNL A   1      36.560  30.908  32.591  1.00  0.00    -0.206 F 
ATOM     61  C   UNL A   1      34.407  33.758  32.138  1.00  0.00     0.006 A 
ENDBRANCH  40  54
BRANCH  41  62
ATOM     62  C   UNL A   1      44.353  26.966  28.096  1.00  0.00     0.057 A 
ATOM     63  C   UNL A   1      44.016  27.550  26.855  1.00  0.00     0.134 A 
ATOM     64  C   UNL A   1      45.131  25.804  28.039  1.00  0.00     0.134 A 
ATOM     65  F   UNL A   1      43.274  28.669  26.816  1.00  0.00    -0.206 F 
ATOM     66  C   UNL A   1      44.517  27.073  25.636  1.00  0.00     0.040 A 
ATOM     67  C   UNL A   1      45.620  25.303  26.821  1.00  0.00     0.040 A 
ATOM     68  F   UNL A   1      45.512  25.179  29.162  1.00  0.00    -0.206 F 
ATOM     69  C   UNL A   1      45.343  25.957  25.620  1.00  0.00     0.006 A 
ENDBRANCH  41  62
BRANCH  53  70
ATOM     70  C   UNL A   1      43.267  33.833  29.847  1.00  0.00     0.057 A 
ATOM     71  C   UNL A   1      43.512  34.388  28.584  1.00  0.00     0.134 A 
ATOM     72  C   UNL A   1      43.272  34.738  30.926  1.00  0.00     0.134 A 
ATOM     73  F   UNL A   1      43.389  33.664  27.462  1.00  0.00    -0.206 F 
ATOM     74  C   UNL A   1      43.847  35.731  28.416  1.00  0.00     0.040 A 
ATOM     75  C   UNL A   1      43.532  36.096  30.761  1.00  0.00     0.040 A 
ATOM     76  F   UNL A   1      42.996  34.349  32.180  1.00  0.00    -0.206 F 
ATOM     77  C   UNL A   1      43.852  36.592  29.505  1.00  0.00     0.006 A 
ENDBRANCH  53  70
ENDBRANCH  27  28
ENDBRANCH  20  22
ENDBRANCH  19  20
ENDBRANCH   1  19
TORSDOF 12
ENDMDL
