MODEL 1
REMARK VINA RESULT:      -9.7      0.000      0.000
REMARK SMILES CCOc1cc([C@@H]2[NH2+][C@H](C(=O)OCCOC(=O)c3ccc(-c4c5nc(c(-c6c(F)cccc6F)c6ccc([nH]6)c(-c6c(F)cccc6F)c6nc(c(-c7c(F)cccc7F)c7ccc4[nH]7)C=C6)C=C5)cc3)CS2)ccc1OCc1ccc(Cl)cc1
REMARK SMILES IDX 13 1 12 2 10 3 11 4 9 5 7 6 8 7 73 8 72 11 6 12 4 13 5 14
REMARK SMILES IDX 76 15 75 16 74 17 3 18 2 19 1 20 77 21 78 22 79 23 80 24
REMARK SMILES IDX 85 25 81 26 84 27 82 28 83 29 14 30 15 31 16 32 17 33 18 34
REMARK SMILES IDX 19 35 71 36 20 37 70 38 21 39 22 40 23 41 64 42 24 43 69 44
REMARK SMILES IDX 63 45 65 46 25 47 68 48 62 49 61 50 26 52 52 53 35 54 51 55
REMARK SMILES IDX 36 56 39 57 50 58 66 59 37 60 38 61 49 63 67 64 40 65 27 66
REMARK SMILES IDX 28 67 33 68 29 69 30 70 32 71 34 72 31 73 53 74 54 75 59 76
REMARK SMILES IDX 55 77 56 78 58 79 60 80 57 81 41 82 42 83 47 84 43 85 44 86
REMARK SMILES IDX 46 87 48 88 45 89
REMARK H PARENT 8 9 8 10 65 51 39 62
REMARK Flexibility Score: inf
ROOT
ATOM      1  C   UNL A   1      35.237  34.210  28.469  1.00  0.00     0.274 C 
ENDROOT
BRANCH   1   2
ATOM      2  O   UNL A   1      34.541  34.806  29.577  1.00  0.00    -0.458 OA
BRANCH   2   3
ATOM      3  C   UNL A   1      33.189  34.873  29.535  1.00  0.00     0.365 C 
ATOM      4  O   UNL A   1      32.480  34.224  28.772  1.00  0.00    -0.245 OA
BRANCH   3   5
ATOM      5  C   UNL A   1      32.600  35.810  30.604  1.00  0.00     0.304 C 
ATOM      6  C   UNL A   1      33.431  35.447  32.826  1.00  0.00     0.274 C 
ATOM      7  N   UNL A   1      32.334  35.139  31.908  1.00  0.00    -0.319 N 
ATOM      8  S   UNL A   1      33.804  37.192  32.535  1.00  0.00    -0.087 SA
ATOM      9  H   UNL A   1      31.456  35.482  32.297  1.00  0.00     0.348 HD
ATOM     10  H   UNL A   1      32.266  34.131  31.773  1.00  0.00     0.348 HD
ATOM     11  C   UNL A   1      33.443  37.074  30.765  1.00  0.00     0.153 C 
BRANCH   6  12
ATOM     12  C   UNL A   1      34.598  34.478  32.693  1.00  0.00     0.024 A 
ATOM     13  C   UNL A   1      37.027  34.105  32.740  1.00  0.00     0.161 A 
ATOM     14  C   UNL A   1      35.920  34.965  32.825  1.00  0.00     0.061 A 
ATOM     15  C   UNL A   1      36.814  32.735  32.540  1.00  0.00     0.161 A 
ATOM     16  C   UNL A   1      35.517  32.236  32.458  1.00  0.00     0.051 A 
ATOM     17  C   UNL A   1      34.426  33.096  32.514  1.00  0.00     0.015 A 
BRANCH  13  18
ATOM     18  O   UNL A   1      38.313  34.535  32.936  1.00  0.00    -0.490 OA
BRANCH  18  19
ATOM     19  C   UNL A   1      39.228  34.304  31.862  1.00  0.00     0.226 C 
ATOM     20  C   UNL A   1      40.638  34.423  32.426  1.00  0.00     0.049 C 
ENDBRANCH  18  19
ENDBRANCH  13  18
BRANCH  15  21
ATOM     21  O   UNL A   1      37.783  31.772  32.446  1.00  0.00    -0.485 OA
BRANCH  21  22
ATOM     22  C   UNL A   1      38.018  31.001  33.627  1.00  0.00     0.265 C 
BRANCH  22  23
ATOM     23  C   UNL A   1      39.301  30.192  33.629  1.00  0.00    -0.011 A 
ATOM     24  C   UNL A   1      40.466  30.705  34.213  1.00  0.00     0.009 A 
ATOM     25  C   UNL A   1      39.357  28.928  33.020  1.00  0.00     0.009 A 
ATOM     26  C   UNL A   1      41.666  29.988  34.151  1.00  0.00     0.021 A 
ATOM     27  C   UNL A   1      40.550  28.204  32.968  1.00  0.00     0.021 A 
ATOM     28  C   UNL A   1      41.704  28.746  33.522  1.00  0.00     0.041 A 
ATOM     29  Cl  UNL A   1      43.186  27.879  33.415  1.00  0.00    -0.084 Cl
ENDBRANCH  22  23
ENDBRANCH  21  22
ENDBRANCH  15  21
ENDBRANCH   6  12
ENDBRANCH   3   5
ENDBRANCH   2   3
ENDBRANCH   1   2
BRANCH   1  30
ATOM     30  C   UNL A   1      35.855  32.892  28.931  1.00  0.00     0.275 C 
BRANCH  30  31
ATOM     31  O   UNL A   1      34.814  31.909  29.089  1.00  0.00    -0.458 OA
BRANCH  31  32
ATOM     32  C   UNL A   1      34.917  30.819  28.294  1.00  0.00     0.338 C 
ATOM     33  O   UNL A   1      34.113  30.383  27.491  1.00  0.00    -0.246 OA
BRANCH  32  34
ATOM     34  C   UNL A   1      36.261  30.255  28.467  1.00  0.00     0.060 A 
ATOM     35  C   UNL A   1      36.614  29.762  29.723  1.00  0.00     0.016 A 
ATOM     36  C   UNL A   1      37.183  30.271  27.423  1.00  0.00     0.016 A 
ATOM     37  C   UNL A   1      37.901  29.293  29.956  1.00  0.00     0.010 A 
ATOM     38  C   UNL A   1      38.471  29.778  27.649  1.00  0.00     0.010 A 
ATOM     39  C   UNL A   1      38.840  29.296  28.918  1.00  0.00    -0.014 A 
BRANCH  39  40
ATOM     40  C   UNL A   1      40.221  28.822  29.171  1.00  0.00     0.031 A 
ATOM     41  C   UNL A   1      41.213  29.734  29.831  1.00  0.00     0.074 A 
ATOM     42  C   UNL A   1      40.576  27.576  28.811  1.00  0.00     0.049 A 
ATOM     43  N   UNL A   1      42.495  29.562  30.024  1.00  0.00    -0.248 NA
ATOM     44  C   UNL A   1      40.693  31.014  30.338  1.00  0.00     0.031 C 
ATOM     45  C   UNL A   1      39.684  26.585  28.207  1.00  0.00     0.029 A 
ATOM     46  N   UNL A   1      41.785  26.933  28.892  1.00  0.00    -0.354 N 
ATOM     47  C   UNL A   1      42.941  30.718  30.648  1.00  0.00     0.074 A 
ATOM     48  C   UNL A   1      41.796  31.592  30.793  1.00  0.00     0.031 C 
ATOM     49  C   UNL A   1      40.377  25.459  27.971  1.00  0.00     0.029 A 
ATOM     50  C   UNL A   1      41.770  25.670  28.354  1.00  0.00     0.049 A 
ATOM     51  H   UNL A   1      42.585  27.338  29.297  1.00  0.00     0.167 HD
ATOM     52  C   UNL A   1      44.196  31.021  31.060  1.00  0.00     0.037 A 
ATOM     53  C   UNL A   1      42.774  24.797  28.156  1.00  0.00     0.037 A 
ATOM     54  C   UNL A   1      45.324  30.138  30.928  1.00  0.00     0.049 A 
ATOM     55  C   UNL A   1      44.168  25.181  28.566  1.00  0.00     0.074 A 
ATOM     56  C   UNL A   1      46.633  30.343  31.327  1.00  0.00     0.029 A 
ATOM     57  N   UNL A   1      45.276  28.879  30.348  1.00  0.00    -0.354 N 
ATOM     58  N   UNL A   1      44.585  26.283  29.141  1.00  0.00    -0.248 NA
ATOM     59  C   UNL A   1      45.233  24.207  28.287  1.00  0.00     0.031 C 
ATOM     60  C   UNL A   1      47.385  29.223  30.955  1.00  0.00     0.029 A 
ATOM     61  C   UNL A   1      46.535  28.304  30.359  1.00  0.00     0.049 A 
ATOM     62  H   UNL A   1      44.465  28.456  29.982  1.00  0.00     0.167 HD
ATOM     63  C   UNL A   1      45.955  26.133  29.304  1.00  0.00     0.074 A 
ATOM     64  C   UNL A   1      46.295  24.824  28.785  1.00  0.00     0.031 C 
ATOM     65  C   UNL A   1      46.852  27.000  29.833  1.00  0.00     0.037 A 
BRANCH  52  66
ATOM     66  C   UNL A   1      44.416  32.377  31.661  1.00  0.00     0.057 A 
ATOM     67  C   UNL A   1      44.633  33.514  30.874  1.00  0.00     0.134 A 
ATOM     68  C   UNL A   1      44.385  32.550  33.052  1.00  0.00     0.134 A 
ATOM     69  F   UNL A   1      44.690  33.413  29.536  1.00  0.00    -0.206 F 
ATOM     70  C   UNL A   1      44.830  34.773  31.446  1.00  0.00     0.040 A 
ATOM     71  C   UNL A   1      44.559  33.806  33.635  1.00  0.00     0.040 A 
ATOM     72  F   UNL A   1      44.180  31.503  33.864  1.00  0.00    -0.206 F 
ATOM     73  C   UNL A   1      44.787  34.921  32.831  1.00  0.00     0.006 A 
ENDBRANCH  52  66
BRANCH  53  74
ATOM     74  C   UNL A   1      42.503  23.491  27.505  1.00  0.00     0.057 A 
ATOM     75  C   UNL A   1      42.155  22.364  28.258  1.00  0.00     0.134 A 
ATOM     76  C   UNL A   1      42.583  23.339  26.114  1.00  0.00     0.134 A 
ATOM     77  F   UNL A   1      42.084  22.442  29.594  1.00  0.00    -0.206 F 
ATOM     78  C   UNL A   1      41.905  21.132  27.653  1.00  0.00     0.040 A 
ATOM     79  C   UNL A   1      42.312  22.119  25.495  1.00  0.00     0.040 A 
ATOM     80  F   UNL A   1      42.912  24.382  25.337  1.00  0.00    -0.206 F 
ATOM     81  C   UNL A   1      41.976  21.009  26.266  1.00  0.00     0.006 A 
ENDBRANCH  53  74
BRANCH  65  82
ATOM     82  C   UNL A   1      48.280  26.549  29.889  1.00  0.00     0.057 A 
ATOM     83  C   UNL A   1      49.178  26.817  28.850  1.00  0.00     0.134 A 
ATOM     84  C   UNL A   1      48.769  25.865  31.010  1.00  0.00     0.134 A 
ATOM     85  F   UNL A   1      48.766  27.456  27.744  1.00  0.00    -0.206 F 
ATOM     86  C   UNL A   1      50.509  26.403  28.913  1.00  0.00     0.040 A 
ATOM     87  C   UNL A   1      50.103  25.466  31.095  1.00  0.00     0.040 A 
ATOM     88  F   UNL A   1      47.960  25.583  32.043  1.00  0.00    -0.206 F 
ATOM     89  C   UNL A   1      50.976  25.730  30.041  1.00  0.00     0.006 A 
ENDBRANCH  65  82
ENDBRANCH  39  40
ENDBRANCH  32  34
ENDBRANCH  31  32
ENDBRANCH  30  31
ENDBRANCH   1  30
TORSDOF 17
ENDMDL
MODEL 2
REMARK VINA RESULT:      -9.5      4.867      7.410
REMARK SMILES CCOc1cc([C@@H]2[NH2+][C@H](C(=O)OCCOC(=O)c3ccc(-c4c5nc(c(-c6c(F)cccc6F)c6ccc([nH]6)c(-c6c(F)cccc6F)c6nc(c(-c7c(F)cccc7F)c7ccc4[nH]7)C=C6)C=C5)cc3)CS2)ccc1OCc1ccc(Cl)cc1
REMARK SMILES IDX 13 1 12 2 10 3 11 4 9 5 7 6 8 7 73 8 72 11 6 12 4 13 5 14
REMARK SMILES IDX 76 15 75 16 74 17 3 18 2 19 1 20 77 21 78 22 79 23 80 24
REMARK SMILES IDX 85 25 81 26 84 27 82 28 83 29 14 30 15 31 16 32 17 33 18 34
REMARK SMILES IDX 19 35 71 36 20 37 70 38 21 39 22 40 23 41 64 42 24 43 69 44
REMARK SMILES IDX 63 45 65 46 25 47 68 48 62 49 61 50 26 52 52 53 35 54 51 55
REMARK SMILES IDX 36 56 39 57 50 58 66 59 37 60 38 61 49 63 67 64 40 65 27 66
REMARK SMILES IDX 28 67 33 68 29 69 30 70 32 71 34 72 31 73 53 74 54 75 59 76
REMARK SMILES IDX 55 77 56 78 58 79 60 80 57 81 41 82 42 83 47 84 43 85 44 86
REMARK SMILES IDX 46 87 48 88 45 89
REMARK H PARENT 8 9 8 10 65 51 39 62
REMARK Flexibility Score: inf
ROOT
ATOM      1  C   UNL A   1      34.007  28.669  26.368  1.00  0.00     0.274 C 
ENDROOT
BRANCH   1   2
ATOM      2  O   UNL A   1      33.076  29.104  25.362  1.00  0.00    -0.458 OA
BRANCH   2   3
ATOM      3  C   UNL A   1      33.032  28.434  24.185  1.00  0.00     0.365 C 
ATOM      4  O   UNL A   1      33.728  27.462  23.907  1.00  0.00    -0.245 OA
BRANCH   3   5
ATOM      5  C   UNL A   1      31.954  28.971  23.228  1.00  0.00     0.304 C 
ATOM      6  C   UNL A   1      30.278  27.371  22.603  1.00  0.00     0.274 C 
ATOM      7  N   UNL A   1      31.536  27.992  22.185  1.00  0.00    -0.319 N 
ATOM      8  S   UNL A   1      29.303  28.724  23.305  1.00  0.00    -0.087 SA
ATOM      9  H   UNL A   1      31.401  28.474  21.297  1.00  0.00     0.348 HD
ATOM     10  H   UNL A   1      32.253  27.277  22.071  1.00  0.00     0.348 HD
ATOM     11  C   UNL A   1      30.763  29.545  23.993  1.00  0.00     0.153 C 
BRANCH   6  12
ATOM     12  C   UNL A   1      30.488  26.159  23.499  1.00  0.00     0.024 A 
ATOM     13  C   UNL A   1      31.361  23.876  23.766  1.00  0.00     0.161 A 
ATOM     14  C   UNL A   1      31.118  25.008  22.969  1.00  0.00     0.061 A 
ATOM     15  C   UNL A   1      30.989  23.899  25.117  1.00  0.00     0.161 A 
ATOM     16  C   UNL A   1      30.415  25.043  25.662  1.00  0.00     0.051 A 
ATOM     17  C   UNL A   1      30.150  26.150  24.861  1.00  0.00     0.015 A 
BRANCH  13  18
ATOM     18  O   UNL A   1      32.033  22.777  23.301  1.00  0.00    -0.490 OA
BRANCH  18  19
ATOM     19  C   UNL A   1      32.908  22.993  22.191  1.00  0.00     0.226 C 
ATOM     20  C   UNL A   1      34.290  23.308  22.751  1.00  0.00     0.049 C 
ENDBRANCH  18  19
ENDBRANCH  13  18
BRANCH  15  21
ATOM     21  O   UNL A   1      31.167  22.886  26.020  1.00  0.00    -0.485 OA
BRANCH  21  22
ATOM     22  C   UNL A   1      32.277  23.027  26.909  1.00  0.00     0.265 C 
BRANCH  22  23
ATOM     23  C   UNL A   1      33.605  22.525  26.373  1.00  0.00    -0.011 A 
ATOM     24  C   UNL A   1      33.716  21.236  25.836  1.00  0.00     0.009 A 
ATOM     25  C   UNL A   1      34.755  23.329  26.431  1.00  0.00     0.009 A 
ATOM     26  C   UNL A   1      34.956  20.750  25.410  1.00  0.00     0.021 A 
ATOM     27  C   UNL A   1      35.992  22.851  25.993  1.00  0.00     0.021 A 
ATOM     28  C   UNL A   1      36.089  21.556  25.497  1.00  0.00     0.041 A 
ATOM     29  Cl  UNL A   1      37.620  20.947  25.003  1.00  0.00    -0.084 Cl
ENDBRANCH  22  23
ENDBRANCH  21  22
ENDBRANCH  15  21
ENDBRANCH   6  12
ENDBRANCH   3   5
ENDBRANCH   2   3
ENDBRANCH   1   2
BRANCH   1  30
ATOM     30  C   UNL A   1      34.359  29.860  27.256  1.00  0.00     0.275 C 
BRANCH  30  31
ATOM     31  O   UNL A   1      35.168  29.407  28.359  1.00  0.00    -0.458 OA
BRANCH  31  32
ATOM     32  C   UNL A   1      35.899  30.363  28.977  1.00  0.00     0.338 C 
ATOM     33  O   UNL A   1      35.512  31.329  29.608  1.00  0.00    -0.246 OA
BRANCH  32  34
ATOM     34  C   UNL A   1      37.316  29.997  28.863  1.00  0.00     0.060 A 
ATOM     35  C   UNL A   1      37.861  29.857  27.587  1.00  0.00     0.016 A 
ATOM     36  C   UNL A   1      38.080  29.732  29.997  1.00  0.00     0.016 A 
ATOM     37  C   UNL A   1      39.175  29.433  27.429  1.00  0.00     0.010 A 
ATOM     38  C   UNL A   1      39.408  29.329  29.840  1.00  0.00     0.010 A 
ATOM     39  C   UNL A   1      39.960  29.168  28.556  1.00  0.00    -0.014 A 
BRANCH  39  40
ATOM     40  C   UNL A   1      41.353  28.689  28.390  1.00  0.00     0.031 A 
ATOM     41  C   UNL A   1      42.492  29.659  28.499  1.00  0.00     0.074 A 
ATOM     42  C   UNL A   1      41.587  27.387  28.146  1.00  0.00     0.049 A 
ATOM     43  N   UNL A   1      43.765  29.471  28.261  1.00  0.00    -0.248 NA
ATOM     44  C   UNL A   1      42.155  31.024  28.930  1.00  0.00     0.031 C 
ATOM     45  C   UNL A   1      40.562  26.345  28.068  1.00  0.00     0.029 A 
ATOM     46  N   UNL A   1      42.762  26.720  27.911  1.00  0.00    -0.354 N 
ATOM     47  C   UNL A   1      44.375  30.697  28.485  1.00  0.00     0.074 A 
ATOM     48  C   UNL A   1      43.335  31.626  28.868  1.00  0.00     0.031 C 
ATOM     49  C   UNL A   1      41.153  25.169  27.801  1.00  0.00     0.029 A 
ATOM     50  C   UNL A   1      42.587  25.387  27.634  1.00  0.00     0.049 A 
ATOM     51  H   UNL A   1      43.644  27.156  27.937  1.00  0.00     0.167 HD
ATOM     52  C   UNL A   1      45.688  31.015  28.377  1.00  0.00     0.037 A 
ATOM     53  C   UNL A   1      43.478  24.454  27.251  1.00  0.00     0.037 A 
ATOM     54  C   UNL A   1      46.719  30.078  28.013  1.00  0.00     0.049 A 
ATOM     55  C   UNL A   1      44.918  24.846  27.079  1.00  0.00     0.074 A 
ATOM     56  C   UNL A   1      48.080  30.295  27.892  1.00  0.00     0.029 A 
ATOM     57  N   UNL A   1      46.498  28.743  27.709  1.00  0.00    -0.354 N 
ATOM     58  N   UNL A   1      45.486  26.011  27.278  1.00  0.00    -0.248 NA
ATOM     59  C   UNL A   1      45.840  23.798  26.618  1.00  0.00     0.031 C 
ATOM     60  C   UNL A   1      48.678  29.100  27.478  1.00  0.00     0.029 A 
ATOM     61  C   UNL A   1      47.694  28.128  27.380  1.00  0.00     0.049 A 
ATOM     62  H   UNL A   1      45.620  28.297  27.726  1.00  0.00     0.167 HD
ATOM     63  C   UNL A   1      46.829  25.836  26.978  1.00  0.00     0.074 A 
ATOM     64  C   UNL A   1      46.996  24.447  26.603  1.00  0.00     0.031 C 
ATOM     65  C   UNL A   1      47.836  26.744  27.007  1.00  0.00     0.037 A 
BRANCH  52  66
ATOM     66  C   UNL A   1      46.075  32.442  28.625  1.00  0.00     0.057 A 
ATOM     67  C   UNL A   1      46.457  32.901  29.890  1.00  0.00     0.134 A 
ATOM     68  C   UNL A   1      46.090  33.366  27.570  1.00  0.00     0.134 A 
ATOM     69  F   UNL A   1      46.449  32.071  30.945  1.00  0.00    -0.206 F 
ATOM     70  C   UNL A   1      46.823  34.232  30.105  1.00  0.00     0.040 A 
ATOM     71  C   UNL A   1      46.475  34.693  27.768  1.00  0.00     0.040 A 
ATOM     72  F   UNL A   1      45.738  32.991  26.332  1.00  0.00    -0.206 F 
ATOM     73  C   UNL A   1      46.837  35.130  29.040  1.00  0.00     0.006 A 
ENDBRANCH  52  66
BRANCH  53  74
ATOM     74  C   UNL A   1      43.025  23.069  26.967  1.00  0.00     0.057 A 
ATOM     75  C   UNL A   1      42.876  22.611  25.653  1.00  0.00     0.134 A 
ATOM     76  C   UNL A   1      42.735  22.170  28.001  1.00  0.00     0.134 A 
ATOM     77  F   UNL A   1      43.117  23.432  24.621  1.00  0.00    -0.206 F 
ATOM     78  C   UNL A   1      42.445  21.313  25.378  1.00  0.00     0.040 A 
ATOM     79  C   UNL A   1      42.327  20.862  27.741  1.00  0.00     0.040 A 
ATOM     80  F   UNL A   1      42.860  22.549  29.282  1.00  0.00    -0.206 F 
ATOM     81  C   UNL A   1      42.176  20.431  26.425  1.00  0.00     0.006 A 
ENDBRANCH  53  74
BRANCH  65  82
ATOM     82  C   UNL A   1      49.203  26.252  26.639  1.00  0.00     0.057 A 
ATOM     83  C   UNL A   1      49.721  26.414  25.349  1.00  0.00     0.134 A 
ATOM     84  C   UNL A   1      50.022  25.637  27.595  1.00  0.00     0.134 A 
ATOM     85  F   UNL A   1      48.981  26.983  24.386  1.00  0.00    -0.206 F 
ATOM     86  C   UNL A   1      50.999  25.964  25.015  1.00  0.00     0.040 A 
ATOM     87  C   UNL A   1      51.310  25.203  27.280  1.00  0.00     0.040 A 
ATOM     88  F   UNL A   1      49.586  25.458  28.851  1.00  0.00    -0.206 F 
ATOM     89  C   UNL A   1      51.799  25.361  25.985  1.00  0.00     0.006 A 
ENDBRANCH  65  82
ENDBRANCH  39  40
ENDBRANCH  32  34
ENDBRANCH  31  32
ENDBRANCH  30  31
ENDBRANCH   1  30
TORSDOF 17
ENDMDL
MODEL 3
REMARK VINA RESULT:      -9.4      5.042      7.841
REMARK SMILES CCOc1cc([C@@H]2[NH2+][C@H](C(=O)OCCOC(=O)c3ccc(-c4c5nc(c(-c6c(F)cccc6F)c6ccc([nH]6)c(-c6c(F)cccc6F)c6nc(c(-c7c(F)cccc7F)c7ccc4[nH]7)C=C6)C=C5)cc3)CS2)ccc1OCc1ccc(Cl)cc1
REMARK SMILES IDX 13 1 12 2 10 3 11 4 9 5 7 6 8 7 73 8 72 11 6 12 4 13 5 14
REMARK SMILES IDX 76 15 75 16 74 17 3 18 2 19 1 20 77 21 78 22 79 23 80 24
REMARK SMILES IDX 85 25 81 26 84 27 82 28 83 29 14 30 15 31 16 32 17 33 18 34
REMARK SMILES IDX 19 35 71 36 20 37 70 38 21 39 22 40 23 41 64 42 24 43 69 44
REMARK SMILES IDX 63 45 65 46 25 47 68 48 62 49 61 50 26 52 52 53 35 54 51 55
REMARK SMILES IDX 36 56 39 57 50 58 66 59 37 60 38 61 49 63 67 64 40 65 27 66
REMARK SMILES IDX 28 67 33 68 29 69 30 70 32 71 34 72 31 73 53 74 54 75 59 76
REMARK SMILES IDX 55 77 56 78 58 79 60 80 57 81 41 82 42 83 47 84 43 85 44 86
REMARK SMILES IDX 46 87 48 88 45 89
REMARK H PARENT 8 9 8 10 65 51 39 62
REMARK Flexibility Score: inf
ROOT
ATOM      1  C   UNL A   1      32.015  28.726  27.296  1.00  0.00     0.274 C 
ENDROOT
BRANCH   1   2
ATOM      2  O   UNL A   1      31.512  27.379  27.317  1.00  0.00    -0.458 OA
BRANCH   2   3
ATOM      3  C   UNL A   1      31.242  26.767  26.139  1.00  0.00     0.365 C 
ATOM      4  O   UNL A   1      30.925  25.588  26.019  1.00  0.00    -0.245 OA
BRANCH   3   5
ATOM      5  C   UNL A   1      31.303  27.726  24.937  1.00  0.00     0.304 C 
ATOM      6  C   UNL A   1      32.578  26.919  23.071  1.00  0.00     0.274 C 
ATOM      7  N   UNL A   1      32.633  27.762  24.265  1.00  0.00    -0.319 N 
ATOM      8  S   UNL A   1      30.959  27.255  22.338  1.00  0.00    -0.087 SA
ATOM      9  H   UNL A   1      32.855  28.721  23.997  1.00  0.00     0.348 HD
ATOM     10  H   UNL A   1      33.353  27.419  24.900  1.00  0.00     0.348 HD
ATOM     11  C   UNL A   1      30.165  27.461  23.953  1.00  0.00     0.153 C 
BRANCH   6  12
ATOM     12  C   UNL A   1      32.892  25.458  23.367  1.00  0.00     0.024 A 
ATOM     13  C   UNL A   1      34.319  23.810  24.502  1.00  0.00     0.161 A 
ATOM     14  C   UNL A   1      34.008  25.141  24.176  1.00  0.00     0.061 A 
ATOM     15  C   UNL A   1      33.494  22.780  24.029  1.00  0.00     0.161 A 
ATOM     16  C   UNL A   1      32.365  23.083  23.274  1.00  0.00     0.051 A 
ATOM     17  C   UNL A   1      32.079  24.400  22.931  1.00  0.00     0.015 A 
BRANCH  13  18
ATOM     18  O   UNL A   1      35.348  23.477  25.342  1.00  0.00    -0.490 OA
BRANCH  18  19
ATOM     19  C   UNL A   1      36.633  23.313  24.734  1.00  0.00     0.226 C 
ATOM     20  C   UNL A   1      37.681  23.734  25.757  1.00  0.00     0.049 C 
ENDBRANCH  18  19
ENDBRANCH  13  18
BRANCH  15  21
ATOM     21  O   UNL A   1      33.657  21.442  24.267  1.00  0.00    -0.485 OA
BRANCH  21  22
ATOM     22  C   UNL A   1      32.722  20.572  23.627  1.00  0.00     0.265 C 
BRANCH  22  23
ATOM     23  C   UNL A   1      32.775  19.123  24.071  1.00  0.00    -0.011 A 
ATOM     24  C   UNL A   1      32.550  18.779  25.411  1.00  0.00     0.009 A 
ATOM     25  C   UNL A   1      33.078  18.100  23.159  1.00  0.00     0.009 A 
ATOM     26  C   UNL A   1      32.670  17.451  25.832  1.00  0.00     0.021 A 
ATOM     27  C   UNL A   1      33.186  16.771  23.574  1.00  0.00     0.021 A 
ATOM     28  C   UNL A   1      32.995  16.454  24.914  1.00  0.00     0.041 A 
ATOM     29  Cl  UNL A   1      33.175  14.826  25.438  1.00  0.00    -0.084 Cl
ENDBRANCH  22  23
ENDBRANCH  21  22
ENDBRANCH  15  21
ENDBRANCH   6  12
ENDBRANCH   3   5
ENDBRANCH   2   3
ENDBRANCH   1   2
BRANCH   1  30
ATOM     30  C   UNL A   1      33.509  28.694  27.613  1.00  0.00     0.275 C 
BRANCH  30  31
ATOM     31  O   UNL A   1      34.119  29.914  27.148  1.00  0.00    -0.458 OA
BRANCH  31  32
ATOM     32  C   UNL A   1      34.723  30.662  28.100  1.00  0.00     0.338 C 
ATOM     33  O   UNL A   1      34.260  31.571  28.763  1.00  0.00    -0.246 OA
BRANCH  32  34
ATOM     34  C   UNL A   1      36.073  30.125  28.311  1.00  0.00     0.060 A 
ATOM     35  C   UNL A   1      36.399  29.638  29.577  1.00  0.00     0.016 A 
ATOM     36  C   UNL A   1      37.024  30.159  27.295  1.00  0.00     0.016 A 
ATOM     37  C   UNL A   1      37.688  29.194  29.847  1.00  0.00     0.010 A 
ATOM     38  C   UNL A   1      38.314  29.691  27.558  1.00  0.00     0.010 A 
ATOM     39  C   UNL A   1      38.656  29.215  28.837  1.00  0.00    -0.014 A 
BRANCH  39  40
ATOM     40  C   UNL A   1      40.038  28.769  29.130  1.00  0.00     0.031 A 
ATOM     41  C   UNL A   1      40.986  29.692  29.836  1.00  0.00     0.074 A 
ATOM     42  C   UNL A   1      40.433  27.536  28.764  1.00  0.00     0.049 A 
ATOM     43  N   UNL A   1      42.265  29.545  30.070  1.00  0.00    -0.248 NA
ATOM     44  C   UNL A   1      40.421  30.952  30.344  1.00  0.00     0.031 C 
ATOM     45  C   UNL A   1      39.585  26.535  28.116  1.00  0.00     0.029 A 
ATOM     46  N   UNL A   1      41.653  26.920  28.877  1.00  0.00    -0.354 N 
ATOM     47  C   UNL A   1      42.663  30.702  30.725  1.00  0.00     0.074 A 
ATOM     48  C   UNL A   1      41.495  31.547  30.844  1.00  0.00     0.031 C 
ATOM     49  C   UNL A   1      40.310  25.428  27.888  1.00  0.00     0.029 A 
ATOM     50  C   UNL A   1      41.684  25.665  28.320  1.00  0.00     0.049 A 
ATOM     51  H   UNL A   1      42.430  27.336  29.315  1.00  0.00     0.167 HD
ATOM     52  C   UNL A   1      43.897  31.026  31.184  1.00  0.00     0.037 A 
ATOM     53  C   UNL A   1      42.714  24.817  28.144  1.00  0.00     0.037 A 
ATOM     54  C   UNL A   1      45.049  30.170  31.077  1.00  0.00     0.049 A 
ATOM     55  C   UNL A   1      44.084  25.225  28.606  1.00  0.00     0.074 A 
ATOM     56  C   UNL A   1      46.338  30.398  31.524  1.00  0.00     0.029 A 
ATOM     57  N   UNL A   1      45.048  28.919  30.478  1.00  0.00    -0.354 N 
ATOM     58  N   UNL A   1      44.456  26.327  29.211  1.00  0.00    -0.248 NA
ATOM     59  C   UNL A   1      45.179  24.279  28.350  1.00  0.00     0.031 C 
ATOM     60  C   UNL A   1      47.127  29.300  31.161  1.00  0.00     0.029 A 
ATOM     61  C   UNL A   1      46.319  28.372  30.523  1.00  0.00     0.049 A 
ATOM     62  H   UNL A   1      44.260  28.484  30.079  1.00  0.00     0.167 HD
ATOM     63  C   UNL A   1      45.823  26.205  29.418  1.00  0.00     0.074 A 
ATOM     64  C   UNL A   1      46.211  24.912  28.892  1.00  0.00     0.031 C 
ATOM     65  C   UNL A   1      46.682  27.084  29.990  1.00  0.00     0.037 A 
BRANCH  52  66
ATOM     66  C   UNL A   1      44.066  32.378  31.811  1.00  0.00     0.057 A 
ATOM     67  C   UNL A   1      43.921  32.582  33.188  1.00  0.00     0.134 A 
ATOM     68  C   UNL A   1      44.407  33.487  31.025  1.00  0.00     0.134 A 
ATOM     69  F   UNL A   1      43.580  31.564  33.994  1.00  0.00    -0.206 F 
ATOM     70  C   UNL A   1      44.089  33.845  33.761  1.00  0.00     0.040 A 
ATOM     71  C   UNL A   1      44.599  34.749  31.589  1.00  0.00     0.040 A 
ATOM     72  F   UNL A   1      44.564  33.360  29.699  1.00  0.00    -0.206 F 
ATOM     73  C   UNL A   1      44.435  34.931  32.960  1.00  0.00     0.006 A 
ENDBRANCH  52  66
BRANCH  53  74
ATOM     74  C   UNL A   1      42.495  23.515  27.465  1.00  0.00     0.057 A 
ATOM     75  C   UNL A   1      42.117  22.377  28.186  1.00  0.00     0.134 A 
ATOM     76  C   UNL A   1      42.653  23.379  26.080  1.00  0.00     0.134 A 
ATOM     77  F   UNL A   1      41.972  22.439  29.517  1.00  0.00    -0.206 F 
ATOM     78  C   UNL A   1      41.916  21.148  27.556  1.00  0.00     0.040 A 
ATOM     79  C   UNL A   1      42.431  22.163  25.434  1.00  0.00     0.040 A 
ATOM     80  F   UNL A   1      43.012  24.434  25.333  1.00  0.00    -0.206 F 
ATOM     81  C   UNL A   1      42.065  21.041  26.173  1.00  0.00     0.006 A 
ENDBRANCH  53  74
BRANCH  65  82
ATOM     82  C   UNL A   1      48.118  26.663  30.088  1.00  0.00     0.057 A 
ATOM     83  C   UNL A   1      48.595  25.923  31.176  1.00  0.00     0.134 A 
ATOM     84  C   UNL A   1      49.024  26.976  29.067  1.00  0.00     0.134 A 
ATOM     85  F   UNL A   1      47.779  25.605  32.192  1.00  0.00    -0.206 F 
ATOM     86  C   UNL A   1      49.930  25.525  31.256  1.00  0.00     0.040 A 
ATOM     87  C   UNL A   1      50.356  26.564  29.124  1.00  0.00     0.040 A 
ATOM     88  F   UNL A   1      48.628  27.677  27.994  1.00  0.00    -0.206 F 
ATOM     89  C   UNL A   1      50.813  25.841  30.225  1.00  0.00     0.006 A 
ENDBRANCH  65  82
ENDBRANCH  39  40
ENDBRANCH  32  34
ENDBRANCH  31  32
ENDBRANCH  30  31
ENDBRANCH   1  30
TORSDOF 17
ENDMDL
