MODEL 1
REMARK VINA RESULT:     -11.6      0.000      0.000
REMARK SMILES O=C(OCCOC(=O)c1cn(C2CC2)c2cc(N3CC[NH2+]CC3)ccc2c1=O)c1ccc(-c2c3nc(c(-c4c(F)cccc4F)c4ccc([nH]4)c(-c4c(F)cccc4F)c4nc(c(-c5c(F)cccc5F)c5ccc2[nH]5)C=C4)C=C3)cc1
REMARK SMILES IDX 4 1 3 2 2 3 1 4 29 5 30 6 82 7 31 8 81 9 32 10 33 11 34 12
REMARK SMILES IDX 75 13 35 14 80 15 74 16 76 17 36 18 79 19 73 20 72 21 37 23
REMARK SMILES IDX 63 24 46 25 62 26 47 27 50 28 61 29 77 30 48 31 49 32 60 34
REMARK SMILES IDX 78 35 51 36 38 37 39 38 44 39 40 40 41 41 43 42 45 43 42 44
REMARK SMILES IDX 64 45 65 46 70 47 66 48 67 49 69 50 71 51 68 52 52 53 53 54
REMARK SMILES IDX 58 55 54 56 55 57 57 58 59 59 56 60 5 61 6 62 7 63 8 64 9 65
REMARK SMILES IDX 10 66 27 67 11 68 26 69 28 70 15 71 25 72 16 73 24 74 17 75
REMARK SMILES IDX 12 76 13 77 14 78 18 79 19 80 23 81 20 82 22 83 21 84
REMARK H PARENT 76 22 50 33 21 85 21 86
REMARK Flexibility Score: inf
ROOT
ATOM      1  C   UNL A   1      44.569  21.920  25.364  1.00  0.00     0.275 C 
ENDROOT
BRANCH   1   2
ATOM      2  O   UNL A   1      44.115  23.217  24.945  1.00  0.00    -0.458 OA
BRANCH   2   3
ATOM      3  C   UNL A   1      44.686  24.426  25.169  1.00  0.00     0.338 C 
ATOM      4  O   UNL A   1      45.760  24.694  24.635  1.00  0.00    -0.246 OA
BRANCH   3   5
ATOM      5  C   UNL A   1      44.154  25.393  26.181  1.00  0.00     0.060 A 
ATOM      6  C   UNL A   1      43.459  24.834  27.263  1.00  0.00     0.016 A 
ATOM      7  C   UNL A   1      44.321  26.779  26.168  1.00  0.00     0.016 A 
ATOM      8  C   UNL A   1      42.871  25.647  28.239  1.00  0.00     0.010 A 
ATOM      9  C   UNL A   1      43.735  27.595  27.149  1.00  0.00     0.010 A 
ATOM     10  C   UNL A   1      42.977  27.044  28.183  1.00  0.00    -0.014 A 
BRANCH  10  11
ATOM     11  C   UNL A   1      42.492  27.874  29.315  1.00  0.00     0.031 A 
ATOM     12  C   UNL A   1      43.012  27.790  30.722  1.00  0.00     0.074 A 
ATOM     13  C   UNL A   1      41.441  28.678  29.087  1.00  0.00     0.049 A 
ATOM     14  N   UNL A   1      42.891  28.669  31.690  1.00  0.00    -0.248 NA
ATOM     15  C   UNL A   1      43.728  26.573  31.117  1.00  0.00     0.031 C 
ATOM     16  C   UNL A   1      40.714  28.784  27.822  1.00  0.00     0.029 A 
ATOM     17  N   UNL A   1      40.761  29.503  29.942  1.00  0.00    -0.354 N 
ATOM     18  C   UNL A   1      43.663  28.187  32.736  1.00  0.00     0.074 A 
ATOM     19  C   UNL A   1      44.085  26.863  32.363  1.00  0.00     0.031 C 
ATOM     20  C   UNL A   1      39.654  29.581  27.999  1.00  0.00     0.029 A 
ATOM     21  C   UNL A   1      39.623  30.022  29.390  1.00  0.00     0.049 A 
ATOM     22  H   UNL A   1      41.061  29.703  30.857  1.00  0.00     0.167 HD
ATOM     23  C   UNL A   1      44.001  28.799  33.896  1.00  0.00     0.037 A 
ATOM     24  C   UNL A   1      38.635  30.732  29.957  1.00  0.00     0.037 A 
ATOM     25  C   UNL A   1      43.227  29.864  34.466  1.00  0.00     0.049 A 
ATOM     26  C   UNL A   1      38.760  31.153  31.387  1.00  0.00     0.074 A 
ATOM     27  C   UNL A   1      43.353  30.474  35.700  1.00  0.00     0.029 A 
ATOM     28  N   UNL A   1      42.059  30.345  33.896  1.00  0.00    -0.354 N 
ATOM     29  N   UNL A   1      39.749  30.957  32.224  1.00  0.00    -0.248 NA
ATOM     30  C   UNL A   1      37.635  31.910  31.946  1.00  0.00     0.031 C 
ATOM     31  C   UNL A   1      42.168  31.186  35.944  1.00  0.00     0.029 A 
ATOM     32  C   UNL A   1      41.363  31.103  34.818  1.00  0.00     0.049 A 
ATOM     33  H   UNL A   1      41.769  30.172  32.971  1.00  0.00     0.167 HD
ATOM     34  C   UNL A   1      39.373  31.571  33.411  1.00  0.00     0.074 A 
ATOM     35  C   UNL A   1      38.071  32.165  33.172  1.00  0.00     0.031 C 
ATOM     36  C   UNL A   1      40.047  31.644  34.588  1.00  0.00     0.037 A 
BRANCH  23  37
ATOM     37  C   UNL A   1      45.184  28.269  34.649  1.00  0.00     0.057 A 
ATOM     38  C   UNL A   1      45.058  27.312  35.660  1.00  0.00     0.134 A 
ATOM     39  C   UNL A   1      46.473  28.757  34.385  1.00  0.00     0.134 A 
ATOM     40  F   UNL A   1      43.853  26.824  35.984  1.00  0.00    -0.206 F 
ATOM     41  C   UNL A   1      46.173  26.834  36.356  1.00  0.00     0.040 A 
ATOM     42  C   UNL A   1      47.598  28.275  35.061  1.00  0.00     0.040 A 
ATOM     43  F   UNL A   1      46.664  29.706  33.457  1.00  0.00    -0.206 F 
ATOM     44  C   UNL A   1      47.448  27.305  36.049  1.00  0.00     0.006 A 
ENDBRANCH  23  37
BRANCH  24  45
ATOM     45  C   UNL A   1      37.447  31.042  29.133  1.00  0.00     0.057 A 
ATOM     46  C   UNL A   1      37.240  32.335  28.633  1.00  0.00     0.134 A 
ATOM     47  C   UNL A   1      36.438  30.097  28.939  1.00  0.00     0.134 A 
ATOM     48  F   UNL A   1      38.168  33.289  28.811  1.00  0.00    -0.206 F 
ATOM     49  C   UNL A   1      36.051  32.688  27.997  1.00  0.00     0.040 A 
ATOM     50  C   UNL A   1      35.253  30.431  28.284  1.00  0.00     0.040 A 
ATOM     51  F   UNL A   1      36.587  28.847  29.398  1.00  0.00    -0.206 F 
ATOM     52  C   UNL A   1      35.052  31.732  27.823  1.00  0.00     0.006 A 
ENDBRANCH  24  45
BRANCH  36  53
ATOM     53  C   UNL A   1      39.372  32.364  35.715  1.00  0.00     0.057 A 
ATOM     54  C   UNL A   1      38.470  31.695  36.551  1.00  0.00     0.134 A 
ATOM     55  C   UNL A   1      39.602  33.724  35.965  1.00  0.00     0.134 A 
ATOM     56  F   UNL A   1      38.195  30.396  36.357  1.00  0.00    -0.206 F 
ATOM     57  C   UNL A   1      37.825  32.351  37.599  1.00  0.00     0.040 A 
ATOM     58  C   UNL A   1      38.987  34.382  37.030  1.00  0.00     0.040 A 
ATOM     59  F   UNL A   1      40.459  34.420  35.203  1.00  0.00    -0.206 F 
ATOM     60  C   UNL A   1      38.093  33.695  37.848  1.00  0.00     0.006 A 
ENDBRANCH  36  53
ENDBRANCH  10  11
ENDBRANCH   3   5
ENDBRANCH   2   3
ENDBRANCH   1   2
BRANCH   1  61
ATOM     61  C   UNL A   1      43.441  20.952  25.724  1.00  0.00     0.275 C 
BRANCH  61  62
ATOM     62  O   UNL A   1      42.667  21.396  26.847  1.00  0.00    -0.458 OA
BRANCH  62  63
ATOM     63  C   UNL A   1      41.630  20.589  27.216  1.00  0.00     0.343 C 
ATOM     64  O   UNL A   1      41.722  19.597  27.925  1.00  0.00    -0.246 OA
BRANCH  63  65
ATOM     65  C   UNL A   1      40.379  21.104  26.639  1.00  0.00     0.124 A 
ATOM     66  C   UNL A   1      40.004  22.360  26.908  1.00  0.00     0.106 A 
ATOM     67  C   UNL A   1      39.500  20.315  25.750  1.00  0.00     0.203 A 
ATOM     68  N   UNL A   1      38.860  22.991  26.456  1.00  0.00    -0.343 N 
ATOM     69  C   UNL A   1      38.141  20.862  25.485  1.00  0.00     0.047 A 
ATOM     70  O   UNL A   1      39.822  19.216  25.317  1.00  0.00    -0.288 OA
ATOM     71  C   UNL A   1      37.841  22.192  25.842  1.00  0.00     0.054 A 
ATOM     72  C   UNL A   1      37.155  20.002  24.981  1.00  0.00     0.016 A 
ATOM     73  C   UNL A   1      36.514  22.625  25.647  1.00  0.00     0.053 A 
ATOM     74  C   UNL A   1      35.840  20.451  24.847  1.00  0.00     0.027 A 
ATOM     75  C   UNL A   1      35.497  21.767  25.166  1.00  0.00     0.039 A 
BRANCH  68  76
ATOM     76  C   UNL A   1      38.817  24.474  26.439  1.00  0.00     0.087 C 
ATOM     77  C   UNL A   1      39.224  25.391  27.576  1.00  0.00     0.027 C 
ATOM     78  C   UNL A   1      40.107  25.256  26.378  1.00  0.00     0.027 C 
ENDBRANCH  68  76
BRANCH  75  79
ATOM     79  N   UNL A   1      34.209  22.240  25.010  1.00  0.00    -0.360 N 
ATOM     80  C   UNL A   1      33.257  21.416  24.255  1.00  0.00     0.178 C 
ATOM     81  C   UNL A   1      33.616  23.253  25.897  1.00  0.00     0.178 C 
ATOM     82  C   UNL A   1      32.177  20.846  25.207  1.00  0.00     0.282 C 
ATOM     83  C   UNL A   1      32.460  22.670  26.747  1.00  0.00     0.282 C 
ATOM     84  N   UNL A   1      31.465  21.890  25.977  1.00  0.00    -0.343 N 
ATOM     85  H   UNL A   1      30.802  21.453  26.616  1.00  0.00     0.346 HD
ATOM     86  H   UNL A   1      30.956  22.505  25.342  1.00  0.00     0.346 HD
ENDBRANCH  75  79
ENDBRANCH  63  65
ENDBRANCH  62  63
ENDBRANCH  61  62
ENDBRANCH   1  61
TORSDOF 13
ENDMDL
MODEL 2
REMARK VINA RESULT:     -11.5      4.382      6.241
REMARK SMILES O=C(OCCOC(=O)c1cn(C2CC2)c2cc(N3CC[NH2+]CC3)ccc2c1=O)c1ccc(-c2c3nc(c(-c4c(F)cccc4F)c4ccc([nH]4)c(-c4c(F)cccc4F)c4nc(c(-c5c(F)cccc5F)c5ccc2[nH]5)C=C4)C=C3)cc1
REMARK SMILES IDX 4 1 3 2 2 3 1 4 29 5 30 6 82 7 31 8 81 9 32 10 33 11 34 12
REMARK SMILES IDX 75 13 35 14 80 15 74 16 76 17 36 18 79 19 73 20 72 21 37 23
REMARK SMILES IDX 63 24 46 25 62 26 47 27 50 28 61 29 77 30 48 31 49 32 60 34
REMARK SMILES IDX 78 35 51 36 38 37 39 38 44 39 40 40 41 41 43 42 45 43 42 44
REMARK SMILES IDX 64 45 65 46 70 47 66 48 67 49 69 50 71 51 68 52 52 53 53 54
REMARK SMILES IDX 58 55 54 56 55 57 57 58 59 59 56 60 5 61 6 62 7 63 8 64 9 65
REMARK SMILES IDX 10 66 27 67 11 68 26 69 28 70 15 71 25 72 16 73 24 74 17 75
REMARK SMILES IDX 12 76 13 77 14 78 18 79 19 80 23 81 20 82 22 83 21 84
REMARK H PARENT 76 22 50 33 21 85 21 86
REMARK Flexibility Score: inf
ROOT
ATOM      1  C   UNL A   1      36.608  22.873  25.790  1.00  0.00     0.275 C 
ENDROOT
BRANCH   1   2
ATOM      2  O   UNL A   1      38.001  22.859  25.438  1.00  0.00    -0.458 OA
BRANCH   2   3
ATOM      3  C   UNL A   1      39.080  22.988  26.249  1.00  0.00     0.338 C 
ATOM      4  O   UNL A   1      39.644  21.980  26.667  1.00  0.00    -0.246 OA
BRANCH   3   5
ATOM      5  C   UNL A   1      39.517  24.309  26.802  1.00  0.00     0.060 A 
ATOM      6  C   UNL A   1      39.069  24.614  28.096  1.00  0.00     0.016 A 
ATOM      7  C   UNL A   1      40.353  25.234  26.174  1.00  0.00     0.016 A 
ATOM      8  C   UNL A   1      39.370  25.845  28.690  1.00  0.00     0.010 A 
ATOM      9  C   UNL A   1      40.659  26.466  26.772  1.00  0.00     0.010 A 
ATOM     10  C   UNL A   1      40.150  26.803  28.026  1.00  0.00    -0.014 A 
BRANCH  10  11
ATOM     11  C   UNL A   1      40.596  28.026  28.740  1.00  0.00     0.031 A 
ATOM     12  C   UNL A   1      41.904  28.163  29.467  1.00  0.00     0.074 A 
ATOM     13  C   UNL A   1      39.722  29.041  28.835  1.00  0.00     0.049 A 
ATOM     14  N   UNL A   1      42.519  29.262  29.838  1.00  0.00    -0.248 NA
ATOM     15  C   UNL A   1      42.604  26.936  29.857  1.00  0.00     0.031 C 
ATOM     16  C   UNL A   1      38.354  29.032  28.317  1.00  0.00     0.029 A 
ATOM     17  N   UNL A   1      39.840  30.249  29.468  1.00  0.00    -0.354 N 
ATOM     18  C   UNL A   1      43.747  28.857  30.338  1.00  0.00     0.074 A 
ATOM     19  C   UNL A   1      43.713  27.420  30.404  1.00  0.00     0.031 C 
ATOM     20  C   UNL A   1      37.739  30.157  28.703  1.00  0.00     0.029 A 
ATOM     21  C   UNL A   1      38.665  30.948  29.507  1.00  0.00     0.049 A 
ATOM     22  H   UNL A   1      40.682  30.581  29.853  1.00  0.00     0.167 HD
ATOM     23  C   UNL A   1      44.812  29.615  30.697  1.00  0.00     0.037 A 
ATOM     24  C   UNL A   1      38.354  32.076  30.164  1.00  0.00     0.037 A 
ATOM     25  C   UNL A   1      44.690  30.992  31.080  1.00  0.00     0.049 A 
ATOM     26  C   UNL A   1      39.420  32.808  30.914  1.00  0.00     0.074 A 
ATOM     27  C   UNL A   1      45.644  31.838  31.613  1.00  0.00     0.029 A 
ATOM     28  N   UNL A   1      43.478  31.660  31.140  1.00  0.00    -0.354 N 
ATOM     29  N   UNL A   1      40.697  32.529  31.022  1.00  0.00    -0.248 NA
ATOM     30  C   UNL A   1      39.005  34.023  31.623  1.00  0.00     0.031 C 
ATOM     31  C   UNL A   1      44.973  32.946  32.154  1.00  0.00     0.029 A 
ATOM     32  C   UNL A   1      43.623  32.832  31.858  1.00  0.00     0.049 A 
ATOM     33  H   UNL A   1      42.639  31.347  30.732  1.00  0.00     0.167 HD
ATOM     34  C   UNL A   1      41.244  33.536  31.805  1.00  0.00     0.074 A 
ATOM     35  C   UNL A   1      40.158  34.444  32.125  1.00  0.00     0.031 C 
ATOM     36  C   UNL A   1      42.528  33.700  32.215  1.00  0.00     0.037 A 
BRANCH  23  37
ATOM     37  C   UNL A   1      46.151  28.946  30.778  1.00  0.00     0.057 A 
ATOM     38  C   UNL A   1      46.655  28.427  31.974  1.00  0.00     0.134 A 
ATOM     39  C   UNL A   1      46.972  28.857  29.643  1.00  0.00     0.134 A 
ATOM     40  F   UNL A   1      45.936  28.504  33.102  1.00  0.00    -0.206 F 
ATOM     41  C   UNL A   1      47.910  27.812  32.032  1.00  0.00     0.040 A 
ATOM     42  C   UNL A   1      48.220  28.230  29.683  1.00  0.00     0.040 A 
ATOM     43  F   UNL A   1      46.571  29.371  28.471  1.00  0.00    -0.206 F 
ATOM     44  C   UNL A   1      48.691  27.701  30.882  1.00  0.00     0.006 A 
ENDBRANCH  23  37
BRANCH  24  45
ATOM     45  C   UNL A   1      36.946  32.529  30.130  1.00  0.00     0.057 A 
ATOM     46  C   UNL A   1      36.518  33.469  29.181  1.00  0.00     0.134 A 
ATOM     47  C   UNL A   1      36.039  32.135  31.115  1.00  0.00     0.134 A 
ATOM     48  F   UNL A   1      37.357  33.898  28.225  1.00  0.00    -0.206 F 
ATOM     49  C   UNL A   1      35.243  34.029  29.236  1.00  0.00     0.040 A 
ATOM     50  C   UNL A   1      34.752  32.671  31.168  1.00  0.00     0.040 A 
ATOM     51  F   UNL A   1      36.399  31.240  32.045  1.00  0.00    -0.206 F 
ATOM     52  C   UNL A   1      34.357  33.631  30.235  1.00  0.00     0.006 A 
ENDBRANCH  24  45
BRANCH  36  53
ATOM     53  C   UNL A   1      42.820  34.886  33.082  1.00  0.00     0.057 A 
ATOM     54  C   UNL A   1      43.216  36.104  32.516  1.00  0.00     0.134 A 
ATOM     55  C   UNL A   1      42.724  34.821  34.479  1.00  0.00     0.134 A 
ATOM     56  F   UNL A   1      43.341  36.229  31.186  1.00  0.00    -0.206 F 
ATOM     57  C   UNL A   1      43.500  37.216  33.307  1.00  0.00     0.040 A 
ATOM     58  C   UNL A   1      42.974  35.936  35.278  1.00  0.00     0.040 A 
ATOM     59  F   UNL A   1      42.343  33.684  35.082  1.00  0.00    -0.206 F 
ATOM     60  C   UNL A   1      43.368  37.137  34.693  1.00  0.00     0.006 A 
ENDBRANCH  36  53
ENDBRANCH  10  11
ENDBRANCH   3   5
ENDBRANCH   2   3
ENDBRANCH   1   2
BRANCH   1  61
ATOM     61  C   UNL A   1      35.725  23.644  24.807  1.00  0.00     0.275 C 
BRANCH  61  62
ATOM     62  O   UNL A   1      35.258  24.890  25.343  1.00  0.00    -0.458 OA
BRANCH  62  63
ATOM     63  C   UNL A   1      33.984  24.891  25.832  1.00  0.00     0.343 C 
ATOM     64  O   UNL A   1      33.522  24.069  26.610  1.00  0.00    -0.246 OA
BRANCH  63  65
ATOM     65  C   UNL A   1      33.250  26.043  25.284  1.00  0.00     0.124 A 
ATOM     66  C   UNL A   1      33.334  27.226  25.904  1.00  0.00     0.106 A 
ATOM     67  C   UNL A   1      32.425  25.982  24.059  1.00  0.00     0.203 A 
ATOM     68  N   UNL A   1      32.705  28.397  25.528  1.00  0.00    -0.343 N 
ATOM     69  C   UNL A   1      31.520  27.136  23.797  1.00  0.00     0.047 A 
ATOM     70  O   UNL A   1      32.402  24.997  23.332  1.00  0.00    -0.288 OA
ATOM     71  C   UNL A   1      31.674  28.326  24.535  1.00  0.00     0.054 A 
ATOM     72  C   UNL A   1      30.464  26.972  22.890  1.00  0.00     0.016 A 
ATOM     73  C   UNL A   1      30.734  29.351  24.304  1.00  0.00     0.053 A 
ATOM     74  C   UNL A   1      29.523  27.989  22.722  1.00  0.00     0.027 A 
ATOM     75  C   UNL A   1      29.645  29.196  23.414  1.00  0.00     0.039 A 
BRANCH  68  76
ATOM     76  C   UNL A   1      33.249  29.691  26.011  1.00  0.00     0.087 C 
ATOM     77  C   UNL A   1      32.814  30.432  27.259  1.00  0.00     0.027 C 
ATOM     78  C   UNL A   1      34.126  29.718  27.239  1.00  0.00     0.027 C 
ENDBRANCH  68  76
BRANCH  75  79
ATOM     79  N   UNL A   1      28.744  30.229  23.238  1.00  0.00    -0.360 N 
ATOM     80  C   UNL A   1      29.049  31.524  23.857  1.00  0.00     0.178 C 
ATOM     81  C   UNL A   1      27.765  30.257  22.140  1.00  0.00     0.178 C 
ATOM     82  C   UNL A   1      29.380  32.569  22.764  1.00  0.00     0.282 C 
ATOM     83  C   UNL A   1      28.066  31.394  21.131  1.00  0.00     0.282 C 
ATOM     84  N   UNL A   1      28.312  32.715  21.750  1.00  0.00    -0.343 N 
ATOM     85  H   UNL A   1      28.605  33.381  21.035  1.00  0.00     0.346 HD
ATOM     86  H   UNL A   1      27.459  33.059  22.191  1.00  0.00     0.346 HD
ENDBRANCH  75  79
ENDBRANCH  63  65
ENDBRANCH  62  63
ENDBRANCH  61  62
ENDBRANCH   1  61
TORSDOF 13
ENDMDL
MODEL 3
REMARK VINA RESULT:     -11.5      4.920      8.686
REMARK SMILES O=C(OCCOC(=O)c1cn(C2CC2)c2cc(N3CC[NH2+]CC3)ccc2c1=O)c1ccc(-c2c3nc(c(-c4c(F)cccc4F)c4ccc([nH]4)c(-c4c(F)cccc4F)c4nc(c(-c5c(F)cccc5F)c5ccc2[nH]5)C=C4)C=C3)cc1
REMARK SMILES IDX 4 1 3 2 2 3 1 4 29 5 30 6 82 7 31 8 81 9 32 10 33 11 34 12
REMARK SMILES IDX 75 13 35 14 80 15 74 16 76 17 36 18 79 19 73 20 72 21 37 23
REMARK SMILES IDX 63 24 46 25 62 26 47 27 50 28 61 29 77 30 48 31 49 32 60 34
REMARK SMILES IDX 78 35 51 36 38 37 39 38 44 39 40 40 41 41 43 42 45 43 42 44
REMARK SMILES IDX 64 45 65 46 70 47 66 48 67 49 69 50 71 51 68 52 52 53 53 54
REMARK SMILES IDX 58 55 54 56 55 57 57 58 59 59 56 60 5 61 6 62 7 63 8 64 9 65
REMARK SMILES IDX 10 66 27 67 11 68 26 69 28 70 15 71 25 72 16 73 24 74 17 75
REMARK SMILES IDX 12 76 13 77 14 78 18 79 19 80 23 81 20 82 22 83 21 84
REMARK H PARENT 76 22 50 33 21 85 21 86
REMARK Flexibility Score: inf
ROOT
ATOM      1  C   UNL A   1      37.033  23.509  24.827  1.00  0.00     0.275 C 
ENDROOT
BRANCH   1   2
ATOM      2  O   UNL A   1      37.698  22.627  25.747  1.00  0.00    -0.458 OA
BRANCH   2   3
ATOM      3  C   UNL A   1      38.929  22.753  26.300  1.00  0.00     0.338 C 
ATOM      4  O   UNL A   1      39.637  21.757  26.430  1.00  0.00    -0.246 OA
BRANCH   3   5
ATOM      5  C   UNL A   1      39.405  24.029  26.922  1.00  0.00     0.060 A 
ATOM      6  C   UNL A   1      40.136  24.887  26.088  1.00  0.00     0.016 A 
ATOM      7  C   UNL A   1      39.155  24.456  28.228  1.00  0.00     0.016 A 
ATOM      8  C   UNL A   1      40.678  26.081  26.580  1.00  0.00     0.010 A 
ATOM      9  C   UNL A   1      39.694  25.656  28.720  1.00  0.00     0.010 A 
ATOM     10  C   UNL A   1      40.487  26.472  27.913  1.00  0.00    -0.014 A 
BRANCH  10  11
ATOM     11  C   UNL A   1      40.924  27.817  28.365  1.00  0.00     0.031 A 
ATOM     12  C   UNL A   1      40.009  28.990  28.569  1.00  0.00     0.074 A 
ATOM     13  C   UNL A   1      42.244  28.028  28.495  1.00  0.00     0.049 A 
ATOM     14  N   UNL A   1      40.230  30.089  29.254  1.00  0.00    -0.248 NA
ATOM     15  C   UNL A   1      38.698  28.961  27.912  1.00  0.00     0.031 C 
ATOM     16  C   UNL A   1      43.291  27.050  28.200  1.00  0.00     0.029 A 
ATOM     17  N   UNL A   1      42.925  29.164  28.839  1.00  0.00    -0.354 N 
ATOM     18  C   UNL A   1      39.031  30.784  29.252  1.00  0.00     0.074 A 
ATOM     19  C   UNL A   1      38.153  30.090  28.348  1.00  0.00     0.031 C 
ATOM     20  C   UNL A   1      44.484  27.645  28.320  1.00  0.00     0.029 A 
ATOM     21  C   UNL A   1      44.278  29.044  28.681  1.00  0.00     0.049 A 
ATOM     22  H   UNL A   1      42.488  29.981  29.169  1.00  0.00     0.167 HD
ATOM     23  C   UNL A   1      38.689  31.892  29.952  1.00  0.00     0.037 A 
ATOM     24  C   UNL A   1      45.243  29.973  28.765  1.00  0.00     0.037 A 
ATOM     25  C   UNL A   1      39.658  32.825  30.451  1.00  0.00     0.049 A 
ATOM     26  C   UNL A   1      44.889  31.363  29.191  1.00  0.00     0.074 A 
ATOM     27  C   UNL A   1      39.460  34.062  31.037  1.00  0.00     0.029 A 
ATOM     28  N   UNL A   1      41.021  32.689  30.244  1.00  0.00    -0.354 N 
ATOM     29  N   UNL A   1      43.725  31.849  29.546  1.00  0.00    -0.248 NA
ATOM     30  C   UNL A   1      45.991  32.331  29.243  1.00  0.00     0.031 C 
ATOM     31  C   UNL A   1      40.690  34.740  31.019  1.00  0.00     0.029 A 
ATOM     32  C   UNL A   1      41.660  33.882  30.523  1.00  0.00     0.049 A 
ATOM     33  H   UNL A   1      41.467  31.866  29.942  1.00  0.00     0.167 HD
ATOM     34  C   UNL A   1      43.949  33.180  29.871  1.00  0.00     0.074 A 
ATOM     35  C   UNL A   1      45.370  33.414  29.691  1.00  0.00     0.031 C 
ATOM     36  C   UNL A   1      43.063  34.120  30.290  1.00  0.00     0.037 A 
BRANCH  23  37
ATOM     37  C   UNL A   1      37.229  32.188  30.125  1.00  0.00     0.057 A 
ATOM     38  C   UNL A   1      36.505  31.748  31.236  1.00  0.00     0.134 A 
ATOM     39  C   UNL A   1      36.524  32.894  29.137  1.00  0.00     0.134 A 
ATOM     40  F   UNL A   1      37.109  31.044  32.203  1.00  0.00    -0.206 F 
ATOM     41  C   UNL A   1      35.141  32.029  31.377  1.00  0.00     0.040 A 
ATOM     42  C   UNL A   1      35.167  33.196  29.274  1.00  0.00     0.040 A 
ATOM     43  F   UNL A   1      37.146  33.311  28.025  1.00  0.00    -0.206 F 
ATOM     44  C   UNL A   1      34.472  32.765  30.401  1.00  0.00     0.006 A 
ENDBRANCH  23  37
BRANCH  24  45
ATOM     45  C   UNL A   1      46.620  29.574  28.402  1.00  0.00     0.057 A 
ATOM     46  C   UNL A   1      47.037  29.577  27.063  1.00  0.00     0.134 A 
ATOM     47  C   UNL A   1      47.498  29.063  29.358  1.00  0.00     0.134 A 
ATOM     48  F   UNL A   1      46.223  30.037  26.099  1.00  0.00    -0.206 F 
ATOM     49  C   UNL A   1      48.270  29.051  26.684  1.00  0.00     0.040 A 
ATOM     50  C   UNL A   1      48.745  28.554  28.995  1.00  0.00     0.040 A 
ATOM     51  F   UNL A   1      47.147  29.037  30.651  1.00  0.00    -0.206 F 
ATOM     52  C   UNL A   1      49.127  28.535  27.653  1.00  0.00     0.006 A 
ENDBRANCH  24  45
BRANCH  36  53
ATOM     53  C   UNL A   1      43.600  35.494  30.548  1.00  0.00     0.057 A 
ATOM     54  C   UNL A   1      44.109  35.837  31.806  1.00  0.00     0.134 A 
ATOM     55  C   UNL A   1      43.598  36.485  29.556  1.00  0.00     0.134 A 
ATOM     56  F   UNL A   1      44.126  34.940  32.803  1.00  0.00    -0.206 F 
ATOM     57  C   UNL A   1      44.605  37.115  32.067  1.00  0.00     0.040 A 
ATOM     58  C   UNL A   1      44.121  37.755  29.796  1.00  0.00     0.040 A 
ATOM     59  F   UNL A   1      43.129  36.217  28.328  1.00  0.00    -0.206 F 
ATOM     60  C   UNL A   1      44.623  38.074  31.056  1.00  0.00     0.006 A 
ENDBRANCH  36  53
ENDBRANCH  10  11
ENDBRANCH   3   5
ENDBRANCH   2   3
ENDBRANCH   1   2
BRANCH   1  61
ATOM     61  C   UNL A   1      35.515  23.559  25.000  1.00  0.00     0.275 C 
BRANCH  61  62
ATOM     62  O   UNL A   1      35.036  24.877  25.300  1.00  0.00    -0.458 OA
BRANCH  62  63
ATOM     63  C   UNL A   1      33.787  24.951  25.845  1.00  0.00     0.343 C 
ATOM     64  O   UNL A   1      33.329  24.177  26.675  1.00  0.00    -0.246 OA
BRANCH  63  65
ATOM     65  C   UNL A   1      33.076  26.112  25.288  1.00  0.00     0.124 A 
ATOM     66  C   UNL A   1      33.196  27.301  25.889  1.00  0.00     0.106 A 
ATOM     67  C   UNL A   1      32.235  26.054  24.073  1.00  0.00     0.203 A 
ATOM     68  N   UNL A   1      32.591  28.482  25.502  1.00  0.00    -0.343 N 
ATOM     69  C   UNL A   1      31.357  27.226  23.804  1.00  0.00     0.047 A 
ATOM     70  O   UNL A   1      32.180  25.059  23.361  1.00  0.00    -0.288 OA
ATOM     71  C   UNL A   1      31.548  28.422  24.522  1.00  0.00     0.054 A 
ATOM     72  C   UNL A   1      30.286  27.074  22.911  1.00  0.00     0.016 A 
ATOM     73  C   UNL A   1      30.631  29.467  24.285  1.00  0.00     0.053 A 
ATOM     74  C   UNL A   1      29.369  28.112  22.738  1.00  0.00     0.027 A 
ATOM     75  C   UNL A   1      29.528  29.326  23.410  1.00  0.00     0.039 A 
BRANCH  68  76
ATOM     76  C   UNL A   1      33.173  29.769  25.959  1.00  0.00     0.087 C 
ATOM     77  C   UNL A   1      32.788  30.527  27.215  1.00  0.00     0.027 C 
ATOM     78  C   UNL A   1      34.086  29.789  27.161  1.00  0.00     0.027 C 
ENDBRANCH  68  76
BRANCH  75  79
ATOM     79  N   UNL A   1      28.651  30.377  23.228  1.00  0.00    -0.360 N 
ATOM     80  C   UNL A   1      28.973  31.662  23.861  1.00  0.00     0.178 C 
ATOM     81  C   UNL A   1      27.690  30.434  22.116  1.00  0.00     0.178 C 
ATOM     82  C   UNL A   1      29.342  32.708  22.781  1.00  0.00     0.282 C 
ATOM     83  C   UNL A   1      28.028  31.571  21.120  1.00  0.00     0.282 C 
ATOM     84  N   UNL A   1      28.292  32.883  21.753  1.00  0.00    -0.343 N 
ATOM     85  H   UNL A   1      28.610  33.547  21.047  1.00  0.00     0.346 HD
ATOM     86  H   UNL A   1      27.439  33.241  22.183  1.00  0.00     0.346 HD
ENDBRANCH  75  79
ENDBRANCH  63  65
ENDBRANCH  62  63
ENDBRANCH  61  62
ENDBRANCH   1  61
TORSDOF 13
ENDMDL
