MODEL 1
REMARK VINA RESULT:     -10.1      0.000      0.000
REMARK SMILES C=CC[C@@](CC)(C(=O)OCCOC(=O)c1ccc(-c2c3nc(c(-c4c(F)cccc4F)c4ccc([nH]4)c(-c4c(F)cccc4F)c4nc(c(-c5c(F)cccc5F)c5ccc2[nH]5)C=C4)C=C3)cc1)c1ccccc1
REMARK SMILES IDX 10 1 9 2 7 3 8 4 4 5 3 6 2 7 1 8 5 9 6 10 69 11 70 12 74 13
REMARK SMILES IDX 71 14 73 15 72 16 11 17 12 18 13 19 14 20 15 21 16 22 68 23
REMARK SMILES IDX 17 24 67 25 18 26 19 27 20 28 61 29 21 30 66 31 60 32 62 33
REMARK SMILES IDX 22 34 65 35 59 36 58 37 23 39 49 40 32 41 48 42 33 43 36 44
REMARK SMILES IDX 47 45 63 46 34 47 35 48 46 50 64 51 37 52 24 53 25 54 30 55
REMARK SMILES IDX 26 56 27 57 29 58 31 59 28 60 50 61 51 62 56 63 52 64 53 65
REMARK SMILES IDX 55 66 57 67 54 68 38 69 39 70 44 71 40 72 41 73 43 74 45 75
REMARK SMILES IDX 42 76
REMARK H PARENT 62 38 36 49
REMARK Flexibility Score: inf
ROOT
ATOM      1  C   UNL A   1      34.614  21.472  24.742  1.00  0.00     0.274 C 
ENDROOT
BRANCH   1   2
ATOM      2  O   UNL A   1      34.804  22.898  24.616  1.00  0.00    -0.461 OA
BRANCH   2   3
ATOM      3  C   UNL A   1      34.090  23.698  25.461  1.00  0.00     0.316 C 
ATOM      4  O   UNL A   1      34.173  23.635  26.684  1.00  0.00    -0.251 OA
BRANCH   3   5
ATOM      5  C   UNL A   1      33.079  24.606  24.709  1.00  0.00     0.096 C 
BRANCH   5   6
ATOM      6  C   UNL A   1      33.577  24.892  23.246  1.00  0.00     0.050 C 
BRANCH   6   7
ATOM      7  C   UNL A   1      33.134  26.208  22.645  1.00  0.00    -0.033 C 
ATOM      8  C   UNL A   1      32.054  26.361  21.868  1.00  0.00     0.004 C 
ENDBRANCH   6   7
ENDBRANCH   5   6
BRANCH   5   9
ATOM      9  C   UNL A   1      31.741  23.784  24.674  1.00  0.00     0.020 C 
ATOM     10  C   UNL A   1      31.437  23.046  23.372  1.00  0.00     0.005 C 
ENDBRANCH   5   9
BRANCH   5  11
ATOM     11  C   UNL A   1      32.880  25.926  25.528  1.00  0.00    -0.030 A 
ATOM     12  C   UNL A   1      31.626  26.313  26.040  1.00  0.00     0.005 A 
ATOM     13  C   UNL A   1      33.953  26.807  25.770  1.00  0.00     0.005 A 
ATOM     14  C   UNL A   1      31.470  27.465  26.823  1.00  0.00     0.000 A 
ATOM     15  C   UNL A   1      33.797  27.969  26.536  1.00  0.00     0.000 A 
ATOM     16  C   UNL A   1      32.558  28.290  27.077  1.00  0.00     0.000 A 
ENDBRANCH   5  11
ENDBRANCH   3   5
ENDBRANCH   2   3
ENDBRANCH   1   2
BRANCH   1  17
ATOM     17  C   UNL A   1      35.839  20.837  25.391  1.00  0.00     0.275 C 
BRANCH  17  18
ATOM     18  O   UNL A   1      37.004  21.548  24.946  1.00  0.00    -0.458 OA
BRANCH  18  19
ATOM     19  C   UNL A   1      38.185  21.156  25.472  1.00  0.00     0.338 C 
ATOM     20  O   UNL A   1      38.697  20.052  25.392  1.00  0.00    -0.246 OA
BRANCH  19  21
ATOM     21  C   UNL A   1      38.820  22.304  26.157  1.00  0.00     0.060 A 
ATOM     22  C   UNL A   1      38.258  23.574  26.063  1.00  0.00     0.016 A 
ATOM     23  C   UNL A   1      40.045  22.140  26.807  1.00  0.00     0.016 A 
ATOM     24  C   UNL A   1      38.962  24.683  26.526  1.00  0.00     0.010 A 
ATOM     25  C   UNL A   1      40.710  23.253  27.342  1.00  0.00     0.010 A 
ATOM     26  C   UNL A   1      40.207  24.552  27.156  1.00  0.00    -0.014 A 
BRANCH  26  27
ATOM     27  C   UNL A   1      41.007  25.771  27.497  1.00  0.00     0.031 A 
ATOM     28  C   UNL A   1      40.457  26.799  28.460  1.00  0.00     0.074 A 
ATOM     29  C   UNL A   1      42.265  25.941  27.035  1.00  0.00     0.049 A 
ATOM     30  N   UNL A   1      40.917  27.991  28.753  1.00  0.00    -0.248 NA
ATOM     31  C   UNL A   1      39.220  26.450  29.178  1.00  0.00     0.031 C 
ATOM     32  C   UNL A   1      42.979  25.026  26.144  1.00  0.00     0.029 A 
ATOM     33  N   UNL A   1      43.184  26.932  27.290  1.00  0.00    -0.354 N 
ATOM     34  C   UNL A   1      39.983  28.564  29.608  1.00  0.00     0.074 A 
ATOM     35  C   UNL A   1      38.939  27.582  29.807  1.00  0.00     0.031 C 
ATOM     36  C   UNL A   1      44.246  25.446  26.004  1.00  0.00     0.029 A 
ATOM     37  C   UNL A   1      44.411  26.710  26.712  1.00  0.00     0.049 A 
ATOM     38  H   UNL A   1      42.981  27.727  27.834  1.00  0.00     0.167 HD
ATOM     39  C   UNL A   1      39.988  29.796  30.172  1.00  0.00     0.037 A 
ATOM     40  C   UNL A   1      45.538  27.447  26.726  1.00  0.00     0.037 A 
ATOM     41  C   UNL A   1      41.067  30.742  30.063  1.00  0.00     0.049 A 
ATOM     42  C   UNL A   1      45.547  28.783  27.411  1.00  0.00     0.074 A 
ATOM     43  C   UNL A   1      41.142  32.031  30.564  1.00  0.00     0.029 A 
ATOM     44  N   UNL A   1      42.283  30.481  29.453  1.00  0.00    -0.354 N 
ATOM     45  N   UNL A   1      44.591  29.375  28.082  1.00  0.00    -0.248 NA
ATOM     46  C   UNL A   1      46.786  29.572  27.308  1.00  0.00     0.031 C 
ATOM     47  C   UNL A   1      42.406  32.550  30.257  1.00  0.00     0.029 A 
ATOM     48  C   UNL A   1      43.121  31.575  29.584  1.00  0.00     0.049 A 
ATOM     49  H   UNL A   1      42.515  29.643  28.993  1.00  0.00     0.167 HD
ATOM     50  C   UNL A   1      45.099  30.612  28.454  1.00  0.00     0.074 A 
ATOM     51  C   UNL A   1      46.466  30.666  27.983  1.00  0.00     0.031 C 
ATOM     52  C   UNL A   1      44.476  31.624  29.103  1.00  0.00     0.037 A 
BRANCH  39  53
ATOM     53  C   UNL A   1      38.768  30.210  30.939  1.00  0.00     0.057 A 
ATOM     54  C   UNL A   1      38.635  29.975  32.311  1.00  0.00     0.134 A 
ATOM     55  C   UNL A   1      37.730  30.894  30.293  1.00  0.00     0.134 A 
ATOM     56  F   UNL A   1      39.586  29.308  32.982  1.00  0.00    -0.206 F 
ATOM     57  C   UNL A   1      37.503  30.393  33.014  1.00  0.00     0.040 A 
ATOM     58  C   UNL A   1      36.604  31.336  30.988  1.00  0.00     0.040 A 
ATOM     59  F   UNL A   1      37.801  31.155  28.979  1.00  0.00    -0.206 F 
ATOM     60  C   UNL A   1      36.486  31.083  32.353  1.00  0.00     0.006 A 
ENDBRANCH  39  53
BRANCH  40  61
ATOM     61  C   UNL A   1      46.755  26.955  26.033  1.00  0.00     0.057 A 
ATOM     62  C   UNL A   1      46.966  27.221  24.676  1.00  0.00     0.134 A 
ATOM     63  C   UNL A   1      47.724  26.201  26.705  1.00  0.00     0.134 A 
ATOM     64  F   UNL A   1      46.057  27.913  23.974  1.00  0.00    -0.206 F 
ATOM     65  C   UNL A   1      48.098  26.751  24.008  1.00  0.00     0.040 A 
ATOM     66  C   UNL A   1      48.872  25.745  26.057  1.00  0.00     0.040 A 
ATOM     67  F   UNL A   1      47.575  25.910  28.006  1.00  0.00    -0.206 F 
ATOM     68  C   UNL A   1      49.059  26.016  24.702  1.00  0.00     0.006 A 
ENDBRANCH  40  61
BRANCH  52  69
ATOM     69  C   UNL A   1      45.266  32.877  29.323  1.00  0.00     0.057 A 
ATOM     70  C   UNL A   1      45.241  33.924  28.392  1.00  0.00     0.134 A 
ATOM     71  C   UNL A   1      46.046  33.046  30.472  1.00  0.00     0.134 A 
ATOM     72  F   UNL A   1      44.521  33.814  27.265  1.00  0.00    -0.206 F 
ATOM     73  C   UNL A   1      45.985  35.087  28.587  1.00  0.00     0.040 A 
ATOM     74  C   UNL A   1      46.782  34.213  30.685  1.00  0.00     0.040 A 
ATOM     75  F   UNL A   1      46.108  32.081  31.402  1.00  0.00    -0.206 F 
ATOM     76  C   UNL A   1      46.757  35.236  29.738  1.00  0.00     0.006 A 
ENDBRANCH  52  69
ENDBRANCH  26  27
ENDBRANCH  19  21
ENDBRANCH  18  19
ENDBRANCH  17  18
ENDBRANCH   1  17
TORSDOF 15
ENDMDL
MODEL 2
REMARK VINA RESULT:      -9.9      2.620      7.094
REMARK SMILES C=CC[C@@](CC)(C(=O)OCCOC(=O)c1ccc(-c2c3nc(c(-c4c(F)cccc4F)c4ccc([nH]4)c(-c4c(F)cccc4F)c4nc(c(-c5c(F)cccc5F)c5ccc2[nH]5)C=C4)C=C3)cc1)c1ccccc1
REMARK SMILES IDX 10 1 9 2 7 3 8 4 4 5 3 6 2 7 1 8 5 9 6 10 69 11 70 12 74 13
REMARK SMILES IDX 71 14 73 15 72 16 11 17 12 18 13 19 14 20 15 21 16 22 68 23
REMARK SMILES IDX 17 24 67 25 18 26 19 27 20 28 61 29 21 30 66 31 60 32 62 33
REMARK SMILES IDX 22 34 65 35 59 36 58 37 23 39 49 40 32 41 48 42 33 43 36 44
REMARK SMILES IDX 47 45 63 46 34 47 35 48 46 50 64 51 37 52 24 53 25 54 30 55
REMARK SMILES IDX 26 56 27 57 29 58 31 59 28 60 50 61 51 62 56 63 52 64 53 65
REMARK SMILES IDX 55 66 57 67 54 68 38 69 39 70 44 71 40 72 41 73 43 74 45 75
REMARK SMILES IDX 42 76
REMARK H PARENT 62 38 36 49
REMARK Flexibility Score: inf
ROOT
ATOM      1  C   UNL A   1      38.623  21.525  25.711  1.00  0.00     0.274 C 
ENDROOT
BRANCH   1   2
ATOM      2  O   UNL A   1      37.183  21.526  25.827  1.00  0.00    -0.461 OA
BRANCH   2   3
ATOM      3  C   UNL A   1      36.478  22.106  24.812  1.00  0.00     0.316 C 
ATOM      4  O   UNL A   1      36.990  22.487  23.764  1.00  0.00    -0.251 OA
BRANCH   3   5
ATOM      5  C   UNL A   1      34.987  22.337  25.180  1.00  0.00     0.096 C 
BRANCH   5   6
ATOM      6  C   UNL A   1      34.821  22.510  26.733  1.00  0.00     0.050 C 
BRANCH   6   7
ATOM      7  C   UNL A   1      33.520  22.006  27.317  1.00  0.00    -0.033 C 
ATOM      8  C   UNL A   1      32.420  22.754  27.475  1.00  0.00     0.004 C 
ENDBRANCH   6   7
ENDBRANCH   5   6
BRANCH   5   9
ATOM      9  C   UNL A   1      34.587  23.665  24.442  1.00  0.00     0.020 C 
ATOM     10  C   UNL A   1      34.583  24.933  25.292  1.00  0.00     0.005 C 
ENDBRANCH   5   9
BRANCH   5  11
ATOM     11  C   UNL A   1      34.141  21.140  24.630  1.00  0.00    -0.030 A 
ATOM     12  C   UNL A   1      34.511  19.797  24.839  1.00  0.00     0.005 A 
ATOM     13  C   UNL A   1      32.973  21.355  23.870  1.00  0.00     0.005 A 
ATOM     14  C   UNL A   1      33.715  18.732  24.395  1.00  0.00     0.000 A 
ATOM     15  C   UNL A   1      32.186  20.293  23.408  1.00  0.00     0.000 A 
ATOM     16  C   UNL A   1      32.548  18.981  23.685  1.00  0.00     0.000 A 
ENDBRANCH   5  11
ENDBRANCH   3   5
ENDBRANCH   2   3
ENDBRANCH   1   2
BRANCH   1  17
ATOM     17  C   UNL A   1      39.111  20.148  25.273  1.00  0.00     0.275 C 
BRANCH  17  18
ATOM     18  O   UNL A   1      40.011  19.649  26.274  1.00  0.00    -0.458 OA
BRANCH  18  19
ATOM     19  C   UNL A   1      41.329  19.716  25.984  1.00  0.00     0.338 C 
ATOM     20  O   UNL A   1      41.976  18.928  25.317  1.00  0.00    -0.246 OA
BRANCH  19  21
ATOM     21  C   UNL A   1      41.897  20.947  26.577  1.00  0.00     0.060 A 
ATOM     22  C   UNL A   1      41.919  21.113  27.959  1.00  0.00     0.016 A 
ATOM     23  C   UNL A   1      42.312  21.994  25.751  1.00  0.00     0.016 A 
ATOM     24  C   UNL A   1      42.257  22.349  28.506  1.00  0.00     0.010 A 
ATOM     25  C   UNL A   1      42.728  23.209  26.315  1.00  0.00     0.010 A 
ATOM     26  C   UNL A   1      42.649  23.427  27.701  1.00  0.00    -0.014 A 
BRANCH  26  27
ATOM     27  C   UNL A   1      42.850  24.782  28.305  1.00  0.00     0.031 A 
ATOM     28  C   UNL A   1      44.242  25.270  28.635  1.00  0.00     0.074 A 
ATOM     29  C   UNL A   1      41.818  25.634  28.487  1.00  0.00     0.049 A 
ATOM     30  N   UNL A   1      44.612  26.332  29.310  1.00  0.00    -0.248 NA
ATOM     31  C   UNL A   1      45.369  24.452  28.159  1.00  0.00     0.031 C 
ATOM     32  C   UNL A   1      40.416  25.357  28.173  1.00  0.00     0.029 A 
ATOM     33  N   UNL A   1      41.800  26.931  28.943  1.00  0.00    -0.354 N 
ATOM     34  C   UNL A   1      45.995  26.257  29.417  1.00  0.00     0.074 A 
ATOM     35  C   UNL A   1      46.406  25.057  28.719  1.00  0.00     0.031 C 
ATOM     36  C   UNL A   1      39.694  26.474  28.355  1.00  0.00     0.029 A 
ATOM     37  C   UNL A   1      40.558  27.519  28.892  1.00  0.00     0.049 A 
ATOM     38  H   UNL A   1      42.601  27.396  29.277  1.00  0.00     0.167 HD
ATOM     39  C   UNL A   1      46.848  27.104  30.043  1.00  0.00     0.037 A 
ATOM     40  C   UNL A   1      40.150  28.749  29.255  1.00  0.00     0.037 A 
ATOM     41  C   UNL A   1      46.464  28.349  30.653  1.00  0.00     0.049 A 
ATOM     42  C   UNL A   1      41.122  29.701  29.890  1.00  0.00     0.074 A 
ATOM     43  C   UNL A   1      47.251  29.252  31.349  1.00  0.00     0.029 A 
ATOM     44  N   UNL A   1      45.192  28.895  30.592  1.00  0.00    -0.354 N 
ATOM     45  N   UNL A   1      42.400  29.542  30.126  1.00  0.00    -0.248 NA
ATOM     46  C   UNL A   1      40.583  30.993  30.344  1.00  0.00     0.031 C 
ATOM     47  C   UNL A   1      46.455  30.346  31.708  1.00  0.00     0.029 A 
ATOM     48  C   UNL A   1      45.179  30.131  31.217  1.00  0.00     0.049 A 
ATOM     49  H   UNL A   1      44.414  28.468  30.168  1.00  0.00     0.167 HD
ATOM     50  C   UNL A   1      42.811  30.695  30.780  1.00  0.00     0.074 A 
ATOM     51  C   UNL A   1      41.661  31.570  30.855  1.00  0.00     0.031 C 
ATOM     52  C   UNL A   1      44.028  30.989  31.297  1.00  0.00     0.037 A 
BRANCH  39  53
ATOM     53  C   UNL A   1      48.288  26.696  30.130  1.00  0.00     0.057 A 
ATOM     54  C   UNL A   1      48.758  25.828  31.121  1.00  0.00     0.134 A 
ATOM     55  C   UNL A   1      49.207  27.151  29.175  1.00  0.00     0.134 A 
ATOM     56  F   UNL A   1      47.931  25.373  32.075  1.00  0.00    -0.206 F 
ATOM     57  C   UNL A   1      50.098  25.437  31.169  1.00  0.00     0.040 A 
ATOM     58  C   UNL A   1      50.543  26.750  29.199  1.00  0.00     0.040 A 
ATOM     59  F   UNL A   1      48.816  27.980  28.196  1.00  0.00    -0.206 F 
ATOM     60  C   UNL A   1      50.993  25.893  30.201  1.00  0.00     0.006 A 
ENDBRANCH  39  53
BRANCH  40  61
ATOM     61  C   UNL A   1      38.733  29.147  29.063  1.00  0.00     0.057 A 
ATOM     62  C   UNL A   1      37.817  29.078  30.118  1.00  0.00     0.134 A 
ATOM     63  C   UNL A   1      38.260  29.593  27.823  1.00  0.00     0.134 A 
ATOM     64  F   UNL A   1      38.206  28.629  31.321  1.00  0.00    -0.206 F 
ATOM     65  C   UNL A   1      36.478  29.433  29.948  1.00  0.00     0.040 A 
ATOM     66  C   UNL A   1      36.931  29.976  27.644  1.00  0.00     0.040 A 
ATOM     67  F   UNL A   1      39.089  29.677  26.772  1.00  0.00    -0.206 F 
ATOM     68  C   UNL A   1      36.034  29.891  28.708  1.00  0.00     0.006 A 
ENDBRANCH  40  61
BRANCH  52  69
ATOM     69  C   UNL A   1      44.165  32.303  32.003  1.00  0.00     0.057 A 
ATOM     70  C   UNL A   1      43.929  32.417  33.379  1.00  0.00     0.134 A 
ATOM     71  C   UNL A   1      44.545  33.458  31.310  1.00  0.00     0.134 A 
ATOM     72  F   UNL A   1      43.550  31.346  34.094  1.00  0.00    -0.206 F 
ATOM     73  C   UNL A   1      44.044  33.640  34.038  1.00  0.00     0.040 A 
ATOM     74  C   UNL A   1      44.679  34.685  31.963  1.00  0.00     0.040 A 
ATOM     75  F   UNL A   1      44.788  33.413  29.991  1.00  0.00    -0.206 F 
ATOM     76  C   UNL A   1      44.423  34.779  33.330  1.00  0.00     0.006 A 
ENDBRANCH  52  69
ENDBRANCH  26  27
ENDBRANCH  19  21
ENDBRANCH  18  19
ENDBRANCH  17  18
ENDBRANCH   1  17
TORSDOF 15
ENDMDL
MODEL 3
REMARK VINA RESULT:      -9.9      3.776      8.571
REMARK SMILES C=CC[C@@](CC)(C(=O)OCCOC(=O)c1ccc(-c2c3nc(c(-c4c(F)cccc4F)c4ccc([nH]4)c(-c4c(F)cccc4F)c4nc(c(-c5c(F)cccc5F)c5ccc2[nH]5)C=C4)C=C3)cc1)c1ccccc1
REMARK SMILES IDX 10 1 9 2 7 3 8 4 4 5 3 6 2 7 1 8 5 9 6 10 69 11 70 12 74 13
REMARK SMILES IDX 71 14 73 15 72 16 11 17 12 18 13 19 14 20 15 21 16 22 68 23
REMARK SMILES IDX 17 24 67 25 18 26 19 27 20 28 61 29 21 30 66 31 60 32 62 33
REMARK SMILES IDX 22 34 65 35 59 36 58 37 23 39 49 40 32 41 48 42 33 43 36 44
REMARK SMILES IDX 47 45 63 46 34 47 35 48 46 50 64 51 37 52 24 53 25 54 30 55
REMARK SMILES IDX 26 56 27 57 29 58 31 59 28 60 50 61 51 62 56 63 52 64 53 65
REMARK SMILES IDX 55 66 57 67 54 68 38 69 39 70 44 71 40 72 41 73 43 74 45 75
REMARK SMILES IDX 42 76
REMARK H PARENT 62 38 36 49
REMARK Flexibility Score: inf
ROOT
ATOM      1  C   UNL A   1      31.365  28.197  24.955  1.00  0.00     0.274 C 
ENDROOT
BRANCH   1   2
ATOM      2  O   UNL A   1      32.497  27.362  25.284  1.00  0.00    -0.461 OA
BRANCH   2   3
ATOM      3  C   UNL A   1      33.342  27.031  24.264  1.00  0.00     0.316 C 
ATOM      4  O   UNL A   1      34.129  27.823  23.753  1.00  0.00    -0.251 OA
BRANCH   3   5
ATOM      5  C   UNL A   1      33.114  25.584  23.748  1.00  0.00     0.096 C 
BRANCH   5   6
ATOM      6  C   UNL A   1      31.775  24.998  24.324  1.00  0.00     0.050 C 
BRANCH   6   7
ATOM      7  C   UNL A   1      31.917  23.784  25.216  1.00  0.00    -0.033 C 
ATOM      8  C   UNL A   1      31.192  23.567  26.322  1.00  0.00     0.004 C 
ENDBRANCH   6   7
ENDBRANCH   5   6
BRANCH   5   9
ATOM      9  C   UNL A   1      33.018  25.721  22.186  1.00  0.00     0.020 C 
ATOM     10  C   UNL A   1      31.657  26.132  21.629  1.00  0.00     0.005 C 
ENDBRANCH   5   9
BRANCH   5  11
ATOM     11  C   UNL A   1      34.352  24.708  24.138  1.00  0.00    -0.030 A 
ATOM     12  C   UNL A   1      35.011  24.843  25.376  1.00  0.00     0.005 A 
ATOM     13  C   UNL A   1      34.886  23.756  23.246  1.00  0.00     0.005 A 
ATOM     14  C   UNL A   1      36.081  24.013  25.738  1.00  0.00     0.000 A 
ATOM     15  C   UNL A   1      35.967  22.939  23.598  1.00  0.00     0.000 A 
ATOM     16  C   UNL A   1      36.555  23.056  24.851  1.00  0.00     0.000 A 
ENDBRANCH   5  11
ENDBRANCH   3   5
ENDBRANCH   2   3
ENDBRANCH   1   2
BRANCH   1  17
ATOM     17  C   UNL A   1      31.709  29.663  25.194  1.00  0.00     0.275 C 
BRANCH  17  18
ATOM     18  O   UNL A   1      32.050  29.825  26.579  1.00  0.00    -0.458 OA
BRANCH  18  19
ATOM     19  C   UNL A   1      32.598  31.011  26.928  1.00  0.00     0.338 C 
ATOM     20  O   UNL A   1      32.068  32.108  26.882  1.00  0.00    -0.246 OA
BRANCH  19  21
ATOM     21  C   UNL A   1      33.971  30.785  27.429  1.00  0.00     0.060 A 
ATOM     22  C   UNL A   1      34.476  29.492  27.534  1.00  0.00     0.016 A 
ATOM     23  C   UNL A   1      34.727  31.859  27.904  1.00  0.00     0.016 A 
ATOM     24  C   UNL A   1      35.679  29.266  28.198  1.00  0.00     0.010 A 
ATOM     25  C   UNL A   1      35.976  31.629  28.500  1.00  0.00     0.010 A 
ATOM     26  C   UNL A   1      36.445  30.321  28.711  1.00  0.00    -0.014 A 
BRANCH  26  27
ATOM     27  C   UNL A   1      37.648  30.035  29.556  1.00  0.00     0.031 A 
ATOM     28  C   UNL A   1      38.844  29.326  28.962  1.00  0.00     0.074 A 
ATOM     29  C   UNL A   1      37.738  30.476  30.829  1.00  0.00     0.049 A 
ATOM     30  N   UNL A   1      39.904  28.842  29.563  1.00  0.00    -0.248 NA
ATOM     31  C   UNL A   1      38.846  29.120  27.505  1.00  0.00     0.031 C 
ATOM     32  C   UNL A   1      36.707  31.226  31.548  1.00  0.00     0.029 A 
ATOM     33  N   UNL A   1      38.770  30.392  31.733  1.00  0.00    -0.354 N 
ATOM     34  C   UNL A   1      40.643  28.197  28.578  1.00  0.00     0.074 A 
ATOM     35  C   UNL A   1      39.925  28.370  27.333  1.00  0.00     0.031 C 
ATOM     36  C   UNL A   1      37.192  31.612  32.739  1.00  0.00     0.029 A 
ATOM     37  C   UNL A   1      38.529  31.056  32.912  1.00  0.00     0.049 A 
ATOM     38  H   UNL A   1      39.604  29.900  31.554  1.00  0.00     0.167 HD
ATOM     39  C   UNL A   1      41.810  27.519  28.696  1.00  0.00     0.037 A 
ATOM     40  C   UNL A   1      39.283  31.188  34.019  1.00  0.00     0.037 A 
ATOM     41  C   UNL A   1      42.584  27.426  29.905  1.00  0.00     0.049 A 
ATOM     42  C   UNL A   1      40.604  30.482  34.111  1.00  0.00     0.074 A 
ATOM     43  C   UNL A   1      43.757  26.723  30.131  1.00  0.00     0.029 A 
ATOM     44  N   UNL A   1      42.292  28.100  31.079  1.00  0.00    -0.354 N 
ATOM     45  N   UNL A   1      41.210  29.742  33.216  1.00  0.00    -0.248 NA
ATOM     46  C   UNL A   1      41.331  30.597  35.386  1.00  0.00     0.031 C 
ATOM     47  C   UNL A   1      44.175  26.974  31.444  1.00  0.00     0.029 A 
ATOM     48  C   UNL A   1      43.273  27.848  32.025  1.00  0.00     0.049 A 
ATOM     49  H   UNL A   1      41.504  28.672  31.221  1.00  0.00     0.167 HD
ATOM     50  C   UNL A   1      42.369  29.283  33.826  1.00  0.00     0.074 A 
ATOM     51  C   UNL A   1      42.412  29.869  35.148  1.00  0.00     0.031 C 
ATOM     52  C   UNL A   1      43.301  28.427  33.341  1.00  0.00     0.037 A 
BRANCH  39  53
ATOM     53  C   UNL A   1      42.311  26.790  27.486  1.00  0.00     0.057 A 
ATOM     54  C   UNL A   1      43.112  27.409  26.521  1.00  0.00     0.134 A 
ATOM     55  C   UNL A   1      42.017  25.431  27.311  1.00  0.00     0.134 A 
ATOM     56  F   UNL A   1      43.413  28.712  26.622  1.00  0.00    -0.206 F 
ATOM     57  C   UNL A   1      43.593  26.705  25.414  1.00  0.00     0.040 A 
ATOM     58  C   UNL A   1      42.509  24.711  26.222  1.00  0.00     0.040 A 
ATOM     59  F   UNL A   1      41.259  24.779  28.205  1.00  0.00    -0.206 F 
ATOM     60  C   UNL A   1      43.297  25.350  25.267  1.00  0.00     0.006 A 
ENDBRANCH  39  53
BRANCH  40  61
ATOM     61  C   UNL A   1      38.790  32.000  35.160  1.00  0.00     0.057 A 
ATOM     62  C   UNL A   1      38.958  33.388  35.181  1.00  0.00     0.134 A 
ATOM     63  C   UNL A   1      38.151  31.408  36.256  1.00  0.00     0.134 A 
ATOM     64  F   UNL A   1      39.589  34.007  34.171  1.00  0.00    -0.206 F 
ATOM     65  C   UNL A   1      38.513  34.162  36.254  1.00  0.00     0.040 A 
ATOM     66  C   UNL A   1      37.679  32.171  37.324  1.00  0.00     0.040 A 
ATOM     67  F   UNL A   1      37.964  30.081  36.297  1.00  0.00    -0.206 F 
ATOM     68  C   UNL A   1      37.865  33.553  37.327  1.00  0.00     0.006 A 
ENDBRANCH  40  61
BRANCH  52  69
ATOM     69  C   UNL A   1      44.430  28.065  34.255  1.00  0.00     0.057 A 
ATOM     70  C   UNL A   1      45.635  28.780  34.240  1.00  0.00     0.134 A 
ATOM     71  C   UNL A   1      44.314  27.005  35.161  1.00  0.00     0.134 A 
ATOM     72  F   UNL A   1      45.809  29.799  33.384  1.00  0.00    -0.206 F 
ATOM     73  C   UNL A   1      46.693  28.439  35.081  1.00  0.00     0.040 A 
ATOM     74  C   UNL A   1      45.361  26.665  36.019  1.00  0.00     0.040 A 
ATOM     75  F   UNL A   1      43.184  26.283  35.225  1.00  0.00    -0.206 F 
ATOM     76  C   UNL A   1      46.558  27.379  35.977  1.00  0.00     0.006 A 
ENDBRANCH  52  69
ENDBRANCH  26  27
ENDBRANCH  19  21
ENDBRANCH  18  19
ENDBRANCH  17  18
ENDBRANCH   1  17
TORSDOF 15
ENDMDL
