MODEL 1
REMARK VINA RESULT:     -17.0      0.000      0.000
REMARK SMILES O=C(OCCOC(=O)C1(NC(=O)c2nc(C3CC3)n[nH]2)CCCCC1)c1ccc(-c2c3nc(c(-c4c(F)cccc4F)c4ccc([nH]4)c(-c4c(F)cccc4F)c4nc(c(-c5c(F)cccc5F)c5ccc2[nH]5)C=C4)C=C3)cc1
REMARK SMILES IDX 5 1 4 2 3 3 2 4 1 5 26 6 27 7 79 8 28 9 78 10 29 11 30 12
REMARK SMILES IDX 31 13 72 14 32 15 77 16 71 17 73 18 33 19 76 20 70 21 69 22
REMARK SMILES IDX 34 24 60 25 43 26 59 27 44 28 47 29 58 30 74 31 45 32 46 33
REMARK SMILES IDX 57 35 75 36 48 37 35 38 36 39 41 40 37 41 38 42 40 43 42 44
REMARK SMILES IDX 39 45 61 46 62 47 67 48 63 49 64 50 66 51 68 52 65 53 49 54
REMARK SMILES IDX 50 55 55 56 51 57 52 58 54 59 56 60 53 61 6 62 7 63 8 64
REMARK SMILES IDX 9 65 21 66 25 67 22 68 24 69 23 70 10 71 11 72 12 74 13 75
REMARK SMILES IDX 14 76 20 77 15 78 19 79 16 81 17 82 18 83
REMARK H PARENT 73 23 47 34 10 73 20 80
REMARK Flexibility Score: inf
ROOT
ATOM      1  C   UNL A   1      46.830  39.867  24.267  1.00  0.00     0.274 C 
ENDROOT
BRANCH   1   2
ATOM      2  C   UNL A   1      45.777  39.825  25.869  1.00  0.00     0.275 C 
BRANCH   2   3
ATOM      3  O   UNL A   1      46.323  39.006  27.427  1.00  0.00    -0.458 OA
BRANCH   3   4
ATOM      4  C   UNL A   1      45.825  37.724  28.346  1.00  0.00     0.338 C 
ATOM      5  O   UNL A   1      45.424  37.995  29.480  1.00  0.00    -0.246 OA
BRANCH   4   6
ATOM      6  C   UNL A   1      45.889  35.929  27.912  1.00  0.00     0.060 A 
ATOM      7  C   UNL A   1      45.211  35.030  26.371  1.00  0.00     0.016 A 
ATOM      8  C   UNL A   1      46.379  34.838  29.272  1.00  0.00     0.016 A 
ATOM      9  C   UNL A   1      44.868  33.251  26.350  1.00  0.00     0.010 A 
ATOM     10  C   UNL A   1      46.130  33.028  29.179  1.00  0.00     0.010 A 
ATOM     11  C   UNL A   1      45.344  32.259  27.738  1.00  0.00    -0.014 A 
BRANCH  11  12
ATOM     12  C   UNL A   1      44.996  30.811  27.506  1.00  0.00     0.031 A 
ATOM     13  C   UNL A   1      46.029  29.763  27.216  1.00  0.00     0.074 A 
ATOM     14  C   UNL A   1      43.827  30.334  27.995  1.00  0.00     0.049 A 
ATOM     15  N   UNL A   1      45.872  28.462  27.174  1.00  0.00    -0.248 NA
ATOM     16  C   UNL A   1      47.423  30.196  27.085  1.00  0.00     0.031 C 
ATOM     17  C   UNL A   1      42.919  31.122  28.796  1.00  0.00     0.029 A 
ATOM     18  N   UNL A   1      43.199  29.113  27.989  1.00  0.00    -0.354 N 
ATOM     19  C   UNL A   1      47.143  27.925  27.054  1.00  0.00     0.074 A 
ATOM     20  C   UNL A   1      48.066  29.037  27.017  1.00  0.00     0.031 C 
ATOM     21  C   UNL A   1      41.802  30.470  29.096  1.00  0.00     0.029 A 
ATOM     22  C   UNL A   1      41.917  29.163  28.504  1.00  0.00     0.049 A 
ATOM     23  H   UNL A   1      43.618  28.288  27.654  1.00  0.00     0.167 HD
ATOM     24  C   UNL A   1      47.500  26.621  26.988  1.00  0.00     0.037 A 
ATOM     25  C   UNL A   1      40.905  28.282  28.500  1.00  0.00     0.037 A 
ATOM     26  C   UNL A   1      46.571  25.521  27.029  1.00  0.00     0.049 A 
ATOM     27  C   UNL A   1      41.242  26.900  28.091  1.00  0.00     0.074 A 
ATOM     28  C   UNL A   1      46.826  24.172  26.854  1.00  0.00     0.029 A 
ATOM     29  N   UNL A   1      45.207  25.641  27.258  1.00  0.00    -0.354 N 
ATOM     30  N   UNL A   1      42.431  26.421  27.827  1.00  0.00    -0.248 NA
ATOM     31  C   UNL A   1      40.153  25.928  28.022  1.00  0.00     0.031 C 
ATOM     32  C   UNL A   1      45.608  23.486  26.907  1.00  0.00     0.029 A 
ATOM     33  C   UNL A   1      44.597  24.399  27.159  1.00  0.00     0.049 A 
ATOM     34  H   UNL A   1      44.741  26.485  27.460  1.00  0.00     0.167 HD
ATOM     35  C   UNL A   1      42.246  25.077  27.593  1.00  0.00     0.074 A 
ATOM     36  C   UNL A   1      40.826  24.818  27.752  1.00  0.00     0.031 C 
ATOM     37  C   UNL A   1      43.183  24.151  27.291  1.00  0.00     0.037 A 
BRANCH  24  38
ATOM     38  C   UNL A   1      48.950  26.330  26.744  1.00  0.00     0.057 A 
ATOM     39  C   UNL A   1      49.860  26.086  27.779  1.00  0.00     0.134 A 
ATOM     40  C   UNL A   1      49.436  26.300  25.431  1.00  0.00     0.134 A 
ATOM     41  F   UNL A   1      49.463  26.125  29.060  1.00  0.00    -0.206 F 
ATOM     42  C   UNL A   1      51.209  25.832  27.514  1.00  0.00     0.040 A 
ATOM     43  C   UNL A   1      50.776  26.032  25.154  1.00  0.00     0.040 A 
ATOM     44  F   UNL A   1      48.614  26.533  24.398  1.00  0.00    -0.206 F 
ATOM     45  C   UNL A   1      51.668  25.801  26.197  1.00  0.00     0.006 A 
ENDBRANCH  24  38
BRANCH  25  46
ATOM     46  C   UNL A   1      39.525  28.728  28.825  1.00  0.00     0.057 A 
ATOM     47  C   UNL A   1      38.954  28.578  30.091  1.00  0.00     0.134 A 
ATOM     48  C   UNL A   1      38.731  29.331  27.833  1.00  0.00     0.134 A 
ATOM     49  F   UNL A   1      39.656  28.019  31.087  1.00  0.00    -0.206 F 
ATOM     50  C   UNL A   1      37.639  28.979  30.350  1.00  0.00     0.040 A 
ATOM     51  C   UNL A   1      37.428  29.757  28.084  1.00  0.00     0.040 A 
ATOM     52  F   UNL A   1      39.222  29.525  26.598  1.00  0.00    -0.206 F 
ATOM     53  C   UNL A   1      36.873  29.569  29.346  1.00  0.00     0.006 A 
ENDBRANCH  25  46
BRANCH  37  54
ATOM     54  C   UNL A   1      42.679  22.762  27.099  1.00  0.00     0.057 A 
ATOM     55  C   UNL A   1      42.356  21.949  28.192  1.00  0.00     0.134 A 
ATOM     56  C   UNL A   1      42.527  22.228  25.815  1.00  0.00     0.134 A 
ATOM     57  F   UNL A   1      42.516  22.401  29.445  1.00  0.00    -0.206 F 
ATOM     58  C   UNL A   1      41.914  20.641  28.014  1.00  0.00     0.040 A 
ATOM     59  C   UNL A   1      42.060  20.930  25.624  1.00  0.00     0.040 A 
ATOM     60  F   UNL A   1      42.830  22.959  24.731  1.00  0.00    -0.206 F 
ATOM     61  C   UNL A   1      41.759  20.131  26.726  1.00  0.00     0.006 A 
ENDBRANCH  37  54
ENDBRANCH  11  12
ENDBRANCH   4   6
ENDBRANCH   3   4
ENDBRANCH   2   3
ENDBRANCH   1   2
BRANCH   1  62
ATOM     62  O   UNL A   1      47.145  41.185  23.076  1.00  0.00    -0.460 OA
BRANCH  62  63
ATOM     63  C   UNL A   1      46.829  41.856  21.769  1.00  0.00     0.331 C 
ATOM     64  O   UNL A   1      47.397  41.359  20.781  1.00  0.00    -0.249 OA
BRANCH  63  65
ATOM     65  C   UNL A   1      45.726  43.342  21.410  1.00  0.00     0.138 C 
ATOM     66  C   UNL A   1      46.484  44.410  22.311  1.00  0.00     0.040 C 
ATOM     67  C   UNL A   1      45.987  44.015  19.975  1.00  0.00     0.040 C 
ATOM     68  C   UNL A   1      45.985  45.857  22.265  1.00  0.00     0.003 C 
ATOM     69  C   UNL A   1      45.518  45.494  19.830  1.00  0.00     0.003 C 
ATOM     70  C   UNL A   1      46.084  46.443  20.876  1.00  0.00     0.000 C 
BRANCH  65  71
ATOM     71  N   UNL A   1      43.905  43.586  21.636  1.00  0.00    -0.333 N 
ATOM     72  C   UNL A   1      42.342  43.562  20.418  1.00  0.00     0.289 C 
ATOM     73  H   UNL A   1      43.658  43.769  22.571  1.00  0.00     0.165 HD
ATOM     74  O   UNL A   1      41.151  43.881  20.645  1.00  0.00    -0.266 OA
BRANCH  72  75
ATOM     75  C   UNL A   1      42.324  43.221  18.716  1.00  0.00     0.214 A 
ATOM     76  N   UNL A   1      43.094  43.793  17.749  1.00  0.00    -0.207 NA
ATOM     77  N   UNL A   1      41.101  43.282  18.100  1.00  0.00    -0.255 N 
ATOM     78  C   UNL A   1      42.397  44.977  17.577  1.00  0.00     0.154 A 
ATOM     79  N   UNL A   1      41.105  44.450  17.404  1.00  0.00    -0.158 NA
ATOM     80  H   UNL A   1      40.374  42.620  18.150  1.00  0.00     0.192 HD
BRANCH  78  81
ATOM     81  C   UNL A   1      42.916  46.939  17.977  1.00  0.00     0.060 C 
ATOM     82  C   UNL A   1      43.696  48.229  17.451  1.00  0.00     0.012 C 
ATOM     83  C   UNL A   1      42.260  48.359  17.340  1.00  0.00     0.012 C 
ENDBRANCH  78  81
ENDBRANCH  72  75
ENDBRANCH  65  71
ENDBRANCH  63  65
ENDBRANCH  62  63
ENDBRANCH   1  62
TORSDOF 14
ENDMDL
MODEL 2
REMARK VINA RESULT:     -17.0      7.044      9.304
REMARK SMILES O=C(OCCOC(=O)C1(NC(=O)c2nc(C3CC3)n[nH]2)CCCCC1)c1ccc(-c2c3nc(c(-c4c(F)cccc4F)c4ccc([nH]4)c(-c4c(F)cccc4F)c4nc(c(-c5c(F)cccc5F)c5ccc2[nH]5)C=C4)C=C3)cc1
REMARK SMILES IDX 5 1 4 2 3 3 2 4 1 5 26 6 27 7 79 8 28 9 78 10 29 11 30 12
REMARK SMILES IDX 31 13 72 14 32 15 77 16 71 17 73 18 33 19 76 20 70 21 69 22
REMARK SMILES IDX 34 24 60 25 43 26 59 27 44 28 47 29 58 30 74 31 45 32 46 33
REMARK SMILES IDX 57 35 75 36 48 37 35 38 36 39 41 40 37 41 38 42 40 43 42 44
REMARK SMILES IDX 39 45 61 46 62 47 67 48 63 49 64 50 66 51 68 52 65 53 49 54
REMARK SMILES IDX 50 55 55 56 51 57 52 58 54 59 56 60 53 61 6 62 7 63 8 64
REMARK SMILES IDX 9 65 21 66 25 67 22 68 24 69 23 70 10 71 11 72 12 74 13 75
REMARK SMILES IDX 14 76 20 77 15 78 19 79 16 81 17 82 18 83
REMARK H PARENT 73 23 47 34 10 73 20 80
REMARK Flexibility Score: inf
ROOT
ATOM      1  C   UNL A   1      43.381  35.849  34.217  1.00  0.00     0.274 C 
ENDROOT
BRANCH   1   2
ATOM      2  C   UNL A   1      43.282  37.656  33.581  1.00  0.00     0.275 C 
BRANCH   2   3
ATOM      3  O   UNL A   1      44.466  38.375  32.365  1.00  0.00    -0.458 OA
BRANCH   3   4
ATOM      4  C   UNL A   1      45.124  37.918  30.918  1.00  0.00     0.338 C 
ATOM      5  O   UNL A   1      45.471  38.835  30.169  1.00  0.00    -0.246 OA
BRANCH   4   6
ATOM      6  C   UNL A   1      45.312  36.205  30.252  1.00  0.00     0.060 A 
ATOM      7  C   UNL A   1      44.846  35.515  28.535  1.00  0.00     0.016 A 
ATOM      8  C   UNL A   1      45.695  34.947  31.497  1.00  0.00     0.016 A 
ATOM      9  C   UNL A   1      44.583  33.748  28.231  1.00  0.00     0.010 A 
ATOM     10  C   UNL A   1      45.535  33.162  31.128  1.00  0.00     0.010 A 
ATOM     11  C   UNL A   1      44.945  32.583  29.514  1.00  0.00    -0.014 A 
BRANCH  11  12
ATOM     12  C   UNL A   1      44.687  31.174  29.048  1.00  0.00     0.031 A 
ATOM     13  C   UNL A   1      45.786  30.178  28.824  1.00  0.00     0.074 A 
ATOM     14  C   UNL A   1      43.464  30.631  29.254  1.00  0.00     0.049 A 
ATOM     15  N   UNL A   1      45.677  28.891  28.595  1.00  0.00    -0.248 NA
ATOM     16  C   UNL A   1      47.167  30.632  29.002  1.00  0.00     0.031 C 
ATOM     17  C   UNL A   1      42.405  31.307  29.967  1.00  0.00     0.029 A 
ATOM     18  N   UNL A   1      42.883  29.417  28.984  1.00  0.00    -0.354 N 
ATOM     19  C   UNL A   1      46.964  28.381  28.643  1.00  0.00     0.074 A 
ATOM     20  C   UNL A   1      47.846  29.495  28.911  1.00  0.00     0.031 C 
ATOM     21  C   UNL A   1      41.271  30.614  29.977  1.00  0.00     0.029 A 
ATOM     22  C   UNL A   1      41.528  29.393  29.260  1.00  0.00     0.049 A 
ATOM     23  H   UNL A   1      43.380  28.644  28.633  1.00  0.00     0.167 HD
ATOM     24  C   UNL A   1      47.365  27.099  28.484  1.00  0.00     0.037 A 
ATOM     25  C   UNL A   1      40.560  28.514  28.964  1.00  0.00     0.037 A 
ATOM     26  C   UNL A   1      46.476  25.996  28.220  1.00  0.00     0.049 A 
ATOM     27  C   UNL A   1      41.005  27.196  28.457  1.00  0.00     0.074 A 
ATOM     28  C   UNL A   1      46.797  24.681  27.931  1.00  0.00     0.029 A 
ATOM     29  N   UNL A   1      45.090  26.078  28.211  1.00  0.00    -0.354 N 
ATOM     30  N   UNL A   1      42.236  26.762  28.357  1.00  0.00    -0.248 NA
ATOM     31  C   UNL A   1      39.974  26.233  28.072  1.00  0.00     0.031 C 
ATOM     32  C   UNL A   1      45.610  23.986  27.677  1.00  0.00     0.029 A 
ATOM     33  C   UNL A   1      44.544  24.854  27.851  1.00  0.00     0.049 A 
ATOM     34  H   UNL A   1      44.571  26.886  28.426  1.00  0.00     0.167 HD
ATOM     35  C   UNL A   1      42.135  25.457  27.930  1.00  0.00     0.074 A 
ATOM     36  C   UNL A   1      40.717  25.170  27.795  1.00  0.00     0.031 C 
ATOM     37  C   UNL A   1      43.138  24.582  27.693  1.00  0.00     0.037 A 
BRANCH  24  38
ATOM     38  C   UNL A   1      48.843  26.850  28.474  1.00  0.00     0.057 A 
ATOM     39  C   UNL A   1      49.633  27.008  27.329  1.00  0.00     0.134 A 
ATOM     40  C   UNL A   1      49.480  26.438  29.651  1.00  0.00     0.134 A 
ATOM     41  F   UNL A   1      49.079  27.376  26.164  1.00  0.00    -0.206 F 
ATOM     42  C   UNL A   1      51.006  26.752  27.355  1.00  0.00     0.040 A 
ATOM     43  C   UNL A   1      50.853  26.195  29.693  1.00  0.00     0.040 A 
ATOM     44  F   UNL A   1      48.775  26.262  30.778  1.00  0.00    -0.206 F 
ATOM     45  C   UNL A   1      51.620  26.348  28.540  1.00  0.00     0.006 A 
ENDBRANCH  24  38
BRANCH  25  46
ATOM     46  C   UNL A   1      39.131  28.906  29.085  1.00  0.00     0.057 A 
ATOM     47  C   UNL A   1      38.400  29.458  28.031  1.00  0.00     0.134 A 
ATOM     48  C   UNL A   1      38.457  28.727  30.307  1.00  0.00     0.134 A 
ATOM     49  F   UNL A   1      38.976  29.649  26.836  1.00  0.00    -0.206 F 
ATOM     50  C   UNL A   1      37.067  29.847  28.194  1.00  0.00     0.040 A 
ATOM     51  C   UNL A   1      37.122  29.088  30.476  1.00  0.00     0.040 A 
ATOM     52  F   UNL A   1      39.092  28.184  31.358  1.00  0.00    -0.206 F 
ATOM     53  C   UNL A   1      36.425  29.663  29.418  1.00  0.00     0.006 A 
ENDBRANCH  25  46
BRANCH  37  54
ATOM     54  C   UNL A   1      42.717  23.225  27.243  1.00  0.00     0.057 A 
ATOM     55  C   UNL A   1      42.320  22.247  28.162  1.00  0.00     0.134 A 
ATOM     56  C   UNL A   1      42.720  22.889  25.885  1.00  0.00     0.134 A 
ATOM     57  F   UNL A   1      42.332  22.507  29.478  1.00  0.00    -0.206 F 
ATOM     58  C   UNL A   1      41.956  20.969  27.745  1.00  0.00     0.040 A 
ATOM     59  C   UNL A   1      42.332  21.623  25.454  1.00  0.00     0.040 A 
ATOM     60  F   UNL A   1      43.100  23.785  24.961  1.00  0.00    -0.206 F 
ATOM     61  C   UNL A   1      41.955  20.657  26.387  1.00  0.00     0.006 A 
ENDBRANCH  37  54
ENDBRANCH  11  12
ENDBRANCH   4   6
ENDBRANCH   3   4
ENDBRANCH   2   3
ENDBRANCH   1   2
BRANCH   1  62
ATOM     62  O   UNL A   1      42.588  34.334  33.644  1.00  0.00    -0.460 OA
BRANCH  62  63
ATOM     63  C   UNL A   1      41.347  33.503  33.475  1.00  0.00     0.331 C 
ATOM     64  O   UNL A   1      41.346  32.437  34.114  1.00  0.00    -0.249 OA
BRANCH  63  65
ATOM     65  C   UNL A   1      39.813  33.824  32.426  1.00  0.00     0.138 C 
ATOM     66  C   UNL A   1      40.544  34.195  31.064  1.00  0.00     0.040 C 
ATOM     67  C   UNL A   1      39.067  32.487  31.939  1.00  0.00     0.040 C 
ATOM     68  C   UNL A   1      39.665  34.453  29.837  1.00  0.00     0.003 C 
ATOM     69  C   UNL A   1      38.152  32.647  30.688  1.00  0.00     0.003 C 
ATOM     70  C   UNL A   1      38.840  33.241  29.469  1.00  0.00     0.000 C 
BRANCH  65  71
ATOM     71  N   UNL A   1      38.404  35.000  32.663  1.00  0.00    -0.333 N 
ATOM     72  C   UNL A   1      36.497  34.795  33.164  1.00  0.00     0.289 C 
ATOM     73  H   UNL A   1      38.659  35.937  32.505  1.00  0.00     0.165 HD
ATOM     74  O   UNL A   1      35.578  35.647  33.162  1.00  0.00    -0.266 OA
BRANCH  72  75
ATOM     75  C   UNL A   1      35.658  33.335  33.584  1.00  0.00     0.214 A 
ATOM     76  N   UNL A   1      35.579  32.187  32.855  1.00  0.00    -0.207 NA
ATOM     77  N   UNL A   1      34.341  33.474  33.935  1.00  0.00    -0.255 N 
ATOM     78  C   UNL A   1      34.596  32.560  31.954  1.00  0.00     0.154 A 
ATOM     79  N   UNL A   1      33.632  33.034  32.862  1.00  0.00    -0.158 NA
ATOM     80  H   UNL A   1      33.983  33.819  34.785  1.00  0.00     0.192 HD
BRANCH  78  81
ATOM     81  C   UNL A   1      34.660  32.865  29.909  1.00  0.00     0.060 C 
ATOM     82  C   UNL A   1      33.993  33.615  28.667  1.00  0.00     0.012 C 
ATOM     83  C   UNL A   1      35.261  34.193  29.055  1.00  0.00     0.012 C 
ENDBRANCH  78  81
ENDBRANCH  72  75
ENDBRANCH  65  71
ENDBRANCH  63  65
ENDBRANCH  62  63
ENDBRANCH   1  62
TORSDOF 14
ENDMDL
MODEL 3
REMARK VINA RESULT:     -16.8      1.560      2.150
REMARK SMILES O=C(OCCOC(=O)C1(NC(=O)c2nc(C3CC3)n[nH]2)CCCCC1)c1ccc(-c2c3nc(c(-c4c(F)cccc4F)c4ccc([nH]4)c(-c4c(F)cccc4F)c4nc(c(-c5c(F)cccc5F)c5ccc2[nH]5)C=C4)C=C3)cc1
REMARK SMILES IDX 5 1 4 2 3 3 2 4 1 5 26 6 27 7 79 8 28 9 78 10 29 11 30 12
REMARK SMILES IDX 31 13 72 14 32 15 77 16 71 17 73 18 33 19 76 20 70 21 69 22
REMARK SMILES IDX 34 24 60 25 43 26 59 27 44 28 47 29 58 30 74 31 45 32 46 33
REMARK SMILES IDX 57 35 75 36 48 37 35 38 36 39 41 40 37 41 38 42 40 43 42 44
REMARK SMILES IDX 39 45 61 46 62 47 67 48 63 49 64 50 66 51 68 52 65 53 49 54
REMARK SMILES IDX 50 55 55 56 51 57 52 58 54 59 56 60 53 61 6 62 7 63 8 64
REMARK SMILES IDX 9 65 21 66 25 67 22 68 24 69 23 70 10 71 11 72 12 74 13 75
REMARK SMILES IDX 14 76 20 77 15 78 19 79 16 81 17 82 18 83
REMARK H PARENT 73 23 47 34 10 73 20 80
REMARK Flexibility Score: inf
ROOT
ATOM      1  C   UNL A   1      41.660  40.487  26.272  1.00  0.00     0.274 C 
ENDROOT
BRANCH   1   2
ATOM      2  C   UNL A   1      42.077  39.158  27.591  1.00  0.00     0.275 C 
BRANCH   2   3
ATOM      3  O   UNL A   1      43.629  39.160  28.585  1.00  0.00    -0.458 OA
BRANCH   3   4
ATOM      4  C   UNL A   1      44.960  38.189  28.731  1.00  0.00     0.338 C 
ATOM      5  O   UNL A   1      45.986  38.737  29.143  1.00  0.00    -0.246 OA
BRANCH   4   6
ATOM      6  C   UNL A   1      45.119  36.409  28.261  1.00  0.00     0.060 A 
ATOM      7  C   UNL A   1      44.499  35.510  26.697  1.00  0.00     0.016 A 
ATOM      8  C   UNL A   1      45.654  35.317  29.603  1.00  0.00     0.016 A 
ATOM      9  C   UNL A   1      44.247  33.716  26.637  1.00  0.00     0.010 A 
ATOM     10  C   UNL A   1      45.498  33.499  29.471  1.00  0.00     0.010 A 
ATOM     11  C   UNL A   1      44.763  32.720  28.008  1.00  0.00    -0.014 A 
BRANCH  11  12
ATOM     12  C   UNL A   1      44.491  31.263  27.744  1.00  0.00     0.031 A 
ATOM     13  C   UNL A   1      45.561  30.299  27.323  1.00  0.00     0.074 A 
ATOM     14  C   UNL A   1      43.402  30.688  28.308  1.00  0.00     0.049 A 
ATOM     15  N   UNL A   1      45.486  28.993  27.238  1.00  0.00    -0.248 NA
ATOM     16  C   UNL A   1      46.907  30.831  27.094  1.00  0.00     0.031 C 
ATOM     17  C   UNL A   1      42.518  31.382  29.215  1.00  0.00     0.029 A 
ATOM     18  N   UNL A   1      42.857  29.429  28.302  1.00  0.00    -0.354 N 
ATOM     19  C   UNL A   1      46.774  28.549  26.988  1.00  0.00     0.074 A 
ATOM     20  C   UNL A   1      47.616  29.722  26.922  1.00  0.00     0.031 C 
ATOM     21  C   UNL A   1      41.476  30.643  29.580  1.00  0.00     0.029 A 
ATOM     22  C   UNL A   1      41.624  29.371  28.924  1.00  0.00     0.049 A 
ATOM     23  H   UNL A   1      43.298  28.647  27.898  1.00  0.00     0.167 HD
ATOM     24  C   UNL A   1      47.208  27.276  26.836  1.00  0.00     0.037 A 
ATOM     25  C   UNL A   1      40.675  28.423  28.967  1.00  0.00     0.037 A 
ATOM     26  C   UNL A   1      46.360  26.114  26.907  1.00  0.00     0.049 A 
ATOM     27  C   UNL A   1      41.065  27.084  28.473  1.00  0.00     0.074 A 
ATOM     28  C   UNL A   1      46.685  24.793  26.654  1.00  0.00     0.029 A 
ATOM     29  N   UNL A   1      45.016  26.132  27.256  1.00  0.00    -0.354 N 
ATOM     30  N   UNL A   1      42.255  26.698  28.089  1.00  0.00    -0.248 NA
ATOM     31  C   UNL A   1      40.038  26.043  28.453  1.00  0.00     0.031 C 
ATOM     32  C   UNL A   1      45.523  24.024  26.779  1.00  0.00     0.029 A 
ATOM     33  C   UNL A   1      44.481  24.855  27.155  1.00  0.00     0.049 A 
ATOM     34  H   UNL A   1      44.514  26.933  27.532  1.00  0.00     0.167 HD
ATOM     35  C   UNL A   1      42.138  25.354  27.814  1.00  0.00     0.074 A 
ATOM     36  C   UNL A   1      40.757  24.992  28.079  1.00  0.00     0.031 C 
ATOM     37  C   UNL A   1      43.103  24.507  27.395  1.00  0.00     0.037 A 
BRANCH  24  38
ATOM     38  C   UNL A   1      48.647  27.094  26.459  1.00  0.00     0.057 A 
ATOM     39  C   UNL A   1      49.685  27.102  27.398  1.00  0.00     0.134 A 
ATOM     40  C   UNL A   1      48.990  26.910  25.114  1.00  0.00     0.134 A 
ATOM     41  F   UNL A   1      49.426  27.298  28.699  1.00  0.00    -0.206 F 
ATOM     42  C   UNL A   1      51.017  26.943  27.007  1.00  0.00     0.040 A 
ATOM     43  C   UNL A   1      50.314  26.735  24.714  1.00  0.00     0.040 A 
ATOM     44  F   UNL A   1      48.039  26.901  24.167  1.00  0.00    -0.206 F 
ATOM     45  C   UNL A   1      51.334  26.755  25.662  1.00  0.00     0.006 A 
ENDBRANCH  24  38
BRANCH  25  46
ATOM     46  C   UNL A   1      39.302  28.761  29.427  1.00  0.00     0.057 A 
ATOM     47  C   UNL A   1      38.857  28.533  30.731  1.00  0.00     0.134 A 
ATOM     48  C   UNL A   1      38.385  29.337  28.529  1.00  0.00     0.134 A 
ATOM     49  F   UNL A   1      39.680  27.996  31.642  1.00  0.00    -0.206 F 
ATOM     50  C   UNL A   1      37.546  28.833  31.117  1.00  0.00     0.040 A 
ATOM     51  C   UNL A   1      37.083  29.662  28.907  1.00  0.00     0.040 A 
ATOM     52  F   UNL A   1      38.750  29.603  27.264  1.00  0.00    -0.206 F 
ATOM     53  C   UNL A   1      36.656  29.398  30.204  1.00  0.00     0.006 A 
ENDBRANCH  25  46
BRANCH  37  54
ATOM     54  C   UNL A   1      42.676  23.094  27.185  1.00  0.00     0.057 A 
ATOM     55  C   UNL A   1      42.462  22.584  25.899  1.00  0.00     0.134 A 
ATOM     56  C   UNL A   1      42.464  22.243  28.274  1.00  0.00     0.134 A 
ATOM     57  F   UNL A   1      42.618  23.369  24.822  1.00  0.00    -0.206 F 
ATOM     58  C   UNL A   1      42.033  21.274  25.703  1.00  0.00     0.040 A 
ATOM     59  C   UNL A   1      42.060  20.922  28.089  1.00  0.00     0.040 A 
ATOM     60  F   UNL A   1      42.644  22.681  29.529  1.00  0.00    -0.206 F 
ATOM     61  C   UNL A   1      41.838  20.437  26.801  1.00  0.00     0.006 A 
ENDBRANCH  37  54
ENDBRANCH  11  12
ENDBRANCH   4   6
ENDBRANCH   3   4
ENDBRANCH   2   3
ENDBRANCH   1   2
BRANCH   1  62
ATOM     62  O   UNL A   1      42.671  41.263  24.995  1.00  0.00    -0.460 OA
BRANCH  62  63
ATOM     63  C   UNL A   1      42.871  42.361  23.988  1.00  0.00     0.331 C 
ATOM     64  O   UNL A   1      41.837  42.717  23.397  1.00  0.00    -0.249 OA
BRANCH  63  65
ATOM     65  C   UNL A   1      44.450  43.256  23.475  1.00  0.00     0.138 C 
ATOM     66  C   UNL A   1      44.477  44.347  24.631  1.00  0.00     0.040 C 
ATOM     67  C   UNL A   1      45.797  42.470  23.858  1.00  0.00     0.040 C 
ATOM     68  C   UNL A   1      45.684  45.288  24.687  1.00  0.00     0.003 C 
ATOM     69  C   UNL A   1      47.083  43.345  23.947  1.00  0.00     0.003 C 
ATOM     70  C   UNL A   1      46.978  44.533  24.891  1.00  0.00     0.000 C 
BRANCH  65  71
ATOM     71  N   UNL A   1      44.913  44.086  21.888  1.00  0.00    -0.333 N 
ATOM     72  C   UNL A   1      44.195  44.045  20.040  1.00  0.00     0.289 C 
ATOM     73  H   UNL A   1      45.691  44.682  21.982  1.00  0.00     0.165 HD
ATOM     74  O   UNL A   1      44.669  44.540  18.991  1.00  0.00    -0.266 OA
BRANCH  72  75
ATOM     75  C   UNL A   1      42.808  43.180  19.457  1.00  0.00     0.214 A 
ATOM     76  N   UNL A   1      42.188  43.324  18.254  1.00  0.00    -0.207 NA
ATOM     77  N   UNL A   1      41.712  43.172  20.280  1.00  0.00    -0.255 N 
ATOM     78  C   UNL A   1      41.439  44.459  18.521  1.00  0.00     0.154 A 
ATOM     79  N   UNL A   1      40.833  44.046  19.721  1.00  0.00    -0.158 NA
ATOM     80  H   UNL A   1      41.586  42.643  21.101  1.00  0.00     0.192 HD
BRANCH  78  81
ATOM     81  C   UNL A   1      41.544  46.377  17.755  1.00  0.00     0.060 C 
ATOM     82  C   UNL A   1      42.457  47.674  17.569  1.00  0.00     0.012 C 
ATOM     83  C   UNL A   1      42.306  46.916  16.347  1.00  0.00     0.012 C 
ENDBRANCH  78  81
ENDBRANCH  72  75
ENDBRANCH  65  71
ENDBRANCH  63  65
ENDBRANCH  62  63
ENDBRANCH   1  62
TORSDOF 14
ENDMDL
