MODEL 1
REMARK VINA RESULT:     -11.2      0.000      0.000
REMARK SMILES C[C@@H](C(=O)OCCOC(=O)c1ccc(-c2c3nc(c(-c4c(F)cccc4F)c4ccc([nH]4)c(-c4c(F)cccc4F)c4nc(c(-c5c(F)cccc5F)c5ccc2[nH]5)C=C4)C=C3)cc1)c1ccc(Cc2ccoc2)cc1F
REMARK SMILES IDX 6 1 5 2 3 3 4 4 2 5 1 6 65 7 66 8 76 9 67 10 75 11 77 12
REMARK SMILES IDX 68 13 69 14 70 15 71 16 74 17 72 18 73 19 7 20 8 21 9 22
REMARK SMILES IDX 10 23 11 24 12 25 64 26 13 27 63 28 14 29 15 30 16 31 57 32
REMARK SMILES IDX 17 33 62 34 56 35 58 36 18 37 61 38 55 39 54 40 19 42 45 43
REMARK SMILES IDX 28 44 44 45 29 46 32 47 43 48 59 49 30 50 31 51 42 53 60 54
REMARK SMILES IDX 33 55 20 56 21 57 26 58 22 59 23 60 25 61 27 62 24 63 46 64
REMARK SMILES IDX 47 65 52 66 48 67 49 68 51 69 53 70 50 71 34 72 35 73 40 74
REMARK SMILES IDX 36 75 37 76 39 77 41 78 38 79
REMARK H PARENT 58 41 32 52
REMARK Flexibility Score: inf
ROOT
ATOM      1  C   UNL A   1      37.728  20.581  25.069  1.00  0.00     0.274 C 
ENDROOT
BRANCH   1   2
ATOM      2  O   UNL A   1      38.069  21.728  25.877  1.00  0.00    -0.462 OA
BRANCH   2   3
ATOM      3  C   UNL A   1      37.537  22.920  25.480  1.00  0.00     0.313 C 
ATOM      4  O   UNL A   1      38.043  23.994  25.783  1.00  0.00    -0.252 OA
BRANCH   3   5
ATOM      5  C   UNL A   1      36.193  22.748  24.715  1.00  0.00     0.129 C 
ATOM      6  C   UNL A   1      36.421  22.995  23.214  1.00  0.00     0.025 C 
BRANCH   5   7
ATOM      7  C   UNL A   1      35.044  23.573  25.331  1.00  0.00     0.002 A 
ATOM      8  C   UNL A   1      34.948  24.947  25.056  1.00  0.00     0.008 A 
ATOM      9  C   UNL A   1      34.029  23.044  26.139  1.00  0.00     0.127 A 
ATOM     10  C   UNL A   1      33.807  25.692  25.390  1.00  0.00     0.004 A 
ATOM     11  C   UNL A   1      32.910  23.799  26.522  1.00  0.00     0.043 A 
ATOM     12  F   UNL A   1      34.049  21.762  26.527  1.00  0.00    -0.207 F 
ATOM     13  C   UNL A   1      32.748  25.129  26.106  1.00  0.00    -0.041 A 
BRANCH  13  14
ATOM     14  C   UNL A   1      31.383  25.778  26.243  1.00  0.00     0.074 C 
BRANCH  14  15
ATOM     15  C   UNL A   1      31.471  27.260  26.389  1.00  0.00    -0.005 A 
ATOM     16  C   UNL A   1      31.865  28.034  27.520  1.00  0.00     0.046 A 
ATOM     17  C   UNL A   1      31.352  28.181  25.365  1.00  0.00     0.198 A 
ATOM     18  C   UNL A   1      31.902  29.346  27.118  1.00  0.00     0.195 A 
ATOM     19  O   UNL A   1      31.593  29.442  25.804  1.00  0.00    -0.472 OA
ENDBRANCH  14  15
ENDBRANCH  13  14
ENDBRANCH   5   7
ENDBRANCH   3   5
ENDBRANCH   2   3
ENDBRANCH   1   2
BRANCH   1  20
ATOM     20  C   UNL A   1      38.881  19.579  24.928  1.00  0.00     0.275 C 
BRANCH  20  21
ATOM     21  O   UNL A   1      39.580  19.375  26.172  1.00  0.00    -0.458 OA
BRANCH  21  22
ATOM     22  C   UNL A   1      40.916  19.566  26.116  1.00  0.00     0.338 C 
ATOM     23  O   UNL A   1      41.733  18.859  25.539  1.00  0.00    -0.246 OA
BRANCH  22  24
ATOM     24  C   UNL A   1      41.274  20.876  26.692  1.00  0.00     0.060 A 
ATOM     25  C   UNL A   1      41.665  21.866  25.792  1.00  0.00     0.016 A 
ATOM     26  C   UNL A   1      41.281  21.135  28.065  1.00  0.00     0.016 A 
ATOM     27  C   UNL A   1      42.027  23.128  26.249  1.00  0.00     0.010 A 
ATOM     28  C   UNL A   1      41.673  22.404  28.528  1.00  0.00     0.010 A 
ATOM     29  C   UNL A   1      42.040  23.410  27.618  1.00  0.00    -0.014 A 
BRANCH  29  30
ATOM     30  C   UNL A   1      42.517  24.745  28.053  1.00  0.00     0.031 A 
ATOM     31  C   UNL A   1      41.518  25.824  28.354  1.00  0.00     0.074 A 
ATOM     32  C   UNL A   1      43.824  24.958  28.294  1.00  0.00     0.049 A 
ATOM     33  N   UNL A   1      41.719  27.040  28.791  1.00  0.00    -0.248 NA
ATOM     34  C   UNL A   1      40.103  25.478  28.154  1.00  0.00     0.031 C 
ATOM     35  C   UNL A   1      44.882  23.963  28.141  1.00  0.00     0.029 A 
ATOM     36  N   UNL A   1      44.476  26.077  28.754  1.00  0.00    -0.354 N 
ATOM     37  C   UNL A   1      40.460  27.615  28.899  1.00  0.00     0.074 A 
ATOM     38  C   UNL A   1      39.500  26.607  28.501  1.00  0.00     0.031 C 
ATOM     39  C   UNL A   1      46.051  24.510  28.518  1.00  0.00     0.029 A 
ATOM     40  C   UNL A   1      45.830  25.899  28.917  1.00  0.00     0.049 A 
ATOM     41  H   UNL A   1      44.018  26.925  28.948  1.00  0.00     0.167 HD
ATOM     42  C   UNL A   1      40.135  28.874  29.275  1.00  0.00     0.037 A 
ATOM     43  C   UNL A   1      46.778  26.762  29.335  1.00  0.00     0.037 A 
ATOM     44  C   UNL A   1      41.085  29.888  29.650  1.00  0.00     0.049 A 
ATOM     45  C   UNL A   1      46.392  28.180  29.670  1.00  0.00     0.074 A 
ATOM     46  C   UNL A   1      40.845  31.208  29.995  1.00  0.00     0.029 A 
ATOM     47  N   UNL A   1      42.455  29.699  29.723  1.00  0.00    -0.354 N 
ATOM     48  N   UNL A   1      45.202  28.724  29.735  1.00  0.00    -0.248 NA
ATOM     49  C   UNL A   1      47.492  29.114  29.965  1.00  0.00     0.031 C 
ATOM     50  C   UNL A   1      42.076  31.829  30.231  1.00  0.00     0.029 A 
ATOM     51  C   UNL A   1      43.077  30.883  30.080  1.00  0.00     0.049 A 
ATOM     52  H   UNL A   1      42.918  28.848  29.546  1.00  0.00     0.167 HD
ATOM     53  C   UNL A   1      45.409  30.054  30.085  1.00  0.00     0.074 A 
ATOM     54  C   UNL A   1      46.835  30.229  30.250  1.00  0.00     0.031 C 
ATOM     55  C   UNL A   1      44.498  31.046  30.244  1.00  0.00     0.037 A 
BRANCH  42  56
ATOM     56  C   UNL A   1      38.686  29.247  29.221  1.00  0.00     0.057 A 
ATOM     57  C   UNL A   1      37.865  29.209  30.354  1.00  0.00     0.134 A 
ATOM     58  C   UNL A   1      38.109  29.665  28.015  1.00  0.00     0.134 A 
ATOM     59  F   UNL A   1      38.354  28.798  31.534  1.00  0.00    -0.206 F 
ATOM     60  C   UNL A   1      36.516  29.558  30.285  1.00  0.00     0.040 A 
ATOM     61  C   UNL A   1      36.768  30.036  27.937  1.00  0.00     0.040 A 
ATOM     62  F   UNL A   1      38.845  29.721  26.894  1.00  0.00    -0.206 F 
ATOM     63  C   UNL A   1      35.965  29.978  29.075  1.00  0.00     0.006 A 
ENDBRANCH  42  56
BRANCH  43  64
ATOM     64  C   UNL A   1      48.199  26.337  29.443  1.00  0.00     0.057 A 
ATOM     65  C   UNL A   1      48.699  25.787  30.630  1.00  0.00     0.134 A 
ATOM     66  C   UNL A   1      49.105  26.526  28.394  1.00  0.00     0.134 A 
ATOM     67  F   UNL A   1      47.893  25.619  31.688  1.00  0.00    -0.206 F 
ATOM     68  C   UNL A   1      50.047  25.448  30.773  1.00  0.00     0.040 A 
ATOM     69  C   UNL A   1      50.450  26.170  28.513  1.00  0.00     0.040 A 
ATOM     70  F   UNL A   1      48.699  27.064  27.234  1.00  0.00    -0.206 F 
ATOM     71  C   UNL A   1      50.926  25.636  29.709  1.00  0.00     0.006 A 
ENDBRANCH  43  64
BRANCH  55  72
ATOM     72  C   UNL A   1      45.012  32.405  30.620  1.00  0.00     0.057 A 
ATOM     73  C   UNL A   1      45.322  33.369  29.652  1.00  0.00     0.134 A 
ATOM     74  C   UNL A   1      45.153  32.772  31.964  1.00  0.00     0.134 A 
ATOM     75  F   UNL A   1      45.219  33.078  28.346  1.00  0.00    -0.206 F 
ATOM     76  C   UNL A   1      45.770  34.643  30.006  1.00  0.00     0.040 A 
ATOM     77  C   UNL A   1      45.578  34.051  32.332  1.00  0.00     0.040 A 
ATOM     78  F   UNL A   1      44.865  31.901  32.942  1.00  0.00    -0.206 F 
ATOM     79  C   UNL A   1      45.891  34.989  31.351  1.00  0.00     0.006 A 
ENDBRANCH  55  72
ENDBRANCH  29  30
ENDBRANCH  22  24
ENDBRANCH  21  22
ENDBRANCH  20  21
ENDBRANCH   1  20
TORSDOF 14
ENDMDL
MODEL 2
REMARK VINA RESULT:     -11.2      4.139      8.352
REMARK SMILES C[C@@H](C(=O)OCCOC(=O)c1ccc(-c2c3nc(c(-c4c(F)cccc4F)c4ccc([nH]4)c(-c4c(F)cccc4F)c4nc(c(-c5c(F)cccc5F)c5ccc2[nH]5)C=C4)C=C3)cc1)c1ccc(Cc2ccoc2)cc1F
REMARK SMILES IDX 6 1 5 2 3 3 4 4 2 5 1 6 65 7 66 8 76 9 67 10 75 11 77 12
REMARK SMILES IDX 68 13 69 14 70 15 71 16 74 17 72 18 73 19 7 20 8 21 9 22
REMARK SMILES IDX 10 23 11 24 12 25 64 26 13 27 63 28 14 29 15 30 16 31 57 32
REMARK SMILES IDX 17 33 62 34 56 35 58 36 18 37 61 38 55 39 54 40 19 42 45 43
REMARK SMILES IDX 28 44 44 45 29 46 32 47 43 48 59 49 30 50 31 51 42 53 60 54
REMARK SMILES IDX 33 55 20 56 21 57 26 58 22 59 23 60 25 61 27 62 24 63 46 64
REMARK SMILES IDX 47 65 52 66 48 67 49 68 51 69 53 70 50 71 34 72 35 73 40 74
REMARK SMILES IDX 36 75 37 76 39 77 41 78 38 79
REMARK H PARENT 58 41 32 52
REMARK Flexibility Score: inf
ROOT
ATOM      1  C   UNL A   1      42.282  20.814  25.880  1.00  0.00     0.274 C 
ENDROOT
BRANCH   1   2
ATOM      2  O   UNL A   1      41.020  21.315  25.387  1.00  0.00    -0.462 OA
BRANCH   2   3
ATOM      3  C   UNL A   1      40.102  21.663  26.336  1.00  0.00     0.313 C 
ATOM      4  O   UNL A   1      40.089  21.153  27.450  1.00  0.00    -0.252 OA
BRANCH   3   5
ATOM      5  C   UNL A   1      39.047  22.673  25.802  1.00  0.00     0.129 C 
ATOM      6  C   UNL A   1      38.889  23.829  26.804  1.00  0.00     0.025 C 
BRANCH   5   7
ATOM      7  C   UNL A   1      37.723  21.996  25.393  1.00  0.00     0.002 A 
ATOM      8  C   UNL A   1      37.696  20.614  25.144  1.00  0.00     0.008 A 
ATOM      9  C   UNL A   1      36.493  22.656  25.281  1.00  0.00     0.127 A 
ATOM     10  C   UNL A   1      36.491  19.910  25.001  1.00  0.00     0.004 A 
ATOM     11  C   UNL A   1      35.288  21.963  25.085  1.00  0.00     0.043 A 
ATOM     12  F   UNL A   1      36.403  23.985  25.427  1.00  0.00    -0.207 F 
ATOM     13  C   UNL A   1      35.257  20.563  24.996  1.00  0.00    -0.041 A 
BRANCH  13  14
ATOM     14  C   UNL A   1      33.924  19.851  25.140  1.00  0.00     0.074 C 
BRANCH  14  15
ATOM     15  C   UNL A   1      33.802  18.685  24.217  1.00  0.00    -0.005 A 
ATOM     16  C   UNL A   1      34.443  17.413  24.279  1.00  0.00     0.046 A 
ATOM     17  C   UNL A   1      32.879  18.557  23.195  1.00  0.00     0.198 A 
ATOM     18  C   UNL A   1      33.909  16.643  23.276  1.00  0.00     0.195 A 
ATOM     19  O   UNL A   1      32.953  17.334  22.613  1.00  0.00    -0.472 OA
ENDBRANCH  14  15
ENDBRANCH  13  14
ENDBRANCH   5   7
ENDBRANCH   3   5
ENDBRANCH   2   3
ENDBRANCH   1   2
BRANCH   1  20
ATOM     20  C   UNL A   1      43.450  21.774  25.627  1.00  0.00     0.275 C 
BRANCH  20  21
ATOM     21  O   UNL A   1      43.028  22.982  24.964  1.00  0.00    -0.458 OA
BRANCH  21  22
ATOM     22  C   UNL A   1      43.766  24.078  25.247  1.00  0.00     0.338 C 
ATOM     23  O   UNL A   1      44.722  24.503  24.608  1.00  0.00    -0.246 OA
BRANCH  22  24
ATOM     24  C   UNL A   1      43.155  24.841  26.351  1.00  0.00     0.060 A 
ATOM     25  C   UNL A   1      43.454  26.202  26.408  1.00  0.00     0.016 A 
ATOM     26  C   UNL A   1      42.351  24.259  27.335  1.00  0.00     0.016 A 
ATOM     27  C   UNL A   1      42.926  26.995  27.420  1.00  0.00     0.010 A 
ATOM     28  C   UNL A   1      41.839  25.058  28.372  1.00  0.00     0.010 A 
ATOM     29  C   UNL A   1      42.119  26.434  28.414  1.00  0.00    -0.014 A 
BRANCH  29  30
ATOM     30  C   UNL A   1      41.654  27.311  29.516  1.00  0.00     0.031 A 
ATOM     31  C   UNL A   1      42.447  27.382  30.788  1.00  0.00     0.074 A 
ATOM     32  C   UNL A   1      40.599  28.128  29.340  1.00  0.00     0.049 A 
ATOM     33  N   UNL A   1      42.243  28.116  31.851  1.00  0.00    -0.248 NA
ATOM     34  C   UNL A   1      43.640  26.526  30.863  1.00  0.00     0.031 C 
ATOM     35  C   UNL A   1      39.807  28.230  28.116  1.00  0.00     0.029 A 
ATOM     36  N   UNL A   1      40.035  29.054  30.184  1.00  0.00    -0.354 N 
ATOM     37  C   UNL A   1      43.268  27.798  32.731  1.00  0.00     0.074 A 
ATOM     38  C   UNL A   1      44.104  26.818  32.069  1.00  0.00     0.031 C 
ATOM     39  C   UNL A   1      38.871  29.180  28.282  1.00  0.00     0.029 A 
ATOM     40  C   UNL A   1      38.980  29.737  29.630  1.00  0.00     0.049 A 
ATOM     41  H   UNL A   1      40.358  29.213  31.100  1.00  0.00     0.167 HD
ATOM     42  C   UNL A   1      43.482  28.262  33.985  1.00  0.00     0.037 A 
ATOM     43  C   UNL A   1      38.191  30.698  30.154  1.00  0.00     0.037 A 
ATOM     44  C   UNL A   1      42.643  29.219  34.657  1.00  0.00     0.049 A 
ATOM     45  C   UNL A   1      38.407  31.136  31.580  1.00  0.00     0.074 A 
ATOM     46  C   UNL A   1      42.756  29.706  35.948  1.00  0.00     0.029 A 
ATOM     47  N   UNL A   1      41.532  29.828  34.096  1.00  0.00    -0.354 N 
ATOM     48  N   UNL A   1      39.359  30.802  32.417  1.00  0.00    -0.248 NA
ATOM     49  C   UNL A   1      37.417  32.069  32.144  1.00  0.00     0.031 C 
ATOM     50  C   UNL A   1      41.686  30.576  36.183  1.00  0.00     0.029 A 
ATOM     51  C   UNL A   1      40.935  30.666  35.023  1.00  0.00     0.049 A 
ATOM     52  H   UNL A   1      41.215  29.686  33.175  1.00  0.00     0.167 HD
ATOM     53  C   UNL A   1      39.087  31.487  33.596  1.00  0.00     0.074 A 
ATOM     54  C   UNL A   1      37.901  32.281  33.359  1.00  0.00     0.031 C 
ATOM     55  C   UNL A   1      39.755  31.453  34.775  1.00  0.00     0.037 A 
BRANCH  42  56
ATOM     56  C   UNL A   1      44.634  27.677  34.740  1.00  0.00     0.057 A 
ATOM     57  C   UNL A   1      45.898  28.276  34.751  1.00  0.00     0.134 A 
ATOM     58  C   UNL A   1      44.466  26.499  35.480  1.00  0.00     0.134 A 
ATOM     59  F   UNL A   1      46.127  29.394  34.046  1.00  0.00    -0.206 F 
ATOM     60  C   UNL A   1      46.962  27.715  35.460  1.00  0.00     0.040 A 
ATOM     61  C   UNL A   1      45.514  25.940  36.209  1.00  0.00     0.040 A 
ATOM     62  F   UNL A   1      43.277  25.878  35.508  1.00  0.00    -0.206 F 
ATOM     63  C   UNL A   1      46.769  26.546  36.196  1.00  0.00     0.006 A 
ENDBRANCH  42  56
BRANCH  43  64
ATOM     64  C   UNL A   1      37.099  31.308  29.350  1.00  0.00     0.057 A 
ATOM     65  C   UNL A   1      35.928  30.595  29.065  1.00  0.00     0.134 A 
ATOM     66  C   UNL A   1      37.219  32.588  28.796  1.00  0.00     0.134 A 
ATOM     67  F   UNL A   1      35.768  29.348  29.530  1.00  0.00    -0.206 F 
ATOM     68  C   UNL A   1      34.923  31.125  28.253  1.00  0.00     0.040 A 
ATOM     69  C   UNL A   1      36.213  33.141  28.002  1.00  0.00     0.040 A 
ATOM     70  F   UNL A   1      38.322  33.320  29.013  1.00  0.00    -0.206 F 
ATOM     71  C   UNL A   1      35.063  32.405  27.722  1.00  0.00     0.006 A 
ENDBRANCH  43  64
BRANCH  55  72
ATOM     72  C   UNL A   1      39.225  32.299  35.897  1.00  0.00     0.057 A 
ATOM     73  C   UNL A   1      39.645  33.623  36.081  1.00  0.00     0.134 A 
ATOM     74  C   UNL A   1      38.251  31.803  36.771  1.00  0.00     0.134 A 
ATOM     75  F   UNL A   1      40.584  34.155  35.285  1.00  0.00    -0.206 F 
ATOM     76  C   UNL A   1      39.128  34.417  37.106  1.00  0.00     0.040 A 
ATOM     77  C   UNL A   1      37.708  32.595  37.786  1.00  0.00     0.040 A 
ATOM     78  F   UNL A   1      37.798  30.547  36.645  1.00  0.00    -0.206 F 
ATOM     79  C   UNL A   1      38.150  33.906  37.957  1.00  0.00     0.006 A 
ENDBRANCH  55  72
ENDBRANCH  29  30
ENDBRANCH  22  24
ENDBRANCH  21  22
ENDBRANCH  20  21
ENDBRANCH   1  20
TORSDOF 14
ENDMDL
MODEL 3
REMARK VINA RESULT:     -11.1      4.245      8.904
REMARK SMILES C[C@@H](C(=O)OCCOC(=O)c1ccc(-c2c3nc(c(-c4c(F)cccc4F)c4ccc([nH]4)c(-c4c(F)cccc4F)c4nc(c(-c5c(F)cccc5F)c5ccc2[nH]5)C=C4)C=C3)cc1)c1ccc(Cc2ccoc2)cc1F
REMARK SMILES IDX 6 1 5 2 3 3 4 4 2 5 1 6 65 7 66 8 76 9 67 10 75 11 77 12
REMARK SMILES IDX 68 13 69 14 70 15 71 16 74 17 72 18 73 19 7 20 8 21 9 22
REMARK SMILES IDX 10 23 11 24 12 25 64 26 13 27 63 28 14 29 15 30 16 31 57 32
REMARK SMILES IDX 17 33 62 34 56 35 58 36 18 37 61 38 55 39 54 40 19 42 45 43
REMARK SMILES IDX 28 44 44 45 29 46 32 47 43 48 59 49 30 50 31 51 42 53 60 54
REMARK SMILES IDX 33 55 20 56 21 57 26 58 22 59 23 60 25 61 27 62 24 63 46 64
REMARK SMILES IDX 47 65 52 66 48 67 49 68 51 69 53 70 50 71 34 72 35 73 40 74
REMARK SMILES IDX 36 75 37 76 39 77 41 78 38 79
REMARK H PARENT 58 41 32 52
REMARK Flexibility Score: inf
ROOT
ATOM      1  C   UNL A   1      31.419  31.889  26.526  1.00  0.00     0.274 C 
ENDROOT
BRANCH   1   2
ATOM      2  O   UNL A   1      31.988  30.562  26.523  1.00  0.00    -0.462 OA
BRANCH   2   3
ATOM      3  C   UNL A   1      31.474  29.692  25.605  1.00  0.00     0.313 C 
ATOM      4  O   UNL A   1      31.014  30.069  24.534  1.00  0.00    -0.252 OA
BRANCH   3   5
ATOM      5  C   UNL A   1      31.448  28.226  26.123  1.00  0.00     0.129 C 
ATOM      6  C   UNL A   1      31.778  28.205  27.625  1.00  0.00     0.025 C 
BRANCH   5   7
ATOM      7  C   UNL A   1      32.309  27.273  25.267  1.00  0.00     0.002 A 
ATOM      8  C   UNL A   1      33.522  26.783  25.778  1.00  0.00     0.008 A 
ATOM      9  C   UNL A   1      31.955  26.808  23.994  1.00  0.00     0.127 A 
ATOM     10  C   UNL A   1      34.224  25.742  25.151  1.00  0.00     0.004 A 
ATOM     11  C   UNL A   1      32.682  25.804  23.337  1.00  0.00     0.043 A 
ATOM     12  F   UNL A   1      30.856  27.257  23.372  1.00  0.00    -0.207 F 
ATOM     13  C   UNL A   1      33.806  25.208  23.930  1.00  0.00    -0.041 A 
BRANCH  13  14
ATOM     14  C   UNL A   1      34.335  23.908  23.352  1.00  0.00     0.074 C 
BRANCH  14  15
ATOM     15  C   UNL A   1      33.803  22.711  24.065  1.00  0.00    -0.005 A 
ATOM     16  C   UNL A   1      32.459  22.246  24.172  1.00  0.00     0.046 A 
ATOM     17  C   UNL A   1      34.563  21.701  24.627  1.00  0.00     0.198 A 
ATOM     18  C   UNL A   1      32.500  21.039  24.824  1.00  0.00     0.195 A 
ATOM     19  O   UNL A   1      33.781  20.700  25.102  1.00  0.00    -0.472 OA
ENDBRANCH  14  15
ENDBRANCH  13  14
ENDBRANCH   5   7
ENDBRANCH   3   5
ENDBRANCH   2   3
ENDBRANCH   1   2
BRANCH   1  20
ATOM     20  C   UNL A   1      32.438  32.980  26.878  1.00  0.00     0.275 C 
BRANCH  20  21
ATOM     21  O   UNL A   1      32.096  33.672  28.096  1.00  0.00    -0.458 OA
BRANCH  21  22
ATOM     22  C   UNL A   1      33.008  34.575  28.516  1.00  0.00     0.338 C 
ATOM     23  O   UNL A   1      32.831  35.777  28.673  1.00  0.00    -0.246 OA
BRANCH  22  24
ATOM     24  C   UNL A   1      34.239  33.895  28.961  1.00  0.00     0.060 A 
ATOM     25  C   UNL A   1      34.073  32.749  29.738  1.00  0.00     0.016 A 
ATOM     26  C   UNL A   1      35.523  34.371  28.680  1.00  0.00     0.016 A 
ATOM     27  C   UNL A   1      35.180  32.051  30.205  1.00  0.00     0.010 A 
ATOM     28  C   UNL A   1      36.642  33.678  29.177  1.00  0.00     0.010 A 
ATOM     29  C   UNL A   1      36.473  32.508  29.936  1.00  0.00    -0.014 A 
BRANCH  29  30
ATOM     30  C   UNL A   1      37.614  31.772  30.533  1.00  0.00     0.031 A 
ATOM     31  C   UNL A   1      37.944  31.971  31.983  1.00  0.00     0.074 A 
ATOM     32  C   UNL A   1      38.277  30.843  29.818  1.00  0.00     0.049 A 
ATOM     33  N   UNL A   1      38.866  31.393  32.709  1.00  0.00    -0.248 NA
ATOM     34  C   UNL A   1      37.111  32.935  32.716  1.00  0.00     0.031 C 
ATOM     35  C   UNL A   1      37.987  30.481  28.432  1.00  0.00     0.029 A 
ATOM     36  N   UNL A   1      39.309  30.010  30.175  1.00  0.00    -0.354 N 
ATOM     37  C   UNL A   1      38.739  31.936  33.980  1.00  0.00     0.074 A 
ATOM     38  C   UNL A   1      37.639  32.876  33.931  1.00  0.00     0.031 C 
ATOM     39  C   UNL A   1      38.810  29.486  28.062  1.00  0.00     0.029 A 
ATOM     40  C   UNL A   1      39.701  29.155  29.173  1.00  0.00     0.049 A 
ATOM     41  H   UNL A   1      39.728  30.024  31.065  1.00  0.00     0.167 HD
ATOM     42  C   UNL A   1      39.486  31.692  35.083  1.00  0.00     0.037 A 
ATOM     43  C   UNL A   1      40.670  28.217  29.157  1.00  0.00     0.037 A 
ATOM     44  C   UNL A   1      40.595  30.777  35.134  1.00  0.00     0.049 A 
ATOM     45  C   UNL A   1      41.535  28.026  30.376  1.00  0.00     0.074 A 
ATOM     46  C   UNL A   1      41.441  30.506  36.197  1.00  0.00     0.029 A 
ATOM     47  N   UNL A   1      41.019  29.989  34.076  1.00  0.00    -0.354 N 
ATOM     48  N   UNL A   1      41.431  28.571  31.564  1.00  0.00    -0.248 NA
ATOM     49  C   UNL A   1      42.675  27.103  30.242  1.00  0.00     0.031 C 
ATOM     50  C   UNL A   1      42.405  29.588  35.767  1.00  0.00     0.029 A 
ATOM     51  C   UNL A   1      42.129  29.252  34.452  1.00  0.00     0.049 A 
ATOM     52  H   UNL A   1      40.593  29.957  33.189  1.00  0.00     0.167 HD
ATOM     53  C   UNL A   1      42.479  28.053  32.315  1.00  0.00     0.074 A 
ATOM     54  C   UNL A   1      43.192  27.126  31.463  1.00  0.00     0.031 C 
ATOM     55  C   UNL A   1      42.829  28.330  33.595  1.00  0.00     0.037 A 
BRANCH  42  56
ATOM     56  C   UNL A   1      39.171  32.491  36.309  1.00  0.00     0.057 A 
ATOM     57  C   UNL A   1      39.751  33.741  36.552  1.00  0.00     0.134 A 
ATOM     58  C   UNL A   1      38.258  32.003  37.253  1.00  0.00     0.134 A 
ATOM     59  F   UNL A   1      40.647  34.254  35.695  1.00  0.00    -0.206 F 
ATOM     60  C   UNL A   1      39.446  34.472  37.702  1.00  0.00     0.040 A 
ATOM     61  C   UNL A   1      37.931  32.732  38.395  1.00  0.00     0.040 A 
ATOM     62  F   UNL A   1      37.670  30.810  37.076  1.00  0.00    -0.206 F 
ATOM     63  C   UNL A   1      38.530  33.969  38.625  1.00  0.00     0.006 A 
ENDBRANCH  42  56
BRANCH  43  64
ATOM     64  C   UNL A   1      40.911  27.392  27.943  1.00  0.00     0.057 A 
ATOM     65  C   UNL A   1      41.730  27.856  26.906  1.00  0.00     0.134 A 
ATOM     66  C   UNL A   1      40.284  26.154  27.758  1.00  0.00     0.134 A 
ATOM     67  F   UNL A   1      42.326  29.053  27.001  1.00  0.00    -0.206 F 
ATOM     68  C   UNL A   1      41.910  27.126  25.729  1.00  0.00     0.040 A 
ATOM     69  C   UNL A   1      40.473  25.403  26.597  1.00  0.00     0.040 A 
ATOM     70  F   UNL A   1      39.472  25.657  28.703  1.00  0.00    -0.206 F 
ATOM     71  C   UNL A   1      41.283  25.892  25.574  1.00  0.00     0.006 A 
ENDBRANCH  43  64
BRANCH  55  72
ATOM     72  C   UNL A   1      44.029  27.621  34.155  1.00  0.00     0.057 A 
ATOM     73  C   UNL A   1      45.300  28.209  34.150  1.00  0.00     0.134 A 
ATOM     74  C   UNL A   1      43.903  26.359  34.750  1.00  0.00     0.134 A 
ATOM     75  F   UNL A   1      45.491  29.412  33.587  1.00  0.00    -0.206 F 
ATOM     76  C   UNL A   1      46.407  27.560  34.700  1.00  0.00     0.040 A 
ATOM     77  C   UNL A   1      44.998  25.710  35.324  1.00  0.00     0.040 A 
ATOM     78  F   UNL A   1      42.712  25.744  34.796  1.00  0.00    -0.206 F 
ATOM     79  C   UNL A   1      46.256  26.309  35.297  1.00  0.00     0.006 A 
ENDBRANCH  55  72
ENDBRANCH  29  30
ENDBRANCH  22  24
ENDBRANCH  21  22
ENDBRANCH  20  21
ENDBRANCH   1  20
TORSDOF 14
ENDMDL
