MODEL 1
REMARK VINA RESULT:     -12.4      0.000      0.000
REMARK SMILES O=C(OCCOC(=O)c1cc(N2CCN(c3ccc(F)cc3)CC2)ccc1NC(=O)C1CCCC1)c1ccc(-c2c3nc(c(-c4c(F)cccc4F)c4ccc([nH]4)c(-c4c(F)cccc4F)c4nc(c(-c5c(F)cccc5F)c5ccc2[nH]5)C=C4)C=C3)cc1
REMARK SMILES IDX 4 1 3 2 2 3 1 4 36 5 37 6 89 7 38 8 88 9 39 10 40 11 41 12
REMARK SMILES IDX 82 13 42 14 87 15 81 16 83 17 43 18 86 19 80 20 79 21 44 23
REMARK SMILES IDX 70 24 53 25 69 26 54 27 57 28 68 29 84 30 55 31 56 32 67 34
REMARK SMILES IDX 85 35 58 36 45 37 46 38 51 39 47 40 48 41 50 42 52 43 49 44
REMARK SMILES IDX 71 45 72 46 77 47 73 48 74 49 76 50 78 51 75 52 59 53 60 54
REMARK SMILES IDX 65 55 61 56 62 57 64 58 66 59 63 60 5 61 6 62 7 63 8 64 9 65
REMARK SMILES IDX 10 66 27 67 11 68 26 69 25 70 28 71 29 72 30 74 31 75 32 76
REMARK SMILES IDX 35 77 33 78 34 79 12 80 13 81 24 82 14 83 23 84 15 85 16 86
REMARK SMILES IDX 17 87 22 88 18 89 21 90 19 91 20 92
REMARK H PARENT 83 22 57 33 28 73
REMARK Flexibility Score: inf
ROOT
ATOM      1  C   UNL A   1      43.370  37.662  28.530  1.00  0.00     0.275 C 
ENDROOT
BRANCH   1   2
ATOM      2  O   UNL A   1      44.779  37.747  28.254  1.00  0.00    -0.458 OA
BRANCH   2   3
ATOM      3  C   UNL A   1      45.720  36.775  28.220  1.00  0.00     0.338 C 
ATOM      4  O   UNL A   1      46.908  37.098  28.255  1.00  0.00    -0.246 OA
BRANCH   3   5
ATOM      5  C   UNL A   1      45.409  35.325  28.012  1.00  0.00     0.060 A 
ATOM      6  C   UNL A   1      44.837  34.759  26.871  1.00  0.00     0.016 A 
ATOM      7  C   UNL A   1      45.708  34.468  29.084  1.00  0.00     0.016 A 
ATOM      8  C   UNL A   1      44.635  33.376  26.765  1.00  0.00     0.010 A 
ATOM      9  C   UNL A   1      45.514  33.086  28.983  1.00  0.00     0.010 A 
ATOM     10  C   UNL A   1      44.974  32.525  27.817  1.00  0.00    -0.014 A 
BRANCH  10  11
ATOM     11  C   UNL A   1      44.577  31.095  27.798  1.00  0.00     0.031 A 
ATOM     12  C   UNL A   1      45.515  30.122  27.149  1.00  0.00     0.074 A 
ATOM     13  C   UNL A   1      43.474  30.622  28.414  1.00  0.00     0.049 A 
ATOM     14  N   UNL A   1      45.369  28.838  26.964  1.00  0.00    -0.248 NA
ATOM     15  C   UNL A   1      46.822  30.652  26.720  1.00  0.00     0.031 C 
ATOM     16  C   UNL A   1      42.603  31.378  29.305  1.00  0.00     0.029 A 
ATOM     17  N   UNL A   1      42.875  29.383  28.355  1.00  0.00    -0.354 N 
ATOM     18  C   UNL A   1      46.602  28.393  26.518  1.00  0.00     0.074 A 
ATOM     19  C   UNL A   1      47.434  29.554  26.308  1.00  0.00     0.031 C 
ATOM     20  C   UNL A   1      41.526  30.632  29.610  1.00  0.00     0.029 A 
ATOM     21  C   UNL A   1      41.604  29.370  28.892  1.00  0.00     0.049 A 
ATOM     22  H   UNL A   1      43.310  28.588  27.969  1.00  0.00     0.167 HD
ATOM     23  C   UNL A   1      47.030  27.117  26.392  1.00  0.00     0.037 A 
ATOM     24  C   UNL A   1      40.610  28.474  28.727  1.00  0.00     0.037 A 
ATOM     25  C   UNL A   1      46.185  25.971  26.573  1.00  0.00     0.049 A 
ATOM     26  C   UNL A   1      40.962  27.145  28.128  1.00  0.00     0.074 A 
ATOM     27  C   UNL A   1      46.512  24.631  26.497  1.00  0.00     0.029 A 
ATOM     28  N   UNL A   1      44.825  26.039  26.836  1.00  0.00    -0.354 N 
ATOM     29  N   UNL A   1      42.110  26.737  27.652  1.00  0.00    -0.248 NA
ATOM     30  C   UNL A   1      39.908  26.120  28.144  1.00  0.00     0.031 C 
ATOM     31  C   UNL A   1      45.334  23.887  26.642  1.00  0.00     0.029 A 
ATOM     32  C   UNL A   1      44.287  24.765  26.867  1.00  0.00     0.049 A 
ATOM     33  H   UNL A   1      44.319  26.871  26.980  1.00  0.00     0.167 HD
ATOM     34  C   UNL A   1      41.951  25.381  27.415  1.00  0.00     0.074 A 
ATOM     35  C   UNL A   1      40.566  25.062  27.699  1.00  0.00     0.031 C 
ATOM     36  C   UNL A   1      42.898  24.469  27.094  1.00  0.00     0.037 A 
BRANCH  23  37
ATOM     37  C   UNL A   1      48.476  26.927  26.061  1.00  0.00     0.057 A 
ATOM     38  C   UNL A   1      48.918  26.842  24.732  1.00  0.00     0.134 A 
ATOM     39  C   UNL A   1      49.431  26.799  27.073  1.00  0.00     0.134 A 
ATOM     40  F   UNL A   1      48.045  26.931  23.716  1.00  0.00    -0.206 F 
ATOM     41  C   UNL A   1      50.258  26.608  24.424  1.00  0.00     0.040 A 
ATOM     42  C   UNL A   1      50.778  26.587  26.777  1.00  0.00     0.040 A 
ATOM     43  F   UNL A   1      49.067  26.860  28.363  1.00  0.00    -0.206 F 
ATOM     44  C   UNL A   1      51.192  26.484  25.450  1.00  0.00     0.006 A 
ENDBRANCH  23  37
BRANCH  24  45
ATOM     45  C   UNL A   1      39.183  28.753  29.045  1.00  0.00     0.057 A 
ATOM     46  C   UNL A   1      38.283  29.325  28.148  1.00  0.00     0.134 A 
ATOM     47  C   UNL A   1      38.722  28.531  30.355  1.00  0.00     0.134 A 
ATOM     48  F   UNL A   1      38.664  29.608  26.896  1.00  0.00    -0.206 F 
ATOM     49  C   UNL A   1      36.978  29.658  28.536  1.00  0.00     0.040 A 
ATOM     50  C   UNL A   1      37.428  28.862  30.758  1.00  0.00     0.040 A 
ATOM     51  F   UNL A   1      39.551  28.020  31.279  1.00  0.00    -0.206 F 
ATOM     52  C   UNL A   1      36.548  29.426  29.843  1.00  0.00     0.006 A 
ENDBRANCH  24  45
BRANCH  36  53
ATOM     53  C   UNL A   1      42.467  23.039  27.124  1.00  0.00     0.057 A 
ATOM     54  C   UNL A   1      42.206  22.356  28.316  1.00  0.00     0.134 A 
ATOM     55  C   UNL A   1      42.358  22.324  25.923  1.00  0.00     0.134 A 
ATOM     56  F   UNL A   1      42.338  22.978  29.498  1.00  0.00    -0.206 F 
ATOM     57  C   UNL A   1      41.875  21.002  28.316  1.00  0.00     0.040 A 
ATOM     58  C   UNL A   1      41.997  20.979  25.908  1.00  0.00     0.040 A 
ATOM     59  F   UNL A   1      42.610  22.921  24.748  1.00  0.00    -0.206 F 
ATOM     60  C   UNL A   1      41.763  20.312  27.108  1.00  0.00     0.006 A 
ENDBRANCH  36  53
ENDBRANCH  10  11
ENDBRANCH   3   5
ENDBRANCH   2   3
ENDBRANCH   1   2
BRANCH   1  61
ATOM     61  C   UNL A   1      42.455  38.021  27.354  1.00  0.00     0.275 C 
BRANCH  61  62
ATOM     62  O   UNL A   1      42.991  39.045  26.499  1.00  0.00    -0.458 OA
BRANCH  62  63
ATOM     63  C   UNL A   1      42.333  40.237  26.533  1.00  0.00     0.340 C 
ATOM     64  O   UNL A   1      41.209  40.425  26.969  1.00  0.00    -0.246 OA
BRANCH  63  65
ATOM     65  C   UNL A   1      43.244  41.329  26.112  1.00  0.00     0.085 A 
ATOM     66  C   UNL A   1      42.891  42.022  24.930  1.00  0.00     0.043 A 
ATOM     67  C   UNL A   1      44.399  41.700  26.815  1.00  0.00     0.055 A 
ATOM     68  C   UNL A   1      43.624  43.127  24.482  1.00  0.00     0.038 A 
ATOM     69  C   UNL A   1      45.030  42.876  26.416  1.00  0.00     0.029 A 
ATOM     70  C   UNL A   1      44.673  43.572  25.267  1.00  0.00     0.028 A 
BRANCH  67  71
ATOM     71  N   UNL A   1      44.898  40.948  27.903  1.00  0.00    -0.325 N 
ATOM     72  C   UNL A   1      44.681  41.084  29.261  1.00  0.00     0.227 C 
ATOM     73  H   UNL A   1      45.497  40.208  27.653  1.00  0.00     0.169 HD
ATOM     74  O   UNL A   1      45.157  40.229  30.015  1.00  0.00    -0.274 OA
BRANCH  72  75
ATOM     75  C   UNL A   1      43.966  42.321  29.803  1.00  0.00     0.079 C 
ATOM     76  C   UNL A   1      43.356  42.217  31.199  1.00  0.00     0.013 C 
ATOM     77  C   UNL A   1      44.871  43.537  30.044  1.00  0.00     0.013 C 
ATOM     78  C   UNL A   1      42.836  43.625  31.397  1.00  0.00     0.001 C 
ATOM     79  C   UNL A   1      44.007  44.476  30.909  1.00  0.00     0.001 C 
ENDBRANCH  72  75
ENDBRANCH  67  71
BRANCH  68  80
ATOM     80  N   UNL A   1      43.328  43.735  23.279  1.00  0.00    -0.368 N 
ATOM     81  C   UNL A   1      44.377  43.893  22.249  1.00  0.00     0.138 C 
ATOM     82  C   UNL A   1      41.945  43.575  22.789  1.00  0.00     0.138 C 
ATOM     83  C   UNL A   1      44.230  42.909  21.057  1.00  0.00     0.138 C 
ATOM     84  C   UNL A   1      41.844  42.568  21.622  1.00  0.00     0.138 C 
ATOM     85  N   UNL A   1      42.838  42.848  20.575  1.00  0.00    -0.368 N 
BRANCH  85  86
ATOM     86  C   UNL A   1      42.486  43.508  19.413  1.00  0.00     0.037 A 
ATOM     87  C   UNL A   1      43.468  43.815  18.456  1.00  0.00     0.029 A 
ATOM     88  C   UNL A   1      41.162  43.865  19.118  1.00  0.00     0.029 A 
ATOM     89  C   UNL A   1      43.139  44.433  17.245  1.00  0.00     0.041 A 
ATOM     90  C   UNL A   1      40.826  44.500  17.918  1.00  0.00     0.041 A 
ATOM     91  C   UNL A   1      41.818  44.771  16.989  1.00  0.00     0.123 A 
ATOM     92  F   UNL A   1      41.495  45.361  15.829  1.00  0.00    -0.207 F 
ENDBRANCH  85  86
ENDBRANCH  68  80
ENDBRANCH  63  65
ENDBRANCH  62  63
ENDBRANCH  61  62
ENDBRANCH   1  61
TORSDOF 15
ENDMDL
MODEL 2
REMARK VINA RESULT:     -12.3      7.440     14.374
REMARK SMILES O=C(OCCOC(=O)c1cc(N2CCN(c3ccc(F)cc3)CC2)ccc1NC(=O)C1CCCC1)c1ccc(-c2c3nc(c(-c4c(F)cccc4F)c4ccc([nH]4)c(-c4c(F)cccc4F)c4nc(c(-c5c(F)cccc5F)c5ccc2[nH]5)C=C4)C=C3)cc1
REMARK SMILES IDX 4 1 3 2 2 3 1 4 36 5 37 6 89 7 38 8 88 9 39 10 40 11 41 12
REMARK SMILES IDX 82 13 42 14 87 15 81 16 83 17 43 18 86 19 80 20 79 21 44 23
REMARK SMILES IDX 70 24 53 25 69 26 54 27 57 28 68 29 84 30 55 31 56 32 67 34
REMARK SMILES IDX 85 35 58 36 45 37 46 38 51 39 47 40 48 41 50 42 52 43 49 44
REMARK SMILES IDX 71 45 72 46 77 47 73 48 74 49 76 50 78 51 75 52 59 53 60 54
REMARK SMILES IDX 65 55 61 56 62 57 64 58 66 59 63 60 5 61 6 62 7 63 8 64 9 65
REMARK SMILES IDX 10 66 27 67 11 68 26 69 25 70 28 71 29 72 30 74 31 75 32 76
REMARK SMILES IDX 35 77 33 78 34 79 12 80 13 81 24 82 14 83 23 84 15 85 16 86
REMARK SMILES IDX 17 87 22 88 18 89 21 90 19 91 20 92
REMARK H PARENT 83 22 57 33 28 73
REMARK Flexibility Score: inf
ROOT
ATOM      1  C   UNL A   1      37.393  22.318  25.777  1.00  0.00     0.275 C 
ENDROOT
BRANCH   1   2
ATOM      2  O   UNL A   1      38.756  21.874  25.898  1.00  0.00    -0.458 OA
BRANCH   2   3
ATOM      3  C   UNL A   1      39.734  22.286  26.738  1.00  0.00     0.338 C 
ATOM      4  O   UNL A   1      40.349  21.442  27.391  1.00  0.00    -0.246 OA
BRANCH   3   5
ATOM      5  C   UNL A   1      40.034  23.726  27.020  1.00  0.00     0.060 A 
ATOM      6  C   UNL A   1      40.553  24.654  26.114  1.00  0.00     0.016 A 
ATOM      7  C   UNL A   1      39.784  24.164  28.331  1.00  0.00     0.016 A 
ATOM      8  C   UNL A   1      40.748  25.994  26.475  1.00  0.00     0.010 A 
ATOM      9  C   UNL A   1      39.973  25.502  28.696  1.00  0.00     0.010 A 
ATOM     10  C   UNL A   1      40.458  26.433  27.766  1.00  0.00    -0.014 A 
BRANCH  10  11
ATOM     11  C   UNL A   1      40.853  27.792  28.215  1.00  0.00     0.031 A 
ATOM     12  C   UNL A   1      42.312  28.052  28.445  1.00  0.00     0.074 A 
ATOM     13  C   UNL A   1      39.984  28.817  28.331  1.00  0.00     0.049 A 
ATOM     14  N   UNL A   1      42.894  29.134  28.883  1.00  0.00    -0.248 NA
ATOM     15  C   UNL A   1      43.241  26.975  28.058  1.00  0.00     0.031 C 
ATOM     16  C   UNL A   1      38.593  28.811  27.897  1.00  0.00     0.029 A 
ATOM     17  N   UNL A   1      40.142  30.069  28.885  1.00  0.00    -0.354 N 
ATOM     18  C   UNL A   1      44.250  28.914  28.706  1.00  0.00     0.074 A 
ATOM     19  C   UNL A   1      44.416  27.546  28.273  1.00  0.00     0.031 C 
ATOM     20  C   UNL A   1      37.996  29.945  28.306  1.00  0.00     0.029 A 
ATOM     21  C   UNL A   1      38.946  30.729  29.079  1.00  0.00     0.049 A 
ATOM     22  H   UNL A   1      41.018  30.452  29.119  1.00  0.00     0.167 HD
ATOM     23  C   UNL A   1      45.258  29.809  28.801  1.00  0.00     0.037 A 
ATOM     24  C   UNL A   1      38.665  31.786  29.868  1.00  0.00     0.037 A 
ATOM     25  C   UNL A   1      45.086  31.157  29.263  1.00  0.00     0.049 A 
ATOM     26  C   UNL A   1      39.819  32.577  30.410  1.00  0.00     0.074 A 
ATOM     27  C   UNL A   1      46.027  32.162  29.378  1.00  0.00     0.029 A 
ATOM     28  N   UNL A   1      43.884  31.677  29.720  1.00  0.00    -0.354 N 
ATOM     29  N   UNL A   1      41.100  32.343  30.296  1.00  0.00    -0.248 NA
ATOM     30  C   UNL A   1      39.485  33.833  31.098  1.00  0.00     0.031 C 
ATOM     31  C   UNL A   1      45.410  33.269  29.973  1.00  0.00     0.029 A 
ATOM     32  C   UNL A   1      44.072  32.970  30.173  1.00  0.00     0.049 A 
ATOM     33  H   UNL A   1      43.025  31.197  29.721  1.00  0.00     0.167 HD
ATOM     34  C   UNL A   1      41.728  33.472  30.796  1.00  0.00     0.074 A 
ATOM     35  C   UNL A   1      40.688  34.340  31.311  1.00  0.00     0.031 C 
ATOM     36  C   UNL A   1      43.040  33.800  30.734  1.00  0.00     0.037 A 
BRANCH  23  37
ATOM     37  C   UNL A   1      46.613  29.338  28.378  1.00  0.00     0.057 A 
ATOM     38  C   UNL A   1      47.043  29.445  27.047  1.00  0.00     0.134 A 
ATOM     39  C   UNL A   1      47.485  28.750  29.298  1.00  0.00     0.134 A 
ATOM     40  F   UNL A   1      46.239  29.977  26.112  1.00  0.00    -0.206 F 
ATOM     41  C   UNL A   1      48.284  28.956  26.640  1.00  0.00     0.040 A 
ATOM     42  C   UNL A   1      48.739  28.277  28.907  1.00  0.00     0.040 A 
ATOM     43  F   UNL A   1      47.126  28.610  30.582  1.00  0.00    -0.206 F 
ATOM     44  C   UNL A   1      49.137  28.373  27.575  1.00  0.00     0.006 A 
ENDBRANCH  23  37
BRANCH  24  45
ATOM     45  C   UNL A   1      37.287  32.170  30.279  1.00  0.00     0.057 A 
ATOM     46  C   UNL A   1      36.495  33.085  29.588  1.00  0.00     0.134 A 
ATOM     47  C   UNL A   1      36.775  31.672  31.491  1.00  0.00     0.134 A 
ATOM     48  F   UNL A   1      36.936  33.637  28.450  1.00  0.00    -0.206 F 
ATOM     49  C   UNL A   1      35.244  33.483  30.078  1.00  0.00     0.040 A 
ATOM     50  C   UNL A   1      35.534  32.062  31.995  1.00  0.00     0.040 A 
ATOM     51  F   UNL A   1      37.506  30.817  32.226  1.00  0.00    -0.206 F 
ATOM     52  C   UNL A   1      34.761  32.972  31.284  1.00  0.00     0.006 A 
ENDBRANCH  24  45
BRANCH  36  53
ATOM     53  C   UNL A   1      43.390  35.188  31.159  1.00  0.00     0.057 A 
ATOM     54  C   UNL A   1      43.478  36.252  30.255  1.00  0.00     0.134 A 
ATOM     55  C   UNL A   1      43.687  35.447  32.504  1.00  0.00     0.134 A 
ATOM     56  F   UNL A   1      43.247  36.054  28.949  1.00  0.00    -0.206 F 
ATOM     57  C   UNL A   1      43.876  37.522  30.671  1.00  0.00     0.040 A 
ATOM     58  C   UNL A   1      44.055  36.718  32.936  1.00  0.00     0.040 A 
ATOM     59  F   UNL A   1      43.633  34.463  33.416  1.00  0.00    -0.206 F 
ATOM     60  C   UNL A   1      44.159  37.758  32.016  1.00  0.00     0.006 A 
ENDBRANCH  36  53
ENDBRANCH  10  11
ENDBRANCH   3   5
ENDBRANCH   2   3
ENDBRANCH   1   2
BRANCH   1  61
ATOM     61  C   UNL A   1      37.159  23.428  24.746  1.00  0.00     0.275 C 
BRANCH  61  62
ATOM     62  O   UNL A   1      35.949  24.172  24.966  1.00  0.00    -0.458 OA
BRANCH  62  63
ATOM     63  C   UNL A   1      35.057  24.150  23.937  1.00  0.00     0.340 C 
ATOM     64  O   UNL A   1      35.245  23.667  22.833  1.00  0.00    -0.246 OA
BRANCH  63  65
ATOM     65  C   UNL A   1      33.742  24.659  24.398  1.00  0.00     0.085 A 
ATOM     66  C   UNL A   1      33.139  25.659  23.600  1.00  0.00     0.043 A 
ATOM     67  C   UNL A   1      33.085  24.200  25.549  1.00  0.00     0.055 A 
ATOM     68  C   UNL A   1      31.860  26.153  23.886  1.00  0.00     0.038 A 
ATOM     69  C   UNL A   1      31.768  24.616  25.732  1.00  0.00     0.029 A 
ATOM     70  C   UNL A   1      31.165  25.584  24.937  1.00  0.00     0.028 A 
BRANCH  67  71
ATOM     71  N   UNL A   1      33.701  23.329  26.476  1.00  0.00    -0.325 N 
ATOM     72  C   UNL A   1      33.781  21.949  26.493  1.00  0.00     0.227 C 
ATOM     73  H   UNL A   1      34.144  23.776  27.233  1.00  0.00     0.169 HD
ATOM     74  O   UNL A   1      34.470  21.417  27.369  1.00  0.00    -0.274 OA
BRANCH  72  75
ATOM     75  C   UNL A   1      32.947  21.121  25.516  1.00  0.00     0.079 C 
ATOM     76  C   UNL A   1      33.401  21.098  24.058  1.00  0.00     0.013 C 
ATOM     77  C   UNL A   1      32.957  19.609  25.778  1.00  0.00     0.013 C 
ATOM     78  C   UNL A   1      32.401  20.134  23.456  1.00  0.00     0.001 C 
ATOM     79  C   UNL A   1      32.377  19.005  24.484  1.00  0.00     0.001 C 
ENDBRANCH  72  75
ENDBRANCH  67  71
BRANCH  68  80
ATOM     80  N   UNL A   1      31.323  27.195  23.158  1.00  0.00    -0.368 N 
ATOM     81  C   UNL A   1      29.918  27.133  22.700  1.00  0.00     0.138 C 
ATOM     82  C   UNL A   1      31.862  28.539  23.444  1.00  0.00     0.138 C 
ATOM     83  C   UNL A   1      28.960  28.048  23.510  1.00  0.00     0.138 C 
ATOM     84  C   UNL A   1      30.887  29.403  24.273  1.00  0.00     0.138 C 
ATOM     85  N   UNL A   1      29.532  29.394  23.702  1.00  0.00    -0.368 N 
BRANCH  85  86
ATOM     86  C   UNL A   1      29.071  30.449  22.937  1.00  0.00     0.037 A 
ATOM     87  C   UNL A   1      28.654  30.226  21.614  1.00  0.00     0.029 A 
ATOM     88  C   UNL A   1      28.963  31.755  23.438  1.00  0.00     0.029 A 
ATOM     89  C   UNL A   1      28.131  31.261  20.830  1.00  0.00     0.041 A 
ATOM     90  C   UNL A   1      28.459  32.798  22.656  1.00  0.00     0.041 A 
ATOM     91  C   UNL A   1      28.040  32.539  21.360  1.00  0.00     0.123 A 
ATOM     92  F   UNL A   1      27.537  33.533  20.616  1.00  0.00    -0.207 F 
ENDBRANCH  85  86
ENDBRANCH  68  80
ENDBRANCH  63  65
ENDBRANCH  62  63
ENDBRANCH  61  62
ENDBRANCH   1  61
TORSDOF 15
ENDMDL
MODEL 3
REMARK VINA RESULT:     -12.1      9.144     13.965
REMARK SMILES O=C(OCCOC(=O)c1cc(N2CCN(c3ccc(F)cc3)CC2)ccc1NC(=O)C1CCCC1)c1ccc(-c2c3nc(c(-c4c(F)cccc4F)c4ccc([nH]4)c(-c4c(F)cccc4F)c4nc(c(-c5c(F)cccc5F)c5ccc2[nH]5)C=C4)C=C3)cc1
REMARK SMILES IDX 4 1 3 2 2 3 1 4 36 5 37 6 89 7 38 8 88 9 39 10 40 11 41 12
REMARK SMILES IDX 82 13 42 14 87 15 81 16 83 17 43 18 86 19 80 20 79 21 44 23
REMARK SMILES IDX 70 24 53 25 69 26 54 27 57 28 68 29 84 30 55 31 56 32 67 34
REMARK SMILES IDX 85 35 58 36 45 37 46 38 51 39 47 40 48 41 50 42 52 43 49 44
REMARK SMILES IDX 71 45 72 46 77 47 73 48 74 49 76 50 78 51 75 52 59 53 60 54
REMARK SMILES IDX 65 55 61 56 62 57 64 58 66 59 63 60 5 61 6 62 7 63 8 64 9 65
REMARK SMILES IDX 10 66 27 67 11 68 26 69 25 70 28 71 29 72 30 74 31 75 32 76
REMARK SMILES IDX 35 77 33 78 34 79 12 80 13 81 24 82 14 83 23 84 15 85 16 86
REMARK SMILES IDX 17 87 22 88 18 89 21 90 19 91 20 92
REMARK H PARENT 83 22 57 33 28 73
REMARK Flexibility Score: inf
ROOT
ATOM      1  C   UNL A   1      31.202  23.020  25.314  1.00  0.00     0.275 C 
ENDROOT
BRANCH   1   2
ATOM      2  O   UNL A   1      32.527  22.622  24.923  1.00  0.00    -0.458 OA
BRANCH   2   3
ATOM      3  C   UNL A   1      33.546  23.358  24.422  1.00  0.00     0.338 C 
ATOM      4  O   UNL A   1      33.409  23.886  23.318  1.00  0.00    -0.246 OA
BRANCH   3   5
ATOM      5  C   UNL A   1      34.889  23.469  25.074  1.00  0.00     0.060 A 
ATOM      6  C   UNL A   1      35.154  23.371  26.442  1.00  0.00     0.016 A 
ATOM      7  C   UNL A   1      35.975  23.714  24.217  1.00  0.00     0.016 A 
ATOM      8  C   UNL A   1      36.462  23.441  26.939  1.00  0.00     0.010 A 
ATOM      9  C   UNL A   1      37.284  23.780  24.706  1.00  0.00     0.010 A 
ATOM     10  C   UNL A   1      37.541  23.642  26.078  1.00  0.00    -0.014 A 
BRANCH  10  11
ATOM     11  C   UNL A   1      38.897  23.922  26.610  1.00  0.00     0.031 A 
ATOM     12  C   UNL A   1      39.108  25.221  27.330  1.00  0.00     0.074 A 
ATOM     13  C   UNL A   1      39.911  23.034  26.564  1.00  0.00     0.049 A 
ATOM     14  N   UNL A   1      40.206  25.711  27.837  1.00  0.00    -0.248 NA
ATOM     15  C   UNL A   1      37.907  26.040  27.577  1.00  0.00     0.031 C 
ATOM     16  C   UNL A   1      39.809  21.642  26.146  1.00  0.00     0.029 A 
ATOM     17  N   UNL A   1      41.251  23.186  26.847  1.00  0.00    -0.354 N 
ATOM     18  C   UNL A   1      39.807  26.821  28.563  1.00  0.00     0.074 A 
ATOM     19  C   UNL A   1      38.401  27.027  28.306  1.00  0.00     0.031 C 
ATOM     20  C   UNL A   1      41.041  21.106  26.083  1.00  0.00     0.029 A 
ATOM     21  C   UNL A   1      42.021  22.131  26.402  1.00  0.00     0.049 A 
ATOM     22  H   UNL A   1      41.621  23.967  27.319  1.00  0.00     0.167 HD
ATOM     23  C   UNL A   1      40.533  27.543  29.444  1.00  0.00     0.037 A 
ATOM     24  C   UNL A   1      43.352  22.064  26.198  1.00  0.00     0.037 A 
ATOM     25  C   UNL A   1      41.938  27.350  29.668  1.00  0.00     0.049 A 
ATOM     26  C   UNL A   1      44.203  23.149  26.789  1.00  0.00     0.074 A 
ATOM     27  C   UNL A   1      42.774  28.003  30.554  1.00  0.00     0.029 A 
ATOM     28  N   UNL A   1      42.722  26.447  28.966  1.00  0.00    -0.354 N 
ATOM     29  N   UNL A   1      43.831  24.229  27.425  1.00  0.00    -0.248 NA
ATOM     30  C   UNL A   1      45.658  22.947  26.724  1.00  0.00     0.031 C 
ATOM     31  C   UNL A   1      44.079  27.546  30.336  1.00  0.00     0.029 A 
ATOM     32  C   UNL A   1      44.044  26.567  29.356  1.00  0.00     0.049 A 
ATOM     33  H   UNL A   1      42.387  25.815  28.290  1.00  0.00     0.167 HD
ATOM     34  C   UNL A   1      44.997  24.778  27.933  1.00  0.00     0.074 A 
ATOM     35  C   UNL A   1      46.095  23.971  27.439  1.00  0.00     0.031 C 
ATOM     36  C   UNL A   1      45.131  25.796  28.815  1.00  0.00     0.037 A 
BRANCH  23  37
ATOM     37  C   UNL A   1      39.795  28.583  30.226  1.00  0.00     0.057 A 
ATOM     38  C   UNL A   1      38.937  28.235  31.280  1.00  0.00     0.134 A 
ATOM     39  C   UNL A   1      39.920  29.939  29.910  1.00  0.00     0.134 A 
ATOM     40  F   UNL A   1      38.755  26.948  31.614  1.00  0.00    -0.206 F 
ATOM     41  C   UNL A   1      38.205  29.200  31.972  1.00  0.00     0.040 A 
ATOM     42  C   UNL A   1      39.211  30.914  30.611  1.00  0.00     0.040 A 
ATOM     43  F   UNL A   1      40.717  30.332  28.906  1.00  0.00    -0.206 F 
ATOM     44  C   UNL A   1      38.345  30.545  31.639  1.00  0.00     0.006 A 
ENDBRANCH  23  37
BRANCH  24  45
ATOM     45  C   UNL A   1      44.012  21.017  25.372  1.00  0.00     0.057 A 
ATOM     46  C   UNL A   1      44.628  21.264  24.146  1.00  0.00     0.134 A 
ATOM     47  C   UNL A   1      43.927  19.673  25.782  1.00  0.00     0.134 A 
ATOM     48  F   UNL A   1      44.703  22.513  23.668  1.00  0.00    -0.206 F 
ATOM     49  C   UNL A   1      45.142  20.221  23.364  1.00  0.00     0.040 A 
ATOM     50  C   UNL A   1      44.431  18.624  25.013  1.00  0.00     0.040 A 
ATOM     51  F   UNL A   1      43.311  19.363  26.933  1.00  0.00    -0.206 F 
ATOM     52  C   UNL A   1      45.045  18.898  23.797  1.00  0.00     0.006 A 
ENDBRANCH  24  45
BRANCH  36  53
ATOM     53  C   UNL A   1      46.505  26.021  29.355  1.00  0.00     0.057 A 
ATOM     54  C   UNL A   1      46.892  25.590  30.628  1.00  0.00     0.134 A 
ATOM     55  C   UNL A   1      47.443  26.726  28.590  1.00  0.00     0.134 A 
ATOM     56  F   UNL A   1      46.022  24.948  31.422  1.00  0.00    -0.206 F 
ATOM     57  C   UNL A   1      48.160  25.876  31.133  1.00  0.00     0.040 A 
ATOM     58  C   UNL A   1      48.723  26.990  29.071  1.00  0.00     0.040 A 
ATOM     59  F   UNL A   1      47.125  27.177  27.367  1.00  0.00    -0.206 F 
ATOM     60  C   UNL A   1      49.081  26.573  30.350  1.00  0.00     0.006 A 
ENDBRANCH  36  53
ENDBRANCH  10  11
ENDBRANCH   3   5
ENDBRANCH   2   3
ENDBRANCH   1   2
BRANCH   1  61
ATOM     61  C   UNL A   1      31.102  23.685  26.692  1.00  0.00     0.275 C 
BRANCH  61  62
ATOM     62  O   UNL A   1      31.784  24.948  26.772  1.00  0.00    -0.458 OA
BRANCH  62  63
ATOM     63  C   UNL A   1      31.222  25.961  26.056  1.00  0.00     0.340 C 
ATOM     64  O   UNL A   1      30.034  26.098  25.817  1.00  0.00    -0.246 OA
BRANCH  63  65
ATOM     65  C   UNL A   1      32.249  26.984  25.738  1.00  0.00     0.085 A 
ATOM     66  C   UNL A   1      32.772  27.711  26.833  1.00  0.00     0.043 A 
ATOM     67  C   UNL A   1      32.717  27.247  24.443  1.00  0.00     0.055 A 
ATOM     68  C   UNL A   1      33.807  28.639  26.668  1.00  0.00     0.038 A 
ATOM     69  C   UNL A   1      33.829  28.078  24.330  1.00  0.00     0.029 A 
ATOM     70  C   UNL A   1      34.359  28.779  25.407  1.00  0.00     0.028 A 
BRANCH  67  71
ATOM     71  N   UNL A   1      32.122  26.679  23.292  1.00  0.00    -0.325 N 
ATOM     72  C   UNL A   1      31.106  27.151  22.484  1.00  0.00     0.227 C 
ATOM     73  H   UNL A   1      32.492  25.807  23.023  1.00  0.00     0.169 HD
ATOM     74  O   UNL A   1      30.828  26.512  21.465  1.00  0.00    -0.274 OA
BRANCH  72  75
ATOM     75  C   UNL A   1      30.289  28.370  22.912  1.00  0.00     0.079 C 
ATOM     76  C   UNL A   1      30.243  29.553  21.947  1.00  0.00     0.013 C 
ATOM     77  C   UNL A   1      28.779  28.125  23.037  1.00  0.00     0.013 C 
ATOM     78  C   UNL A   1      29.298  30.486  22.672  1.00  0.00     0.001 C 
ATOM     79  C   UNL A   1      28.178  29.542  23.106  1.00  0.00     0.001 C 
ENDBRANCH  72  75
ENDBRANCH  67  71
BRANCH  68  80
ATOM     80  N   UNL A   1      34.244  29.411  27.726  1.00  0.00    -0.368 N 
ATOM     81  C   UNL A   1      35.654  29.340  28.163  1.00  0.00     0.138 C 
ATOM     82  C   UNL A   1      33.560  30.705  27.916  1.00  0.00     0.138 C 
ATOM     83  C   UNL A   1      36.496  30.576  27.745  1.00  0.00     0.138 C 
ATOM     84  C   UNL A   1      34.425  31.902  27.463  1.00  0.00     0.138 C 
ATOM     85  N   UNL A   1      35.782  31.836  28.023  1.00  0.00    -0.368 N 
BRANCH  85  86
ATOM     86  C   UNL A   1      36.142  32.599  29.119  1.00  0.00     0.037 A 
ATOM     87  C   UNL A   1      35.414  32.495  30.316  1.00  0.00     0.029 A 
ATOM     88  C   UNL A   1      37.245  33.466  29.106  1.00  0.00     0.029 A 
ATOM     89  C   UNL A   1      35.784  33.211  31.459  1.00  0.00     0.041 A 
ATOM     90  C   UNL A   1      37.611  34.200  30.239  1.00  0.00     0.041 A 
ATOM     91  C   UNL A   1      36.880  34.059  31.408  1.00  0.00     0.123 A 
ATOM     92  F   UNL A   1      37.241  34.745  32.501  1.00  0.00    -0.207 F 
ENDBRANCH  85  86
ENDBRANCH  68  80
ENDBRANCH  63  65
ENDBRANCH  62  63
ENDBRANCH  61  62
ENDBRANCH   1  61
TORSDOF 15
ENDMDL
