MODEL 1
REMARK VINA RESULT:      -9.4      0.000      0.000
REMARK SMILES C[C@H]1[C@H](C(=O)OCCOC(=O)c2ccc(-c3c4nc(c(-c5c(F)cccc5F)c5ccc([nH]5)c(-c5c(F)cccc5F)c5nc(c(-c6c(F)cccc6F)c6ccc3[nH]6)C=C5)C=C4)cc2)CCN1C(=O)[C@H]1CC=CCC1
REMARK SMILES IDX 7 1 6 2 4 3 5 4 3 5 1 6 2 7 68 8 66 9 67 10 69 11 70 12
REMARK SMILES IDX 71 13 72 14 76 15 73 16 75 17 74 18 8 19 9 20 10 21 11 22
REMARK SMILES IDX 12 23 13 24 65 25 14 26 64 27 15 28 16 29 17 30 58 31 18 32
REMARK SMILES IDX 63 33 57 34 59 35 19 36 62 37 56 38 55 39 20 41 46 42 29 43
REMARK SMILES IDX 45 44 30 45 33 46 44 47 60 48 31 49 32 50 43 52 61 53 34 54
REMARK SMILES IDX 21 55 22 56 27 57 23 58 24 59 26 60 28 61 25 62 47 63 48 64
REMARK SMILES IDX 53 65 49 66 50 67 52 68 54 69 51 70 35 71 36 72 41 73 37 74
REMARK SMILES IDX 38 75 40 76 42 77 39 78
REMARK H PARENT 59 40 33 51
REMARK Flexibility Score: inf
ROOT
ATOM      1  C   UNL A   1      41.833  19.838  26.821  1.00  0.00     0.274 C 
ENDROOT
BRANCH   1   2
ATOM      2  O   UNL A   1      42.732  20.931  27.103  1.00  0.00    -0.462 OA
BRANCH   2   3
ATOM      3  C   UNL A   1      43.347  21.487  26.029  1.00  0.00     0.311 C 
ATOM      4  O   UNL A   1      43.629  20.884  24.999  1.00  0.00    -0.252 OA
BRANCH   3   5
ATOM      5  C   UNL A   1      43.722  22.937  26.229  1.00  0.00     0.123 C 
ATOM      6  C   UNL A   1      45.503  23.713  27.817  1.00  0.00     0.032 C 
ATOM      7  C   UNL A   1      45.234  23.234  26.385  1.00  0.00     0.096 C 
ATOM      8  N   UNL A   1      45.503  24.299  25.413  1.00  0.00    -0.339 N 
ATOM      9  C   UNL A   1      43.254  23.788  25.052  1.00  0.00     0.039 C 
ATOM     10  C   UNL A   1      44.253  24.928  25.025  1.00  0.00     0.121 C 
BRANCH   8  11
ATOM     11  C   UNL A   1      46.676  24.739  24.848  1.00  0.00     0.226 C 
ATOM     12  O   UNL A   1      47.145  24.124  23.879  1.00  0.00    -0.275 OA
BRANCH  11  13
ATOM     13  C   UNL A   1      47.490  25.931  25.379  1.00  0.00     0.083 C 
ATOM     14  C   UNL A   1      48.480  25.629  26.504  1.00  0.00     0.040 C 
ATOM     15  C   UNL A   1      47.973  26.919  24.308  1.00  0.00     0.018 C 
ATOM     16  C   UNL A   1      49.924  25.796  26.153  1.00  0.00    -0.030 C 
ATOM     17  C   UNL A   1      49.455  26.876  23.943  1.00  0.00     0.028 C 
ATOM     18  C   UNL A   1      50.355  26.352  25.015  1.00  0.00    -0.031 C 
ENDBRANCH  11  13
ENDBRANCH   8  11
ENDBRANCH   3   5
ENDBRANCH   2   3
ENDBRANCH   1   2
BRANCH   1  19
ATOM     19  C   UNL A   1      40.426  20.320  26.452  1.00  0.00     0.275 C 
BRANCH  19  20
ATOM     20  O   UNL A   1      40.012  21.448  27.247  1.00  0.00    -0.458 OA
BRANCH  20  21
ATOM     21  C   UNL A   1      39.479  22.468  26.542  1.00  0.00     0.338 C 
ATOM     22  O   UNL A   1      38.552  22.415  25.750  1.00  0.00    -0.246 OA
BRANCH  21  23
ATOM     23  C   UNL A   1      40.085  23.743  26.935  1.00  0.00     0.060 A 
ATOM     24  C   UNL A   1      40.709  23.812  28.183  1.00  0.00     0.016 A 
ATOM     25  C   UNL A   1      39.926  24.883  26.150  1.00  0.00     0.016 A 
ATOM     26  C   UNL A   1      41.149  25.033  28.677  1.00  0.00     0.010 A 
ATOM     27  C   UNL A   1      40.389  26.107  26.635  1.00  0.00     0.010 A 
ATOM     28  C   UNL A   1      40.987  26.189  27.906  1.00  0.00    -0.014 A 
BRANCH  28  29
ATOM     29  C   UNL A   1      41.434  27.495  28.434  1.00  0.00     0.031 A 
ATOM     30  C   UNL A   1      40.427  28.483  28.934  1.00  0.00     0.074 A 
ATOM     31  C   UNL A   1      42.747  27.782  28.452  1.00  0.00     0.049 A 
ATOM     32  N   UNL A   1      40.597  29.734  29.268  1.00  0.00    -0.248 NA
ATOM     33  C   UNL A   1      39.045  27.999  29.075  1.00  0.00     0.031 C 
ATOM     34  C   UNL A   1      43.818  26.869  28.051  1.00  0.00     0.029 A 
ATOM     35  N   UNL A   1      43.400  28.933  28.806  1.00  0.00    -0.354 N 
ATOM     36  C   UNL A   1      39.341  30.201  29.632  1.00  0.00     0.074 A 
ATOM     37  C   UNL A   1      38.419  29.095  29.483  1.00  0.00     0.031 C 
ATOM     38  C   UNL A   1      44.996  27.501  28.167  1.00  0.00     0.029 A 
ATOM     39  C   UNL A   1      44.755  28.875  28.594  1.00  0.00     0.049 A 
ATOM     40  H   UNL A   1      42.943  29.723  29.176  1.00  0.00     0.167 HD
ATOM     41  C   UNL A   1      38.996  31.442  30.046  1.00  0.00     0.037 A 
ATOM     42  C   UNL A   1      45.690  29.839  28.687  1.00  0.00     0.037 A 
ATOM     43  C   UNL A   1      39.927  32.528  30.202  1.00  0.00     0.049 A 
ATOM     44  C   UNL A   1      45.272  31.225  29.085  1.00  0.00     0.074 A 
ATOM     45  C   UNL A   1      39.679  33.828  30.609  1.00  0.00     0.029 A 
ATOM     46  N   UNL A   1      41.289  32.436  29.962  1.00  0.00    -0.354 N 
ATOM     47  N   UNL A   1      44.077  31.671  29.388  1.00  0.00    -0.248 NA
ATOM     48  C   UNL A   1      46.328  32.245  29.139  1.00  0.00     0.031 C 
ATOM     49  C   UNL A   1      40.889  34.529  30.590  1.00  0.00     0.029 A 
ATOM     50  C   UNL A   1      41.894  33.658  30.200  1.00  0.00     0.049 A 
ATOM     51  H   UNL A   1      41.757  31.622  29.666  1.00  0.00     0.167 HD
ATOM     52  C   UNL A   1      44.237  33.016  29.683  1.00  0.00     0.074 A 
ATOM     53  C   UNL A   1      45.647  33.315  29.528  1.00  0.00     0.031 C 
ATOM     54  C   UNL A   1      43.300  33.925  30.048  1.00  0.00     0.037 A 
BRANCH  41  55
ATOM     55  C   UNL A   1      37.548  31.698  30.320  1.00  0.00     0.057 A 
ATOM     56  C   UNL A   1      36.654  32.052  29.303  1.00  0.00     0.134 A 
ATOM     57  C   UNL A   1      37.034  31.560  31.616  1.00  0.00     0.134 A 
ATOM     58  F   UNL A   1      37.088  32.216  28.044  1.00  0.00    -0.206 F 
ATOM     59  C   UNL A   1      35.301  32.271  29.567  1.00  0.00     0.040 A 
ATOM     60  C   UNL A   1      35.681  31.759  31.889  1.00  0.00     0.040 A 
ATOM     61  F   UNL A   1      37.840  31.223  32.634  1.00  0.00    -0.206 F 
ATOM     62  C   UNL A   1      34.810  32.119  30.863  1.00  0.00     0.006 A 
ENDBRANCH  41  55
BRANCH  42  63
ATOM     63  C   UNL A   1      47.098  29.528  28.355  1.00  0.00     0.057 A 
ATOM     64  C   UNL A   1      47.587  29.692  27.055  1.00  0.00     0.134 A 
ATOM     65  C   UNL A   1      47.994  29.081  29.334  1.00  0.00     0.134 A 
ATOM     66  F   UNL A   1      46.770  30.098  26.073  1.00  0.00    -0.206 F 
ATOM     67  C   UNL A   1      48.919  29.419  26.739  1.00  0.00     0.040 A 
ATOM     68  C   UNL A   1      49.332  28.824  29.036  1.00  0.00     0.040 A 
ATOM     69  F   UNL A   1      47.584  28.909  30.599  1.00  0.00    -0.206 F 
ATOM     70  C   UNL A   1      49.797  28.990  27.733  1.00  0.00     0.006 A 
ENDBRANCH  42  63
BRANCH  54  71
ATOM     71  C   UNL A   1      43.776  35.313  30.337  1.00  0.00     0.057 A 
ATOM     72  C   UNL A   1      44.208  35.689  31.614  1.00  0.00     0.134 A 
ATOM     73  C   UNL A   1      43.851  36.266  29.314  1.00  0.00     0.134 A 
ATOM     74  F   UNL A   1      44.146  34.822  32.636  1.00  0.00    -0.206 F 
ATOM     75  C   UNL A   1      44.693  36.973  31.866  1.00  0.00     0.040 A 
ATOM     76  C   UNL A   1      44.350  37.547  29.550  1.00  0.00     0.040 A 
ATOM     77  F   UNL A   1      43.456  35.961  28.069  1.00  0.00    -0.206 F 
ATOM     78  C   UNL A   1      44.771  37.903  30.830  1.00  0.00     0.006 A 
ENDBRANCH  54  71
ENDBRANCH  28  29
ENDBRANCH  21  23
ENDBRANCH  20  21
ENDBRANCH  19  20
ENDBRANCH   1  19
TORSDOF 13
ENDMDL
MODEL 2
REMARK VINA RESULT:      -9.3      3.454      6.879
REMARK SMILES C[C@H]1[C@H](C(=O)OCCOC(=O)c2ccc(-c3c4nc(c(-c5c(F)cccc5F)c5ccc([nH]5)c(-c5c(F)cccc5F)c5nc(c(-c6c(F)cccc6F)c6ccc3[nH]6)C=C5)C=C4)cc2)CCN1C(=O)[C@H]1CC=CCC1
REMARK SMILES IDX 7 1 6 2 4 3 5 4 3 5 1 6 2 7 68 8 66 9 67 10 69 11 70 12
REMARK SMILES IDX 71 13 72 14 76 15 73 16 75 17 74 18 8 19 9 20 10 21 11 22
REMARK SMILES IDX 12 23 13 24 65 25 14 26 64 27 15 28 16 29 17 30 58 31 18 32
REMARK SMILES IDX 63 33 57 34 59 35 19 36 62 37 56 38 55 39 20 41 46 42 29 43
REMARK SMILES IDX 45 44 30 45 33 46 44 47 60 48 31 49 32 50 43 52 61 53 34 54
REMARK SMILES IDX 21 55 22 56 27 57 23 58 24 59 26 60 28 61 25 62 47 63 48 64
REMARK SMILES IDX 53 65 49 66 50 67 52 68 54 69 51 70 35 71 36 72 41 73 37 74
REMARK SMILES IDX 38 75 40 76 42 77 39 78
REMARK H PARENT 59 40 33 51
REMARK Flexibility Score: inf
ROOT
ATOM      1  C   UNL A   1      37.881  21.001  25.084  1.00  0.00     0.274 C 
ENDROOT
BRANCH   1   2
ATOM      2  O   UNL A   1      37.358  22.231  24.540  1.00  0.00    -0.462 OA
BRANCH   2   3
ATOM      3  C   UNL A   1      36.615  22.987  25.387  1.00  0.00     0.311 C 
ATOM      4  O   UNL A   1      37.052  23.919  26.054  1.00  0.00    -0.252 OA
BRANCH   3   5
ATOM      5  C   UNL A   1      35.176  22.541  25.493  1.00  0.00     0.123 C 
ATOM      6  C   UNL A   1      34.019  22.059  27.667  1.00  0.00     0.032 C 
ATOM      7  C   UNL A   1      34.355  23.159  26.652  1.00  0.00     0.096 C 
ATOM      8  N   UNL A   1      33.140  23.673  26.010  1.00  0.00    -0.339 N 
ATOM      9  C   UNL A   1      34.406  22.876  24.219  1.00  0.00     0.039 C 
ATOM     10  C   UNL A   1      32.982  23.054  24.706  1.00  0.00     0.121 C 
BRANCH   8  11
ATOM     11  C   UNL A   1      32.213  24.598  26.427  1.00  0.00     0.226 C 
ATOM     12  O   UNL A   1      31.377  24.269  27.281  1.00  0.00    -0.275 OA
BRANCH  11  13
ATOM     13  C   UNL A   1      32.104  26.022  25.856  1.00  0.00     0.083 C 
ATOM     14  C   UNL A   1      31.092  26.947  26.530  1.00  0.00     0.040 C 
ATOM     15  C   UNL A   1      33.438  26.666  25.455  1.00  0.00     0.018 C 
ATOM     16  C   UNL A   1      31.673  28.118  27.257  1.00  0.00    -0.030 C 
ATOM     17  C   UNL A   1      33.988  27.754  26.376  1.00  0.00     0.028 C 
ATOM     18  C   UNL A   1      32.960  28.476  27.186  1.00  0.00    -0.031 C 
ENDBRANCH  11  13
ENDBRANCH   8  11
ENDBRANCH   3   5
ENDBRANCH   2   3
ENDBRANCH   1   2
BRANCH   1  19
ATOM     19  C   UNL A   1      39.266  21.183  25.713  1.00  0.00     0.275 C 
BRANCH  19  20
ATOM     20  O   UNL A   1      39.898  19.924  26.010  1.00  0.00    -0.458 OA
BRANCH  20  21
ATOM     21  C   UNL A   1      41.246  19.939  25.941  1.00  0.00     0.338 C 
ATOM     22  O   UNL A   1      41.967  19.124  25.390  1.00  0.00    -0.246 OA
BRANCH  21  23
ATOM     23  C   UNL A   1      41.781  21.170  26.529  1.00  0.00     0.060 A 
ATOM     24  C   UNL A   1      41.716  21.312  27.917  1.00  0.00     0.016 A 
ATOM     25  C   UNL A   1      42.216  22.218  25.721  1.00  0.00     0.016 A 
ATOM     26  C   UNL A   1      42.051  22.522  28.511  1.00  0.00     0.010 A 
ATOM     27  C   UNL A   1      42.576  23.428  26.319  1.00  0.00     0.010 A 
ATOM     28  C   UNL A   1      42.479  23.588  27.713  1.00  0.00    -0.014 A 
BRANCH  28  29
ATOM     29  C   UNL A   1      42.818  24.885  28.337  1.00  0.00     0.031 A 
ATOM     30  C   UNL A   1      41.750  25.911  28.553  1.00  0.00     0.074 A 
ATOM     31  C   UNL A   1      44.090  25.129  28.697  1.00  0.00     0.049 A 
ATOM     32  N   UNL A   1      41.870  27.160  28.917  1.00  0.00    -0.248 NA
ATOM     33  C   UNL A   1      40.362  25.474  28.329  1.00  0.00     0.031 C 
ATOM     34  C   UNL A   1      45.195  24.177  28.593  1.00  0.00     0.029 A 
ATOM     35  N   UNL A   1      44.667  26.263  29.207  1.00  0.00    -0.354 N 
ATOM     36  C   UNL A   1      40.579  27.671  28.939  1.00  0.00     0.074 A 
ATOM     37  C   UNL A   1      39.690  26.594  28.556  1.00  0.00     0.031 C 
ATOM     38  C   UNL A   1      46.324  24.772  29.011  1.00  0.00     0.029 A 
ATOM     39  C   UNL A   1      46.027  26.158  29.356  1.00  0.00     0.049 A 
ATOM     40  H   UNL A   1      44.156  27.071  29.443  1.00  0.00     0.167 HD
ATOM     41  C   UNL A   1      40.180  28.928  29.245  1.00  0.00     0.037 A 
ATOM     42  C   UNL A   1      46.937  27.091  29.689  1.00  0.00     0.037 A 
ATOM     43  C   UNL A   1      41.075  29.984  29.636  1.00  0.00     0.049 A 
ATOM     44  C   UNL A   1      46.478  28.495  29.960  1.00  0.00     0.074 A 
ATOM     45  C   UNL A   1      40.774  31.296  29.961  1.00  0.00     0.029 A 
ATOM     46  N   UNL A   1      42.449  29.845  29.761  1.00  0.00    -0.354 N 
ATOM     47  N   UNL A   1      45.262  28.983  29.939  1.00  0.00    -0.248 NA
ATOM     48  C   UNL A   1      47.518  29.481  30.285  1.00  0.00     0.031 C 
ATOM     49  C   UNL A   1      41.971  31.957  30.258  1.00  0.00     0.029 A 
ATOM     50  C   UNL A   1      43.013  31.050  30.146  1.00  0.00     0.049 A 
ATOM     51  H   UNL A   1      42.949  29.013  29.600  1.00  0.00     0.167 HD
ATOM     52  C   UNL A   1      45.385  30.325  30.262  1.00  0.00     0.074 A 
ATOM     53  C   UNL A   1      46.796  30.576  30.480  1.00  0.00     0.031 C 
ATOM     54  C   UNL A   1      44.417  31.269  30.367  1.00  0.00     0.037 A 
BRANCH  41  55
ATOM     55  C   UNL A   1      38.721  29.234  29.130  1.00  0.00     0.057 A 
ATOM     56  C   UNL A   1      38.131  29.576  27.907  1.00  0.00     0.134 A 
ATOM     57  C   UNL A   1      37.888  29.157  30.254  1.00  0.00     0.134 A 
ATOM     58  F   UNL A   1      38.878  29.682  26.799  1.00  0.00    -0.206 F 
ATOM     59  C   UNL A   1      36.764  29.841  27.808  1.00  0.00     0.040 A 
ATOM     60  C   UNL A   1      36.517  29.405  30.164  1.00  0.00     0.040 A 
ATOM     61  F   UNL A   1      38.393  28.835  31.454  1.00  0.00    -0.206 F 
ATOM     62  C   UNL A   1      35.953  29.751  28.938  1.00  0.00     0.006 A 
ENDBRANCH  41  55
BRANCH  42  63
ATOM     63  C   UNL A   1      48.372  26.730  29.737  1.00  0.00     0.057 A 
ATOM     64  C   UNL A   1      48.939  26.173  30.886  1.00  0.00     0.134 A 
ATOM     65  C   UNL A   1      49.205  26.913  28.626  1.00  0.00     0.134 A 
ATOM     66  F   UNL A   1      48.194  25.992  31.987  1.00  0.00    -0.206 F 
ATOM     67  C   UNL A   1      50.287  25.812  30.932  1.00  0.00     0.040 A 
ATOM     68  C   UNL A   1      50.548  26.539  28.650  1.00  0.00     0.040 A 
ATOM     69  F   UNL A   1      48.716  27.441  27.493  1.00  0.00    -0.206 F 
ATOM     70  C   UNL A   1      51.094  25.990  29.809  1.00  0.00     0.006 A 
ENDBRANCH  42  63
BRANCH  54  71
ATOM     71  C   UNL A   1      44.849  32.644  30.767  1.00  0.00     0.057 A 
ATOM     72  C   UNL A   1      44.969  33.013  32.111  1.00  0.00     0.134 A 
ATOM     73  C   UNL A   1      45.198  33.590  29.796  1.00  0.00     0.134 A 
ATOM     74  F   UNL A   1      44.636  32.152  33.085  1.00  0.00    -0.206 F 
ATOM     75  C   UNL A   1      45.415  34.282  32.477  1.00  0.00     0.040 A 
ATOM     76  C   UNL A   1      45.661  34.857  30.149  1.00  0.00     0.040 A 
ATOM     77  F   UNL A   1      45.107  33.291  28.491  1.00  0.00    -0.206 F 
ATOM     78  C   UNL A   1      45.769  35.206  31.494  1.00  0.00     0.006 A 
ENDBRANCH  54  71
ENDBRANCH  28  29
ENDBRANCH  21  23
ENDBRANCH  20  21
ENDBRANCH  19  20
ENDBRANCH   1  19
TORSDOF 13
ENDMDL
MODEL 3
REMARK VINA RESULT:      -9.3      4.192     10.440
REMARK SMILES C[C@H]1[C@H](C(=O)OCCOC(=O)c2ccc(-c3c4nc(c(-c5c(F)cccc5F)c5ccc([nH]5)c(-c5c(F)cccc5F)c5nc(c(-c6c(F)cccc6F)c6ccc3[nH]6)C=C5)C=C4)cc2)CCN1C(=O)[C@H]1CC=CCC1
REMARK SMILES IDX 7 1 6 2 4 3 5 4 3 5 1 6 2 7 68 8 66 9 67 10 69 11 70 12
REMARK SMILES IDX 71 13 72 14 76 15 73 16 75 17 74 18 8 19 9 20 10 21 11 22
REMARK SMILES IDX 12 23 13 24 65 25 14 26 64 27 15 28 16 29 17 30 58 31 18 32
REMARK SMILES IDX 63 33 57 34 59 35 19 36 62 37 56 38 55 39 20 41 46 42 29 43
REMARK SMILES IDX 45 44 30 45 33 46 44 47 60 48 31 49 32 50 43 52 61 53 34 54
REMARK SMILES IDX 21 55 22 56 27 57 23 58 24 59 26 60 28 61 25 62 47 63 48 64
REMARK SMILES IDX 53 65 49 66 50 67 52 68 54 69 51 70 35 71 36 72 41 73 37 74
REMARK SMILES IDX 38 75 40 76 42 77 39 78
REMARK H PARENT 59 40 33 51
REMARK Flexibility Score: inf
ROOT
ATOM      1  C   UNL A   1      33.942  34.149  28.431  1.00  0.00     0.274 C 
ENDROOT
BRANCH   1   2
ATOM      2  O   UNL A   1      32.925  34.543  29.375  1.00  0.00    -0.462 OA
BRANCH   2   3
ATOM      3  C   UNL A   1      33.257  35.551  30.221  1.00  0.00     0.311 C 
ATOM      4  O   UNL A   1      33.299  36.736  29.908  1.00  0.00    -0.252 OA
BRANCH   3   5
ATOM      5  C   UNL A   1      33.640  35.081  31.604  1.00  0.00     0.123 C 
ATOM      6  C   UNL A   1      34.340  32.732  32.139  1.00  0.00     0.032 C 
ATOM      7  C   UNL A   1      34.842  34.108  31.685  1.00  0.00     0.096 C 
ATOM      8  N   UNL A   1      35.731  34.703  32.690  1.00  0.00    -0.339 N 
ATOM      9  C   UNL A   1      34.004  36.262  32.500  1.00  0.00     0.039 C 
ATOM     10  C   UNL A   1      34.988  35.664  33.485  1.00  0.00     0.121 C 
BRANCH   8  11
ATOM     11  C   UNL A   1      37.066  34.508  32.952  1.00  0.00     0.226 C 
ATOM     12  O   UNL A   1      37.557  35.008  33.975  1.00  0.00    -0.275 OA
BRANCH  11  13
ATOM     13  C   UNL A   1      38.022  33.746  32.019  1.00  0.00     0.083 C 
ATOM     14  C   UNL A   1      37.384  32.710  31.094  1.00  0.00     0.040 C 
ATOM     15  C   UNL A   1      39.145  34.592  31.406  1.00  0.00     0.018 C 
ATOM     16  C   UNL A   1      37.452  33.024  29.633  1.00  0.00    -0.030 C 
ATOM     17  C   UNL A   1      39.008  34.962  29.930  1.00  0.00     0.028 C 
ATOM     18  C   UNL A   1      38.176  34.024  29.118  1.00  0.00    -0.031 C 
ENDBRANCH  11  13
ENDBRANCH   8  11
ENDBRANCH   3   5
ENDBRANCH   2   3
ENDBRANCH   1   2
BRANCH   1  19
ATOM     19  C   UNL A   1      33.771  32.700  27.961  1.00  0.00     0.275 C 
BRANCH  19  20
ATOM     20  O   UNL A   1      34.572  31.781  28.728  1.00  0.00    -0.458 OA
BRANCH  20  21
ATOM     21  C   UNL A   1      34.644  30.534  28.216  1.00  0.00     0.338 C 
ATOM     22  O   UNL A   1      33.770  29.930  27.617  1.00  0.00    -0.246 OA
BRANCH  21  23
ATOM     23  C   UNL A   1      35.997  29.992  28.360  1.00  0.00     0.060 A 
ATOM     24  C   UNL A   1      36.362  29.467  29.603  1.00  0.00     0.016 A 
ATOM     25  C   UNL A   1      36.931  30.118  27.334  1.00  0.00     0.016 A 
ATOM     26  C   UNL A   1      37.678  29.097  29.845  1.00  0.00     0.010 A 
ATOM     27  C   UNL A   1      38.250  29.724  27.569  1.00  0.00     0.010 A 
ATOM     28  C   UNL A   1      38.630  29.227  28.829  1.00  0.00    -0.014 A 
BRANCH  28  29
ATOM     29  C   UNL A   1      40.037  28.854  29.086  1.00  0.00     0.031 A 
ATOM     30  C   UNL A   1      40.980  29.855  29.676  1.00  0.00     0.074 A 
ATOM     31  C   UNL A   1      40.455  27.614  28.778  1.00  0.00     0.049 A 
ATOM     32  N   UNL A   1      42.277  29.784  29.814  1.00  0.00    -0.248 NA
ATOM     33  C   UNL A   1      40.384  31.104  30.178  1.00  0.00     0.031 C 
ATOM     34  C   UNL A   1      39.607  26.540  28.261  1.00  0.00     0.029 A 
ATOM     35  N   UNL A   1      41.706  27.057  28.840  1.00  0.00    -0.354 N 
ATOM     36  C   UNL A   1      42.661  30.987  30.390  1.00  0.00     0.074 A 
ATOM     37  C   UNL A   1      41.457  31.769  30.581  1.00  0.00     0.031 C 
ATOM     38  C   UNL A   1      40.365  25.455  28.036  1.00  0.00     0.029 A 
ATOM     39  C   UNL A   1      41.755  25.780  28.340  1.00  0.00     0.049 A 
ATOM     40  H   UNL A   1      42.490  27.526  29.206  1.00  0.00     0.167 HD
ATOM     41  C   UNL A   1      43.907  31.398  30.721  1.00  0.00     0.037 A 
ATOM     42  C   UNL A   1      42.812  24.979  28.109  1.00  0.00     0.037 A 
ATOM     43  C   UNL A   1      45.093  30.604  30.537  1.00  0.00     0.049 A 
ATOM     44  C   UNL A   1      44.191  25.482  28.423  1.00  0.00     0.074 A 
ATOM     45  C   UNL A   1      46.406  30.929  30.832  1.00  0.00     0.029 A 
ATOM     46  N   UNL A   1      45.106  29.320  30.013  1.00  0.00    -0.354 N 
ATOM     47  N   UNL A   1      44.552  26.636  28.928  1.00  0.00    -0.248 NA
ATOM     48  C   UNL A   1      45.310  24.579  28.120  1.00  0.00     0.031 C 
ATOM     49  C   UNL A   1      47.216  29.851  30.462  1.00  0.00     0.029 A 
ATOM     50  C   UNL A   1      46.405  28.843  29.964  1.00  0.00     0.049 A 
ATOM     51  H   UNL A   1      44.310  28.822  29.719  1.00  0.00     0.167 HD
ATOM     52  C   UNL A   1      45.935  26.595  29.020  1.00  0.00     0.074 A 
ATOM     53  C   UNL A   1      46.350  25.298  28.521  1.00  0.00     0.031 C 
ATOM     54  C   UNL A   1      46.788  27.546  29.474  1.00  0.00     0.037 A 
BRANCH  41  55
ATOM     55  C   UNL A   1      44.053  32.779  31.277  1.00  0.00     0.057 A 
ATOM     56  C   UNL A   1      44.042  33.026  32.655  1.00  0.00     0.134 A 
ATOM     57  C   UNL A   1      44.236  33.874  30.423  1.00  0.00     0.134 A 
ATOM     58  F   UNL A   1      43.854  32.022  33.524  1.00  0.00    -0.206 F 
ATOM     59  C   UNL A   1      44.197  34.317  33.164  1.00  0.00     0.040 A 
ATOM     60  C   UNL A   1      44.408  35.166  30.920  1.00  0.00     0.040 A 
ATOM     61  F   UNL A   1      44.255  33.702  29.093  1.00  0.00    -0.206 F 
ATOM     62  C   UNL A   1      44.386  35.390  32.295  1.00  0.00     0.006 A 
ENDBRANCH  41  55
BRANCH  42  63
ATOM     63  C   UNL A   1      42.600  23.641  27.511  1.00  0.00     0.057 A 
ATOM     64  C   UNL A   1      42.342  22.525  28.312  1.00  0.00     0.134 A 
ATOM     65  C   UNL A   1      42.628  23.453  26.124  1.00  0.00     0.134 A 
ATOM     66  F   UNL A   1      42.322  22.641  29.647  1.00  0.00    -0.206 F 
ATOM     67  C   UNL A   1      42.122  21.264  27.753  1.00  0.00     0.040 A 
ATOM     68  C   UNL A   1      42.390  22.204  25.551  1.00  0.00     0.040 A 
ATOM     69  F   UNL A   1      42.867  24.489  25.305  1.00  0.00    -0.206 F 
ATOM     70  C   UNL A   1      42.140  21.103  26.368  1.00  0.00     0.006 A 
ENDBRANCH  42  63
BRANCH  54  71
ATOM     71  C   UNL A   1      48.244  27.205  29.483  1.00  0.00     0.057 A 
ATOM     72  C   UNL A   1      48.826  26.503  30.545  1.00  0.00     0.134 A 
ATOM     73  C   UNL A   1      49.059  27.537  28.394  1.00  0.00     0.134 A 
ATOM     74  F   UNL A   1      48.097  26.171  31.621  1.00  0.00    -0.206 F 
ATOM     75  C   UNL A   1      50.175  26.149  30.527  1.00  0.00     0.040 A 
ATOM     76  C   UNL A   1      50.405  27.174  28.357  1.00  0.00     0.040 A 
ATOM     77  F   UNL A   1      48.555  28.204  27.346  1.00  0.00    -0.206 F 
ATOM     78  C   UNL A   1      50.966  26.478  29.427  1.00  0.00     0.006 A 
ENDBRANCH  54  71
ENDBRANCH  28  29
ENDBRANCH  21  23
ENDBRANCH  20  21
ENDBRANCH  19  20
ENDBRANCH   1  19
TORSDOF 13
ENDMDL
