MODEL 1
REMARK VINA RESULT:     -10.7      0.000      0.000
REMARK SMILES C[C@H]([NH2+][C@@H]1CC(=O)N(C)C1=O)[C@H](C)C(=O)OCCOC(=O)c1ccc(-c2c3nc(c(-c4c(F)cccc4F)c4ccc([nH]4)c(-c4c(F)cccc4F)c4nc(c(-c5c(F)cccc5F)c5ccc2[nH]5)C=C4)C=C3)cc1
REMARK SMILES IDX 17 1 16 2 14 3 15 4 12 5 13 6 2 7 1 8 3 9 4 12 5 13 10 14
REMARK SMILES IDX 6 15 8 16 11 17 7 18 9 19 18 20 19 21 20 22 21 23 22 24
REMARK SMILES IDX 23 25 75 26 24 27 74 28 25 29 26 30 27 31 68 32 28 33 73 34
REMARK SMILES IDX 67 35 69 36 29 37 72 38 66 39 65 40 30 42 56 43 39 44 55 45
REMARK SMILES IDX 40 46 43 47 54 48 70 49 41 50 42 51 53 53 71 54 44 55 31 56
REMARK SMILES IDX 32 57 37 58 33 59 34 60 36 61 38 62 35 63 57 64 58 65 63 66
REMARK SMILES IDX 59 67 60 68 62 69 64 70 61 71 45 72 46 73 51 74 47 75 48 76
REMARK SMILES IDX 50 77 52 78 49 79
REMARK H PARENT 3 10 3 11 69 41 43 52
REMARK Flexibility Score: inf
ROOT
ATOM      1  C   UNL A   1      41.727  20.527  26.450  1.00  0.00     0.274 C 
ENDROOT
BRANCH   1   2
ATOM      2  O   UNL A   1      40.477  21.245  26.501  1.00  0.00    -0.462 OA
BRANCH   2   3
ATOM      3  C   UNL A   1      39.424  20.643  25.882  1.00  0.00     0.314 C 
ATOM      4  O   UNL A   1      39.475  19.525  25.382  1.00  0.00    -0.252 OA
BRANCH   3   5
ATOM      5  C   UNL A   1      38.147  21.487  25.934  1.00  0.00     0.154 C 
ATOM      6  C   UNL A   1      38.469  22.989  25.962  1.00  0.00     0.026 C 
BRANCH   5   7
ATOM      7  C   UNL A   1      37.159  21.094  24.808  1.00  0.00     0.194 C 
ATOM      8  C   UNL A   1      36.886  22.267  23.846  1.00  0.00     0.076 C 
BRANCH   7   9
ATOM      9  N   UNL A   1      35.887  20.661  25.388  1.00  0.00    -0.333 N 
ATOM     10  H   UNL A   1      36.106  20.092  26.206  1.00  0.00     0.347 HD
ATOM     11  H   UNL A   1      35.412  20.179  24.625  1.00  0.00     0.347 HD
BRANCH   9  12
ATOM     12  C   UNL A   1      34.939  21.687  25.814  1.00  0.00     0.282 C 
ATOM     13  C   UNL A   1      34.533  21.729  27.280  1.00  0.00     0.176 C 
ATOM     14  C   UNL A   1      33.587  21.536  25.116  1.00  0.00     0.287 C 
ATOM     15  C   UNL A   1      33.119  22.227  27.228  1.00  0.00     0.235 C 
ATOM     16  N   UNL A   1      32.625  21.990  25.979  1.00  0.00    -0.280 N 
ATOM     17  O   UNL A   1      33.396  21.096  23.992  1.00  0.00    -0.267 OA
ATOM     18  O   UNL A   1      32.514  22.682  28.186  1.00  0.00    -0.274 OA
ATOM     19  C   UNL A   1      31.239  22.138  25.611  1.00  0.00     0.156 C 
ENDBRANCH   9  12
ENDBRANCH   7   9
ENDBRANCH   5   7
ENDBRANCH   3   5
ENDBRANCH   2   3
ENDBRANCH   1   2
BRANCH   1  20
ATOM     20  C   UNL A   1      42.804  21.344  25.727  1.00  0.00     0.275 C 
BRANCH  20  21
ATOM     21  O   UNL A   1      42.277  22.596  25.248  1.00  0.00    -0.458 OA
BRANCH  21  22
ATOM     22  C   UNL A   1      43.136  23.641  25.248  1.00  0.00     0.338 C 
ATOM     23  O   UNL A   1      44.093  23.823  24.516  1.00  0.00    -0.246 OA
BRANCH  22  24
ATOM     24  C   UNL A   1      42.716  24.618  26.263  1.00  0.00     0.060 A 
ATOM     25  C   UNL A   1      43.316  25.878  26.278  1.00  0.00     0.016 A 
ATOM     26  C   UNL A   1      41.803  24.257  27.253  1.00  0.00     0.016 A 
ATOM     27  C   UNL A   1      43.017  26.785  27.289  1.00  0.00     0.010 A 
ATOM     28  C   UNL A   1      41.477  25.181  28.250  1.00  0.00     0.010 A 
ATOM     29  C   UNL A   1      42.088  26.448  28.278  1.00  0.00    -0.014 A 
BRANCH  29  30
ATOM     30  C   UNL A   1      41.754  27.421  29.344  1.00  0.00     0.031 A 
ATOM     31  C   UNL A   1      42.531  27.430  30.625  1.00  0.00     0.074 A 
ATOM     32  C   UNL A   1      40.747  28.293  29.155  1.00  0.00     0.049 A 
ATOM     33  N   UNL A   1      42.301  28.096  31.727  1.00  0.00    -0.248 NA
ATOM     34  C   UNL A   1      43.727  26.574  30.676  1.00  0.00     0.031 C 
ATOM     35  C   UNL A   1      39.953  28.416  27.931  1.00  0.00     0.029 A 
ATOM     36  N   UNL A   1      40.212  29.234  29.996  1.00  0.00    -0.354 N 
ATOM     37  C   UNL A   1      43.302  27.720  32.612  1.00  0.00     0.074 A 
ATOM     38  C   UNL A   1      44.141  26.763  31.922  1.00  0.00     0.031 C 
ATOM     39  C   UNL A   1      39.028  29.374  28.103  1.00  0.00     0.029 A 
ATOM     40  C   UNL A   1      39.128  29.889  29.464  1.00  0.00     0.049 A 
ATOM     41  H   UNL A   1      40.569  29.422  30.895  1.00  0.00     0.167 HD
ATOM     42  C   UNL A   1      43.498  28.136  33.885  1.00  0.00     0.037 A 
ATOM     43  C   UNL A   1      38.282  30.772  30.027  1.00  0.00     0.037 A 
ATOM     44  C   UNL A   1      42.673  29.106  34.557  1.00  0.00     0.049 A 
ATOM     45  C   UNL A   1      38.480  31.166  31.462  1.00  0.00     0.074 A 
ATOM     46  C   UNL A   1      42.806  29.613  35.838  1.00  0.00     0.029 A 
ATOM     47  N   UNL A   1      41.562  29.718  33.997  1.00  0.00    -0.354 N 
ATOM     48  N   UNL A   1      39.416  30.789  32.300  1.00  0.00    -0.248 NA
ATOM     49  C   UNL A   1      37.494  32.091  32.037  1.00  0.00     0.031 C 
ATOM     50  C   UNL A   1      41.752  30.505  36.065  1.00  0.00     0.029 A 
ATOM     51  C   UNL A   1      40.983  30.578  34.915  1.00  0.00     0.049 A 
ATOM     52  H   UNL A   1      41.231  29.563  33.083  1.00  0.00     0.167 HD
ATOM     53  C   UNL A   1      39.139  31.435  33.495  1.00  0.00     0.074 A 
ATOM     54  C   UNL A   1      37.955  32.242  33.271  1.00  0.00     0.031 C 
ATOM     55  C   UNL A   1      39.802  31.366  34.674  1.00  0.00     0.037 A 
BRANCH  42  56
ATOM     56  C   UNL A   1      44.630  27.519  34.648  1.00  0.00     0.057 A 
ATOM     57  C   UNL A   1      45.870  28.157  34.777  1.00  0.00     0.134 A 
ATOM     58  C   UNL A   1      44.464  26.286  35.290  1.00  0.00     0.134 A 
ATOM     59  F   UNL A   1      46.096  29.332  34.173  1.00  0.00    -0.206 F 
ATOM     60  C   UNL A   1      46.911  27.580  35.507  1.00  0.00     0.040 A 
ATOM     61  C   UNL A   1      45.491  25.710  36.039  1.00  0.00     0.040 A 
ATOM     62  F   UNL A   1      43.299  25.626  35.206  1.00  0.00    -0.206 F 
ATOM     63  C   UNL A   1      46.720  26.356  36.146  1.00  0.00     0.006 A 
ENDBRANCH  42  56
BRANCH  43  64
ATOM     64  C   UNL A   1      37.143  31.303  29.241  1.00  0.00     0.057 A 
ATOM     65  C   UNL A   1      35.996  30.534  29.017  1.00  0.00     0.134 A 
ATOM     66  C   UNL A   1      37.173  32.594  28.700  1.00  0.00     0.134 A 
ATOM     67  F   UNL A   1      35.921  29.281  29.490  1.00  0.00    -0.206 F 
ATOM     68  C   UNL A   1      34.919  31.028  28.280  1.00  0.00     0.040 A 
ATOM     69  C   UNL A   1      36.095  33.110  27.979  1.00  0.00     0.040 A 
ATOM     70  F   UNL A   1      38.246  33.378  28.878  1.00  0.00    -0.206 F 
ATOM     71  C   UNL A   1      34.965  32.324  27.765  1.00  0.00     0.006 A 
ENDBRANCH  43  64
BRANCH  55  72
ATOM     72  C   UNL A   1      39.269  32.191  35.804  1.00  0.00     0.057 A 
ATOM     73  C   UNL A   1      39.675  33.517  35.996  1.00  0.00     0.134 A 
ATOM     74  C   UNL A   1      38.314  31.668  36.684  1.00  0.00     0.134 A 
ATOM     75  F   UNL A   1      40.598  34.069  35.195  1.00  0.00    -0.206 F 
ATOM     76  C   UNL A   1      39.156  34.292  37.035  1.00  0.00     0.040 A 
ATOM     77  C   UNL A   1      37.775  32.438  37.715  1.00  0.00     0.040 A 
ATOM     78  F   UNL A   1      37.881  30.405  36.548  1.00  0.00    -0.206 F 
ATOM     79  C   UNL A   1      38.199  33.754  37.893  1.00  0.00     0.006 A 
ENDBRANCH  55  72
ENDBRANCH  29  30
ENDBRANCH  22  24
ENDBRANCH  21  22
ENDBRANCH  20  21
ENDBRANCH   1  20
TORSDOF 14
ENDMDL
MODEL 2
REMARK VINA RESULT:     -10.6      3.918      8.073
REMARK SMILES C[C@H]([NH2+][C@@H]1CC(=O)N(C)C1=O)[C@H](C)C(=O)OCCOC(=O)c1ccc(-c2c3nc(c(-c4c(F)cccc4F)c4ccc([nH]4)c(-c4c(F)cccc4F)c4nc(c(-c5c(F)cccc5F)c5ccc2[nH]5)C=C4)C=C3)cc1
REMARK SMILES IDX 17 1 16 2 14 3 15 4 12 5 13 6 2 7 1 8 3 9 4 12 5 13 10 14
REMARK SMILES IDX 6 15 8 16 11 17 7 18 9 19 18 20 19 21 20 22 21 23 22 24
REMARK SMILES IDX 23 25 75 26 24 27 74 28 25 29 26 30 27 31 68 32 28 33 73 34
REMARK SMILES IDX 67 35 69 36 29 37 72 38 66 39 65 40 30 42 56 43 39 44 55 45
REMARK SMILES IDX 40 46 43 47 54 48 70 49 41 50 42 51 53 53 71 54 44 55 31 56
REMARK SMILES IDX 32 57 37 58 33 59 34 60 36 61 38 62 35 63 57 64 58 65 63 66
REMARK SMILES IDX 59 67 60 68 62 69 64 70 61 71 45 72 46 73 51 74 47 75 48 76
REMARK SMILES IDX 50 77 52 78 49 79
REMARK H PARENT 3 10 3 11 69 41 43 52
REMARK Flexibility Score: inf
ROOT
ATOM      1  C   UNL A   1      37.542  20.270  24.955  1.00  0.00     0.274 C 
ENDROOT
BRANCH   1   2
ATOM      2  O   UNL A   1      36.711  21.393  24.595  1.00  0.00    -0.462 OA
BRANCH   2   3
ATOM      3  C   UNL A   1      35.959  21.919  25.601  1.00  0.00     0.314 C 
ATOM      4  O   UNL A   1      36.192  22.998  26.134  1.00  0.00    -0.252 OA
BRANCH   3   5
ATOM      5  C   UNL A   1      34.749  21.048  25.952  1.00  0.00     0.154 C 
ATOM      6  C   UNL A   1      34.105  21.492  27.274  1.00  0.00     0.026 C 
BRANCH   5   7
ATOM      7  C   UNL A   1      33.743  20.972  24.776  1.00  0.00     0.194 C 
ATOM      8  C   UNL A   1      32.294  21.216  25.241  1.00  0.00     0.076 C 
BRANCH   7   9
ATOM      9  N   UNL A   1      33.814  19.654  24.143  1.00  0.00    -0.333 N 
ATOM     10  H   UNL A   1      34.537  19.702  23.425  1.00  0.00     0.347 HD
ATOM     11  H   UNL A   1      32.865  19.484  23.808  1.00  0.00     0.347 HD
BRANCH   9  12
ATOM     12  C   UNL A   1      34.114  18.499  24.986  1.00  0.00     0.282 C 
ATOM     13  C   UNL A   1      35.215  17.549  24.539  1.00  0.00     0.176 C 
ATOM     14  C   UNL A   1      32.915  17.559  25.107  1.00  0.00     0.287 C 
ATOM     15  C   UNL A   1      34.748  16.220  25.057  1.00  0.00     0.235 C 
ATOM     16  N   UNL A   1      33.403  16.288  25.264  1.00  0.00    -0.280 N 
ATOM     17  O   UNL A   1      31.735  17.878  25.075  1.00  0.00    -0.267 OA
ATOM     18  O   UNL A   1      35.464  15.238  25.175  1.00  0.00    -0.274 OA
ATOM     19  C   UNL A   1      32.566  15.151  25.557  1.00  0.00     0.156 C 
ENDBRANCH   9  12
ENDBRANCH   7   9
ENDBRANCH   5   7
ENDBRANCH   3   5
ENDBRANCH   2   3
ENDBRANCH   1   2
BRANCH   1  20
ATOM     20  C   UNL A   1      38.923  20.735  25.431  1.00  0.00     0.275 C 
BRANCH  20  21
ATOM     21  O   UNL A   1      39.628  19.675  26.105  1.00  0.00    -0.458 OA
BRANCH  21  22
ATOM     22  C   UNL A   1      40.978  19.709  26.018  1.00  0.00     0.338 C 
ATOM     23  O   UNL A   1      41.717  18.873  25.529  1.00  0.00    -0.246 OA
BRANCH  22  24
ATOM     24  C   UNL A   1      41.469  20.981  26.566  1.00  0.00     0.060 A 
ATOM     25  C   UNL A   1      41.339  21.222  27.935  1.00  0.00     0.016 A 
ATOM     26  C   UNL A   1      41.968  21.969  25.719  1.00  0.00     0.016 A 
ATOM     27  C   UNL A   1      41.696  22.456  28.467  1.00  0.00     0.010 A 
ATOM     28  C   UNL A   1      42.358  23.198  26.258  1.00  0.00     0.010 A 
ATOM     29  C   UNL A   1      42.217  23.451  27.635  1.00  0.00    -0.014 A 
BRANCH  29  30
ATOM     30  C   UNL A   1      42.617  24.759  28.204  1.00  0.00     0.031 A 
ATOM     31  C   UNL A   1      41.584  25.814  28.462  1.00  0.00     0.074 A 
ATOM     32  C   UNL A   1      43.912  24.994  28.484  1.00  0.00     0.049 A 
ATOM     33  N   UNL A   1      41.749  27.064  28.813  1.00  0.00    -0.248 NA
ATOM     34  C   UNL A   1      40.178  25.413  28.302  1.00  0.00     0.031 C 
ATOM     35  C   UNL A   1      45.000  24.027  28.327  1.00  0.00     0.029 A 
ATOM     36  N   UNL A   1      44.533  26.124  28.950  1.00  0.00    -0.354 N 
ATOM     37  C   UNL A   1      40.474  27.606  28.887  1.00  0.00     0.074 A 
ATOM     38  C   UNL A   1      39.543  26.552  28.541  1.00  0.00     0.031 C 
ATOM     39  C   UNL A   1      46.157  24.607  28.685  1.00  0.00     0.029 A 
ATOM     40  C   UNL A   1      45.898  25.999  29.039  1.00  0.00     0.049 A 
ATOM     41  H   UNL A   1      44.049  26.945  29.195  1.00  0.00     0.167 HD
ATOM     42  C   UNL A   1      40.116  28.871  29.213  1.00  0.00     0.037 A 
ATOM     43  C   UNL A   1      46.839  26.916  29.331  1.00  0.00     0.037 A 
ATOM     44  C   UNL A   1      41.046  29.908  29.579  1.00  0.00     0.049 A 
ATOM     45  C   UNL A   1      46.422  28.329  29.622  1.00  0.00     0.074 A 
ATOM     46  C   UNL A   1      40.780  31.213  29.951  1.00  0.00     0.029 A 
ATOM     47  N   UNL A   1      42.423  29.752  29.620  1.00  0.00    -0.354 N 
ATOM     48  N   UNL A   1      45.216  28.839  29.670  1.00  0.00    -0.248 NA
ATOM     49  C   UNL A   1      47.498  29.296  29.880  1.00  0.00     0.031 C 
ATOM     50  C   UNL A   1      42.000  31.858  30.183  1.00  0.00     0.029 A 
ATOM     51  C   UNL A   1      43.023  30.945  29.987  1.00  0.00     0.049 A 
ATOM     52  H   UNL A   1      42.904  28.916  29.418  1.00  0.00     0.167 HD
ATOM     53  C   UNL A   1      45.384  30.183  29.970  1.00  0.00     0.074 A 
ATOM     54  C   UNL A   1      46.809  30.406  30.111  1.00  0.00     0.031 C 
ATOM     55  C   UNL A   1      44.443  31.146  30.115  1.00  0.00     0.037 A 
BRANCH  42  56
ATOM     56  C   UNL A   1      38.659  29.214  29.156  1.00  0.00     0.057 A 
ATOM     57  C   UNL A   1      37.839  29.153  30.290  1.00  0.00     0.134 A 
ATOM     58  C   UNL A   1      38.078  29.645  27.957  1.00  0.00     0.134 A 
ATOM     59  F   UNL A   1      38.333  28.734  31.464  1.00  0.00    -0.206 F 
ATOM     60  C   UNL A   1      36.487  29.494  30.228  1.00  0.00     0.040 A 
ATOM     61  C   UNL A   1      36.732  30.007  27.888  1.00  0.00     0.040 A 
ATOM     62  F   UNL A   1      38.810  29.726  26.837  1.00  0.00    -0.206 F 
ATOM     63  C   UNL A   1      35.931  29.928  29.025  1.00  0.00     0.006 A 
ENDBRANCH  42  56
BRANCH  43  64
ATOM     64  C   UNL A   1      48.271  26.532  29.313  1.00  0.00     0.057 A 
ATOM     65  C   UNL A   1      49.048  26.686  28.159  1.00  0.00     0.134 A 
ATOM     66  C   UNL A   1      48.897  26.007  30.450  1.00  0.00     0.134 A 
ATOM     67  F   UNL A   1      48.496  27.161  27.033  1.00  0.00    -0.206 F 
ATOM     68  C   UNL A   1      50.397  26.329  28.136  1.00  0.00     0.040 A 
ATOM     69  C   UNL A   1      50.251  25.667  30.447  1.00  0.00     0.040 A 
ATOM     70  F   UNL A   1      48.205  25.833  31.585  1.00  0.00    -0.206 F 
ATOM     71  C   UNL A   1      51.003  25.824  29.286  1.00  0.00     0.006 A 
ENDBRANCH  43  64
BRANCH  55  72
ATOM     72  C   UNL A   1      44.926  32.524  30.451  1.00  0.00     0.057 A 
ATOM     73  C   UNL A   1      45.144  32.918  31.777  1.00  0.00     0.134 A 
ATOM     74  C   UNL A   1      45.212  33.449  29.441  1.00  0.00     0.134 A 
ATOM     75  F   UNL A   1      44.874  32.081  32.789  1.00  0.00    -0.206 F 
ATOM     76  C   UNL A   1      45.619  34.194  32.086  1.00  0.00     0.040 A 
ATOM     77  C   UNL A   1      45.705  34.720  29.736  1.00  0.00     0.040 A 
ATOM     78  F   UNL A   1      45.029  33.128  28.151  1.00  0.00    -0.206 F 
ATOM     79  C   UNL A   1      45.907  35.096  31.064  1.00  0.00     0.006 A 
ENDBRANCH  55  72
ENDBRANCH  29  30
ENDBRANCH  22  24
ENDBRANCH  21  22
ENDBRANCH  20  21
ENDBRANCH   1  20
TORSDOF 14
ENDMDL
MODEL 3
REMARK VINA RESULT:     -10.5      4.422      9.417
REMARK SMILES C[C@H]([NH2+][C@@H]1CC(=O)N(C)C1=O)[C@H](C)C(=O)OCCOC(=O)c1ccc(-c2c3nc(c(-c4c(F)cccc4F)c4ccc([nH]4)c(-c4c(F)cccc4F)c4nc(c(-c5c(F)cccc5F)c5ccc2[nH]5)C=C4)C=C3)cc1
REMARK SMILES IDX 17 1 16 2 14 3 15 4 12 5 13 6 2 7 1 8 3 9 4 12 5 13 10 14
REMARK SMILES IDX 6 15 8 16 11 17 7 18 9 19 18 20 19 21 20 22 21 23 22 24
REMARK SMILES IDX 23 25 75 26 24 27 74 28 25 29 26 30 27 31 68 32 28 33 73 34
REMARK SMILES IDX 67 35 69 36 29 37 72 38 66 39 65 40 30 42 56 43 39 44 55 45
REMARK SMILES IDX 40 46 43 47 54 48 70 49 41 50 42 51 53 53 71 54 44 55 31 56
REMARK SMILES IDX 32 57 37 58 33 59 34 60 36 61 38 62 35 63 57 64 58 65 63 66
REMARK SMILES IDX 59 67 60 68 62 69 64 70 61 71 45 72 46 73 51 74 47 75 48 76
REMARK SMILES IDX 50 77 52 78 49 79
REMARK H PARENT 3 10 3 11 69 41 43 52
REMARK Flexibility Score: inf
ROOT
ATOM      1  C   UNL A   1      33.848  35.375  29.052  1.00  0.00     0.274 C 
ENDROOT
BRANCH   1   2
ATOM      2  O   UNL A   1      33.342  34.066  28.724  1.00  0.00    -0.462 OA
BRANCH   2   3
ATOM      3  C   UNL A   1      34.113  33.016  29.121  1.00  0.00     0.314 C 
ATOM      4  O   UNL A   1      34.183  32.621  30.279  1.00  0.00    -0.252 OA
BRANCH   3   5
ATOM      5  C   UNL A   1      34.836  32.339  27.953  1.00  0.00     0.154 C 
ATOM      6  C   UNL A   1      36.346  32.620  27.990  1.00  0.00     0.026 C 
BRANCH   5   7
ATOM      7  C   UNL A   1      34.496  30.829  27.872  1.00  0.00     0.194 C 
ATOM      8  C   UNL A   1      35.714  29.947  28.212  1.00  0.00     0.076 C 
BRANCH   7   9
ATOM      9  N   UNL A   1      34.038  30.491  26.524  1.00  0.00    -0.333 N 
ATOM     10  H   UNL A   1      34.748  29.888  26.106  1.00  0.00     0.347 HD
ATOM     11  H   UNL A   1      33.900  31.394  26.071  1.00  0.00     0.347 HD
BRANCH   9  12
ATOM     12  C   UNL A   1      32.753  29.813  26.382  1.00  0.00     0.282 C 
ATOM     13  C   UNL A   1      32.395  28.729  27.388  1.00  0.00     0.176 C 
ATOM     14  C   UNL A   1      32.652  29.060  25.056  1.00  0.00     0.287 C 
ATOM     15  C   UNL A   1      31.564  27.776  26.581  1.00  0.00     0.235 C 
ATOM     16  N   UNL A   1      31.846  27.971  25.261  1.00  0.00    -0.280 N 
ATOM     17  O   UNL A   1      33.188  29.370  24.002  1.00  0.00    -0.267 OA
ATOM     18  O   UNL A   1      30.834  26.923  27.061  1.00  0.00    -0.274 OA
ATOM     19  C   UNL A   1      31.403  27.104  24.198  1.00  0.00     0.156 C 
ENDBRANCH   9  12
ENDBRANCH   7   9
ENDBRANCH   5   7
ENDBRANCH   3   5
ENDBRANCH   2   3
ENDBRANCH   1   2
BRANCH   1  20
ATOM     20  C   UNL A   1      32.829  36.172  29.875  1.00  0.00     0.275 C 
BRANCH  20  21
ATOM     21  O   UNL A   1      32.412  35.439  31.043  1.00  0.00    -0.458 OA
BRANCH  21  22
ATOM     22  C   UNL A   1      32.840  35.923  32.232  1.00  0.00     0.338 C 
ATOM     23  O   UNL A   1      32.356  36.828  32.888  1.00  0.00    -0.246 OA
BRANCH  22  24
ATOM     24  C   UNL A   1      33.994  35.138  32.691  1.00  0.00     0.060 A 
ATOM     25  C   UNL A   1      35.281  35.612  32.431  1.00  0.00     0.016 A 
ATOM     26  C   UNL A   1      33.807  33.892  33.288  1.00  0.00     0.016 A 
ATOM     27  C   UNL A   1      36.392  34.842  32.757  1.00  0.00     0.010 A 
ATOM     28  C   UNL A   1      34.925  33.132  33.646  1.00  0.00     0.010 A 
ATOM     29  C   UNL A   1      36.223  33.600  33.376  1.00  0.00    -0.014 A 
BRANCH  29  30
ATOM     30  C   UNL A   1      37.407  32.788  33.742  1.00  0.00     0.031 A 
ATOM     31  C   UNL A   1      38.133  33.054  35.026  1.00  0.00     0.074 A 
ATOM     32  C   UNL A   1      37.826  31.814  32.914  1.00  0.00     0.049 A 
ATOM     33  N   UNL A   1      39.267  32.558  35.452  1.00  0.00    -0.248 NA
ATOM     34  C   UNL A   1      37.503  34.005  35.954  1.00  0.00     0.031 C 
ATOM     35  C   UNL A   1      37.171  31.426  31.664  1.00  0.00     0.029 A 
ATOM     36  N   UNL A   1      38.912  30.981  32.995  1.00  0.00    -0.354 N 
ATOM     37  C   UNL A   1      39.502  33.158  36.682  1.00  0.00     0.074 A 
ATOM     38  C   UNL A   1      38.396  34.058  36.934  1.00  0.00     0.031 C 
ATOM     39  C   UNL A   1      37.871  30.434  31.092  1.00  0.00     0.029 A 
ATOM     40  C   UNL A   1      39.051  30.158  31.904  1.00  0.00     0.049 A 
ATOM     41  H   UNL A   1      39.532  30.973  33.760  1.00  0.00     0.167 HD
ATOM     42  C   UNL A   1      40.549  32.973  37.520  1.00  0.00     0.037 A 
ATOM     43  C   UNL A   1      40.043  29.310  31.574  1.00  0.00     0.037 A 
ATOM     44  C   UNL A   1      41.633  32.058  37.274  1.00  0.00     0.049 A 
ATOM     45  C   UNL A   1      41.226  29.173  32.487  1.00  0.00     0.074 A 
ATOM     46  C   UNL A   1      42.727  31.780  38.075  1.00  0.00     0.029 A 
ATOM     47  N   UNL A   1      41.757  31.272  36.139  1.00  0.00    -0.354 N 
ATOM     48  N   UNL A   1      41.452  29.759  33.638  1.00  0.00    -0.248 NA
ATOM     49  C   UNL A   1      42.301  28.273  32.048  1.00  0.00     0.031 C 
ATOM     50  C   UNL A   1      43.532  30.850  37.407  1.00  0.00     0.029 A 
ATOM     51  C   UNL A   1      42.922  30.526  36.206  1.00  0.00     0.049 A 
ATOM     52  H   UNL A   1      41.113  31.247  35.394  1.00  0.00     0.167 HD
ATOM     53  C   UNL A   1      42.688  29.295  34.065  1.00  0.00     0.074 A 
ATOM     54  C   UNL A   1      43.157  28.365  33.057  1.00  0.00     0.031 C 
ATOM     55  C   UNL A   1      43.373  29.611  35.189  1.00  0.00     0.037 A 
BRANCH  42  56
ATOM     56  C   UNL A   1      40.589  33.800  38.769  1.00  0.00     0.057 A 
ATOM     57  C   UNL A   1      41.300  35.004  38.837  1.00  0.00     0.134 A 
ATOM     58  C   UNL A   1      39.878  33.400  39.906  1.00  0.00     0.134 A 
ATOM     59  F   UNL A   1      42.012  35.434  37.785  1.00  0.00    -0.206 F 
ATOM     60  C   UNL A   1      41.314  35.775  40.001  1.00  0.00     0.040 A 
ATOM     61  C   UNL A   1      39.868  34.173  41.069  1.00  0.00     0.040 A 
ATOM     62  F   UNL A   1      39.176  32.257  39.904  1.00  0.00    -0.206 F 
ATOM     63  C   UNL A   1      40.591  35.362  41.119  1.00  0.00     0.006 A 
ENDBRANCH  42  56
BRANCH  43  64
ATOM     64  C   UNL A   1      39.976  28.563  30.295  1.00  0.00     0.057 A 
ATOM     65  C   UNL A   1      40.613  29.038  29.144  1.00  0.00     0.134 A 
ATOM     66  C   UNL A   1      39.279  27.352  30.196  1.00  0.00     0.134 A 
ATOM     67  F   UNL A   1      41.275  30.204  29.173  1.00  0.00    -0.206 F 
ATOM     68  C   UNL A   1      40.557  28.339  27.938  1.00  0.00     0.040 A 
ATOM     69  C   UNL A   1      39.233  26.631  29.002  1.00  0.00     0.040 A 
ATOM     70  F   UNL A   1      38.646  26.846  31.264  1.00  0.00    -0.206 F 
ATOM     71  C   UNL A   1      39.870  27.127  27.867  1.00  0.00     0.006 A 
ENDBRANCH  43  64
BRANCH  55  72
ATOM     72  C   UNL A   1      44.697  28.939  35.390  1.00  0.00     0.057 A 
ATOM     73  C   UNL A   1      44.793  27.688  36.010  1.00  0.00     0.134 A 
ATOM     74  C   UNL A   1      45.878  29.530  34.927  1.00  0.00     0.134 A 
ATOM     75  F   UNL A   1      43.698  27.078  36.488  1.00  0.00    -0.206 F 
ATOM     76  C   UNL A   1      46.025  27.051  36.173  1.00  0.00     0.040 A 
ATOM     77  C   UNL A   1      47.112  28.896  35.068  1.00  0.00     0.040 A 
ATOM     78  F   UNL A   1      45.849  30.726  34.320  1.00  0.00    -0.206 F 
ATOM     79  C   UNL A   1      47.188  27.653  35.695  1.00  0.00     0.006 A 
ENDBRANCH  55  72
ENDBRANCH  29  30
ENDBRANCH  22  24
ENDBRANCH  21  22
ENDBRANCH  20  21
ENDBRANCH   1  20
TORSDOF 14
ENDMDL
