MODEL 1
REMARK VINA RESULT:     -10.9      0.000      0.000
REMARK SMILES C[C@]([NH2+]Cc1nc(-c2ccsc2)no1)(C(=O)OCCOC(=O)c1ccc(-c2c3nc(c(-c4c(F)cccc4F)c4ccc([nH]4)c(-c4c(F)cccc4F)c4nc(c(-c5c(F)cccc5F)c5ccc2[nH]5)C=C4)C=C3)cc1)C(F)(F)F
REMARK SMILES IDX 18 1 17 2 15 3 16 4 2 5 1 6 77 7 78 8 79 9 80 10 3 11 4 14
REMARK SMILES IDX 5 15 6 16 14 17 7 18 13 19 8 20 9 21 12 22 10 23 11 24 19 25
REMARK SMILES IDX 20 26 21 27 22 28 23 29 24 30 76 31 25 32 75 33 26 34 27 35
REMARK SMILES IDX 28 36 69 37 29 38 74 39 68 40 70 41 30 42 73 43 67 44 66 45
REMARK SMILES IDX 31 47 57 48 40 49 56 50 41 51 44 52 55 53 71 54 42 55 43 56
REMARK SMILES IDX 54 58 72 59 45 60 32 61 33 62 38 63 34 64 35 65 37 66 39 67
REMARK SMILES IDX 36 68 58 69 59 70 64 71 60 72 61 73 63 74 65 75 62 76 46 77
REMARK SMILES IDX 47 78 52 79 48 80 49 81 51 82 53 83 50 84
REMARK H PARENT 3 12 3 13 70 46 44 57
REMARK Flexibility Score: inf
ROOT
ATOM      1  C   UNL A   1      31.591  28.211  26.744  1.00  0.00     0.274 C 
ENDROOT
BRANCH   1   2
ATOM      2  O   UNL A   1      32.457  27.190  26.202  1.00  0.00    -0.457 OA
BRANCH   2   3
ATOM      3  C   UNL A   1      31.909  25.947  26.016  1.00  0.00     0.377 C 
ATOM      4  O   UNL A   1      31.060  25.468  26.756  1.00  0.00    -0.244 OA
BRANCH   3   5
ATOM      5  C   UNL A   1      32.584  25.191  24.852  1.00  0.00     0.287 C 
ATOM      6  C   UNL A   1      33.776  26.062  24.421  1.00  0.00     0.103 C 
BRANCH   5   7
ATOM      7  C   UNL A   1      33.121  23.860  25.436  1.00  0.00     0.455 C 
ATOM      8  F   UNL A   1      34.019  23.275  24.613  1.00  0.00    -0.164 F 
ATOM      9  F   UNL A   1      33.784  24.100  26.602  1.00  0.00    -0.164 F 
ATOM     10  F   UNL A   1      32.166  22.956  25.729  1.00  0.00    -0.164 F 
ENDBRANCH   5   7
BRANCH   5  11
ATOM     11  N   UNL A   1      31.603  25.070  23.714  1.00  0.00    -0.317 N 
ATOM     12  H   UNL A   1      30.662  25.139  24.100  1.00  0.00     0.347 HD
ATOM     13  H   UNL A   1      31.797  24.173  23.268  1.00  0.00     0.347 HD
BRANCH  11  14
ATOM     14  C   UNL A   1      31.737  26.084  22.661  1.00  0.00     0.363 C 
BRANCH  14  15
ATOM     15  C   UNL A   1      30.631  27.078  22.743  1.00  0.00     0.282 A 
ATOM     16  N   UNL A   1      30.570  28.294  22.245  1.00  0.00    -0.186 NA
ATOM     17  O   UNL A   1      29.543  26.738  23.493  1.00  0.00    -0.333 OA
ATOM     18  C   UNL A   1      29.373  28.739  22.746  1.00  0.00     0.203 A 
ATOM     19  N   UNL A   1      28.704  27.855  23.497  1.00  0.00    -0.057 NA
BRANCH  18  20
ATOM     20  C   UNL A   1      28.925  30.106  22.482  1.00  0.00     0.033 A 
ATOM     21  C   UNL A   1      28.857  31.106  23.498  1.00  0.00     0.024 A 
ATOM     22  C   UNL A   1      28.514  30.587  21.257  1.00  0.00     0.077 A 
ATOM     23  C   UNL A   1      28.400  32.311  23.009  1.00  0.00     0.065 A 
ATOM     24  S   UNL A   1      28.041  32.231  21.337  1.00  0.00    -0.152 S 
ENDBRANCH  18  20
ENDBRANCH  14  15
ENDBRANCH  11  14
ENDBRANCH   5  11
ENDBRANCH   3   5
ENDBRANCH   2   3
ENDBRANCH   1   2
BRANCH   1  25
ATOM     25  C   UNL A   1      31.488  29.392  25.783  1.00  0.00     0.275 C 
BRANCH  25  26
ATOM     26  O   UNL A   1      32.755  30.066  25.749  1.00  0.00    -0.458 OA
BRANCH  26  27
ATOM     27  C   UNL A   1      32.959  30.998  26.706  1.00  0.00     0.338 C 
ATOM     28  O   UNL A   1      32.192  31.890  27.043  1.00  0.00    -0.246 OA
BRANCH  27  29
ATOM     29  C   UNL A   1      34.286  30.790  27.316  1.00  0.00     0.060 A 
ATOM     30  C   UNL A   1      34.776  29.501  27.517  1.00  0.00     0.016 A 
ATOM     31  C   UNL A   1      35.017  31.886  27.774  1.00  0.00     0.016 A 
ATOM     32  C   UNL A   1      35.942  29.294  28.251  1.00  0.00     0.010 A 
ATOM     33  C   UNL A   1      36.239  31.681  28.422  1.00  0.00     0.010 A 
ATOM     34  C   UNL A   1      36.699  30.381  28.703  1.00  0.00    -0.014 A 
BRANCH  34  35
ATOM     35  C   UNL A   1      37.931  30.169  29.512  1.00  0.00     0.031 A 
ATOM     36  C   UNL A   1      39.067  29.354  28.951  1.00  0.00     0.074 A 
ATOM     37  C   UNL A   1      38.055  30.708  30.742  1.00  0.00     0.049 A 
ATOM     38  N   UNL A   1      40.121  28.869  29.560  1.00  0.00    -0.248 NA
ATOM     39  C   UNL A   1      38.999  29.025  27.518  1.00  0.00     0.031 C 
ATOM     40  C   UNL A   1      37.068  31.567  31.399  1.00  0.00     0.029 A 
ATOM     41  N   UNL A   1      39.073  30.614  31.660  1.00  0.00    -0.354 N 
ATOM     42  C   UNL A   1      40.800  28.123  28.604  1.00  0.00     0.074 A 
ATOM     43  C   UNL A   1      40.046  28.224  27.373  1.00  0.00     0.031 C 
ATOM     44  C   UNL A   1      37.546  31.954  32.592  1.00  0.00     0.029 A 
ATOM     45  C   UNL A   1      38.829  31.301  32.824  1.00  0.00     0.049 A 
ATOM     46  H   UNL A   1      39.899  30.103  31.498  1.00  0.00     0.167 HD
ATOM     47  C   UNL A   1      41.944  27.413  28.745  1.00  0.00     0.037 A 
ATOM     48  C   UNL A   1      39.534  31.365  33.969  1.00  0.00     0.037 A 
ATOM     49  C   UNL A   1      42.734  27.370  29.948  1.00  0.00     0.049 A 
ATOM     50  C   UNL A   1      40.796  30.564  34.105  1.00  0.00     0.074 A 
ATOM     51  C   UNL A   1      43.915  26.687  30.182  1.00  0.00     0.029 A 
ATOM     52  N   UNL A   1      42.434  28.062  31.109  1.00  0.00    -0.354 N 
ATOM     53  N   UNL A   1      41.382  29.790  33.225  1.00  0.00    -0.248 NA
ATOM     54  C   UNL A   1      41.480  30.622  35.405  1.00  0.00     0.031 C 
ATOM     55  C   UNL A   1      44.321  26.950  31.495  1.00  0.00     0.029 A 
ATOM     56  C   UNL A   1      43.406  27.821  32.067  1.00  0.00     0.049 A 
ATOM     57  H   UNL A   1      41.648  28.641  31.237  1.00  0.00     0.167 HD
ATOM     58  C   UNL A   1      42.499  29.268  33.862  1.00  0.00     0.074 A 
ATOM     59  C   UNL A   1      42.525  29.834  35.195  1.00  0.00     0.031 C 
ATOM     60  C   UNL A   1      43.415  28.390  33.389  1.00  0.00     0.037 A 
BRANCH  47  61
ATOM     61  C   UNL A   1      42.397  26.592  27.573  1.00  0.00     0.057 A 
ATOM     62  C   UNL A   1      43.265  27.097  26.599  1.00  0.00     0.134 A 
ATOM     63  C   UNL A   1      41.976  25.262  27.440  1.00  0.00     0.134 A 
ATOM     64  F   UNL A   1      43.691  28.368  26.661  1.00  0.00    -0.206 F 
ATOM     65  C   UNL A   1      43.686  26.314  25.523  1.00  0.00     0.040 A 
ATOM     66  C   UNL A   1      42.407  24.462  26.380  1.00  0.00     0.040 A 
ATOM     67  F   UNL A   1      41.147  24.717  28.343  1.00  0.00    -0.206 F 
ATOM     68  C   UNL A   1      43.261  24.991  25.415  1.00  0.00     0.006 A 
ENDBRANCH  47  61
BRANCH  48  69
ATOM     69  C   UNL A   1      39.033  32.186  35.099  1.00  0.00     0.057 A 
ATOM     70  C   UNL A   1      38.259  31.618  36.116  1.00  0.00     0.134 A 
ATOM     71  C   UNL A   1      39.322  33.553  35.193  1.00  0.00     0.134 A 
ATOM     72  F   UNL A   1      37.926  30.320  36.066  1.00  0.00    -0.206 F 
ATOM     73  C   UNL A   1      37.787  32.380  37.186  1.00  0.00     0.040 A 
ATOM     74  C   UNL A   1      38.879  34.321  36.270  1.00  0.00     0.040 A 
ATOM     75  F   UNL A   1      40.059  34.156  34.248  1.00  0.00    -0.206 F 
ATOM     76  C   UNL A   1      38.105  33.734  37.269  1.00  0.00     0.006 A 
ENDBRANCH  48  69
BRANCH  60  77
ATOM     77  C   UNL A   1      44.524  28.000  34.315  1.00  0.00     0.057 A 
ATOM     78  C   UNL A   1      44.424  26.875  35.143  1.00  0.00     0.134 A 
ATOM     79  C   UNL A   1      45.711  28.741  34.363  1.00  0.00     0.134 A 
ATOM     80  F   UNL A   1      43.306  26.135  35.152  1.00  0.00    -0.206 F 
ATOM     81  C   UNL A   1      45.463  26.511  36.001  1.00  0.00     0.040 A 
ATOM     82  C   UNL A   1      46.762  28.376  35.204  1.00  0.00     0.040 A 
ATOM     83  F   UNL A   1      45.867  29.827  33.592  1.00  0.00    -0.206 F 
ATOM     84  C   UNL A   1      46.637  27.259  36.029  1.00  0.00     0.006 A 
ENDBRANCH  60  77
ENDBRANCH  34  35
ENDBRANCH  27  29
ENDBRANCH  26  27
ENDBRANCH  25  26
ENDBRANCH   1  25
TORSDOF 16
ENDMDL
MODEL 2
REMARK VINA RESULT:     -10.8      2.820      4.698
REMARK SMILES C[C@]([NH2+]Cc1nc(-c2ccsc2)no1)(C(=O)OCCOC(=O)c1ccc(-c2c3nc(c(-c4c(F)cccc4F)c4ccc([nH]4)c(-c4c(F)cccc4F)c4nc(c(-c5c(F)cccc5F)c5ccc2[nH]5)C=C4)C=C3)cc1)C(F)(F)F
REMARK SMILES IDX 18 1 17 2 15 3 16 4 2 5 1 6 77 7 78 8 79 9 80 10 3 11 4 14
REMARK SMILES IDX 5 15 6 16 14 17 7 18 13 19 8 20 9 21 12 22 10 23 11 24 19 25
REMARK SMILES IDX 20 26 21 27 22 28 23 29 24 30 76 31 25 32 75 33 26 34 27 35
REMARK SMILES IDX 28 36 69 37 29 38 74 39 68 40 70 41 30 42 73 43 67 44 66 45
REMARK SMILES IDX 31 47 57 48 40 49 56 50 41 51 44 52 55 53 71 54 42 55 43 56
REMARK SMILES IDX 54 58 72 59 45 60 32 61 33 62 38 63 34 64 35 65 37 66 39 67
REMARK SMILES IDX 36 68 58 69 59 70 64 71 60 72 61 73 63 74 65 75 62 76 46 77
REMARK SMILES IDX 47 78 52 79 48 80 49 81 51 82 53 83 50 84
REMARK H PARENT 3 12 3 13 70 46 44 57
REMARK Flexibility Score: inf
ROOT
ATOM      1  C   UNL A   1      32.492  28.852  24.255  1.00  0.00     0.274 C 
ENDROOT
BRANCH   1   2
ATOM      2  O   UNL A   1      31.956  27.510  24.271  1.00  0.00    -0.457 OA
BRANCH   2   3
ATOM      3  C   UNL A   1      32.768  26.524  24.768  1.00  0.00     0.377 C 
ATOM      4  O   UNL A   1      33.664  26.733  25.574  1.00  0.00    -0.244 OA
BRANCH   3   5
ATOM      5  C   UNL A   1      32.497  25.163  24.093  1.00  0.00     0.287 C 
ATOM      6  C   UNL A   1      31.114  25.291  23.432  1.00  0.00     0.103 C 
BRANCH   5   7
ATOM      7  C   UNL A   1      33.568  24.992  22.987  1.00  0.00     0.455 C 
ATOM      8  F   UNL A   1      33.814  26.152  22.340  1.00  0.00    -0.164 F 
ATOM      9  F   UNL A   1      34.753  24.617  23.544  1.00  0.00    -0.164 F 
ATOM     10  F   UNL A   1      33.273  24.052  22.068  1.00  0.00    -0.164 F 
ENDBRANCH   5   7
BRANCH   5  11
ATOM     11  N   UNL A   1      32.457  24.091  25.152  1.00  0.00    -0.317 N 
ATOM     12  H   UNL A   1      32.081  24.504  26.004  1.00  0.00     0.347 HD
ATOM     13  H   UNL A   1      33.416  23.755  25.248  1.00  0.00     0.347 HD
BRANCH  11  14
ATOM     14  C   UNL A   1      31.646  22.913  24.821  1.00  0.00     0.363 C 
BRANCH  14  15
ATOM     15  C   UNL A   1      32.500  21.696  24.725  1.00  0.00     0.282 A 
ATOM     16  N   UNL A   1      32.146  20.430  24.769  1.00  0.00    -0.186 NA
ATOM     17  O   UNL A   1      33.849  21.886  24.650  1.00  0.00    -0.333 OA
ATOM     18  C   UNL A   1      33.365  19.801  24.746  1.00  0.00     0.203 A 
ATOM     19  N   UNL A   1      34.426  20.614  24.669  1.00  0.00    -0.057 NA
BRANCH  18  20
ATOM     20  C   UNL A   1      33.446  18.345  24.842  1.00  0.00     0.033 A 
ATOM     21  C   UNL A   1      34.508  17.589  24.260  1.00  0.00     0.024 A 
ATOM     22  C   UNL A   1      32.529  17.536  25.480  1.00  0.00     0.077 A 
ATOM     23  C   UNL A   1      34.362  16.236  24.478  1.00  0.00     0.065 A 
ATOM     24  S   UNL A   1      32.943  15.879  25.367  1.00  0.00    -0.152 S 
ENDBRANCH  18  20
ENDBRANCH  14  15
ENDBRANCH  11  14
ENDBRANCH   5  11
ENDBRANCH   3   5
ENDBRANCH   2   3
ENDBRANCH   1   2
BRANCH   1  25
ATOM     25  C   UNL A   1      31.648  29.777  25.128  1.00  0.00     0.275 C 
BRANCH  25  26
ATOM     26  O   UNL A   1      32.192  29.774  26.456  1.00  0.00    -0.458 OA
BRANCH  26  27
ATOM     27  C   UNL A   1      32.645  30.961  26.916  1.00  0.00     0.338 C 
ATOM     28  O   UNL A   1      32.067  32.039  26.872  1.00  0.00    -0.246 OA
BRANCH  27  29
ATOM     29  C   UNL A   1      33.988  30.780  27.500  1.00  0.00     0.060 A 
ATOM     30  C   UNL A   1      34.534  29.504  27.630  1.00  0.00     0.016 A 
ATOM     31  C   UNL A   1      34.678  31.881  28.005  1.00  0.00     0.016 A 
ATOM     32  C   UNL A   1      35.717  29.310  28.339  1.00  0.00     0.010 A 
ATOM     33  C   UNL A   1      35.916  31.697  28.629  1.00  0.00     0.010 A 
ATOM     34  C   UNL A   1      36.433  30.405  28.838  1.00  0.00    -0.014 A 
BRANCH  34  35
ATOM     35  C   UNL A   1      37.684  30.205  29.621  1.00  0.00     0.031 A 
ATOM     36  C   UNL A   1      38.834  29.439  29.020  1.00  0.00     0.074 A 
ATOM     37  C   UNL A   1      37.812  30.711  30.865  1.00  0.00     0.049 A 
ATOM     38  N   UNL A   1      39.910  28.967  29.598  1.00  0.00    -0.248 NA
ATOM     39  C   UNL A   1      38.752  29.149  27.579  1.00  0.00     0.031 C 
ATOM     40  C   UNL A   1      36.812  31.522  31.561  1.00  0.00     0.029 A 
ATOM     41  N   UNL A   1      38.846  30.620  31.764  1.00  0.00    -0.354 N 
ATOM     42  C   UNL A   1      40.594  28.269  28.611  1.00  0.00     0.074 A 
ATOM     43  C   UNL A   1      39.818  28.384  27.395  1.00  0.00     0.031 C 
ATOM     44  C   UNL A   1      37.298  31.888  32.758  1.00  0.00     0.029 A 
ATOM     45  C   UNL A   1      38.602  31.265  32.951  1.00  0.00     0.049 A 
ATOM     46  H   UNL A   1      39.684  30.138  31.575  1.00  0.00     0.167 HD
ATOM     47  C   UNL A   1      41.761  27.588  28.713  1.00  0.00     0.037 A 
ATOM     48  C   UNL A   1      39.323  31.317  34.087  1.00  0.00     0.037 A 
ATOM     49  C   UNL A   1      42.570  27.534  29.902  1.00  0.00     0.049 A 
ATOM     50  C   UNL A   1      40.609  30.549  34.181  1.00  0.00     0.074 A 
ATOM     51  C   UNL A   1      43.774  26.878  30.099  1.00  0.00     0.029 A 
ATOM     52  N   UNL A   1      42.270  28.183  31.088  1.00  0.00    -0.354 N 
ATOM     53  N   UNL A   1      41.202  29.818  33.269  1.00  0.00    -0.248 NA
ATOM     54  C   UNL A   1      41.312  30.589  35.471  1.00  0.00     0.031 C 
ATOM     55  C   UNL A   1      44.193  27.115  31.413  1.00  0.00     0.029 A 
ATOM     56  C   UNL A   1      43.263  27.942  32.023  1.00  0.00     0.049 A 
ATOM     57  H   UNL A   1      41.470  28.734  31.245  1.00  0.00     0.167 HD
ATOM     58  C   UNL A   1      42.344  29.310  33.874  1.00  0.00     0.074 A 
ATOM     59  C   UNL A   1      42.375  29.838  35.223  1.00  0.00     0.031 C 
ATOM     60  C   UNL A   1      43.277  28.473  33.361  1.00  0.00     0.037 A 
BRANCH  47  61
ATOM     61  C   UNL A   1      42.217  26.815  27.512  1.00  0.00     0.057 A 
ATOM     62  C   UNL A   1      41.880  25.471  27.316  1.00  0.00     0.134 A 
ATOM     63  C   UNL A   1      42.983  27.442  26.520  1.00  0.00     0.134 A 
ATOM     64  F   UNL A   1      41.162  24.809  28.237  1.00  0.00    -0.206 F 
ATOM     65  C   UNL A   1      42.303  24.772  26.185  1.00  0.00     0.040 A 
ATOM     66  C   UNL A   1      43.395  26.760  25.374  1.00  0.00     0.040 A 
ATOM     67  F   UNL A   1      43.337  28.730  26.646  1.00  0.00    -0.206 F 
ATOM     68  C   UNL A   1      43.057  25.418  25.207  1.00  0.00     0.006 A 
ENDBRANCH  47  61
BRANCH  48  69
ATOM     69  C   UNL A   1      38.817  32.090  35.248  1.00  0.00     0.057 A 
ATOM     70  C   UNL A   1      38.153  31.456  36.303  1.00  0.00     0.134 A 
ATOM     71  C   UNL A   1      38.992  33.478  35.334  1.00  0.00     0.134 A 
ATOM     72  F   UNL A   1      37.932  30.134  36.265  1.00  0.00    -0.206 F 
ATOM     73  C   UNL A   1      37.678  32.174  37.403  1.00  0.00     0.040 A 
ATOM     74  C   UNL A   1      38.545  34.203  36.438  1.00  0.00     0.040 A 
ATOM     75  F   UNL A   1      39.619  34.143  34.353  1.00  0.00    -0.206 F 
ATOM     76  C   UNL A   1      37.882  33.550  37.475  1.00  0.00     0.006 A 
ENDBRANCH  48  69
BRANCH  60  77
ATOM     77  C   UNL A   1      44.411  28.089  34.259  1.00  0.00     0.057 A 
ATOM     78  C   UNL A   1      45.573  28.865  34.342  1.00  0.00     0.134 A 
ATOM     79  C   UNL A   1      44.331  26.947  35.066  1.00  0.00     0.134 A 
ATOM     80  F   UNL A   1      45.714  29.962  33.583  1.00  0.00    -0.206 F 
ATOM     81  C   UNL A   1      46.627  28.508  35.185  1.00  0.00     0.040 A 
ATOM     82  C   UNL A   1      45.371  26.590  35.925  1.00  0.00     0.040 A 
ATOM     83  F   UNL A   1      43.243  26.165  35.033  1.00  0.00    -0.206 F 
ATOM     84  C   UNL A   1      46.525  27.370  35.983  1.00  0.00     0.006 A 
ENDBRANCH  60  77
ENDBRANCH  34  35
ENDBRANCH  27  29
ENDBRANCH  26  27
ENDBRANCH  25  26
ENDBRANCH   1  25
TORSDOF 16
ENDMDL
MODEL 3
REMARK VINA RESULT:     -10.6      4.040      8.454
REMARK SMILES C[C@]([NH2+]Cc1nc(-c2ccsc2)no1)(C(=O)OCCOC(=O)c1ccc(-c2c3nc(c(-c4c(F)cccc4F)c4ccc([nH]4)c(-c4c(F)cccc4F)c4nc(c(-c5c(F)cccc5F)c5ccc2[nH]5)C=C4)C=C3)cc1)C(F)(F)F
REMARK SMILES IDX 18 1 17 2 15 3 16 4 2 5 1 6 77 7 78 8 79 9 80 10 3 11 4 14
REMARK SMILES IDX 5 15 6 16 14 17 7 18 13 19 8 20 9 21 12 22 10 23 11 24 19 25
REMARK SMILES IDX 20 26 21 27 22 28 23 29 24 30 76 31 25 32 75 33 26 34 27 35
REMARK SMILES IDX 28 36 69 37 29 38 74 39 68 40 70 41 30 42 73 43 67 44 66 45
REMARK SMILES IDX 31 47 57 48 40 49 56 50 41 51 44 52 55 53 71 54 42 55 43 56
REMARK SMILES IDX 54 58 72 59 45 60 32 61 33 62 38 63 34 64 35 65 37 66 39 67
REMARK SMILES IDX 36 68 58 69 59 70 64 71 60 72 61 73 63 74 65 75 62 76 46 77
REMARK SMILES IDX 47 78 52 79 48 80 49 81 51 82 53 83 50 84
REMARK H PARENT 3 12 3 13 70 46 44 57
REMARK Flexibility Score: inf
ROOT
ATOM      1  C   UNL A   1      35.991  22.653  23.768  1.00  0.00     0.274 C 
ENDROOT
BRANCH   1   2
ATOM      2  O   UNL A   1      34.806  23.340  24.225  1.00  0.00    -0.457 OA
BRANCH   2   3
ATOM      3  C   UNL A   1      33.684  23.229  23.444  1.00  0.00     0.377 C 
ATOM      4  O   UNL A   1      33.701  23.331  22.225  1.00  0.00    -0.244 OA
BRANCH   3   5
ATOM      5  C   UNL A   1      32.404  23.095  24.295  1.00  0.00     0.287 C 
ATOM      6  C   UNL A   1      31.231  23.194  23.306  1.00  0.00     0.103 C 
BRANCH   5   7
ATOM      7  C   UNL A   1      32.424  21.673  24.910  1.00  0.00     0.455 C 
ATOM      8  F   UNL A   1      32.884  20.752  24.035  1.00  0.00    -0.164 F 
ATOM      9  F   UNL A   1      33.278  21.639  25.971  1.00  0.00    -0.164 F 
ATOM     10  F   UNL A   1      31.232  21.253  25.376  1.00  0.00    -0.164 F 
ENDBRANCH   5   7
BRANCH   5  11
ATOM     11  N   UNL A   1      32.344  24.241  25.272  1.00  0.00    -0.317 N 
ATOM     12  H   UNL A   1      33.297  24.559  25.444  1.00  0.00     0.347 HD
ATOM     13  H   UNL A   1      31.878  23.879  26.104  1.00  0.00     0.347 HD
BRANCH  11  14
ATOM     14  C   UNL A   1      31.552  25.397  24.835  1.00  0.00     0.363 C 
BRANCH  14  15
ATOM     15  C   UNL A   1      31.781  26.563  25.734  1.00  0.00     0.282 A 
ATOM     16  N   UNL A   1      32.659  27.535  25.622  1.00  0.00    -0.186 NA
ATOM     17  O   UNL A   1      31.040  26.621  26.878  1.00  0.00    -0.333 OA
ATOM     18  C   UNL A   1      32.460  28.224  26.793  1.00  0.00     0.203 A 
ATOM     19  N   UNL A   1      31.501  27.733  27.588  1.00  0.00    -0.057 NA
BRANCH  18  20
ATOM     20  C   UNL A   1      33.293  29.380  27.119  1.00  0.00     0.033 A 
ATOM     21  C   UNL A   1      34.698  29.279  27.353  1.00  0.00     0.024 A 
ATOM     22  C   UNL A   1      32.841  30.676  27.249  1.00  0.00     0.077 A 
ATOM     23  C   UNL A   1      35.262  30.500  27.650  1.00  0.00     0.065 A 
ATOM     24  S   UNL A   1      34.102  31.759  27.660  1.00  0.00    -0.152 S 
ENDBRANCH  18  20
ENDBRANCH  14  15
ENDBRANCH  11  14
ENDBRANCH   5  11
ENDBRANCH   3   5
ENDBRANCH   2   3
ENDBRANCH   1   2
BRANCH   1  25
ATOM     25  C   UNL A   1      36.189  21.352  24.541  1.00  0.00     0.275 C 
BRANCH  25  26
ATOM     26  O   UNL A   1      36.877  21.648  25.766  1.00  0.00    -0.458 OA
BRANCH  26  27
ATOM     27  C   UNL A   1      38.208  21.415  25.772  1.00  0.00     0.338 C 
ATOM     28  O   UNL A   1      38.783  20.409  25.375  1.00  0.00    -0.246 OA
BRANCH  27  29
ATOM     29  C   UNL A   1      38.907  22.580  26.347  1.00  0.00     0.060 A 
ATOM     30  C   UNL A   1      38.436  23.871  26.111  1.00  0.00     0.016 A 
ATOM     31  C   UNL A   1      40.092  22.395  27.057  1.00  0.00     0.016 A 
ATOM     32  C   UNL A   1      39.188  24.979  26.499  1.00  0.00     0.010 A 
ATOM     33  C   UNL A   1      40.795  23.507  27.533  1.00  0.00     0.010 A 
ATOM     34  C   UNL A   1      40.371  24.814  27.228  1.00  0.00    -0.014 A 
BRANCH  34  35
ATOM     35  C   UNL A   1      41.194  25.991  27.621  1.00  0.00     0.031 A 
ATOM     36  C   UNL A   1      40.610  27.051  28.518  1.00  0.00     0.074 A 
ATOM     37  C   UNL A   1      42.468  26.120  27.195  1.00  0.00     0.049 A 
ATOM     38  N   UNL A   1      41.068  28.245  28.800  1.00  0.00    -0.248 NA
ATOM     39  C   UNL A   1      39.331  26.731  29.172  1.00  0.00     0.031 C 
ATOM     40  C   UNL A   1      43.193  25.153  26.371  1.00  0.00     0.029 A 
ATOM     41  N   UNL A   1      43.382  27.124  27.406  1.00  0.00    -0.354 N 
ATOM     42  C   UNL A   1      40.102  28.841  29.601  1.00  0.00     0.074 A 
ATOM     43  C   UNL A   1      39.037  27.876  29.770  1.00  0.00     0.031 C 
ATOM     44  C   UNL A   1      44.448  25.588  26.181  1.00  0.00     0.029 A 
ATOM     45  C   UNL A   1      44.591  26.905  26.792  1.00  0.00     0.049 A 
ATOM     46  H   UNL A   1      43.189  27.924  27.946  1.00  0.00     0.167 HD
ATOM     47  C   UNL A   1      40.103  30.083  30.142  1.00  0.00     0.037 A 
ATOM     48  C   UNL A   1      45.680  27.691  26.691  1.00  0.00     0.037 A 
ATOM     49  C   UNL A   1      41.194  31.017  30.036  1.00  0.00     0.049 A 
ATOM     50  C   UNL A   1      45.655  29.066  27.291  1.00  0.00     0.074 A 
ATOM     51  C   UNL A   1      41.291  32.295  30.559  1.00  0.00     0.029 A 
ATOM     52  N   UNL A   1      42.388  30.760  29.383  1.00  0.00    -0.354 N 
ATOM     53  N   UNL A   1      44.701  29.653  27.971  1.00  0.00    -0.248 NA
ATOM     54  C   UNL A   1      46.848  29.899  27.085  1.00  0.00     0.031 C 
ATOM     55  C   UNL A   1      42.539  32.820  30.205  1.00  0.00     0.029 A 
ATOM     56  C   UNL A   1      43.228  31.856  29.487  1.00  0.00     0.049 A 
ATOM     57  H   UNL A   1      42.608  29.922  28.915  1.00  0.00     0.167 HD
ATOM     58  C   UNL A   1      45.176  30.923  28.271  1.00  0.00     0.074 A 
ATOM     59  C   UNL A   1      46.514  31.012  27.723  1.00  0.00     0.031 C 
ATOM     60  C   UNL A   1      44.555  31.929  28.933  1.00  0.00     0.037 A 
BRANCH  47  61
ATOM     61  C   UNL A   1      38.868  30.520  30.872  1.00  0.00     0.057 A 
ATOM     62  C   UNL A   1      38.649  30.213  32.219  1.00  0.00     0.134 A 
ATOM     63  C   UNL A   1      37.897  31.288  30.216  1.00  0.00     0.134 A 
ATOM     64  F   UNL A   1      39.533  29.467  32.899  1.00  0.00    -0.206 F 
ATOM     65  C   UNL A   1      37.499  30.640  32.885  1.00  0.00     0.040 A 
ATOM     66  C   UNL A   1      36.753  31.739  30.877  1.00  0.00     0.040 A 
ATOM     67  F   UNL A   1      38.049  31.620  28.925  1.00  0.00    -0.206 F 
ATOM     68  C   UNL A   1      36.550  31.410  32.215  1.00  0.00     0.006 A 
ENDBRANCH  47  61
BRANCH  48  69
ATOM     69  C   UNL A   1      46.870  27.209  25.948  1.00  0.00     0.057 A 
ATOM     70  C   UNL A   1      47.024  27.473  24.583  1.00  0.00     0.134 A 
ATOM     71  C   UNL A   1      47.885  26.483  26.586  1.00  0.00     0.134 A 
ATOM     72  F   UNL A   1      46.073  28.139  23.912  1.00  0.00    -0.206 F 
ATOM     73  C   UNL A   1      48.144  27.029  23.876  1.00  0.00     0.040 A 
ATOM     74  C   UNL A   1      49.020  26.057  25.897  1.00  0.00     0.040 A 
ATOM     75  F   UNL A   1      47.794  26.198  27.893  1.00  0.00    -0.206 F 
ATOM     76  C   UNL A   1      49.150  26.327  24.537  1.00  0.00     0.006 A 
ENDBRANCH  48  69
BRANCH  60  77
ATOM     77  C   UNL A   1      45.322  33.202  29.107  1.00  0.00     0.057 A 
ATOM     78  C   UNL A   1      46.158  33.406  30.211  1.00  0.00     0.134 A 
ATOM     79  C   UNL A   1      45.243  34.222  28.151  1.00  0.00     0.134 A 
ATOM     80  F   UNL A   1      46.263  32.472  31.167  1.00  0.00    -0.206 F 
ATOM     81  C   UNL A   1      46.877  34.593  30.368  1.00  0.00     0.040 A 
ATOM     82  C   UNL A   1      45.971  35.404  28.288  1.00  0.00     0.040 A 
ATOM     83  F   UNL A   1      44.462  34.083  27.070  1.00  0.00    -0.206 F 
ATOM     84  C   UNL A   1      46.788  35.593  29.402  1.00  0.00     0.006 A 
ENDBRANCH  60  77
ENDBRANCH  34  35
ENDBRANCH  27  29
ENDBRANCH  26  27
ENDBRANCH  25  26
ENDBRANCH   1  25
TORSDOF 16
ENDMDL
