MODEL 1
REMARK VINA RESULT:     -11.7      0.000      0.000
REMARK SMILES O=C(C[N@@H+](C[C@@H]1COc2ccccc2O1)CC(F)(F)F)OCCOC(=O)c1ccc(-c2c3nc(c(-c4c(F)cccc4F)c4ccc([nH]4)c(-c4c(F)cccc4F)c4nc(c(-c5c(F)cccc5F)c5ccc2[nH]5)C=C4)C=C3)cc1
REMARK SMILES IDX 22 1 21 2 2 3 1 4 3 5 4 6 5 8 6 9 7 10 15 11 8 12 14 13 9 14
REMARK SMILES IDX 13 15 10 16 12 17 11 18 16 19 17 20 18 21 19 22 20 23 23 24
REMARK SMILES IDX 24 25 25 26 26 27 27 28 28 29 80 30 29 31 79 32 30 33 31 34
REMARK SMILES IDX 32 35 73 36 33 37 78 38 72 39 74 40 34 41 77 42 71 43 70 44
REMARK SMILES IDX 35 46 61 47 44 48 60 49 45 50 48 51 59 52 75 53 46 54 47 55
REMARK SMILES IDX 58 57 76 58 49 59 36 60 37 61 42 62 38 63 39 64 41 65 43 66
REMARK SMILES IDX 40 67 62 68 63 69 68 70 64 71 65 72 67 73 69 74 66 75 50 76
REMARK SMILES IDX 51 77 56 78 52 79 53 80 55 81 57 82 54 83
REMARK H PARENT 4 7 74 45 48 56
REMARK Flexibility Score: inf
ROOT
ATOM      1  C   UNL A   1      31.180  31.904  26.373  1.00  0.00     0.274 C 
ENDROOT
BRANCH   1   2
ATOM      2  O   UNL A   1      31.920  30.730  26.766  1.00  0.00    -0.458 OA
BRANCH   2   3
ATOM      3  C   UNL A   1      32.309  29.737  25.929  1.00  0.00     0.361 C 
ATOM      4  O   UNL A   1      33.495  29.647  25.613  1.00  0.00    -0.245 OA
BRANCH   3   5
ATOM      5  C   UNL A   1      31.239  28.828  25.339  1.00  0.00     0.386 C 
BRANCH   5   6
ATOM      6  N   UNL A   1      31.146  28.798  23.867  1.00  0.00    -0.315 N 
ATOM      7  H   UNL A   1      31.848  29.462  23.541  1.00  0.00     0.348 HD
BRANCH   6   8
ATOM      8  C   UNL A   1      31.545  27.467  23.332  1.00  0.00     0.312 C 
BRANCH   8   9
ATOM      9  C   UNL A   1      33.017  27.295  22.837  1.00  0.00     0.265 C 
ATOM     10  C   UNL A   1      33.131  26.311  21.653  1.00  0.00     0.281 C 
ATOM     11  O   UNL A   1      33.853  26.848  23.920  1.00  0.00    -0.477 OA
ATOM     12  O   UNL A   1      32.300  25.146  21.804  1.00  0.00    -0.486 OA
ATOM     13  C   UNL A   1      33.301  25.661  24.321  1.00  0.00     0.162 A 
ATOM     14  C   UNL A   1      32.282  24.771  23.116  1.00  0.00     0.161 A 
ATOM     15  C   UNL A   1      33.115  25.352  26.074  1.00  0.00     0.050 A 
ATOM     16  C   UNL A   1      31.117  23.546  23.664  1.00  0.00     0.050 A 
ATOM     17  C   UNL A   1      31.923  24.118  26.635  1.00  0.00     0.004 A 
ATOM     18  C   UNL A   1      30.896  23.266  25.435  1.00  0.00     0.004 A 
ENDBRANCH   8   9
ENDBRANCH   6   8
BRANCH   6  19
ATOM     19  C   UNL A   1      29.775  29.537  23.143  1.00  0.00     0.379 C 
BRANCH  19  20
ATOM     20  C   UNL A   1      28.464  31.291  23.376  1.00  0.00     0.438 C 
ATOM     21  F   UNL A   1      27.778  31.870  22.266  1.00  0.00    -0.165 F 
ATOM     22  F   UNL A   1      27.333  31.277  24.241  1.00  0.00    -0.165 F 
ATOM     23  F   UNL A   1      28.990  32.531  23.857  1.00  0.00    -0.165 F 
ENDBRANCH  19  20
ENDBRANCH   6  19
ENDBRANCH   5   6
ENDBRANCH   3   5
ENDBRANCH   2   3
ENDBRANCH   1   2
BRANCH   1  24
ATOM     24  C   UNL A   1      31.979  33.197  26.615  1.00  0.00     0.275 C 
BRANCH  24  25
ATOM     25  O   UNL A   1      32.062  33.556  28.018  1.00  0.00    -0.458 OA
BRANCH  25  26
ATOM     26  C   UNL A   1      33.043  34.430  28.373  1.00  0.00     0.338 C 
ATOM     27  O   UNL A   1      32.914  35.638  28.474  1.00  0.00    -0.246 OA
BRANCH  26  28
ATOM     28  C   UNL A   1      34.277  33.709  28.812  1.00  0.00     0.060 A 
ATOM     29  C   UNL A   1      34.135  32.404  29.309  1.00  0.00     0.016 A 
ATOM     30  C   UNL A   1      35.559  34.263  28.726  1.00  0.00     0.016 A 
ATOM     31  C   UNL A   1      35.254  31.660  29.719  1.00  0.00     0.010 A 
ATOM     32  C   UNL A   1      36.679  33.521  29.152  1.00  0.00     0.010 A 
ATOM     33  C   UNL A   1      36.539  32.215  29.666  1.00  0.00    -0.014 A 
BRANCH  33  34
ATOM     34  C   UNL A   1      37.705  31.495  30.270  1.00  0.00     0.031 A 
ATOM     35  C   UNL A   1      38.086  31.787  31.696  1.00  0.00     0.074 A 
ATOM     36  C   UNL A   1      38.423  30.570  29.600  1.00  0.00     0.049 A 
ATOM     37  N   UNL A   1      39.051  31.271  32.419  1.00  0.00    -0.248 NA
ATOM     38  C   UNL A   1      37.262  32.775  32.408  1.00  0.00     0.031 C 
ATOM     39  C   UNL A   1      38.141  30.109  28.251  1.00  0.00     0.029 A 
ATOM     40  N   UNL A   1      39.543  29.852  29.956  1.00  0.00    -0.354 N 
ATOM     41  C   UNL A   1      38.929  31.844  33.676  1.00  0.00     0.074 A 
ATOM     42  C   UNL A   1      37.836  32.792  33.602  1.00  0.00     0.031 C 
ATOM     43  C   UNL A   1      39.084  29.239  27.858  1.00  0.00     0.029 A 
ATOM     44  C   UNL A   1      40.039  29.058  28.945  1.00  0.00     0.049 A 
ATOM     45  H   UNL A   1      39.951  29.902  30.850  1.00  0.00     0.167 HD
ATOM     46  C   UNL A   1      39.640  31.586  34.799  1.00  0.00     0.037 A 
ATOM     47  C   UNL A   1      41.129  28.268  28.892  1.00  0.00     0.037 A 
ATOM     48  C   UNL A   1      40.742  30.662  34.886  1.00  0.00     0.049 A 
ATOM     49  C   UNL A   1      41.977  28.090  30.122  1.00  0.00     0.074 A 
ATOM     50  C   UNL A   1      41.510  30.343  35.994  1.00  0.00     0.029 A 
ATOM     51  N   UNL A   1      41.243  29.917  33.830  1.00  0.00    -0.354 N 
ATOM     52  N   UNL A   1      41.815  28.601  31.317  1.00  0.00    -0.248 NA
ATOM     53  C   UNL A   1      43.143  27.201  30.005  1.00  0.00     0.031 C 
ATOM     54  C   UNL A   1      42.511  29.452  35.596  1.00  0.00     0.029 A 
ATOM     55  C   UNL A   1      42.330  29.168  34.254  1.00  0.00     0.049 A 
ATOM     56  H   UNL A   1      40.881  29.920  32.915  1.00  0.00     0.167 HD
ATOM     57  C   UNL A   1      42.826  28.060  32.101  1.00  0.00     0.074 A 
ATOM     58  C   UNL A   1      43.589  27.172  31.252  1.00  0.00     0.031 C 
ATOM     59  C   UNL A   1      43.092  28.280  33.413  1.00  0.00     0.037 A 
BRANCH  46  60
ATOM     60  C   UNL A   1      39.246  32.325  36.043  1.00  0.00     0.057 A 
ATOM     61  C   UNL A   1      39.773  33.588  36.344  1.00  0.00     0.134 A 
ATOM     62  C   UNL A   1      38.292  31.794  36.920  1.00  0.00     0.134 A 
ATOM     63  F   UNL A   1      40.701  34.145  35.550  1.00  0.00    -0.206 F 
ATOM     64  C   UNL A   1      39.376  34.290  37.482  1.00  0.00     0.040 A 
ATOM     65  C   UNL A   1      37.868  32.498  38.047  1.00  0.00     0.040 A 
ATOM     66  F   UNL A   1      37.747  30.591  36.685  1.00  0.00    -0.206 F 
ATOM     67  C   UNL A   1      38.413  33.748  38.332  1.00  0.00     0.006 A 
ENDBRANCH  46  60
BRANCH  47  68
ATOM     68  C   UNL A   1      41.498  27.567  27.631  1.00  0.00     0.057 A 
ATOM     69  C   UNL A   1      42.221  28.213  26.620  1.00  0.00     0.134 A 
ATOM     70  C   UNL A   1      41.065  26.260  27.376  1.00  0.00     0.134 A 
ATOM     71  F   UNL A   1      42.640  29.475  26.790  1.00  0.00    -0.206 F 
ATOM     72  C   UNL A   1      42.464  27.601  25.388  1.00  0.00     0.040 A 
ATOM     73  C   UNL A   1      41.325  25.626  26.159  1.00  0.00     0.040 A 
ATOM     74  F   UNL A   1      40.367  25.584  28.301  1.00  0.00    -0.206 F 
ATOM     75  C   UNL A   1      42.014  26.303  25.155  1.00  0.00     0.006 A 
ENDBRANCH  47  68
BRANCH  59  76
ATOM     76  C   UNL A   1      44.237  27.520  34.021  1.00  0.00     0.057 A 
ATOM     77  C   UNL A   1      45.537  28.041  34.063  1.00  0.00     0.134 A 
ATOM     78  C   UNL A   1      44.034  26.253  34.586  1.00  0.00     0.134 A 
ATOM     79  F   UNL A   1      45.806  29.241  33.529  1.00  0.00    -0.206 F 
ATOM     80  C   UNL A   1      46.599  27.316  34.610  1.00  0.00     0.040 A 
ATOM     81  C   UNL A   1      45.080  25.534  35.165  1.00  0.00     0.040 A 
ATOM     82  F   UNL A   1      42.813  25.697  34.592  1.00  0.00    -0.206 F 
ATOM     83  C   UNL A   1      46.370  26.061  35.169  1.00  0.00     0.006 A 
ENDBRANCH  59  76
ENDBRANCH  33  34
ENDBRANCH  26  28
ENDBRANCH  25  26
ENDBRANCH  24  25
ENDBRANCH   1  24
TORSDOF 16
ENDMDL
MODEL 2
REMARK VINA RESULT:     -11.3      0.550      6.191
REMARK SMILES O=C(C[N@@H+](C[C@@H]1COc2ccccc2O1)CC(F)(F)F)OCCOC(=O)c1ccc(-c2c3nc(c(-c4c(F)cccc4F)c4ccc([nH]4)c(-c4c(F)cccc4F)c4nc(c(-c5c(F)cccc5F)c5ccc2[nH]5)C=C4)C=C3)cc1
REMARK SMILES IDX 22 1 21 2 2 3 1 4 3 5 4 6 5 8 6 9 7 10 15 11 8 12 14 13 9 14
REMARK SMILES IDX 13 15 10 16 12 17 11 18 16 19 17 20 18 21 19 22 20 23 23 24
REMARK SMILES IDX 24 25 25 26 26 27 27 28 28 29 80 30 29 31 79 32 30 33 31 34
REMARK SMILES IDX 32 35 73 36 33 37 78 38 72 39 74 40 34 41 77 42 71 43 70 44
REMARK SMILES IDX 35 46 61 47 44 48 60 49 45 50 48 51 59 52 75 53 46 54 47 55
REMARK SMILES IDX 58 57 76 58 49 59 36 60 37 61 42 62 38 63 39 64 41 65 43 66
REMARK SMILES IDX 40 67 62 68 63 69 68 70 64 71 65 72 67 73 69 74 66 75 50 76
REMARK SMILES IDX 51 77 56 78 52 79 53 80 55 81 57 82 54 83
REMARK H PARENT 4 7 74 45 48 56
REMARK Flexibility Score: inf
ROOT
ATOM      1  C   UNL A   1      31.402  31.984  26.521  1.00  0.00     0.274 C 
ENDROOT
BRANCH   1   2
ATOM      2  O   UNL A   1      31.634  30.593  26.822  1.00  0.00    -0.458 OA
BRANCH   2   3
ATOM      3  C   UNL A   1      32.205  29.698  25.979  1.00  0.00     0.361 C 
ATOM      4  O   UNL A   1      33.384  29.844  25.657  1.00  0.00    -0.245 OA
BRANCH   3   5
ATOM      5  C   UNL A   1      31.331  28.598  25.392  1.00  0.00     0.386 C 
BRANCH   5   6
ATOM      6  N   UNL A   1      31.143  28.624  23.929  1.00  0.00    -0.315 N 
ATOM      7  H   UNL A   1      31.776  29.348  23.591  1.00  0.00     0.348 HD
BRANCH   6   8
ATOM      8  C   UNL A   1      31.592  27.347  23.307  1.00  0.00     0.312 C 
BRANCH   8   9
ATOM      9  C   UNL A   1      33.085  27.245  22.858  1.00  0.00     0.265 C 
ATOM     10  C   UNL A   1      33.274  26.301  21.651  1.00  0.00     0.281 C 
ATOM     11  O   UNL A   1      33.901  26.797  23.955  1.00  0.00    -0.477 OA
ATOM     12  O   UNL A   1      32.483  25.102  21.742  1.00  0.00    -0.486 OA
ATOM     13  C   UNL A   1      33.382  25.580  24.304  1.00  0.00     0.162 A 
ATOM     14  C   UNL A   1      32.436  24.688  23.042  1.00  0.00     0.161 A 
ATOM     15  C   UNL A   1      33.150  25.214  26.041  1.00  0.00     0.050 A 
ATOM     16  C   UNL A   1      31.301  23.406  23.515  1.00  0.00     0.050 A 
ATOM     17  C   UNL A   1      31.989  23.921  26.527  1.00  0.00     0.004 A 
ATOM     18  C   UNL A   1      31.034  23.067  25.270  1.00  0.00     0.004 A 
ENDBRANCH   8   9
ENDBRANCH   6   8
BRANCH   6  19
ATOM     19  C   UNL A   1      29.681  29.298  23.330  1.00  0.00     0.379 C 
BRANCH  19  20
ATOM     20  C   UNL A   1      28.491  31.148  23.432  1.00  0.00     0.438 C 
ATOM     21  F   UNL A   1      27.289  31.228  24.199  1.00  0.00    -0.165 F 
ATOM     22  F   UNL A   1      29.039  32.371  23.912  1.00  0.00    -0.165 F 
ATOM     23  F   UNL A   1      27.920  31.708  22.246  1.00  0.00    -0.165 F 
ENDBRANCH  19  20
ENDBRANCH   6  19
ENDBRANCH   5   6
ENDBRANCH   3   5
ENDBRANCH   2   3
ENDBRANCH   1   2
BRANCH   1  24
ATOM     24  C   UNL A   1      32.562  32.878  26.994  1.00  0.00     0.275 C 
BRANCH  24  25
ATOM     25  O   UNL A   1      32.154  33.856  27.985  1.00  0.00    -0.458 OA
BRANCH  25  26
ATOM     26  C   UNL A   1      33.111  34.715  28.433  1.00  0.00     0.338 C 
ATOM     27  O   UNL A   1      32.990  35.923  28.530  1.00  0.00    -0.246 OA
BRANCH  26  28
ATOM     28  C   UNL A   1      34.292  33.974  28.976  1.00  0.00     0.060 A 
ATOM     29  C   UNL A   1      34.052  32.919  29.869  1.00  0.00     0.016 A 
ATOM     30  C   UNL A   1      35.612  34.267  28.615  1.00  0.00     0.016 A 
ATOM     31  C   UNL A   1      35.112  32.166  30.401  1.00  0.00     0.010 A 
ATOM     32  C   UNL A   1      36.675  33.521  29.162  1.00  0.00     0.010 A 
ATOM     33  C   UNL A   1      36.439  32.470  30.072  1.00  0.00    -0.014 A 
BRANCH  33  34
ATOM     34  C   UNL A   1      37.574  31.791  30.776  1.00  0.00     0.031 A 
ATOM     35  C   UNL A   1      38.311  30.682  30.076  1.00  0.00     0.074 A 
ATOM     36  C   UNL A   1      37.987  32.146  32.010  1.00  0.00     0.049 A 
ATOM     37  N   UNL A   1      39.327  29.969  30.495  1.00  0.00    -0.248 NA
ATOM     38  C   UNL A   1      37.857  30.345  28.719  1.00  0.00     0.031 C 
ATOM     39  C   UNL A   1      37.444  33.245  32.791  1.00  0.00     0.029 A 
ATOM     40  N   UNL A   1      38.956  31.617  32.834  1.00  0.00    -0.354 N 
ATOM     41  C   UNL A   1      39.655  29.125  29.445  1.00  0.00     0.074 A 
ATOM     42  C   UNL A   1      38.693  29.371  28.391  1.00  0.00     0.031 C 
ATOM     43  C   UNL A   1      38.029  33.282  33.998  1.00  0.00     0.029 A 
ATOM     44  C   UNL A   1      39.018  32.213  34.074  1.00  0.00     0.049 A 
ATOM     45  H   UNL A   1      39.550  30.881  32.560  1.00  0.00     0.167 HD
ATOM     46  C   UNL A   1      40.681  28.246  29.351  1.00  0.00     0.037 A 
ATOM     47  C   UNL A   1      39.781  31.942  35.151  1.00  0.00     0.037 A 
ATOM     48  C   UNL A   1      41.636  27.973  30.395  1.00  0.00     0.049 A 
ATOM     49  C   UNL A   1      40.837  30.874  35.062  1.00  0.00     0.074 A 
ATOM     50  C   UNL A   1      42.708  27.097  30.372  1.00  0.00     0.029 A 
ATOM     51  N   UNL A   1      41.632  28.560  31.651  1.00  0.00    -0.354 N 
ATOM     52  N   UNL A   1      41.166  30.122  34.042  1.00  0.00    -0.248 NA
ATOM     53  C   UNL A   1      41.649  30.638  36.266  1.00  0.00     0.031 C 
ATOM     54  C   UNL A   1      43.317  27.109  31.630  1.00  0.00     0.029 A 
ATOM     55  C   UNL A   1      42.662  28.038  32.420  1.00  0.00     0.049 A 
ATOM     56  H   UNL A   1      40.993  29.245  31.952  1.00  0.00     0.167 HD
ATOM     57  C   UNL A   1      42.249  29.360  34.466  1.00  0.00     0.074 A 
ATOM     58  C   UNL A   1      42.530  29.750  35.829  1.00  0.00     0.031 C 
ATOM     59  C   UNL A   1      42.948  28.424  33.778  1.00  0.00     0.037 A 
BRANCH  46  60
ATOM     60  C   UNL A   1      40.825  27.499  28.058  1.00  0.00     0.057 A 
ATOM     61  C   UNL A   1      41.623  27.985  27.015  1.00  0.00     0.134 A 
ATOM     62  C   UNL A   1      40.202  26.258  27.875  1.00  0.00     0.134 A 
ATOM     63  F   UNL A   1      42.235  29.175  27.124  1.00  0.00    -0.206 F 
ATOM     64  C   UNL A   1      41.786  27.270  25.829  1.00  0.00     0.040 A 
ATOM     65  C   UNL A   1      40.378  25.522  26.703  1.00  0.00     0.040 A 
ATOM     66  F   UNL A   1      39.428  25.736  28.839  1.00  0.00    -0.206 F 
ATOM     67  C   UNL A   1      41.169  26.029  25.675  1.00  0.00     0.006 A 
ENDBRANCH  46  60
BRANCH  47  68
ATOM     68  C   UNL A   1      39.592  32.692  36.424  1.00  0.00     0.057 A 
ATOM     69  C   UNL A   1      38.608  32.326  37.351  1.00  0.00     0.134 A 
ATOM     70  C   UNL A   1      40.340  33.843  36.703  1.00  0.00     0.134 A 
ATOM     71  F   UNL A   1      37.840  31.250  37.128  1.00  0.00    -0.206 F 
ATOM     72  C   UNL A   1      38.347  33.096  38.485  1.00  0.00     0.040 A 
ATOM     73  C   UNL A   1      40.107  34.608  37.848  1.00  0.00     0.040 A 
ATOM     74  F   UNL A   1      41.298  34.251  35.857  1.00  0.00    -0.206 F 
ATOM     75  C   UNL A   1      39.098  34.243  38.736  1.00  0.00     0.006 A 
ENDBRANCH  47  68
BRANCH  59  76
ATOM     76  C   UNL A   1      44.112  27.780  34.477  1.00  0.00     0.057 A 
ATOM     77  C   UNL A   1      45.399  28.335  34.443  1.00  0.00     0.134 A 
ATOM     78  C   UNL A   1      43.942  26.596  35.206  1.00  0.00     0.134 A 
ATOM     79  F   UNL A   1      45.637  29.460  33.754  1.00  0.00    -0.206 F 
ATOM     80  C   UNL A   1      46.479  27.716  35.078  1.00  0.00     0.040 A 
ATOM     81  C   UNL A   1      45.007  25.986  35.871  1.00  0.00     0.040 A 
ATOM     82  F   UNL A   1      42.736  26.014  35.291  1.00  0.00    -0.206 F 
ATOM     83  C   UNL A   1      46.283  26.541  35.799  1.00  0.00     0.006 A 
ENDBRANCH  59  76
ENDBRANCH  33  34
ENDBRANCH  26  28
ENDBRANCH  25  26
ENDBRANCH  24  25
ENDBRANCH   1  24
TORSDOF 16
ENDMDL
MODEL 3
REMARK VINA RESULT:     -11.3      4.054      8.942
REMARK SMILES O=C(C[N@@H+](C[C@@H]1COc2ccccc2O1)CC(F)(F)F)OCCOC(=O)c1ccc(-c2c3nc(c(-c4c(F)cccc4F)c4ccc([nH]4)c(-c4c(F)cccc4F)c4nc(c(-c5c(F)cccc5F)c5ccc2[nH]5)C=C4)C=C3)cc1
REMARK SMILES IDX 22 1 21 2 2 3 1 4 3 5 4 6 5 8 6 9 7 10 15 11 8 12 14 13 9 14
REMARK SMILES IDX 13 15 10 16 12 17 11 18 16 19 17 20 18 21 19 22 20 23 23 24
REMARK SMILES IDX 24 25 25 26 26 27 27 28 28 29 80 30 29 31 79 32 30 33 31 34
REMARK SMILES IDX 32 35 73 36 33 37 78 38 72 39 74 40 34 41 77 42 71 43 70 44
REMARK SMILES IDX 35 46 61 47 44 48 60 49 45 50 48 51 59 52 75 53 46 54 47 55
REMARK SMILES IDX 58 57 76 58 49 59 36 60 37 61 42 62 38 63 39 64 41 65 43 66
REMARK SMILES IDX 40 67 62 68 63 69 68 70 64 71 65 72 67 73 69 74 66 75 50 76
REMARK SMILES IDX 51 77 56 78 52 79 53 80 55 81 57 82 54 83
REMARK H PARENT 4 7 74 45 48 56
REMARK Flexibility Score: inf
ROOT
ATOM      1  C   UNL A   1      39.491  21.181  25.887  1.00  0.00     0.274 C 
ENDROOT
BRANCH   1   2
ATOM      2  O   UNL A   1      38.168  21.504  25.411  1.00  0.00    -0.458 OA
BRANCH   2   3
ATOM      3  C   UNL A   1      37.240  20.597  25.019  1.00  0.00     0.361 C 
ATOM      4  O   UNL A   1      37.563  19.415  24.910  1.00  0.00    -0.245 OA
BRANCH   3   5
ATOM      5  C   UNL A   1      35.854  21.100  24.638  1.00  0.00     0.386 C 
BRANCH   5   6
ATOM      6  N   UNL A   1      34.713  20.402  25.261  1.00  0.00    -0.315 N 
ATOM      7  H   UNL A   1      35.118  19.837  26.005  1.00  0.00     0.348 HD
BRANCH   6   8
ATOM      8  C   UNL A   1      33.788  21.366  25.919  1.00  0.00     0.312 C 
BRANCH   8   9
ATOM      9  C   UNL A   1      34.297  22.099  27.202  1.00  0.00     0.265 C 
ATOM     10  C   UNL A   1      33.161  22.388  28.206  1.00  0.00     0.281 C 
ATOM     11  O   UNL A   1      34.949  23.330  26.842  1.00  0.00    -0.477 OA
ATOM     12  O   UNL A   1      31.949  22.837  27.574  1.00  0.00    -0.486 OA
ATOM     13  C   UNL A   1      33.993  24.052  26.179  1.00  0.00     0.162 A 
ATOM     14  C   UNL A   1      32.261  23.640  26.515  1.00  0.00     0.161 A 
ATOM     15  C   UNL A   1      34.451  24.895  24.668  1.00  0.00     0.050 A 
ATOM     16  C   UNL A   1      30.992  24.112  25.365  1.00  0.00     0.050 A 
ATOM     17  C   UNL A   1      33.166  25.364  23.491  1.00  0.00     0.004 A 
ATOM     18  C   UNL A   1      31.458  24.922  23.819  1.00  0.00     0.004 A 
ENDBRANCH   8   9
ENDBRANCH   6   8
BRANCH   6  19
ATOM     19  C   UNL A   1      33.984  19.124  24.373  1.00  0.00     0.379 C 
BRANCH  19  20
ATOM     20  C   UNL A   1      34.198  16.962  24.014  1.00  0.00     0.438 C 
ATOM     21  F   UNL A   1      34.490  16.441  22.717  1.00  0.00    -0.165 F 
ATOM     22  F   UNL A   1      35.169  16.177  24.696  1.00  0.00    -0.165 F 
ATOM     23  F   UNL A   1      33.104  16.075  24.262  1.00  0.00    -0.165 F 
ENDBRANCH  19  20
ENDBRANCH   6  19
ENDBRANCH   5   6
ENDBRANCH   3   5
ENDBRANCH   2   3
ENDBRANCH   1   2
BRANCH   1  24
ATOM     24  C   UNL A   1      39.996  22.202  26.922  1.00  0.00     0.275 C 
BRANCH  24  25
ATOM     25  O   UNL A   1      39.801  23.577  26.503  1.00  0.00    -0.458 OA
BRANCH  25  26
ATOM     26  C   UNL A   1      40.882  24.401  26.571  1.00  0.00     0.338 C 
ATOM     27  O   UNL A   1      41.838  24.381  25.816  1.00  0.00    -0.246 OA
BRANCH  26  28
ATOM     28  C   UNL A   1      40.678  25.478  27.589  1.00  0.00     0.060 A 
ATOM     29  C   UNL A   1      41.646  26.490  27.680  1.00  0.00     0.016 A 
ATOM     30  C   UNL A   1      39.561  25.535  28.430  1.00  0.00     0.016 A 
ATOM     31  C   UNL A   1      41.508  27.544  28.599  1.00  0.00     0.010 A 
ATOM     32  C   UNL A   1      39.432  26.584  29.362  1.00  0.00     0.010 A 
ATOM     33  C   UNL A   1      40.410  27.594  29.467  1.00  0.00    -0.014 A 
BRANCH  33  34
ATOM     34  C   UNL A   1      40.354  28.610  30.566  1.00  0.00     0.031 A 
ATOM     35  C   UNL A   1      39.392  29.761  30.450  1.00  0.00     0.074 A 
ATOM     36  C   UNL A   1      41.114  28.531  31.677  1.00  0.00     0.049 A 
ATOM     37  N   UNL A   1      39.172  30.745  31.287  1.00  0.00    -0.248 NA
ATOM     38  C   UNL A   1      38.554  29.799  29.242  1.00  0.00     0.031 C 
ATOM     39  C   UNL A   1      42.030  27.446  31.988  1.00  0.00     0.029 A 
ATOM     40  N   UNL A   1      41.245  29.379  32.754  1.00  0.00    -0.354 N 
ATOM     41  C   UNL A   1      38.151  31.498  30.726  1.00  0.00     0.074 A 
ATOM     42  C   UNL A   1      37.835  30.892  29.448  1.00  0.00     0.031 C 
ATOM     43  C   UNL A   1      42.679  27.709  33.133  1.00  0.00     0.029 A 
ATOM     44  C   UNL A   1      42.206  28.984  33.660  1.00  0.00     0.049 A 
ATOM     45  H   UNL A   1      40.703  30.193  32.866  1.00  0.00     0.167 HD
ATOM     46  C   UNL A   1      37.511  32.576  31.237  1.00  0.00     0.037 A 
ATOM     47  C   UNL A   1      42.655  29.568  34.788  1.00  0.00     0.037 A 
ATOM     48  C   UNL A   1      37.823  33.203  32.496  1.00  0.00     0.049 A 
ATOM     49  C   UNL A   1      42.008  30.836  35.275  1.00  0.00     0.074 A 
ATOM     50  C   UNL A   1      37.214  34.299  33.084  1.00  0.00     0.029 A 
ATOM     51  N   UNL A   1      38.834  32.803  33.356  1.00  0.00    -0.354 N 
ATOM     52  N   UNL A   1      41.008  31.504  34.756  1.00  0.00    -0.248 NA
ATOM     53  C   UNL A   1      42.532  31.416  36.522  1.00  0.00     0.031 C 
ATOM     54  C   UNL A   1      37.892  34.598  34.270  1.00  0.00     0.029 A 
ATOM     55  C   UNL A   1      38.885  33.652  34.452  1.00  0.00     0.049 A 
ATOM     56  H   UNL A   1      39.426  32.031  33.211  1.00  0.00     0.167 HD
ATOM     57  C   UNL A   1      40.755  32.551  35.634  1.00  0.00     0.074 A 
ATOM     58  C   UNL A   1      41.695  32.422  36.726  1.00  0.00     0.031 C 
ATOM     59  C   UNL A   1      39.819  33.528  35.542  1.00  0.00     0.037 A 
BRANCH  46  60
ATOM     60  C   UNL A   1      36.394  33.159  30.422  1.00  0.00     0.057 A 
ATOM     61  C   UNL A   1      36.643  34.034  29.358  1.00  0.00     0.134 A 
ATOM     62  C   UNL A   1      35.064  32.800  30.671  1.00  0.00     0.134 A 
ATOM     63  F   UNL A   1      37.895  34.427  29.078  1.00  0.00    -0.206 F 
ATOM     64  C   UNL A   1      35.605  34.545  28.578  1.00  0.00     0.040 A 
ATOM     65  C   UNL A   1      34.021  33.283  29.881  1.00  0.00     0.040 A 
ATOM     66  F   UNL A   1      34.761  31.961  31.673  1.00  0.00    -0.206 F 
ATOM     67  C   UNL A   1      34.290  34.161  28.834  1.00  0.00     0.006 A 
ENDBRANCH  46  60
BRANCH  47  68
ATOM     68  C   UNL A   1      43.781  28.969  35.557  1.00  0.00     0.057 A 
ATOM     69  C   UNL A   1      43.557  28.023  36.566  1.00  0.00     0.134 A 
ATOM     70  C   UNL A   1      45.100  29.390  35.353  1.00  0.00     0.134 A 
ATOM     71  F   UNL A   1      42.312  27.600  36.829  1.00  0.00    -0.206 F 
ATOM     72  C   UNL A   1      44.595  27.550  37.370  1.00  0.00     0.040 A 
ATOM     73  C   UNL A   1      46.153  28.904  36.133  1.00  0.00     0.040 A 
ATOM     74  F   UNL A   1      45.386  30.294  34.404  1.00  0.00    -0.206 F 
ATOM     75  C   UNL A   1      45.899  27.992  37.155  1.00  0.00     0.006 A 
ENDBRANCH  47  68
BRANCH  59  76
ATOM     76  C   UNL A   1      39.741  34.517  36.671  1.00  0.00     0.057 A 
ATOM     77  C   UNL A   1      38.996  34.263  37.831  1.00  0.00     0.134 A 
ATOM     78  C   UNL A   1      40.430  35.735  36.603  1.00  0.00     0.134 A 
ATOM     79  F   UNL A   1      38.302  33.123  37.958  1.00  0.00    -0.206 F 
ATOM     80  C   UNL A   1      38.911  35.200  38.865  1.00  0.00     0.040 A 
ATOM     81  C   UNL A   1      40.379  36.664  37.644  1.00  0.00     0.040 A 
ATOM     82  F   UNL A   1      41.170  36.040  35.527  1.00  0.00    -0.206 F 
ATOM     83  C   UNL A   1      39.609  36.402  38.775  1.00  0.00     0.006 A 
ENDBRANCH  59  76
ENDBRANCH  33  34
ENDBRANCH  26  28
ENDBRANCH  25  26
ENDBRANCH  24  25
ENDBRANCH   1  24
TORSDOF 16
ENDMDL
