MODEL 1
REMARK VINA RESULT:     -10.8      0.000      0.000
REMARK SMILES C[C@@H]1CCC[C@](CCSc2ccccc2)(C(=O)OCCOC(=O)c2ccc(-c3c4nc(c(-c5c(F)cccc5F)c5ccc([nH]5)c(-c5c(F)cccc5F)c5nc(c(-c6c(F)cccc6F)c6ccc3[nH]6)C=C5)C=C4)cc2)C1
REMARK SMILES IDX 19 1 18 2 16 3 17 4 6 5 1 6 2 7 3 8 78 9 4 10 5 11 7 12 8 13
REMARK SMILES IDX 9 14 10 15 11 16 15 17 12 18 14 19 13 20 20 21 21 22 22 23
REMARK SMILES IDX 23 24 24 25 25 26 77 27 26 28 76 29 27 30 28 31 29 32 70 33
REMARK SMILES IDX 30 34 75 35 69 36 71 37 31 38 74 39 68 40 67 41 32 43 58 44
REMARK SMILES IDX 41 45 57 46 42 47 45 48 56 49 72 50 43 51 44 52 55 54 73 55
REMARK SMILES IDX 46 56 33 57 34 58 39 59 35 60 36 61 38 62 40 63 37 64 59 65
REMARK SMILES IDX 60 66 65 67 61 68 62 69 64 70 66 71 63 72 47 73 48 74 53 75
REMARK SMILES IDX 49 76 50 77 52 78 54 79 51 80
REMARK H PARENT 71 42 45 53
REMARK Flexibility Score: inf
ROOT
ATOM      1  C   UNL A   1      31.094  30.187  24.820  1.00  0.00     0.274 C 
ENDROOT
BRANCH   1   2
ATOM      2  O   UNL A   1      31.084  28.831  25.328  1.00  0.00    -0.462 OA
BRANCH   2   3
ATOM      3  C   UNL A   1      30.774  27.864  24.429  1.00  0.00     0.312 C 
ATOM      4  O   UNL A   1      29.898  28.035  23.597  1.00  0.00    -0.252 OA
BRANCH   3   5
ATOM      5  C   UNL A   1      31.663  26.599  24.479  1.00  0.00     0.069 C 
ATOM      6  C   UNL A   1      33.659  28.594  22.656  1.00  0.00     0.007 C 
ATOM      7  C   UNL A   1      33.785  27.112  23.005  1.00  0.00    -0.013 C 
ATOM      8  C   UNL A   1      33.251  26.167  21.927  1.00  0.00     0.003 C 
ATOM      9  C   UNL A   1      33.190  26.787  24.375  1.00  0.00     0.022 C 
ATOM     10  C   UNL A   1      31.737  26.007  21.945  1.00  0.00     0.001 C 
ATOM     11  C   UNL A   1      31.192  25.651  23.336  1.00  0.00     0.019 C 
BRANCH   5  12
ATOM     12  C   UNL A   1      31.412  25.881  25.865  1.00  0.00     0.030 C 
BRANCH  12  13
ATOM     13  C   UNL A   1      30.792  24.459  25.981  1.00  0.00     0.076 C 
BRANCH  13  14
ATOM     14  S   UNL A   1      31.743  22.935  26.394  1.00  0.00    -0.126 SA
BRANCH  14  15
ATOM     15  C   UNL A   1      33.225  23.110  25.411  1.00  0.00     0.007 A 
ATOM     16  C   UNL A   1      34.369  23.697  25.971  1.00  0.00     0.015 A 
ATOM     17  C   UNL A   1      33.269  22.700  24.079  1.00  0.00     0.015 A 
ATOM     18  C   UNL A   1      35.486  23.980  25.179  1.00  0.00     0.001 A 
ATOM     19  C   UNL A   1      34.378  22.994  23.281  1.00  0.00     0.001 A 
ATOM     20  C   UNL A   1      35.479  23.652  23.826  1.00  0.00     0.000 A 
ENDBRANCH  14  15
ENDBRANCH  13  14
ENDBRANCH  12  13
ENDBRANCH   5  12
ENDBRANCH   3   5
ENDBRANCH   2   3
ENDBRANCH   1   2
BRANCH   1  21
ATOM     21  C   UNL A   1      31.132  31.315  25.868  1.00  0.00     0.275 C 
BRANCH  21  22
ATOM     22  O   UNL A   1      32.166  31.146  26.860  1.00  0.00    -0.458 OA
BRANCH  22  23
ATOM     23  C   UNL A   1      32.781  32.289  27.246  1.00  0.00     0.338 C 
ATOM     24  O   UNL A   1      32.269  33.401  27.316  1.00  0.00    -0.246 OA
BRANCH  23  25
ATOM     25  C   UNL A   1      34.121  32.014  27.811  1.00  0.00     0.060 A 
ATOM     26  C   UNL A   1      34.344  30.698  28.218  1.00  0.00     0.016 A 
ATOM     27  C   UNL A   1      35.118  32.971  27.999  1.00  0.00     0.016 A 
ATOM     28  C   UNL A   1      35.573  30.294  28.731  1.00  0.00     0.010 A 
ATOM     29  C   UNL A   1      36.331  32.587  28.602  1.00  0.00     0.010 A 
ATOM     30  C   UNL A   1      36.565  31.246  28.966  1.00  0.00    -0.014 A 
BRANCH  30  31
ATOM     31  C   UNL A   1      37.732  30.852  29.795  1.00  0.00     0.031 A 
ATOM     32  C   UNL A   1      38.757  29.938  29.182  1.00  0.00     0.074 A 
ATOM     33  C   UNL A   1      37.943  31.361  31.023  1.00  0.00     0.049 A 
ATOM     34  N   UNL A   1      39.803  29.372  29.727  1.00  0.00    -0.248 NA
ATOM     35  C   UNL A   1      38.585  29.635  27.751  1.00  0.00     0.031 C 
ATOM     36  C   UNL A   1      37.108  32.362  31.682  1.00  0.00     0.029 A 
ATOM     37  N   UNL A   1      38.937  31.098  31.937  1.00  0.00    -0.354 N 
ATOM     38  C   UNL A   1      40.409  28.646  28.709  1.00  0.00     0.074 A 
ATOM     39  C   UNL A   1      39.611  28.832  27.518  1.00  0.00     0.031 C 
ATOM     40  C   UNL A   1      37.602  32.601  32.911  1.00  0.00     0.029 A 
ATOM     41  C   UNL A   1      38.758  31.737  33.142  1.00  0.00     0.049 A 
ATOM     42  H   UNL A   1      39.701  30.508  31.748  1.00  0.00     0.167 HD
ATOM     43  C   UNL A   1      41.530  27.889  28.763  1.00  0.00     0.037 A 
ATOM     44  C   UNL A   1      39.424  31.596  34.307  1.00  0.00     0.037 A 
ATOM     45  C   UNL A   1      42.310  27.685  29.953  1.00  0.00     0.049 A 
ATOM     46  C   UNL A   1      40.581  30.625  34.384  1.00  0.00     0.074 A 
ATOM     47  C   UNL A   1      43.421  26.879  30.129  1.00  0.00     0.029 A 
ATOM     48  N   UNL A   1      42.059  28.295  31.172  1.00  0.00    -0.354 N 
ATOM     49  N   UNL A   1      41.118  29.895  33.435  1.00  0.00    -0.248 NA
ATOM     50  C   UNL A   1      41.220  30.454  35.698  1.00  0.00     0.031 C 
ATOM     51  C   UNL A   1      43.815  26.967  31.468  1.00  0.00     0.029 A 
ATOM     52  C   UNL A   1      42.985  27.872  32.109  1.00  0.00     0.049 A 
ATOM     53  H   UNL A   1      41.329  28.933  31.346  1.00  0.00     0.167 HD
ATOM     54  C   UNL A   1      42.172  29.210  34.030  1.00  0.00     0.074 A 
ATOM     55  C   UNL A   1      42.212  29.623  35.415  1.00  0.00     0.031 C 
ATOM     56  C   UNL A   1      43.030  28.316  33.479  1.00  0.00     0.037 A 
BRANCH  43  57
ATOM     57  C   UNL A   1      41.946  27.185  27.507  1.00  0.00     0.057 A 
ATOM     58  C   UNL A   1      41.513  25.887  27.207  1.00  0.00     0.134 A 
ATOM     59  C   UNL A   1      42.771  27.825  26.573  1.00  0.00     0.134 A 
ATOM     60  F   UNL A   1      40.739  25.212  28.069  1.00  0.00    -0.206 F 
ATOM     61  C   UNL A   1      41.900  25.245  26.029  1.00  0.00     0.040 A 
ATOM     62  C   UNL A   1      43.143  27.202  25.380  1.00  0.00     0.040 A 
ATOM     63  F   UNL A   1      43.221  29.068  26.800  1.00  0.00    -0.206 F 
ATOM     64  C   UNL A   1      42.710  25.906  25.108  1.00  0.00     0.006 A 
ENDBRANCH  43  57
BRANCH  44  65
ATOM     65  C   UNL A   1      38.981  32.319  35.531  1.00  0.00     0.057 A 
ATOM     66  C   UNL A   1      39.379  33.636  35.793  1.00  0.00     0.134 A 
ATOM     67  C   UNL A   1      38.227  31.671  36.520  1.00  0.00     0.134 A 
ATOM     68  F   UNL A   1      40.131  34.303  34.905  1.00  0.00    -0.206 F 
ATOM     69  C   UNL A   1      39.076  34.268  37.002  1.00  0.00     0.040 A 
ATOM     70  C   UNL A   1      37.889  32.303  37.718  1.00  0.00     0.040 A 
ATOM     71  F   UNL A   1      37.821  30.405  36.343  1.00  0.00    -0.206 F 
ATOM     72  C   UNL A   1      38.327  33.601  37.968  1.00  0.00     0.006 A 
ENDBRANCH  44  65
BRANCH  56  73
ATOM     73  C   UNL A   1      44.124  27.770  34.353  1.00  0.00     0.057 A 
ATOM     74  C   UNL A   1      45.354  28.423  34.505  1.00  0.00     0.134 A 
ATOM     75  C   UNL A   1      43.920  26.598  35.094  1.00  0.00     0.134 A 
ATOM     76  F   UNL A   1      45.619  29.544  33.817  1.00  0.00    -0.206 F 
ATOM     77  C   UNL A   1      46.350  27.916  35.343  1.00  0.00     0.040 A 
ATOM     78  C   UNL A   1      44.895  26.100  35.959  1.00  0.00     0.040 A 
ATOM     79  F   UNL A   1      42.761  25.928  35.006  1.00  0.00    -0.206 F 
ATOM     80  C   UNL A   1      46.118  26.756  36.080  1.00  0.00     0.006 A 
ENDBRANCH  56  73
ENDBRANCH  30  31
ENDBRANCH  23  25
ENDBRANCH  22  23
ENDBRANCH  21  22
ENDBRANCH   1  21
TORSDOF 15
ENDMDL
MODEL 2
REMARK VINA RESULT:     -10.6      0.539      1.705
REMARK SMILES C[C@@H]1CCC[C@](CCSc2ccccc2)(C(=O)OCCOC(=O)c2ccc(-c3c4nc(c(-c5c(F)cccc5F)c5ccc([nH]5)c(-c5c(F)cccc5F)c5nc(c(-c6c(F)cccc6F)c6ccc3[nH]6)C=C5)C=C4)cc2)C1
REMARK SMILES IDX 19 1 18 2 16 3 17 4 6 5 1 6 2 7 3 8 78 9 4 10 5 11 7 12 8 13
REMARK SMILES IDX 9 14 10 15 11 16 15 17 12 18 14 19 13 20 20 21 21 22 22 23
REMARK SMILES IDX 23 24 24 25 25 26 77 27 26 28 76 29 27 30 28 31 29 32 70 33
REMARK SMILES IDX 30 34 75 35 69 36 71 37 31 38 74 39 68 40 67 41 32 43 58 44
REMARK SMILES IDX 41 45 57 46 42 47 45 48 56 49 72 50 43 51 44 52 55 54 73 55
REMARK SMILES IDX 46 56 33 57 34 58 39 59 35 60 36 61 38 62 40 63 37 64 59 65
REMARK SMILES IDX 60 66 65 67 61 68 62 69 64 70 66 71 63 72 47 73 48 74 53 75
REMARK SMILES IDX 49 76 50 77 52 78 54 79 51 80
REMARK H PARENT 71 42 45 53
REMARK Flexibility Score: inf
ROOT
ATOM      1  C   UNL A   1      31.136  29.754  24.825  1.00  0.00     0.274 C 
ENDROOT
BRANCH   1   2
ATOM      2  O   UNL A   1      31.053  28.390  25.304  1.00  0.00    -0.462 OA
BRANCH   2   3
ATOM      3  C   UNL A   1      30.693  27.461  24.384  1.00  0.00     0.312 C 
ATOM      4  O   UNL A   1      29.808  27.686  23.574  1.00  0.00    -0.252 OA
BRANCH   3   5
ATOM      5  C   UNL A   1      31.538  26.165  24.381  1.00  0.00     0.069 C 
ATOM      6  C   UNL A   1      33.711  28.235  22.869  1.00  0.00     0.007 C 
ATOM      7  C   UNL A   1      33.769  26.725  23.096  1.00  0.00    -0.013 C 
ATOM      8  C   UNL A   1      33.280  25.894  21.909  1.00  0.00     0.003 C 
ATOM      9  C   UNL A   1      33.074  26.306  24.392  1.00  0.00     0.022 C 
ATOM     10  C   UNL A   1      31.764  25.787  21.816  1.00  0.00     0.001 C 
ATOM     11  C   UNL A   1      31.116  25.335  23.133  1.00  0.00     0.019 C 
BRANCH   5  12
ATOM     12  C   UNL A   1      31.173  25.342  25.681  1.00  0.00     0.030 C 
BRANCH  12  13
ATOM     13  C   UNL A   1      30.950  23.803  25.672  1.00  0.00     0.076 C 
BRANCH  13  14
ATOM     14  S   UNL A   1      32.123  22.573  26.385  1.00  0.00    -0.126 SA
BRANCH  14  15
ATOM     15  C   UNL A   1      33.625  22.872  25.465  1.00  0.00     0.007 A 
ATOM     16  C   UNL A   1      34.731  23.452  26.102  1.00  0.00     0.015 A 
ATOM     17  C   UNL A   1      33.721  22.567  24.107  1.00  0.00     0.015 A 
ATOM     18  C   UNL A   1      35.859  23.833  25.368  1.00  0.00     0.001 A 
ATOM     19  C   UNL A   1      34.841  22.958  23.368  1.00  0.00     0.001 A 
ATOM     20  C   UNL A   1      35.901  23.610  23.995  1.00  0.00     0.000 A 
ENDBRANCH  14  15
ENDBRANCH  13  14
ENDBRANCH  12  13
ENDBRANCH   5  12
ENDBRANCH   3   5
ENDBRANCH   2   3
ENDBRANCH   1   2
BRANCH   1  21
ATOM     21  C   UNL A   1      31.413  30.840  25.883  1.00  0.00     0.275 C 
BRANCH  21  22
ATOM     22  O   UNL A   1      32.659  30.653  26.586  1.00  0.00    -0.458 OA
BRANCH  22  23
ATOM     23  C   UNL A   1      33.157  31.768  27.173  1.00  0.00     0.338 C 
ATOM     24  O   UNL A   1      32.550  32.813  27.379  1.00  0.00    -0.246 OA
BRANCH  23  25
ATOM     25  C   UNL A   1      34.490  31.514  27.764  1.00  0.00     0.060 A 
ATOM     26  C   UNL A   1      34.733  30.197  28.155  1.00  0.00     0.016 A 
ATOM     27  C   UNL A   1      35.460  32.490  27.991  1.00  0.00     0.016 A 
ATOM     28  C   UNL A   1      35.959  29.812  28.691  1.00  0.00     0.010 A 
ATOM     29  C   UNL A   1      36.667  32.124  28.617  1.00  0.00     0.010 A 
ATOM     30  C   UNL A   1      36.923  30.782  28.964  1.00  0.00    -0.014 A 
BRANCH  30  31
ATOM     31  C   UNL A   1      38.080  30.401  29.814  1.00  0.00     0.031 A 
ATOM     32  C   UNL A   1      39.110  29.474  29.230  1.00  0.00     0.074 A 
ATOM     33  C   UNL A   1      38.277  30.932  31.035  1.00  0.00     0.049 A 
ATOM     34  N   UNL A   1      40.148  28.917  29.797  1.00  0.00    -0.248 NA
ATOM     35  C   UNL A   1      38.954  29.146  27.803  1.00  0.00     0.031 C 
ATOM     36  C   UNL A   1      37.436  31.946  31.667  1.00  0.00     0.029 A 
ATOM     37  N   UNL A   1      39.259  30.683  31.966  1.00  0.00    -0.354 N 
ATOM     38  C   UNL A   1      40.764  28.171  28.800  1.00  0.00     0.074 A 
ATOM     39  C   UNL A   1      39.981  28.336  27.596  1.00  0.00     0.031 C 
ATOM     40  C   UNL A   1      37.916  32.207  32.896  1.00  0.00     0.029 A 
ATOM     41  C   UNL A   1      39.068  31.344  33.156  1.00  0.00     0.049 A 
ATOM     42  H   UNL A   1      40.024  30.088  31.796  1.00  0.00     0.167 HD
ATOM     43  C   UNL A   1      41.883  27.412  28.881  1.00  0.00     0.037 A 
ATOM     44  C   UNL A   1      39.719  31.223  34.332  1.00  0.00     0.037 A 
ATOM     45  C   UNL A   1      42.648  27.229  30.084  1.00  0.00     0.049 A 
ATOM     46  C   UNL A   1      40.873  30.252  34.440  1.00  0.00     0.074 A 
ATOM     47  C   UNL A   1      43.755  26.424  30.288  1.00  0.00     0.029 A 
ATOM     48  N   UNL A   1      42.384  27.861  31.289  1.00  0.00    -0.354 N 
ATOM     49  N   UNL A   1      41.419  29.504  33.511  1.00  0.00    -0.248 NA
ATOM     50  C   UNL A   1      41.496  30.103  35.765  1.00  0.00     0.031 C 
ATOM     51  C   UNL A   1      44.134  26.535  31.630  1.00  0.00     0.029 A 
ATOM     52  C   UNL A   1      43.298  27.453  32.245  1.00  0.00     0.049 A 
ATOM     53  H   UNL A   1      41.653  28.503  31.443  1.00  0.00     0.167 HD
ATOM     54  C   UNL A   1      42.465  28.827  34.131  1.00  0.00     0.074 A 
ATOM     55  C   UNL A   1      42.490  29.265  35.509  1.00  0.00     0.031 C 
ATOM     56  C   UNL A   1      43.328  27.921  33.606  1.00  0.00     0.037 A 
BRANCH  43  57
ATOM     57  C   UNL A   1      42.312  26.685  27.643  1.00  0.00     0.057 A 
ATOM     58  C   UNL A   1      43.216  27.246  26.731  1.00  0.00     0.134 A 
ATOM     59  C   UNL A   1      41.835  25.397  27.373  1.00  0.00     0.134 A 
ATOM     60  F   UNL A   1      43.694  28.485  26.921  1.00  0.00    -0.206 F 
ATOM     61  C   UNL A   1      43.616  26.556  25.585  1.00  0.00     0.040 A 
ATOM     62  C   UNL A   1      42.249  24.687  26.244  1.00  0.00     0.040 A 
ATOM     63  F   UNL A   1      40.967  24.803  28.205  1.00  0.00    -0.206 F 
ATOM     64  C   UNL A   1      43.139  25.269  25.345  1.00  0.00     0.006 A 
ENDBRANCH  43  57
BRANCH  44  65
ATOM     65  C   UNL A   1      39.263  31.969  35.538  1.00  0.00     0.057 A 
ATOM     66  C   UNL A   1      38.303  31.441  36.411  1.00  0.00     0.134 A 
ATOM     67  C   UNL A   1      39.707  33.274  35.791  1.00  0.00     0.134 A 
ATOM     68  F   UNL A   1      37.810  30.210  36.208  1.00  0.00    -0.206 F 
ATOM     69  C   UNL A   1      37.776  32.193  37.465  1.00  0.00     0.040 A 
ATOM     70  C   UNL A   1      39.214  34.024  36.861  1.00  0.00     0.040 A 
ATOM     71  F   UNL A   1      40.616  33.849  34.990  1.00  0.00    -0.206 F 
ATOM     72  C   UNL A   1      38.234  33.488  37.692  1.00  0.00     0.006 A 
ENDBRANCH  44  65
BRANCH  56  73
ATOM     73  C   UNL A   1      44.410  27.389  34.503  1.00  0.00     0.057 A 
ATOM     74  C   UNL A   1      44.251  26.216  35.251  1.00  0.00     0.134 A 
ATOM     75  C   UNL A   1      45.651  28.037  34.575  1.00  0.00     0.134 A 
ATOM     76  F   UNL A   1      43.085  25.552  35.235  1.00  0.00    -0.206 F 
ATOM     77  C   UNL A   1      45.277  25.720  36.057  1.00  0.00     0.040 A 
ATOM     78  C   UNL A   1      46.695  27.533  35.353  1.00  0.00     0.040 A 
ATOM     79  F   UNL A   1      45.877  29.159  33.875  1.00  0.00    -0.206 F 
ATOM     80  C   UNL A   1      46.507  26.375  36.103  1.00  0.00     0.006 A 
ENDBRANCH  56  73
ENDBRANCH  30  31
ENDBRANCH  23  25
ENDBRANCH  22  23
ENDBRANCH  21  22
ENDBRANCH   1  21
TORSDOF 15
ENDMDL
MODEL 3
REMARK VINA RESULT:     -10.5      4.217      8.969
REMARK SMILES C[C@@H]1CCC[C@](CCSc2ccccc2)(C(=O)OCCOC(=O)c2ccc(-c3c4nc(c(-c5c(F)cccc5F)c5ccc([nH]5)c(-c5c(F)cccc5F)c5nc(c(-c6c(F)cccc6F)c6ccc3[nH]6)C=C5)C=C4)cc2)C1
REMARK SMILES IDX 19 1 18 2 16 3 17 4 6 5 1 6 2 7 3 8 78 9 4 10 5 11 7 12 8 13
REMARK SMILES IDX 9 14 10 15 11 16 15 17 12 18 14 19 13 20 20 21 21 22 22 23
REMARK SMILES IDX 23 24 24 25 25 26 77 27 26 28 76 29 27 30 28 31 29 32 70 33
REMARK SMILES IDX 30 34 75 35 69 36 71 37 31 38 74 39 68 40 67 41 32 43 58 44
REMARK SMILES IDX 41 45 57 46 42 47 45 48 56 49 72 50 43 51 44 52 55 54 73 55
REMARK SMILES IDX 46 56 33 57 34 58 39 59 35 60 36 61 38 62 40 63 37 64 59 65
REMARK SMILES IDX 60 66 65 67 61 68 62 69 64 70 66 71 63 72 47 73 48 74 53 75
REMARK SMILES IDX 49 76 50 77 52 78 54 79 51 80
REMARK H PARENT 71 42 45 53
REMARK Flexibility Score: inf
ROOT
ATOM      1  C   UNL A   1      35.106  21.640  25.297  1.00  0.00     0.274 C 
ENDROOT
BRANCH   1   2
ATOM      2  O   UNL A   1      35.393  23.060  25.303  1.00  0.00    -0.462 OA
BRANCH   2   3
ATOM      3  C   UNL A   1      34.932  23.761  24.238  1.00  0.00     0.312 C 
ATOM      4  O   UNL A   1      35.396  23.590  23.122  1.00  0.00    -0.252 OA
BRANCH   3   5
ATOM      5  C   UNL A   1      33.736  24.700  24.526  1.00  0.00     0.069 C 
ATOM      6  C   UNL A   1      32.094  22.161  23.061  1.00  0.00     0.007 C 
ATOM      7  C   UNL A   1      31.606  23.542  23.496  1.00  0.00    -0.013 C 
ATOM      8  C   UNL A   1      31.595  24.584  22.376  1.00  0.00     0.003 C 
ATOM      9  C   UNL A   1      32.348  24.058  24.728  1.00  0.00     0.022 C 
ATOM     10  C   UNL A   1      32.961  25.194  22.091  1.00  0.00     0.001 C 
ATOM     11  C   UNL A   1      33.653  25.724  23.356  1.00  0.00     0.019 C 
BRANCH   5  12
ATOM     12  C   UNL A   1      34.045  25.486  25.863  1.00  0.00     0.030 C 
BRANCH  12  13
ATOM     13  C   UNL A   1      33.910  27.030  25.986  1.00  0.00     0.076 C 
BRANCH  13  14
ATOM     14  S   UNL A   1      32.407  27.902  26.601  1.00  0.00    -0.126 SA
BRANCH  14  15
ATOM     15  C   UNL A   1      31.374  27.994  25.146  1.00  0.00     0.007 A 
ATOM     16  C   UNL A   1      30.326  27.079  24.974  1.00  0.00     0.015 A 
ATOM     17  C   UNL A   1      31.601  28.945  24.150  1.00  0.00     0.015 A 
ATOM     18  C   UNL A   1      29.604  27.038  23.776  1.00  0.00     0.001 A 
ATOM     19  C   UNL A   1      30.891  28.897  22.948  1.00  0.00     0.001 A 
ATOM     20  C   UNL A   1      29.907  27.931  22.753  1.00  0.00     0.000 A 
ENDBRANCH  14  15
ENDBRANCH  13  14
ENDBRANCH  12  13
ENDBRANCH   5  12
ENDBRANCH   3   5
ENDBRANCH   2   3
ENDBRANCH   1   2
BRANCH   1  21
ATOM     21  C   UNL A   1      36.290  20.699  25.001  1.00  0.00     0.275 C 
BRANCH  21  22
ATOM     22  O   UNL A   1      37.549  21.387  24.854  1.00  0.00    -0.458 OA
BRANCH  22  23
ATOM     23  C   UNL A   1      38.542  20.942  25.661  1.00  0.00     0.338 C 
ATOM     24  O   UNL A   1      38.941  19.787  25.750  1.00  0.00    -0.246 OA
BRANCH  23  25
ATOM     25  C   UNL A   1      39.276  22.067  26.281  1.00  0.00     0.060 A 
ATOM     26  C   UNL A   1      38.828  23.342  25.932  1.00  0.00     0.016 A 
ATOM     27  C   UNL A   1      40.378  21.932  27.124  1.00  0.00     0.016 A 
ATOM     28  C   UNL A   1      39.403  24.489  26.473  1.00  0.00     0.010 A 
ATOM     29  C   UNL A   1      41.022  23.089  27.602  1.00  0.00     0.010 A 
ATOM     30  C   UNL A   1      40.534  24.372  27.282  1.00  0.00    -0.014 A 
BRANCH  30  31
ATOM     31  C   UNL A   1      41.309  25.603  27.585  1.00  0.00     0.031 A 
ATOM     32  C   UNL A   1      40.632  26.686  28.377  1.00  0.00     0.074 A 
ATOM     33  C   UNL A   1      42.609  25.728  27.260  1.00  0.00     0.049 A 
ATOM     34  N   UNL A   1      41.054  27.886  28.681  1.00  0.00    -0.248 NA
ATOM     35  C   UNL A   1      39.300  26.363  28.915  1.00  0.00     0.031 C 
ATOM     36  C   UNL A   1      43.427  24.702  26.617  1.00  0.00     0.029 A 
ATOM     37  N   UNL A   1      43.470  26.787  27.430  1.00  0.00    -0.354 N 
ATOM     38  C   UNL A   1      40.041  28.460  29.439  1.00  0.00     0.074 A 
ATOM     39  C   UNL A   1      38.979  27.484  29.542  1.00  0.00     0.031 C 
ATOM     40  C   UNL A   1      44.662  25.194  26.413  1.00  0.00     0.029 A 
ATOM     41  C   UNL A   1      44.708  26.584  26.866  1.00  0.00     0.049 A 
ATOM     42  H   UNL A   1      43.224  27.611  27.908  1.00  0.00     0.167 HD
ATOM     43  C   UNL A   1      39.997  29.692  29.998  1.00  0.00     0.037 A 
ATOM     44  C   UNL A   1      45.735  27.442  26.693  1.00  0.00     0.037 A 
ATOM     45  C   UNL A   1      41.044  30.670  29.877  1.00  0.00     0.049 A 
ATOM     46  C   UNL A   1      45.603  28.863  27.192  1.00  0.00     0.074 A 
ATOM     47  C   UNL A   1      41.066  31.972  30.346  1.00  0.00     0.029 A 
ATOM     48  N   UNL A   1      42.255  30.452  29.240  1.00  0.00    -0.354 N 
ATOM     49  N   UNL A   1      44.621  29.421  27.859  1.00  0.00    -0.248 NA
ATOM     50  C   UNL A   1      46.722  29.775  26.907  1.00  0.00     0.031 C 
ATOM     51  C   UNL A   1      42.274  32.557  29.951  1.00  0.00     0.029 A 
ATOM     52  C   UNL A   1      43.026  31.601  29.290  1.00  0.00     0.049 A 
ATOM     53  H   UNL A   1      42.526  29.607  28.813  1.00  0.00     0.167 HD
ATOM     54  C   UNL A   1      45.019  30.732  28.100  1.00  0.00     0.074 A 
ATOM     55  C   UNL A   1      46.337  30.882  27.525  1.00  0.00     0.031 C 
ATOM     56  C   UNL A   1      44.351  31.725  28.738  1.00  0.00     0.037 A 
BRANCH  43  57
ATOM     57  C   UNL A   1      38.755  30.063  30.749  1.00  0.00     0.057 A 
ATOM     58  C   UNL A   1      38.601  29.783  32.113  1.00  0.00     0.134 A 
ATOM     59  C   UNL A   1      37.708  30.734  30.104  1.00  0.00     0.134 A 
ATOM     60  F   UNL A   1      39.558  29.124  32.784  1.00  0.00    -0.206 F 
ATOM     61  C   UNL A   1      37.443  30.142  32.804  1.00  0.00     0.040 A 
ATOM     62  C   UNL A   1      36.556  31.121  30.791  1.00  0.00     0.040 A 
ATOM     63  F   UNL A   1      37.791  31.032  28.799  1.00  0.00    -0.206 F 
ATOM     64  C   UNL A   1      36.420  30.821  32.145  1.00  0.00     0.006 A 
ENDBRANCH  43  57
BRANCH  44  65
ATOM     65  C   UNL A   1      46.956  27.030  25.946  1.00  0.00     0.057 A 
ATOM     66  C   UNL A   1      48.063  26.469  26.596  1.00  0.00     0.134 A 
ATOM     67  C   UNL A   1      47.082  27.280  24.572  1.00  0.00     0.134 A 
ATOM     68  F   UNL A   1      48.023  26.234  27.916  1.00  0.00    -0.206 F 
ATOM     69  C   UNL A   1      49.258  26.207  25.919  1.00  0.00     0.040 A 
ATOM     70  C   UNL A   1      48.258  26.992  23.877  1.00  0.00     0.040 A 
ATOM     71  F   UNL A   1      46.067  27.828  23.887  1.00  0.00    -0.206 F 
ATOM     72  C   UNL A   1      49.356  26.468  24.555  1.00  0.00     0.006 A 
ENDBRANCH  44  65
BRANCH  56  73
ATOM     73  C   UNL A   1      45.055  33.043  28.907  1.00  0.00     0.057 A 
ATOM     74  C   UNL A   1      45.902  33.302  29.991  1.00  0.00     0.134 A 
ATOM     75  C   UNL A   1      44.921  34.046  27.938  1.00  0.00     0.134 A 
ATOM     76  F   UNL A   1      46.068  32.388  30.960  1.00  0.00    -0.206 F 
ATOM     77  C   UNL A   1      46.571  34.521  30.119  1.00  0.00     0.040 A 
ATOM     78  C   UNL A   1      45.609  35.256  28.038  1.00  0.00     0.040 A 
ATOM     79  F   UNL A   1      44.134  33.860  26.867  1.00  0.00    -0.206 F 
ATOM     80  C   UNL A   1      46.432  35.499  29.136  1.00  0.00     0.006 A 
ENDBRANCH  56  73
ENDBRANCH  30  31
ENDBRANCH  23  25
ENDBRANCH  22  23
ENDBRANCH  21  22
ENDBRANCH   1  21
TORSDOF 15
ENDMDL
