MODEL 1
REMARK VINA RESULT:     -11.1      0.000      0.000
REMARK SMILES CCCCCCOC(=O)Nc1cccc(-c2ccc([C@@H](C)C(=O)OCCOC(=O)c3ccc(-c4c5nc(c(-c6c(F)cccc6F)c6ccc([nH]6)c(-c6c(F)cccc6F)c6nc(c(-c7c(F)cccc7F)c7ccc4[nH]7)C=C6)C=C5)cc3)cc2F)c1
REMARK SMILES IDX 20 1 21 2 19 3 16 4 17 5 85 6 18 7 84 8 86 9 15 10 11 11
REMARK SMILES IDX 12 12 87 13 13 14 14 15 10 16 8 17 9 18 7 20 6 21 5 22 4 23
REMARK SMILES IDX 3 24 2 25 1 26 22 27 23 28 24 29 25 30 26 31 27 32 28 33
REMARK SMILES IDX 29 34 30 35 31 36 83 37 32 38 82 39 33 40 34 41 35 42 76 43
REMARK SMILES IDX 36 44 81 45 75 46 77 47 37 48 80 49 74 50 73 51 38 53 64 54
REMARK SMILES IDX 47 55 63 56 48 57 51 58 62 59 78 60 49 61 50 62 61 64 79 65
REMARK SMILES IDX 52 66 39 67 40 68 45 69 41 70 42 71 44 72 46 73 43 74 65 75
REMARK SMILES IDX 66 76 71 77 67 78 68 79 70 80 72 81 69 82 53 83 54 84 59 85
REMARK SMILES IDX 55 86 56 87 58 88 60 89 57 90
REMARK H PARENT 10 19 77 52 51 63
REMARK Flexibility Score: inf
ROOT
ATOM      1  C   UNL A   1      41.064  21.814  26.871  1.00  0.00     0.126 C 
ATOM      2  C   UNL A   1      41.139  21.821  28.394  1.00  0.00     0.025 C 
ENDROOT
BRANCH   1   3
ATOM      3  C   UNL A   1      39.717  22.293  26.353  1.00  0.00    -0.031 A 
ATOM      4  C   UNL A   1      37.223  23.168  25.297  1.00  0.00     0.018 A 
ATOM      5  C   UNL A   1      38.012  24.016  26.086  1.00  0.00     0.012 A 
ATOM      6  C   UNL A   1      37.699  21.869  25.071  1.00  0.00     0.131 A 
ATOM      7  C   UNL A   1      39.241  23.588  26.603  1.00  0.00     0.005 A 
ATOM      8  C   UNL A   1      38.920  21.434  25.582  1.00  0.00     0.044 A 
ATOM      9  F   UNL A   1      36.996  21.010  24.314  1.00  0.00    -0.206 F 
BRANCH   4  10
ATOM     10  C   UNL A   1      35.970  23.642  24.690  1.00  0.00    -0.013 A 
ATOM     11  C   UNL A   1      33.856  24.849  24.870  1.00  0.00     0.045 A 
ATOM     12  C   UNL A   1      33.457  24.344  23.632  1.00  0.00     0.026 A 
ATOM     13  C   UNL A   1      35.110  24.505  25.387  1.00  0.00     0.035 A 
ATOM     14  C   UNL A   1      34.322  23.535  22.898  1.00  0.00     0.003 A 
ATOM     15  C   UNL A   1      35.566  23.184  23.426  1.00  0.00     0.009 A 
BRANCH  11  16
ATOM     16  N   UNL A   1      32.927  25.591  25.612  1.00  0.00    -0.291 N 
ATOM     17  C   UNL A   1      31.920  25.118  26.407  1.00  0.00     0.411 C 
ATOM     18  O   UNL A   1      30.935  25.804  26.651  1.00  0.00    -0.224 OA
ATOM     19  H   UNL A   1      33.010  26.570  25.554  1.00  0.00     0.173 HD
BRANCH  17  20
ATOM     20  O   UNL A   1      32.202  23.918  26.972  1.00  0.00    -0.449 OA
BRANCH  20  21
ATOM     21  C   UNL A   1      31.154  22.938  27.040  1.00  0.00     0.235 C 
BRANCH  21  22
ATOM     22  C   UNL A   1      30.766  22.409  25.653  1.00  0.00     0.042 C 
BRANCH  22  23
ATOM     23  C   UNL A   1      31.840  21.592  24.925  1.00  0.00     0.003 C 
BRANCH  23  24
ATOM     24  C   UNL A   1      33.063  21.220  25.775  1.00  0.00    -0.000 C 
BRANCH  24  25
ATOM     25  C   UNL A   1      34.020  20.219  25.128  1.00  0.00    -0.003 C 
ATOM     26  C   UNL A   1      33.302  19.026  24.518  1.00  0.00     0.004 C 
ENDBRANCH  24  25
ENDBRANCH  23  24
ENDBRANCH  22  23
ENDBRANCH  21  22
ENDBRANCH  20  21
ENDBRANCH  17  20
ENDBRANCH  11  16
ENDBRANCH   4  10
ENDBRANCH   1   3
BRANCH   1  27
ATOM     27  C   UNL A   1      41.555  20.477  26.323  1.00  0.00     0.313 C 
ATOM     28  O   UNL A   1      41.068  19.410  26.682  1.00  0.00    -0.252 OA
BRANCH  27  29
ATOM     29  O   UNL A   1      42.542  20.595  25.399  1.00  0.00    -0.462 OA
BRANCH  29  30
ATOM     30  C   UNL A   1      43.643  21.462  25.727  1.00  0.00     0.274 C 
BRANCH  30  31
ATOM     31  C   UNL A   1      43.992  22.378  24.551  1.00  0.00     0.275 C 
BRANCH  31  32
ATOM     32  O   UNL A   1      43.391  23.677  24.707  1.00  0.00    -0.458 OA
BRANCH  32  33
ATOM     33  C   UNL A   1      44.234  24.656  25.110  1.00  0.00     0.338 C 
ATOM     34  O   UNL A   1      45.323  24.939  24.645  1.00  0.00    -0.246 OA
BRANCH  33  35
ATOM     35  C   UNL A   1      43.590  25.455  26.161  1.00  0.00     0.060 A 
ATOM     36  C   UNL A   1      44.003  26.777  26.324  1.00  0.00     0.016 A 
ATOM     37  C   UNL A   1      42.665  24.889  27.038  1.00  0.00     0.016 A 
ATOM     38  C   UNL A   1      43.510  27.542  27.375  1.00  0.00     0.010 A 
ATOM     39  C   UNL A   1      42.151  25.667  28.082  1.00  0.00     0.010 A 
ATOM     40  C   UNL A   1      42.580  26.994  28.265  1.00  0.00    -0.014 A 
BRANCH  40  41
ATOM     41  C   UNL A   1      42.081  27.814  29.396  1.00  0.00     0.031 A 
ATOM     42  C   UNL A   1      42.803  27.804  30.713  1.00  0.00     0.074 A 
ATOM     43  C   UNL A   1      40.997  28.593  29.224  1.00  0.00     0.049 A 
ATOM     44  N   UNL A   1      42.487  28.401  31.833  1.00  0.00    -0.248 NA
ATOM     45  C   UNL A   1      44.042  27.015  30.779  1.00  0.00     0.031 C 
ATOM     46  C   UNL A   1      40.236  28.718  27.980  1.00  0.00     0.029 A 
ATOM     47  N   UNL A   1      40.348  29.428  30.098  1.00  0.00    -0.354 N 
ATOM     48  C   UNL A   1      43.473  28.046  32.744  1.00  0.00     0.074 A 
ATOM     49  C   UNL A   1      44.389  27.163  32.050  1.00  0.00     0.031 C 
ATOM     50  C   UNL A   1      39.229  29.585  28.168  1.00  0.00     0.029 A 
ATOM     51  C   UNL A   1      39.241  30.035  29.555  1.00  0.00     0.049 A 
ATOM     52  H   UNL A   1      40.645  29.577  31.024  1.00  0.00     0.167 HD
ATOM     53  C   UNL A   1      43.604  28.426  34.037  1.00  0.00     0.037 A 
ATOM     54  C   UNL A   1      38.324  30.841  30.122  1.00  0.00     0.037 A 
ATOM     55  C   UNL A   1      42.699  29.317  34.717  1.00  0.00     0.049 A 
ATOM     56  C   UNL A   1      38.463  31.202  31.575  1.00  0.00     0.074 A 
ATOM     57  C   UNL A   1      42.757  29.777  36.021  1.00  0.00     0.029 A 
ATOM     58  N   UNL A   1      41.571  29.885  34.144  1.00  0.00    -0.354 N 
ATOM     59  N   UNL A   1      39.399  30.859  32.426  1.00  0.00    -0.248 NA
ATOM     60  C   UNL A   1      37.414  32.058  32.146  1.00  0.00     0.031 C 
ATOM     61  C   UNL A   1      41.638  30.584  36.253  1.00  0.00     0.029 A 
ATOM     62  C   UNL A   1      40.910  30.671  35.077  1.00  0.00     0.049 A 
ATOM     63  H   UNL A   1      41.281  29.750  33.213  1.00  0.00     0.167 HD
ATOM     64  C   UNL A   1      39.064  31.470  33.627  1.00  0.00     0.074 A 
ATOM     65  C   UNL A   1      37.849  32.223  33.387  1.00  0.00     0.031 C 
ATOM     66  C   UNL A   1      39.701  31.412  34.822  1.00  0.00     0.037 A 
BRANCH  53  67
ATOM     67  C   UNL A   1      44.755  27.854  34.814  1.00  0.00     0.057 A 
ATOM     68  C   UNL A   1      46.008  28.479  34.856  1.00  0.00     0.134 A 
ATOM     69  C   UNL A   1      44.595  26.677  35.557  1.00  0.00     0.134 A 
ATOM     70  F   UNL A   1      46.231  29.602  34.158  1.00  0.00    -0.206 F 
ATOM     71  C   UNL A   1      47.067  27.942  35.591  1.00  0.00     0.040 A 
ATOM     72  C   UNL A   1      45.639  26.144  36.317  1.00  0.00     0.040 A 
ATOM     73  F   UNL A   1      43.420  26.031  35.567  1.00  0.00    -0.206 F 
ATOM     74  C   UNL A   1      46.882  26.775  36.331  1.00  0.00     0.006 A 
ENDBRANCH  53  67
BRANCH  54  75
ATOM     75  C   UNL A   1      37.179  31.342  29.320  1.00  0.00     0.057 A 
ATOM     76  C   UNL A   1      37.184  32.628  28.771  1.00  0.00     0.134 A 
ATOM     77  C   UNL A   1      36.047  30.549  29.095  1.00  0.00     0.134 A 
ATOM     78  F   UNL A   1      38.230  33.445  28.973  1.00  0.00    -0.206 F 
ATOM     79  C   UNL A   1      36.099  33.115  28.040  1.00  0.00     0.040 A 
ATOM     80  C   UNL A   1      34.968  31.011  28.341  1.00  0.00     0.040 A 
ATOM     81  F   UNL A   1      35.980  29.304  29.592  1.00  0.00    -0.206 F 
ATOM     82  C   UNL A   1      34.989  32.303  27.818  1.00  0.00     0.006 A 
ENDBRANCH  54  75
BRANCH  66  83
ATOM     83  C   UNL A   1      39.106  32.205  35.949  1.00  0.00     0.057 A 
ATOM     84  C   UNL A   1      38.220  31.633  36.869  1.00  0.00     0.134 A 
ATOM     85  C   UNL A   1      39.439  33.555  36.124  1.00  0.00     0.134 A 
ATOM     86  F   UNL A   1      37.850  30.349  36.749  1.00  0.00    -0.206 F 
ATOM     87  C   UNL A   1      37.661  32.382  37.906  1.00  0.00     0.040 A 
ATOM     88  C   UNL A   1      38.908  34.307  37.172  1.00  0.00     0.040 A 
ATOM     89  F   UNL A   1      40.289  34.162  35.282  1.00  0.00    -0.206 F 
ATOM     90  C   UNL A   1      38.009  33.722  38.062  1.00  0.00     0.006 A 
ENDBRANCH  66  83
ENDBRANCH  40  41
ENDBRANCH  33  35
ENDBRANCH  32  33
ENDBRANCH  31  32
ENDBRANCH  30  31
ENDBRANCH  29  30
ENDBRANCH  27  29
ENDBRANCH   1  27
TORSDOF 20
ENDMDL
MODEL 2
REMARK VINA RESULT:     -11.0      4.638      7.003
REMARK SMILES CCCCCCOC(=O)Nc1cccc(-c2ccc([C@@H](C)C(=O)OCCOC(=O)c3ccc(-c4c5nc(c(-c6c(F)cccc6F)c6ccc([nH]6)c(-c6c(F)cccc6F)c6nc(c(-c7c(F)cccc7F)c7ccc4[nH]7)C=C6)C=C5)cc3)cc2F)c1
REMARK SMILES IDX 20 1 21 2 19 3 16 4 17 5 85 6 18 7 84 8 86 9 15 10 11 11
REMARK SMILES IDX 12 12 87 13 13 14 14 15 10 16 8 17 9 18 7 20 6 21 5 22 4 23
REMARK SMILES IDX 3 24 2 25 1 26 22 27 23 28 24 29 25 30 26 31 27 32 28 33
REMARK SMILES IDX 29 34 30 35 31 36 83 37 32 38 82 39 33 40 34 41 35 42 76 43
REMARK SMILES IDX 36 44 81 45 75 46 77 47 37 48 80 49 74 50 73 51 38 53 64 54
REMARK SMILES IDX 47 55 63 56 48 57 51 58 62 59 78 60 49 61 50 62 61 64 79 65
REMARK SMILES IDX 52 66 39 67 40 68 45 69 41 70 42 71 44 72 46 73 43 74 65 75
REMARK SMILES IDX 66 76 71 77 67 78 68 79 70 80 72 81 69 82 53 83 54 84 59 85
REMARK SMILES IDX 55 86 56 87 58 88 60 89 57 90
REMARK H PARENT 10 19 77 52 51 63
REMARK Flexibility Score: inf
ROOT
ATOM      1  C   UNL A   1      41.086  22.104  27.168  1.00  0.00     0.126 C 
ATOM      2  C   UNL A   1      41.425  22.843  28.459  1.00  0.00     0.025 C 
ENDROOT
BRANCH   1   3
ATOM      3  C   UNL A   1      39.727  22.499  26.613  1.00  0.00    -0.031 A 
ATOM      4  C   UNL A   1      37.212  23.212  25.486  1.00  0.00     0.018 A 
ATOM      5  C   UNL A   1      37.970  24.142  26.209  1.00  0.00     0.012 A 
ATOM      6  C   UNL A   1      37.728  21.914  25.362  1.00  0.00     0.131 A 
ATOM      7  C   UNL A   1      39.210  23.794  26.760  1.00  0.00     0.005 A 
ATOM      8  C   UNL A   1      38.961  21.559  25.908  1.00  0.00     0.044 A 
ATOM      9  F   UNL A   1      37.056  20.978  24.672  1.00  0.00    -0.206 F 
BRANCH   4  10
ATOM     10  C   UNL A   1      35.947  23.597  24.842  1.00  0.00    -0.013 A 
ATOM     11  C   UNL A   1      33.676  24.478  24.997  1.00  0.00     0.045 A 
ATOM     12  C   UNL A   1      33.436  24.106  23.675  1.00  0.00     0.026 A 
ATOM     13  C   UNL A   1      34.929  24.232  25.570  1.00  0.00     0.035 A 
ATOM     14  C   UNL A   1      34.454  23.531  22.917  1.00  0.00     0.003 A 
ATOM     15  C   UNL A   1      35.697  23.275  23.498  1.00  0.00     0.009 A 
BRANCH  11  16
ATOM     16  N   UNL A   1      32.604  24.978  25.749  1.00  0.00    -0.291 N 
ATOM     17  C   UNL A   1      31.567  24.277  26.300  1.00  0.00     0.411 C 
ATOM     18  O   UNL A   1      30.498  24.822  26.548  1.00  0.00    -0.224 OA
ATOM     19  H   UNL A   1      32.596  25.951  25.897  1.00  0.00     0.173 HD
BRANCH  17  20
ATOM     20  O   UNL A   1      31.902  23.009  26.646  1.00  0.00    -0.449 OA
BRANCH  20  21
ATOM     21  C   UNL A   1      31.500  21.940  25.775  1.00  0.00     0.235 C 
BRANCH  21  22
ATOM     22  C   UNL A   1      32.577  20.855  25.654  1.00  0.00     0.042 C 
BRANCH  22  23
ATOM     23  C   UNL A   1      32.691  20.176  24.284  1.00  0.00     0.003 C 
BRANCH  23  24
ATOM     24  C   UNL A   1      33.590  18.932  24.246  1.00  0.00    -0.000 C 
BRANCH  24  25
ATOM     25  C   UNL A   1      33.123  17.824  23.302  1.00  0.00    -0.003 C 
ATOM     26  C   UNL A   1      34.017  16.595  23.350  1.00  0.00     0.004 C 
ENDBRANCH  24  25
ENDBRANCH  23  24
ENDBRANCH  22  23
ENDBRANCH  21  22
ENDBRANCH  20  21
ENDBRANCH  17  20
ENDBRANCH  11  16
ENDBRANCH   4  10
ENDBRANCH   1   3
BRANCH   1  27
ATOM     27  C   UNL A   1      41.331  20.607  27.336  1.00  0.00     0.313 C 
ATOM     28  O   UNL A   1      40.911  19.985  28.307  1.00  0.00    -0.252 OA
BRANCH  27  29
ATOM     29  O   UNL A   1      42.021  20.048  26.309  1.00  0.00    -0.462 OA
BRANCH  29  30
ATOM     30  C   UNL A   1      42.339  18.649  26.423  1.00  0.00     0.274 C 
BRANCH  30  31
ATOM     31  C   UNL A   1      43.561  18.291  25.573  1.00  0.00     0.275 C 
BRANCH  31  32
ATOM     32  O   UNL A   1      43.679  19.166  24.435  1.00  0.00    -0.458 OA
BRANCH  32  33
ATOM     33  C   UNL A   1      44.945  19.504  24.101  1.00  0.00     0.338 C 
ATOM     34  O   UNL A   1      45.766  18.826  23.509  1.00  0.00    -0.246 OA
BRANCH  33  35
ATOM     35  C   UNL A   1      45.187  20.909  24.455  1.00  0.00     0.060 A 
ATOM     36  C   UNL A   1      45.647  21.191  25.741  1.00  0.00     0.016 A 
ATOM     37  C   UNL A   1      44.876  21.943  23.572  1.00  0.00     0.016 A 
ATOM     38  C   UNL A   1      45.783  22.507  26.166  1.00  0.00     0.010 A 
ATOM     39  C   UNL A   1      45.035  23.269  23.992  1.00  0.00     0.010 A 
ATOM     40  C   UNL A   1      45.478  23.559  25.295  1.00  0.00    -0.014 A 
BRANCH  40  41
ATOM     41  C   UNL A   1      45.604  24.959  25.770  1.00  0.00     0.031 A 
ATOM     42  C   UNL A   1      46.928  25.664  25.701  1.00  0.00     0.074 A 
ATOM     43  C   UNL A   1      44.516  25.604  26.232  1.00  0.00     0.049 A 
ATOM     44  N   UNL A   1      47.251  26.860  26.123  1.00  0.00    -0.248 NA
ATOM     45  C   UNL A   1      48.036  24.927  25.077  1.00  0.00     0.031 C 
ATOM     46  C   UNL A   1      43.169  25.038  26.310  1.00  0.00     0.029 A 
ATOM     47  N   UNL A   1      44.373  26.877  26.723  1.00  0.00    -0.354 N 
ATOM     48  C   UNL A   1      48.600  27.012  25.837  1.00  0.00     0.074 A 
ATOM     49  C   UNL A   1      49.043  25.777  25.222  1.00  0.00     0.031 C 
ATOM     50  C   UNL A   1      42.334  25.962  26.811  1.00  0.00     0.029 A 
ATOM     51  C   UNL A   1      43.094  27.163  27.137  1.00  0.00     0.049 A 
ATOM     52  H   UNL A   1      45.114  27.522  26.774  1.00  0.00     0.167 HD
ATOM     53  C   UNL A   1      49.396  28.085  26.061  1.00  0.00     0.037 A 
ATOM     54  C   UNL A   1      42.598  28.261  27.738  1.00  0.00     0.037 A 
ATOM     55  C   UNL A   1      48.947  29.317  26.659  1.00  0.00     0.049 A 
ATOM     56  C   UNL A   1      43.516  29.416  28.027  1.00  0.00     0.074 A 
ATOM     57  C   UNL A   1      49.672  30.469  26.912  1.00  0.00     0.029 A 
ATOM     58  N   UNL A   1      47.652  29.557  27.096  1.00  0.00    -0.354 N 
ATOM     59  N   UNL A   1      44.791  29.548  27.752  1.00  0.00    -0.248 NA
ATOM     60  C   UNL A   1      42.925  30.573  28.714  1.00  0.00     0.031 C 
ATOM     61  C   UNL A   1      48.829  31.388  27.545  1.00  0.00     0.029 A 
ATOM     62  C   UNL A   1      47.564  30.830  27.640  1.00  0.00     0.049 A 
ATOM     63  H   UNL A   1      46.906  28.919  27.030  1.00  0.00     0.167 HD
ATOM     64  C   UNL A   1      45.152  30.806  28.216  1.00  0.00     0.074 A 
ATOM     65  C   UNL A   1      43.955  31.406  28.768  1.00  0.00     0.031 C 
ATOM     66  C   UNL A   1      46.365  31.411  28.188  1.00  0.00     0.037 A 
BRANCH  53  67
ATOM     67  C   UNL A   1      50.844  27.965  25.687  1.00  0.00     0.057 A 
ATOM     68  C   UNL A   1      51.836  27.673  26.633  1.00  0.00     0.134 A 
ATOM     69  C   UNL A   1      51.249  28.111  24.353  1.00  0.00     0.134 A 
ATOM     70  F   UNL A   1      51.518  27.532  27.929  1.00  0.00    -0.206 F 
ATOM     71  C   UNL A   1      53.179  27.553  26.270  1.00  0.00     0.040 A 
ATOM     72  C   UNL A   1      52.585  27.968  23.974  1.00  0.00     0.040 A 
ATOM     73  F   UNL A   1      50.351  28.384  23.395  1.00  0.00    -0.206 F 
ATOM     74  C   UNL A   1      53.556  27.694  24.936  1.00  0.00     0.006 A 
ENDBRANCH  53  67
BRANCH  54  75
ATOM     75  C   UNL A   1      41.168  28.310  28.130  1.00  0.00     0.057 A 
ATOM     76  C   UNL A   1      40.736  27.823  29.368  1.00  0.00     0.134 A 
ATOM     77  C   UNL A   1      40.195  28.835  27.270  1.00  0.00     0.134 A 
ATOM     78  F   UNL A   1      41.617  27.285  30.226  1.00  0.00    -0.206 F 
ATOM     79  C   UNL A   1      39.388  27.840  29.732  1.00  0.00     0.040 A 
ATOM     80  C   UNL A   1      38.849  28.887  27.631  1.00  0.00     0.040 A 
ATOM     81  F   UNL A   1      40.544  29.321  26.068  1.00  0.00    -0.206 F 
ATOM     82  C   UNL A   1      38.441  28.380  28.864  1.00  0.00     0.006 A 
ENDBRANCH  54  75
BRANCH  66  83
ATOM     83  C   UNL A   1      46.445  32.800  28.751  1.00  0.00     0.057 A 
ATOM     84  C   UNL A   1      46.768  33.037  30.093  1.00  0.00     0.134 A 
ATOM     85  C   UNL A   1      46.212  33.915  27.935  1.00  0.00     0.134 A 
ATOM     86  F   UNL A   1      46.988  32.012  30.930  1.00  0.00    -0.206 F 
ATOM     87  C   UNL A   1      46.827  34.332  30.611  1.00  0.00     0.040 A 
ATOM     88  C   UNL A   1      46.295  35.214  28.434  1.00  0.00     0.040 A 
ATOM     89  F   UNL A   1      45.907  33.757  26.638  1.00  0.00    -0.206 F 
ATOM     90  C   UNL A   1      46.594  35.426  29.778  1.00  0.00     0.006 A 
ENDBRANCH  66  83
ENDBRANCH  40  41
ENDBRANCH  33  35
ENDBRANCH  32  33
ENDBRANCH  31  32
ENDBRANCH  30  31
ENDBRANCH  29  30
ENDBRANCH  27  29
ENDBRANCH   1  27
TORSDOF 20
ENDMDL
MODEL 3
REMARK VINA RESULT:     -11.0      0.959      6.246
REMARK SMILES CCCCCCOC(=O)Nc1cccc(-c2ccc([C@@H](C)C(=O)OCCOC(=O)c3ccc(-c4c5nc(c(-c6c(F)cccc6F)c6ccc([nH]6)c(-c6c(F)cccc6F)c6nc(c(-c7c(F)cccc7F)c7ccc4[nH]7)C=C6)C=C5)cc3)cc2F)c1
REMARK SMILES IDX 20 1 21 2 19 3 16 4 17 5 85 6 18 7 84 8 86 9 15 10 11 11
REMARK SMILES IDX 12 12 87 13 13 14 14 15 10 16 8 17 9 18 7 20 6 21 5 22 4 23
REMARK SMILES IDX 3 24 2 25 1 26 22 27 23 28 24 29 25 30 26 31 27 32 28 33
REMARK SMILES IDX 29 34 30 35 31 36 83 37 32 38 82 39 33 40 34 41 35 42 76 43
REMARK SMILES IDX 36 44 81 45 75 46 77 47 37 48 80 49 74 50 73 51 38 53 64 54
REMARK SMILES IDX 47 55 63 56 48 57 51 58 62 59 78 60 49 61 50 62 61 64 79 65
REMARK SMILES IDX 52 66 39 67 40 68 45 69 41 70 42 71 44 72 46 73 43 74 65 75
REMARK SMILES IDX 66 76 71 77 67 78 68 79 70 80 72 81 69 82 53 83 54 84 59 85
REMARK SMILES IDX 55 86 56 87 58 88 60 89 57 90
REMARK H PARENT 10 19 77 52 51 63
REMARK Flexibility Score: inf
ROOT
ATOM      1  C   UNL A   1      41.242  22.151  26.972  1.00  0.00     0.126 C 
ATOM      2  C   UNL A   1      41.374  22.195  28.491  1.00  0.00     0.025 C 
ENDROOT
BRANCH   1   3
ATOM      3  C   UNL A   1      39.810  22.362  26.508  1.00  0.00    -0.031 A 
ATOM      4  C   UNL A   1      37.154  22.733  25.552  1.00  0.00     0.018 A 
ATOM      5  C   UNL A   1      37.831  23.760  26.224  1.00  0.00     0.012 A 
ATOM      6  C   UNL A   1      37.826  21.513  25.393  1.00  0.00     0.131 A 
ATOM      7  C   UNL A   1      39.139  23.580  26.691  1.00  0.00     0.005 A 
ATOM      8  C   UNL A   1      39.128  21.325  25.856  1.00  0.00     0.044 A 
ATOM      9  F   UNL A   1      37.237  20.492  24.748  1.00  0.00    -0.206 F 
BRANCH   4  10
ATOM     10  C   UNL A   1      35.810  22.946  24.994  1.00  0.00    -0.013 A 
ATOM     11  C   UNL A   1      33.384  22.948  25.261  1.00  0.00     0.045 A 
ATOM     12  C   UNL A   1      33.228  23.102  23.884  1.00  0.00     0.026 A 
ATOM     13  C   UNL A   1      34.670  22.881  25.809  1.00  0.00     0.035 A 
ATOM     14  C   UNL A   1      34.348  23.230  23.065  1.00  0.00     0.003 A 
ATOM     15  C   UNL A   1      35.628  23.148  23.616  1.00  0.00     0.009 A 
BRANCH  11  16
ATOM     16  N   UNL A   1      32.236  22.742  26.038  1.00  0.00    -0.291 N 
ATOM     17  C   UNL A   1      31.240  23.638  26.315  1.00  0.00     0.411 C 
ATOM     18  O   UNL A   1      30.539  23.513  27.313  1.00  0.00    -0.224 OA
ATOM     19  H   UNL A   1      32.134  21.846  26.432  1.00  0.00     0.173 HD
BRANCH  17  20
ATOM     20  O   UNL A   1      31.048  24.548  25.328  1.00  0.00    -0.449 OA
BRANCH  20  21
ATOM     21  C   UNL A   1      30.057  25.569  25.532  1.00  0.00     0.235 C 
BRANCH  21  22
ATOM     22  C   UNL A   1      30.161  26.692  24.493  1.00  0.00     0.042 C 
BRANCH  22  23
ATOM     23  C   UNL A   1      31.352  26.605  23.532  1.00  0.00     0.003 C 
BRANCH  23  24
ATOM     24  C   UNL A   1      32.567  27.459  23.921  1.00  0.00    -0.000 C 
BRANCH  24  25
ATOM     25  C   UNL A   1      33.814  26.669  24.317  1.00  0.00    -0.003 C 
ATOM     26  C   UNL A   1      33.979  26.546  25.824  1.00  0.00     0.004 C 
ENDBRANCH  24  25
ENDBRANCH  23  24
ENDBRANCH  22  23
ENDBRANCH  21  22
ENDBRANCH  20  21
ENDBRANCH  17  20
ENDBRANCH  11  16
ENDBRANCH   4  10
ENDBRANCH   1   3
BRANCH   1  27
ATOM     27  C   UNL A   1      41.952  20.922  26.413  1.00  0.00     0.313 C 
ATOM     28  O   UNL A   1      41.836  19.815  26.929  1.00  0.00    -0.252 OA
BRANCH  27  29
ATOM     29  O   UNL A   1      42.685  21.173  25.299  1.00  0.00    -0.462 OA
BRANCH  29  30
ATOM     30  C   UNL A   1      43.889  21.942  25.469  1.00  0.00     0.274 C 
BRANCH  30  31
ATOM     31  C   UNL A   1      44.038  22.988  24.361  1.00  0.00     0.275 C 
BRANCH  31  32
ATOM     32  O   UNL A   1      43.390  24.223  24.720  1.00  0.00    -0.458 OA
BRANCH  32  33
ATOM     33  C   UNL A   1      44.212  25.183  25.203  1.00  0.00     0.338 C 
ATOM     34  O   UNL A   1      45.305  25.512  24.777  1.00  0.00    -0.246 OA
BRANCH  33  35
ATOM     35  C   UNL A   1      43.540  25.900  26.295  1.00  0.00     0.060 A 
ATOM     36  C   UNL A   1      43.959  27.199  26.580  1.00  0.00     0.016 A 
ATOM     37  C   UNL A   1      42.581  25.275  27.091  1.00  0.00     0.016 A 
ATOM     38  C   UNL A   1      43.438  27.881  27.674  1.00  0.00     0.010 A 
ATOM     39  C   UNL A   1      42.039  25.969  28.179  1.00  0.00     0.010 A 
ATOM     40  C   UNL A   1      42.473  27.272  28.484  1.00  0.00    -0.014 A 
BRANCH  40  41
ATOM     41  C   UNL A   1      41.944  28.002  29.662  1.00  0.00     0.031 A 
ATOM     42  C   UNL A   1      40.690  28.819  29.545  1.00  0.00     0.074 A 
ATOM     43  C   UNL A   1      42.578  27.900  30.846  1.00  0.00     0.049 A 
ATOM     44  N   UNL A   1      40.108  29.574  30.441  1.00  0.00    -0.248 NA
ATOM     45  C   UNL A   1      39.998  28.782  28.248  1.00  0.00     0.031 C 
ATOM     46  C   UNL A   1      43.782  27.106  31.093  1.00  0.00     0.029 A 
ATOM     47  N   UNL A   1      42.297  28.469  32.062  1.00  0.00    -0.354 N 
ATOM     48  C   UNL A   1      38.997  30.120  29.813  1.00  0.00     0.074 A 
ATOM     49  C   UNL A   1      38.995  29.625  28.452  1.00  0.00     0.031 C 
ATOM     50  C   UNL A   1      44.131  27.230  32.383  1.00  0.00     0.029 A 
ATOM     51  C   UNL A   1      43.210  28.152  33.039  1.00  0.00     0.049 A 
ATOM     52  H   UNL A   1      41.517  29.048  32.220  1.00  0.00     0.167 HD
ATOM     53  C   UNL A   1      38.061  30.954  30.327  1.00  0.00     0.037 A 
ATOM     54  C   UNL A   1      43.309  28.580  34.311  1.00  0.00     0.037 A 
ATOM     55  C   UNL A   1      38.059  31.431  31.687  1.00  0.00     0.049 A 
ATOM     56  C   UNL A   1      42.289  29.550  34.840  1.00  0.00     0.074 A 
ATOM     57  C   UNL A   1      37.145  32.265  32.308  1.00  0.00     0.029 A 
ATOM     58  N   UNL A   1      39.019  31.115  32.637  1.00  0.00    -0.354 N 
ATOM     59  N   UNL A   1      41.243  30.059  34.236  1.00  0.00    -0.248 NA
ATOM     60  C   UNL A   1      42.467  30.006  36.225  1.00  0.00     0.031 C 
ATOM     61  C   UNL A   1      37.577  32.491  33.619  1.00  0.00     0.029 A 
ATOM     62  C   UNL A   1      38.733  31.758  33.832  1.00  0.00     0.049 A 
ATOM     63  H   UNL A   1      39.790  30.523  32.485  1.00  0.00     0.167 HD
ATOM     64  C   UNL A   1      40.628  30.882  35.171  1.00  0.00     0.074 A 
ATOM     65  C   UNL A   1      41.407  30.784  36.389  1.00  0.00     0.031 C 
ATOM     66  C   UNL A   1      39.520  31.651  35.034  1.00  0.00     0.037 A 
BRANCH  53  67
ATOM     67  C   UNL A   1      36.976  31.430  29.406  1.00  0.00     0.057 A 
ATOM     68  C   UNL A   1      36.988  32.712  28.842  1.00  0.00     0.134 A 
ATOM     69  C   UNL A   1      35.919  30.580  29.053  1.00  0.00     0.134 A 
ATOM     70  F   UNL A   1      37.965  33.580  29.147  1.00  0.00    -0.206 F 
ATOM     71  C   UNL A   1      35.977  33.139  27.978  1.00  0.00     0.040 A 
ATOM     72  C   UNL A   1      34.917  30.987  28.170  1.00  0.00     0.040 A 
ATOM     73  F   UNL A   1      35.849  29.337  29.552  1.00  0.00    -0.206 F 
ATOM     74  C   UNL A   1      34.941  32.273  27.634  1.00  0.00     0.006 A 
ENDBRANCH  53  67
BRANCH  54  75
ATOM     75  C   UNL A   1      44.429  28.114  35.166  1.00  0.00     0.057 A 
ATOM     76  C   UNL A   1      44.301  26.983  35.979  1.00  0.00     0.134 A 
ATOM     77  C   UNL A   1      45.652  28.796  35.199  1.00  0.00     0.134 A 
ATOM     78  F   UNL A   1      43.146  26.301  36.010  1.00  0.00    -0.206 F 
ATOM     79  C   UNL A   1      45.341  26.555  36.807  1.00  0.00     0.040 A 
ATOM     80  C   UNL A   1      46.710  28.364  35.999  1.00  0.00     0.040 A 
ATOM     81  F   UNL A   1      45.840  29.888  34.441  1.00  0.00    -0.206 F 
ATOM     82  C   UNL A   1      46.553  27.244  36.813  1.00  0.00     0.006 A 
ENDBRANCH  54  75
BRANCH  66  83
ATOM     83  C   UNL A   1      39.076  32.425  36.242  1.00  0.00     0.057 A 
ATOM     84  C   UNL A   1      39.510  33.734  36.482  1.00  0.00     0.134 A 
ATOM     85  C   UNL A   1      38.190  31.856  37.167  1.00  0.00     0.134 A 
ATOM     86  F   UNL A   1      40.369  34.331  35.642  1.00  0.00    -0.206 F 
ATOM     87  C   UNL A   1      39.102  34.441  37.615  1.00  0.00     0.040 A 
ATOM     88  C   UNL A   1      37.754  32.562  38.288  1.00  0.00     0.040 A 
ATOM     89  F   UNL A   1      37.730  30.608  36.991  1.00  0.00    -0.206 F 
ATOM     90  C   UNL A   1      38.218  33.856  38.519  1.00  0.00     0.006 A 
ENDBRANCH  66  83
ENDBRANCH  40  41
ENDBRANCH  33  35
ENDBRANCH  32  33
ENDBRANCH  31  32
ENDBRANCH  30  31
ENDBRANCH  29  30
ENDBRANCH  27  29
ENDBRANCH   1  27
TORSDOF 20
ENDMDL
