MODEL 1
REMARK VINA RESULT:     -11.6      0.000      0.000
REMARK SMILES CC[C@]1(C(=O)OCCOC(=O)c2ccc(-c3c4nc(c(-c5c(F)cccc5F)c5ccc([nH]5)c(-c5c(F)cccc5F)c5nc(c(-c6c(F)cccc6F)c6ccc3[nH]6)C=C5)C=C4)cc2)CC[N@@H+](Cc2ccc(CC(C)C)cc2)C1
REMARK SMILES IDX 7 1 6 2 4 3 5 4 3 5 66 6 80 7 67 8 68 9 2 11 1 12 69 13
REMARK SMILES IDX 70 14 71 15 79 16 72 17 78 18 73 19 74 20 75 21 76 22 77 23
REMARK SMILES IDX 8 24 9 25 10 26 11 27 12 28 13 29 65 30 14 31 64 32 15 33
REMARK SMILES IDX 16 34 17 35 58 36 18 37 63 38 57 39 59 40 19 41 62 42 56 43
REMARK SMILES IDX 55 44 20 46 46 47 29 48 45 49 30 50 33 51 44 52 60 53 31 54
REMARK SMILES IDX 32 55 43 57 61 58 34 59 21 60 22 61 27 62 23 63 24 64 26 65
REMARK SMILES IDX 28 66 25 67 47 68 48 69 53 70 49 71 50 72 52 73 54 74 51 75
REMARK SMILES IDX 35 76 36 77 41 78 37 79 38 80 40 81 42 82 39 83
REMARK H PARENT 68 10 59 45 33 56
REMARK Flexibility Score: inf
ROOT
ATOM      1  C   UNL A   1      31.781  28.273  26.825  1.00  0.00     0.274 C 
ENDROOT
BRANCH   1   2
ATOM      2  O   UNL A   1      31.101  27.151  26.222  1.00  0.00    -0.461 OA
BRANCH   2   3
ATOM      3  C   UNL A   1      31.828  26.419  25.342  1.00  0.00     0.318 C 
ATOM      4  O   UNL A   1      32.902  25.894  25.622  1.00  0.00    -0.251 OA
BRANCH   3   5
ATOM      5  C   UNL A   1      31.182  26.278  23.958  1.00  0.00     0.122 C 
ATOM      6  C   UNL A   1      31.930  26.940  22.794  1.00  0.00     0.086 C 
ATOM      7  C   UNL A   1      31.247  24.773  23.622  1.00  0.00     0.281 C 
ATOM      8  C   UNL A   1      31.781  25.954  21.646  1.00  0.00     0.263 C 
ATOM      9  N   UNL A   1      31.776  24.626  22.258  1.00  0.00    -0.330 N 
ATOM     10  H   UNL A   1      31.165  24.015  21.715  1.00  0.00     0.348 HD
BRANCH   5  11
ATOM     11  C   UNL A   1      29.733  26.833  24.067  1.00  0.00     0.021 C 
ATOM     12  C   UNL A   1      29.345  28.018  23.193  1.00  0.00     0.005 C 
ENDBRANCH   5  11
BRANCH   9  13
ATOM     13  C   UNL A   1      33.052  23.892  22.174  1.00  0.00     0.299 C 
BRANCH  13  14
ATOM     14  C   UNL A   1      33.091  22.520  22.817  1.00  0.00     0.006 A 
ATOM     15  C   UNL A   1      33.974  22.271  23.880  1.00  0.00     0.010 A 
ATOM     16  C   UNL A   1      32.211  21.502  22.427  1.00  0.00     0.010 A 
ATOM     17  C   UNL A   1      33.888  21.091  24.618  1.00  0.00     0.004 A 
ATOM     18  C   UNL A   1      32.152  20.304  23.145  1.00  0.00     0.004 A 
ATOM     19  C   UNL A   1      32.948  20.114  24.280  1.00  0.00    -0.048 A 
BRANCH  19  20
ATOM     20  C   UNL A   1      32.773  18.900  25.156  1.00  0.00     0.038 C 
BRANCH  20  21
ATOM     21  C   UNL A   1      32.770  17.561  24.403  1.00  0.00    -0.013 C 
ATOM     22  C   UNL A   1      34.076  17.327  23.640  1.00  0.00     0.008 C 
ATOM     23  C   UNL A   1      32.545  16.420  25.399  1.00  0.00     0.008 C 
ENDBRANCH  20  21
ENDBRANCH  19  20
ENDBRANCH  13  14
ENDBRANCH   9  13
ENDBRANCH   3   5
ENDBRANCH   2   3
ENDBRANCH   1   2
BRANCH   1  24
ATOM     24  C   UNL A   1      31.756  29.459  25.865  1.00  0.00     0.275 C 
BRANCH  24  25
ATOM     25  O   UNL A   1      33.053  30.076  25.914  1.00  0.00    -0.458 OA
BRANCH  25  26
ATOM     26  C   UNL A   1      33.205  31.029  26.851  1.00  0.00     0.338 C 
ATOM     27  O   UNL A   1      32.379  31.836  27.261  1.00  0.00    -0.246 OA
BRANCH  26  28
ATOM     28  C   UNL A   1      34.527  30.850  27.450  1.00  0.00     0.060 A 
ATOM     29  C   UNL A   1      34.929  29.553  27.773  1.00  0.00     0.016 A 
ATOM     30  C   UNL A   1      35.326  31.941  27.768  1.00  0.00     0.016 A 
ATOM     31  C   UNL A   1      36.094  29.342  28.501  1.00  0.00     0.010 A 
ATOM     32  C   UNL A   1      36.544  31.719  28.414  1.00  0.00     0.010 A 
ATOM     33  C   UNL A   1      36.926  30.423  28.816  1.00  0.00    -0.014 A 
BRANCH  33  34
ATOM     34  C   UNL A   1      38.174  30.232  29.600  1.00  0.00     0.031 A 
ATOM     35  C   UNL A   1      39.283  29.399  29.023  1.00  0.00     0.074 A 
ATOM     36  C   UNL A   1      38.312  30.765  30.830  1.00  0.00     0.049 A 
ATOM     37  N   UNL A   1      40.291  28.826  29.627  1.00  0.00    -0.248 NA
ATOM     38  C   UNL A   1      39.236  29.163  27.571  1.00  0.00     0.031 C 
ATOM     39  C   UNL A   1      37.358  31.660  31.485  1.00  0.00     0.029 A 
ATOM     40  N   UNL A   1      39.313  30.612  31.757  1.00  0.00    -0.354 N 
ATOM     41  C   UNL A   1      40.950  28.096  28.646  1.00  0.00     0.074 A 
ATOM     42  C   UNL A   1      40.242  28.316  27.403  1.00  0.00     0.031 C 
ATOM     43  C   UNL A   1      37.823  31.986  32.701  1.00  0.00     0.029 A 
ATOM     44  C   UNL A   1      39.054  31.245  32.949  1.00  0.00     0.049 A 
ATOM     45  H   UNL A   1      40.135  30.098  31.585  1.00  0.00     0.167 HD
ATOM     46  C   UNL A   1      42.037  27.302  28.782  1.00  0.00     0.037 A 
ATOM     47  C   UNL A   1      39.695  31.181  34.132  1.00  0.00     0.037 A 
ATOM     48  C   UNL A   1      42.769  27.145  30.011  1.00  0.00     0.049 A 
ATOM     49  C   UNL A   1      40.884  30.275  34.271  1.00  0.00     0.074 A 
ATOM     50  C   UNL A   1      43.886  26.367  30.261  1.00  0.00     0.029 A 
ATOM     51  N   UNL A   1      42.467  27.805  31.194  1.00  0.00    -0.354 N 
ATOM     52  N   UNL A   1      41.444  29.506  33.370  1.00  0.00    -0.248 NA
ATOM     53  C   UNL A   1      41.511  30.203  35.598  1.00  0.00     0.031 C 
ATOM     54  C   UNL A   1      44.247  26.540  31.601  1.00  0.00     0.029 A 
ATOM     55  C   UNL A   1      43.374  27.450  32.177  1.00  0.00     0.049 A 
ATOM     56  H   UNL A   1      41.718  28.432  31.315  1.00  0.00     0.167 HD
ATOM     57  C   UNL A   1      42.492  28.865  34.016  1.00  0.00     0.074 A 
ATOM     58  C   UNL A   1      42.499  29.347  35.382  1.00  0.00     0.031 C 
ATOM     59  C   UNL A   1      43.367  27.954  33.525  1.00  0.00     0.037 A 
BRANCH  46  60
ATOM     60  C   UNL A   1      42.470  26.508  27.587  1.00  0.00     0.057 A 
ATOM     61  C   UNL A   1      43.370  27.011  26.640  1.00  0.00     0.134 A 
ATOM     62  C   UNL A   1      41.994  25.204  27.398  1.00  0.00     0.134 A 
ATOM     63  F   UNL A   1      43.849  28.259  26.754  1.00  0.00    -0.206 F 
ATOM     64  C   UNL A   1      43.765  26.252  25.537  1.00  0.00     0.040 A 
ATOM     65  C   UNL A   1      42.399  24.427  26.312  1.00  0.00     0.040 A 
ATOM     66  F   UNL A   1      41.130  24.662  28.271  1.00  0.00    -0.206 F 
ATOM     67  C   UNL A   1      43.283  24.953  25.374  1.00  0.00     0.006 A 
ENDBRANCH  46  60
BRANCH  47  68
ATOM     68  C   UNL A   1      39.180  31.952  35.290  1.00  0.00     0.057 A 
ATOM     69  C   UNL A   1      39.513  33.299  35.466  1.00  0.00     0.134 A 
ATOM     70  C   UNL A   1      38.327  31.368  36.236  1.00  0.00     0.134 A 
ATOM     71  F   UNL A   1      40.345  33.906  34.607  1.00  0.00    -0.206 F 
ATOM     72  C   UNL A   1      39.017  34.039  36.541  1.00  0.00     0.040 A 
ATOM     73  C   UNL A   1      37.805  32.103  37.302  1.00  0.00     0.040 A 
ATOM     74  F   UNL A   1      37.970  30.081  36.122  1.00  0.00    -0.206 F 
ATOM     75  C   UNL A   1      38.152  33.442  37.457  1.00  0.00     0.006 A 
ENDBRANCH  47  68
BRANCH  59  76
ATOM     76  C   UNL A   1      44.423  27.451  34.458  1.00  0.00     0.057 A 
ATOM     77  C   UNL A   1      45.633  28.132  34.631  1.00  0.00     0.134 A 
ATOM     78  C   UNL A   1      44.202  26.305  35.230  1.00  0.00     0.134 A 
ATOM     79  F   UNL A   1      45.905  29.232  33.910  1.00  0.00    -0.206 F 
ATOM     80  C   UNL A   1      46.595  27.683  35.536  1.00  0.00     0.040 A 
ATOM     81  C   UNL A   1      45.149  25.854  36.148  1.00  0.00     0.040 A 
ATOM     82  F   UNL A   1      43.060  25.613  35.111  1.00  0.00    -0.206 F 
ATOM     83  C   UNL A   1      46.351  26.544  36.303  1.00  0.00     0.006 A 
ENDBRANCH  59  76
ENDBRANCH  33  34
ENDBRANCH  26  28
ENDBRANCH  25  26
ENDBRANCH  24  25
ENDBRANCH   1  24
TORSDOF 16
ENDMDL
MODEL 2
REMARK VINA RESULT:     -11.6      0.452      1.458
REMARK SMILES CC[C@]1(C(=O)OCCOC(=O)c2ccc(-c3c4nc(c(-c5c(F)cccc5F)c5ccc([nH]5)c(-c5c(F)cccc5F)c5nc(c(-c6c(F)cccc6F)c6ccc3[nH]6)C=C5)C=C4)cc2)CC[N@@H+](Cc2ccc(CC(C)C)cc2)C1
REMARK SMILES IDX 7 1 6 2 4 3 5 4 3 5 66 6 80 7 67 8 68 9 2 11 1 12 69 13
REMARK SMILES IDX 70 14 71 15 79 16 72 17 78 18 73 19 74 20 75 21 76 22 77 23
REMARK SMILES IDX 8 24 9 25 10 26 11 27 12 28 13 29 65 30 14 31 64 32 15 33
REMARK SMILES IDX 16 34 17 35 58 36 18 37 63 38 57 39 59 40 19 41 62 42 56 43
REMARK SMILES IDX 55 44 20 46 46 47 29 48 45 49 30 50 33 51 44 52 60 53 31 54
REMARK SMILES IDX 32 55 43 57 61 58 34 59 21 60 22 61 27 62 23 63 24 64 26 65
REMARK SMILES IDX 28 66 25 67 47 68 48 69 53 70 49 71 50 72 52 73 54 74 51 75
REMARK SMILES IDX 35 76 36 77 41 78 37 79 38 80 40 81 42 82 39 83
REMARK H PARENT 68 10 59 45 33 56
REMARK Flexibility Score: inf
ROOT
ATOM      1  C   UNL A   1      31.685  28.284  26.788  1.00  0.00     0.274 C 
ENDROOT
BRANCH   1   2
ATOM      2  O   UNL A   1      31.886  27.177  25.883  1.00  0.00    -0.461 OA
BRANCH   2   3
ATOM      3  C   UNL A   1      30.793  26.416  25.623  1.00  0.00     0.318 C 
ATOM      4  O   UNL A   1      30.088  25.923  26.498  1.00  0.00    -0.251 OA
BRANCH   3   5
ATOM      5  C   UNL A   1      30.492  26.241  24.130  1.00  0.00     0.122 C 
ATOM      6  C   UNL A   1      31.445  26.955  23.162  1.00  0.00     0.086 C 
ATOM      7  C   UNL A   1      30.728  24.745  23.833  1.00  0.00     0.281 C 
ATOM      8  C   UNL A   1      31.626  25.966  22.021  1.00  0.00     0.263 C 
ATOM      9  N   UNL A   1      31.564  24.638  22.628  1.00  0.00    -0.330 N 
ATOM     10  H   UNL A   1      31.134  23.991  21.966  1.00  0.00     0.348 HD
BRANCH   5  11
ATOM     11  C   UNL A   1      29.025  26.701  23.897  1.00  0.00     0.021 C 
ATOM     12  C   UNL A   1      28.787  28.014  23.163  1.00  0.00     0.005 C 
ENDBRANCH   5  11
BRANCH   9  13
ATOM     13  C   UNL A   1      32.869  23.987  22.848  1.00  0.00     0.299 C 
BRANCH  13  14
ATOM     14  C   UNL A   1      32.862  22.477  22.981  1.00  0.00     0.006 A 
ATOM     15  C   UNL A   1      33.523  21.868  24.060  1.00  0.00     0.010 A 
ATOM     16  C   UNL A   1      32.148  21.665  22.091  1.00  0.00     0.010 A 
ATOM     17  C   UNL A   1      33.363  20.508  24.319  1.00  0.00     0.004 A 
ATOM     18  C   UNL A   1      32.020  20.294  22.331  1.00  0.00     0.004 A 
ATOM     19  C   UNL A   1      32.576  19.716  23.477  1.00  0.00    -0.048 A 
BRANCH  19  20
ATOM     20  C   UNL A   1      32.303  18.277  23.832  1.00  0.00     0.038 C 
BRANCH  20  21
ATOM     21  C   UNL A   1      33.492  17.535  24.461  1.00  0.00    -0.013 C 
ATOM     22  C   UNL A   1      33.089  16.768  25.723  1.00  0.00     0.008 C 
ATOM     23  C   UNL A   1      34.083  16.564  23.435  1.00  0.00     0.008 C 
ENDBRANCH  20  21
ENDBRANCH  19  20
ENDBRANCH  13  14
ENDBRANCH   9  13
ENDBRANCH   3   5
ENDBRANCH   2   3
ENDBRANCH   1   2
BRANCH   1  24
ATOM     24  C   UNL A   1      31.715  29.593  26.005  1.00  0.00     0.275 C 
BRANCH  24  25
ATOM     25  O   UNL A   1      33.058  30.099  26.069  1.00  0.00    -0.458 OA
BRANCH  25  26
ATOM     26  C   UNL A   1      33.256  31.107  26.939  1.00  0.00     0.338 C 
ATOM     27  O   UNL A   1      32.461  31.960  27.314  1.00  0.00    -0.246 OA
BRANCH  26  28
ATOM     28  C   UNL A   1      34.587  30.930  27.520  1.00  0.00     0.060 A 
ATOM     29  C   UNL A   1      34.986  29.637  27.861  1.00  0.00     0.016 A 
ATOM     30  C   UNL A   1      35.398  32.022  27.804  1.00  0.00     0.016 A 
ATOM     31  C   UNL A   1      36.162  29.433  28.574  1.00  0.00     0.010 A 
ATOM     32  C   UNL A   1      36.625  31.805  28.434  1.00  0.00     0.010 A 
ATOM     33  C   UNL A   1      37.005  30.514  28.855  1.00  0.00    -0.014 A 
BRANCH  33  34
ATOM     34  C   UNL A   1      38.265  30.330  29.622  1.00  0.00     0.031 A 
ATOM     35  C   UNL A   1      39.361  29.483  29.041  1.00  0.00     0.074 A 
ATOM     36  C   UNL A   1      38.425  30.884  30.840  1.00  0.00     0.049 A 
ATOM     37  N   UNL A   1      40.375  28.915  29.638  1.00  0.00    -0.248 NA
ATOM     38  C   UNL A   1      39.289  29.223  27.595  1.00  0.00     0.031 C 
ATOM     39  C   UNL A   1      37.486  31.794  31.495  1.00  0.00     0.029 A 
ATOM     40  N   UNL A   1      39.440  30.741  31.754  1.00  0.00    -0.354 N 
ATOM     41  C   UNL A   1      41.016  28.166  28.660  1.00  0.00     0.074 A 
ATOM     42  C   UNL A   1      40.288  28.368  27.425  1.00  0.00     0.031 C 
ATOM     43  C   UNL A   1      37.972  32.139  32.697  1.00  0.00     0.029 A 
ATOM     44  C   UNL A   1      39.203  31.395  32.938  1.00  0.00     0.049 A 
ATOM     45  H   UNL A   1      40.257  30.221  31.577  1.00  0.00     0.167 HD
ATOM     46  C   UNL A   1      42.101  27.369  28.792  1.00  0.00     0.037 A 
ATOM     47  C   UNL A   1      39.863  31.349  34.112  1.00  0.00     0.037 A 
ATOM     48  C   UNL A   1      42.852  27.229  30.012  1.00  0.00     0.049 A 
ATOM     49  C   UNL A   1      41.049  30.439  34.247  1.00  0.00     0.074 A 
ATOM     50  C   UNL A   1      43.969  26.450  30.257  1.00  0.00     0.029 A 
ATOM     51  N   UNL A   1      42.571  27.910  31.188  1.00  0.00    -0.354 N 
ATOM     52  N   UNL A   1      41.592  29.652  33.351  1.00  0.00    -0.248 NA
ATOM     53  C   UNL A   1      41.697  30.387  35.565  1.00  0.00     0.031 C 
ATOM     54  C   UNL A   1      44.352  26.644  31.588  1.00  0.00     0.029 A 
ATOM     55  C   UNL A   1      43.493  27.567  32.162  1.00  0.00     0.049 A 
ATOM     56  H   UNL A   1      41.827  28.542  31.310  1.00  0.00     0.167 HD
ATOM     57  C   UNL A   1      42.647  29.017  33.990  1.00  0.00     0.074 A 
ATOM     58  C   UNL A   1      42.678  29.522  35.348  1.00  0.00     0.031 C 
ATOM     59  C   UNL A   1      43.509  28.094  33.501  1.00  0.00     0.037 A 
BRANCH  46  60
ATOM     60  C   UNL A   1      42.511  26.552  27.603  1.00  0.00     0.057 A 
ATOM     61  C   UNL A   1      43.434  27.016  26.659  1.00  0.00     0.134 A 
ATOM     62  C   UNL A   1      41.988  25.266  27.419  1.00  0.00     0.134 A 
ATOM     63  F   UNL A   1      43.958  28.246  26.769  1.00  0.00    -0.206 F 
ATOM     64  C   UNL A   1      43.807  26.237  25.563  1.00  0.00     0.040 A 
ATOM     65  C   UNL A   1      42.370  24.469  26.339  1.00  0.00     0.040 A 
ATOM     66  F   UNL A   1      41.100  24.761  28.290  1.00  0.00    -0.206 F 
ATOM     67  C   UNL A   1      43.278  24.956  25.403  1.00  0.00     0.006 A 
ENDBRANCH  46  60
BRANCH  47  68
ATOM     68  C   UNL A   1      39.370  32.142  35.265  1.00  0.00     0.057 A 
ATOM     69  C   UNL A   1      38.492  31.586  36.200  1.00  0.00     0.134 A 
ATOM     70  C   UNL A   1      39.783  33.465  35.472  1.00  0.00     0.134 A 
ATOM     71  F   UNL A   1      38.042  30.333  36.042  1.00  0.00    -0.206 F 
ATOM     72  C   UNL A   1      38.039  32.317  37.300  1.00  0.00     0.040 A 
ATOM     73  C   UNL A   1      39.358  34.199  36.580  1.00  0.00     0.040 A 
ATOM     74  F   UNL A   1      40.626  34.053  34.611  1.00  0.00    -0.206 F 
ATOM     75  C   UNL A   1      38.480  33.625  37.497  1.00  0.00     0.006 A 
ENDBRANCH  47  68
BRANCH  59  76
ATOM     76  C   UNL A   1      44.578  27.602  34.426  1.00  0.00     0.057 A 
ATOM     77  C   UNL A   1      44.403  26.451  35.202  1.00  0.00     0.134 A 
ATOM     78  C   UNL A   1      45.812  28.258  34.498  1.00  0.00     0.134 A 
ATOM     79  F   UNL A   1      43.237  25.787  35.183  1.00  0.00    -0.206 F 
ATOM     80  C   UNL A   1      45.420  25.973  36.029  1.00  0.00     0.040 A 
ATOM     81  C   UNL A   1      46.841  27.781  35.309  1.00  0.00     0.040 A 
ATOM     82  F   UNL A   1      46.040  29.363  33.774  1.00  0.00    -0.206 F 
ATOM     83  C   UNL A   1      46.646  26.635  36.079  1.00  0.00     0.006 A 
ENDBRANCH  59  76
ENDBRANCH  33  34
ENDBRANCH  26  28
ENDBRANCH  25  26
ENDBRANCH  24  25
ENDBRANCH   1  24
TORSDOF 16
ENDMDL
MODEL 3
REMARK VINA RESULT:     -11.5      3.811      9.128
REMARK SMILES CC[C@]1(C(=O)OCCOC(=O)c2ccc(-c3c4nc(c(-c5c(F)cccc5F)c5ccc([nH]5)c(-c5c(F)cccc5F)c5nc(c(-c6c(F)cccc6F)c6ccc3[nH]6)C=C5)C=C4)cc2)CC[N@@H+](Cc2ccc(CC(C)C)cc2)C1
REMARK SMILES IDX 7 1 6 2 4 3 5 4 3 5 66 6 80 7 67 8 68 9 2 11 1 12 69 13
REMARK SMILES IDX 70 14 71 15 79 16 72 17 78 18 73 19 74 20 75 21 76 22 77 23
REMARK SMILES IDX 8 24 9 25 10 26 11 27 12 28 13 29 65 30 14 31 64 32 15 33
REMARK SMILES IDX 16 34 17 35 58 36 18 37 63 38 57 39 59 40 19 41 62 42 56 43
REMARK SMILES IDX 55 44 20 46 46 47 29 48 45 49 30 50 33 51 44 52 60 53 31 54
REMARK SMILES IDX 32 55 43 57 61 58 34 59 21 60 22 61 27 62 23 63 24 64 26 65
REMARK SMILES IDX 28 66 25 67 47 68 48 69 53 70 49 71 50 72 52 73 54 74 51 75
REMARK SMILES IDX 35 76 36 77 41 78 37 79 38 80 40 81 42 82 39 83
REMARK H PARENT 68 10 59 45 33 56
REMARK Flexibility Score: inf
ROOT
ATOM      1  C   UNL A   1      36.234  22.892  23.549  1.00  0.00     0.274 C 
ENDROOT
BRANCH   1   2
ATOM      2  O   UNL A   1      34.831  23.079  23.264  1.00  0.00    -0.461 OA
BRANCH   2   3
ATOM      3  C   UNL A   1      34.070  23.529  24.293  1.00  0.00     0.318 C 
ATOM      4  O   UNL A   1      34.383  24.483  25.000  1.00  0.00    -0.251 OA
BRANCH   3   5
ATOM      5  C   UNL A   1      32.761  22.757  24.491  1.00  0.00     0.122 C 
ATOM      6  C   UNL A   1      32.407  22.391  25.938  1.00  0.00     0.086 C 
ATOM      7  C   UNL A   1      31.638  23.732  24.079  1.00  0.00     0.281 C 
ATOM      8  C   UNL A   1      30.902  22.601  26.018  1.00  0.00     0.263 C 
ATOM      9  N   UNL A   1      30.606  23.721  25.127  1.00  0.00    -0.330 N 
ATOM     10  H   UNL A   1      29.688  23.575  24.707  1.00  0.00     0.348 HD
BRANCH   5  11
ATOM     11  C   UNL A   1      32.838  21.481  23.604  1.00  0.00     0.021 C 
ATOM     12  C   UNL A   1      32.267  20.182  24.156  1.00  0.00     0.005 C 
ENDBRANCH   5  11
BRANCH   9  13
ATOM     13  C   UNL A   1      30.405  25.019  25.797  1.00  0.00     0.299 C 
BRANCH  13  14
ATOM     14  C   UNL A   1      30.321  26.241  24.903  1.00  0.00     0.006 A 
ATOM     15  C   UNL A   1      29.227  26.400  24.040  1.00  0.00     0.010 A 
ATOM     16  C   UNL A   1      31.278  27.261  24.965  1.00  0.00     0.010 A 
ATOM     17  C   UNL A   1      29.022  27.601  23.361  1.00  0.00     0.004 A 
ATOM     18  C   UNL A   1      31.091  28.451  24.254  1.00  0.00     0.004 A 
ATOM     19  C   UNL A   1      29.934  28.651  23.494  1.00  0.00    -0.048 A 
BRANCH  19  20
ATOM     20  C   UNL A   1      29.643  29.988  22.862  1.00  0.00     0.038 C 
BRANCH  20  21
ATOM     21  C   UNL A   1      28.156  30.256  22.582  1.00  0.00    -0.013 C 
ATOM     22  C   UNL A   1      27.558  31.266  23.564  1.00  0.00     0.008 C 
ATOM     23  C   UNL A   1      27.996  30.772  21.150  1.00  0.00     0.008 C 
ENDBRANCH  20  21
ENDBRANCH  19  20
ENDBRANCH  13  14
ENDBRANCH   9  13
ENDBRANCH   3   5
ENDBRANCH   2   3
ENDBRANCH   1   2
BRANCH   1  24
ATOM     24  C   UNL A   1      36.439  21.543  24.231  1.00  0.00     0.275 C 
BRANCH  24  25
ATOM     25  O   UNL A   1      36.964  21.802  25.543  1.00  0.00    -0.458 OA
BRANCH  25  26
ATOM     26  C   UNL A   1      38.223  21.379  25.757  1.00  0.00     0.338 C 
ATOM     27  O   UNL A   1      38.750  20.334  25.395  1.00  0.00    -0.246 OA
BRANCH  26  28
ATOM     28  C   UNL A   1      38.954  22.479  26.386  1.00  0.00     0.060 A 
ATOM     29  C   UNL A   1      38.508  23.780  26.153  1.00  0.00     0.016 A 
ATOM     30  C   UNL A   1      40.108  22.245  27.123  1.00  0.00     0.016 A 
ATOM     31  C   UNL A   1      39.264  24.866  26.578  1.00  0.00     0.010 A 
ATOM     32  C   UNL A   1      40.815  23.336  27.633  1.00  0.00     0.010 A 
ATOM     33  C   UNL A   1      40.420  24.657  27.339  1.00  0.00    -0.014 A 
BRANCH  33  34
ATOM     34  C   UNL A   1      41.254  25.797  27.801  1.00  0.00     0.031 A 
ATOM     35  C   UNL A   1      40.634  26.857  28.666  1.00  0.00     0.074 A 
ATOM     36  C   UNL A   1      42.545  25.909  27.431  1.00  0.00     0.049 A 
ATOM     37  N   UNL A   1      41.043  28.074  28.908  1.00  0.00    -0.248 NA
ATOM     38  C   UNL A   1      39.370  26.502  29.331  1.00  0.00     0.031 C 
ATOM     39  C   UNL A   1      43.304  24.921  26.666  1.00  0.00     0.029 A 
ATOM     40  N   UNL A   1      43.444  26.926  27.642  1.00  0.00    -0.354 N 
ATOM     41  C   UNL A   1      40.049  28.658  29.683  1.00  0.00     0.074 A 
ATOM     42  C   UNL A   1      39.028  27.654  29.890  1.00  0.00     0.031 C 
ATOM     43  C   UNL A   1      44.554  25.371  26.480  1.00  0.00     0.029 A 
ATOM     44  C   UNL A   1      44.654  26.721  27.024  1.00  0.00     0.049 A 
ATOM     45  H   UNL A   1      43.240  27.725  28.181  1.00  0.00     0.167 HD
ATOM     46  C   UNL A   1      39.993  29.923  30.159  1.00  0.00     0.037 A 
ATOM     47  C   UNL A   1      45.701  27.550  26.853  1.00  0.00     0.037 A 
ATOM     48  C   UNL A   1      41.047  30.890  29.999  1.00  0.00     0.049 A 
ATOM     49  C   UNL A   1      45.611  28.958  27.365  1.00  0.00     0.074 A 
ATOM     50  C   UNL A   1      41.096  32.200  30.442  1.00  0.00     0.029 A 
ATOM     51  N   UNL A   1      42.254  30.636  29.363  1.00  0.00    -0.354 N 
ATOM     52  N   UNL A   1      44.628  29.540  28.008  1.00  0.00    -0.248 NA
ATOM     53  C   UNL A   1      46.761  29.834  27.103  1.00  0.00     0.031 C 
ATOM     54  C   UNL A   1      42.324  32.746  30.056  1.00  0.00     0.029 A 
ATOM     55  C   UNL A   1      43.052  31.766  29.400  1.00  0.00     0.049 A 
ATOM     56  H   UNL A   1      42.504  29.780  28.947  1.00  0.00     0.167 HD
ATOM     57  C   UNL A   1      45.041  30.846  28.234  1.00  0.00     0.074 A 
ATOM     58  C   UNL A   1      46.371  30.966  27.672  1.00  0.00     0.031 C 
ATOM     59  C   UNL A   1      44.377  31.856  28.845  1.00  0.00     0.037 A 
BRANCH  46  60
ATOM     60  C   UNL A   1      38.735  30.347  30.855  1.00  0.00     0.057 A 
ATOM     61  C   UNL A   1      37.664  30.935  30.172  1.00  0.00     0.134 A 
ATOM     62  C   UNL A   1      38.587  30.137  32.233  1.00  0.00     0.134 A 
ATOM     63  F   UNL A   1      37.750  31.180  28.856  1.00  0.00    -0.206 F 
ATOM     64  C   UNL A   1      36.498  31.317  30.838  1.00  0.00     0.040 A 
ATOM     65  C   UNL A   1      37.418  30.495  32.905  1.00  0.00     0.040 A 
ATOM     66  F   UNL A   1      39.576  29.576  32.945  1.00  0.00    -0.206 F 
ATOM     67  C   UNL A   1      36.371  31.092  32.209  1.00  0.00     0.006 A 
ENDBRANCH  46  60
BRANCH  47  68
ATOM     68  C   UNL A   1      46.896  27.082  26.107  1.00  0.00     0.057 A 
ATOM     69  C   UNL A   1      47.003  27.271  24.726  1.00  0.00     0.134 A 
ATOM     70  C   UNL A   1      47.966  26.456  26.759  1.00  0.00     0.134 A 
ATOM     71  F   UNL A   1      46.000  27.841  24.042  1.00  0.00    -0.206 F 
ATOM     72  C   UNL A   1      48.132  26.853  24.018  1.00  0.00     0.040 A 
ATOM     73  C   UNL A   1      49.111  26.056  26.068  1.00  0.00     0.040 A 
ATOM     74  F   UNL A   1      47.924  26.248  28.083  1.00  0.00    -0.206 F 
ATOM     75  C   UNL A   1      49.194  26.252  24.692  1.00  0.00     0.006 A 
ENDBRANCH  47  68
BRANCH  59  76
ATOM     76  C   UNL A   1      45.094  33.164  28.970  1.00  0.00     0.057 A 
ATOM     77  C   UNL A   1      44.943  34.177  28.016  1.00  0.00     0.134 A 
ATOM     78  C   UNL A   1      45.899  33.429  30.083  1.00  0.00     0.134 A 
ATOM     79  F   UNL A   1      44.192  33.975  26.922  1.00  0.00    -0.206 F 
ATOM     80  C   UNL A   1      45.579  35.410  28.162  1.00  0.00     0.040 A 
ATOM     81  C   UNL A   1      46.527  34.663  30.248  1.00  0.00     0.040 A 
ATOM     82  F   UNL A   1      46.077  32.499  31.032  1.00  0.00    -0.206 F 
ATOM     83  C   UNL A   1      46.368  35.658  29.284  1.00  0.00     0.006 A 
ENDBRANCH  59  76
ENDBRANCH  33  34
ENDBRANCH  26  28
ENDBRANCH  25  26
ENDBRANCH  24  25
ENDBRANCH   1  24
TORSDOF 16
ENDMDL
