MODEL 1
REMARK VINA RESULT:     -12.7      0.000      0.000
REMARK SMILES O=C(OCCOC(=O)c1[nH]ncc1C[N@H+]1CCC[C@@H](c2nc3ccccc3o2)C1)c1ccc(-c2c3nc(c(-c4c(F)cccc4F)c4ccc([nH]4)c(-c4c(F)cccc4F)c4nc(c(-c5c(F)cccc5F)c5ccc2[nH]5)C=C4)C=C3)cc1
REMARK SMILES IDX 5 1 4 2 3 3 2 4 1 5 30 6 31 7 83 8 32 9 82 10 33 11 34 12
REMARK SMILES IDX 35 13 76 14 36 15 81 16 75 17 77 18 37 19 80 20 74 21 73 22
REMARK SMILES IDX 38 24 64 25 47 26 63 27 48 28 51 29 62 30 78 31 49 32 50 33
REMARK SMILES IDX 61 35 79 36 52 37 39 38 40 39 45 40 41 41 42 42 44 43 46 44
REMARK SMILES IDX 43 45 65 46 66 47 71 48 67 49 68 50 70 51 72 52 69 53 53 54
REMARK SMILES IDX 54 55 59 56 55 57 56 58 58 59 60 60 57 61 6 62 7 63 8 64
REMARK SMILES IDX 9 65 10 66 13 67 11 68 12 70 14 71 15 72 16 73 29 74 17 76
REMARK SMILES IDX 19 77 18 78 20 79 21 80 28 81 22 82 27 83 23 84 26 85 24 86
REMARK SMILES IDX 25 87
REMARK H PARENT 77 23 51 34 10 69 15 75
REMARK Flexibility Score: inf
ROOT
ATOM      1  C   UNL A   1      38.031  21.009  25.327  1.00  0.00     0.275 C 
ENDROOT
BRANCH   1   2
ATOM      2  C   UNL A   1      38.462  19.609  24.880  1.00  0.00     0.275 C 
BRANCH   2   3
ATOM      3  O   UNL A   1      39.521  19.051  25.681  1.00  0.00    -0.458 OA
BRANCH   3   4
ATOM      4  C   UNL A   1      40.786  19.449  25.937  1.00  0.00     0.338 C 
ATOM      5  O   UNL A   1      41.688  18.649  25.684  1.00  0.00    -0.246 OA
BRANCH   4   6
ATOM      6  C   UNL A   1      41.191  20.751  26.573  1.00  0.00     0.060 A 
ATOM      7  C   UNL A   1      41.225  21.045  27.937  1.00  0.00     0.016 A 
ATOM      8  C   UNL A   1      41.584  21.776  25.687  1.00  0.00     0.016 A 
ATOM      9  C   UNL A   1      41.634  22.305  28.398  1.00  0.00     0.010 A 
ATOM     10  C   UNL A   1      42.026  23.025  26.141  1.00  0.00     0.010 A 
ATOM     11  C   UNL A   1      42.041  23.303  27.507  1.00  0.00    -0.014 A 
BRANCH  11  12
ATOM     12  C   UNL A   1      42.418  24.643  28.018  1.00  0.00     0.031 A 
ATOM     13  C   UNL A   1      43.863  25.004  28.135  1.00  0.00     0.074 A 
ATOM     14  C   UNL A   1      41.473  25.561  28.283  1.00  0.00     0.049 A 
ATOM     15  N   UNL A   1      44.398  26.152  28.454  1.00  0.00    -0.248 NA
ATOM     16  C   UNL A   1      44.833  23.944  27.825  1.00  0.00     0.031 C 
ATOM     17  C   UNL A   1      40.046  25.333  28.123  1.00  0.00     0.029 A 
ATOM     18  N   UNL A   1      41.552  26.865  28.695  1.00  0.00    -0.354 N 
ATOM     19  C   UNL A   1      45.767  25.966  28.348  1.00  0.00     0.074 A 
ATOM     20  C   UNL A   1      45.983  24.580  27.991  1.00  0.00     0.031 C 
ATOM     21  C   UNL A   1      39.376  26.469  28.368  1.00  0.00     0.029 A 
ATOM     22  C   UNL A   1      40.329  27.493  28.772  1.00  0.00     0.049 A 
ATOM     23  H   UNL A   1      42.401  27.311  28.916  1.00  0.00     0.167 HD
ATOM     24  C   UNL A   1      46.753  26.878  28.504  1.00  0.00     0.037 A 
ATOM     25  C   UNL A   1      40.019  28.753  29.132  1.00  0.00     0.037 A 
ATOM     26  C   UNL A   1      46.535  28.244  28.896  1.00  0.00     0.049 A 
ATOM     27  C   UNL A   1      41.139  29.667  29.538  1.00  0.00     0.074 A 
ATOM     28  C   UNL A   1      47.465  29.246  29.103  1.00  0.00     0.029 A 
ATOM     29  N   UNL A   1      45.288  28.792  29.162  1.00  0.00    -0.354 N 
ATOM     30  N   UNL A   1      42.431  29.483  29.427  1.00  0.00    -0.248 NA
ATOM     31  C   UNL A   1      40.758  30.949  30.144  1.00  0.00     0.031 C 
ATOM     32  C   UNL A   1      46.781  30.393  29.530  1.00  0.00     0.029 A 
ATOM     33  C   UNL A   1      45.424  30.111  29.562  1.00  0.00     0.049 A 
ATOM     34  H   UNL A   1      44.432  28.314  29.077  1.00  0.00     0.167 HD
ATOM     35  C   UNL A   1      43.019  30.648  29.893  1.00  0.00     0.074 A 
ATOM     36  C   UNL A   1      41.941  31.523  30.311  1.00  0.00     0.031 C 
ATOM     37  C   UNL A   1      44.334  30.970  29.951  1.00  0.00     0.037 A 
BRANCH  24  38
ATOM     38  C   UNL A   1      48.145  26.388  28.261  1.00  0.00     0.057 A 
ATOM     39  C   UNL A   1      48.727  26.451  26.988  1.00  0.00     0.134 A 
ATOM     40  C   UNL A   1      48.881  25.781  29.284  1.00  0.00     0.134 A 
ATOM     41  F   UNL A   1      48.057  26.995  25.960  1.00  0.00    -0.206 F 
ATOM     42  C   UNL A   1      49.981  25.897  26.733  1.00  0.00     0.040 A 
ATOM     43  C   UNL A   1      50.144  25.238  29.044  1.00  0.00     0.040 A 
ATOM     44  F   UNL A   1      48.373  25.681  30.521  1.00  0.00    -0.206 F 
ATOM     45  C   UNL A   1      50.692  25.285  27.763  1.00  0.00     0.006 A 
ENDBRANCH  24  38
BRANCH  25  46
ATOM     46  C   UNL A   1      38.613  29.235  29.122  1.00  0.00     0.057 A 
ATOM     47  C   UNL A   1      38.030  29.738  27.952  1.00  0.00     0.134 A 
ATOM     48  C   UNL A   1      37.825  29.236  30.278  1.00  0.00     0.134 A 
ATOM     49  F   UNL A   1      38.738  29.785  26.814  1.00  0.00    -0.206 F 
ATOM     50  C   UNL A   1      36.724  30.231  27.933  1.00  0.00     0.040 A 
ATOM     51  C   UNL A   1      36.509  29.705  30.268  1.00  0.00     0.040 A 
ATOM     52  F   UNL A   1      38.324  28.774  31.432  1.00  0.00    -0.206 F 
ATOM     53  C   UNL A   1      35.956  30.211  29.094  1.00  0.00     0.006 A 
ENDBRANCH  25  46
BRANCH  37  54
ATOM     54  C   UNL A   1      44.662  32.356  30.410  1.00  0.00     0.057 A 
ATOM     55  C   UNL A   1      44.941  32.645  31.750  1.00  0.00     0.134 A 
ATOM     56  C   UNL A   1      44.700  33.411  29.491  1.00  0.00     0.134 A 
ATOM     57  F   UNL A   1      44.894  31.679  32.679  1.00  0.00    -0.206 F 
ATOM     58  C   UNL A   1      45.232  33.945  32.164  1.00  0.00     0.040 A 
ATOM     59  C   UNL A   1      45.009  34.711  29.889  1.00  0.00     0.040 A 
ATOM     60  F   UNL A   1      44.438  33.195  28.193  1.00  0.00    -0.206 F 
ATOM     61  C   UNL A   1      45.272  34.982  31.231  1.00  0.00     0.006 A 
ENDBRANCH  37  54
ENDBRANCH  11  12
ENDBRANCH   4   6
ENDBRANCH   3   4
ENDBRANCH   2   3
ENDBRANCH   1   2
BRANCH   1  62
ATOM     62  O   UNL A   1      36.633  21.077  25.643  1.00  0.00    -0.457 OA
BRANCH  62  63
ATOM     63  C   UNL A   1      35.846  21.618  24.665  1.00  0.00     0.356 C 
ATOM     64  O   UNL A   1      36.206  22.448  23.843  1.00  0.00    -0.244 OA
BRANCH  63  65
ATOM     65  C   UNL A   1      34.605  20.911  24.616  1.00  0.00     0.152 A 
ATOM     66  N   UNL A   1      34.529  19.602  25.005  1.00  0.00    -0.271 N 
ATOM     67  C   UNL A   1      33.311  21.284  24.275  1.00  0.00     0.059 A 
ATOM     68  N   UNL A   1      33.273  19.157  25.144  1.00  0.00    -0.183 NA
ATOM     69  H   UNL A   1      35.322  19.039  25.167  1.00  0.00     0.190 HD
ATOM     70  C   UNL A   1      32.534  20.187  24.730  1.00  0.00     0.145 A 
BRANCH  67  71
ATOM     71  C   UNL A   1      32.852  22.565  23.647  1.00  0.00     0.303 C 
BRANCH  71  72
ATOM     72  N   UNL A   1      31.998  23.404  24.506  1.00  0.00    -0.330 N 
ATOM     73  C   UNL A   1      32.677  23.840  25.729  1.00  0.00     0.262 C 
ATOM     74  C   UNL A   1      31.351  24.529  23.812  1.00  0.00     0.275 C 
ATOM     75  H   UNL A   1      31.239  22.783  24.784  1.00  0.00     0.348 HD
ATOM     76  C   UNL A   1      31.699  24.551  26.670  1.00  0.00     0.062 C 
ATOM     77  C   UNL A   1      30.327  25.264  24.694  1.00  0.00     0.131 C 
ATOM     78  C   UNL A   1      31.004  25.728  25.985  1.00  0.00     0.025 C 
BRANCH  77  79
ATOM     79  C   UNL A   1      29.736  26.413  23.940  1.00  0.00     0.204 A 
ATOM     80  N   UNL A   1      28.475  26.798  23.875  1.00  0.00    -0.213 NA
ATOM     81  O   UNL A   1      30.622  27.233  23.287  1.00  0.00    -0.440 OA
ATOM     82  C   UNL A   1      28.533  27.988  23.191  1.00  0.00     0.109 A 
ATOM     83  C   UNL A   1      29.842  28.257  22.830  1.00  0.00     0.154 A 
ATOM     84  C   UNL A   1      27.535  28.912  22.857  1.00  0.00     0.032 A 
ATOM     85  C   UNL A   1      30.260  29.396  22.152  1.00  0.00     0.049 A 
ATOM     86  C   UNL A   1      27.917  30.084  22.183  1.00  0.00     0.003 A 
ATOM     87  C   UNL A   1      29.254  30.321  21.842  1.00  0.00     0.004 A 
ENDBRANCH  77  79
ENDBRANCH  71  72
ENDBRANCH  67  71
ENDBRANCH  63  65
ENDBRANCH  62  63
ENDBRANCH   1  62
TORSDOF 14
ENDMDL
MODEL 2
REMARK VINA RESULT:     -12.6      1.449      2.251
REMARK SMILES O=C(OCCOC(=O)c1[nH]ncc1C[N@H+]1CCC[C@@H](c2nc3ccccc3o2)C1)c1ccc(-c2c3nc(c(-c4c(F)cccc4F)c4ccc([nH]4)c(-c4c(F)cccc4F)c4nc(c(-c5c(F)cccc5F)c5ccc2[nH]5)C=C4)C=C3)cc1
REMARK SMILES IDX 5 1 4 2 3 3 2 4 1 5 30 6 31 7 83 8 32 9 82 10 33 11 34 12
REMARK SMILES IDX 35 13 76 14 36 15 81 16 75 17 77 18 37 19 80 20 74 21 73 22
REMARK SMILES IDX 38 24 64 25 47 26 63 27 48 28 51 29 62 30 78 31 49 32 50 33
REMARK SMILES IDX 61 35 79 36 52 37 39 38 40 39 45 40 41 41 42 42 44 43 46 44
REMARK SMILES IDX 43 45 65 46 66 47 71 48 67 49 68 50 70 51 72 52 69 53 53 54
REMARK SMILES IDX 54 55 59 56 55 57 56 58 58 59 60 60 57 61 6 62 7 63 8 64
REMARK SMILES IDX 9 65 10 66 13 67 11 68 12 70 14 71 15 72 16 73 29 74 17 76
REMARK SMILES IDX 19 77 18 78 20 79 21 80 28 81 22 82 27 83 23 84 26 85 24 86
REMARK SMILES IDX 25 87
REMARK H PARENT 77 23 51 34 10 69 15 75
REMARK Flexibility Score: inf
ROOT
ATOM      1  C   UNL A   1      37.770  20.809  25.290  1.00  0.00     0.275 C 
ENDROOT
BRANCH   1   2
ATOM      2  C   UNL A   1      38.488  19.561  24.767  1.00  0.00     0.275 C 
BRANCH   2   3
ATOM      3  O   UNL A   1      39.474  19.041  25.679  1.00  0.00    -0.458 OA
BRANCH   3   4
ATOM      4  C   UNL A   1      40.742  19.407  25.967  1.00  0.00     0.338 C 
ATOM      5  O   UNL A   1      41.626  18.574  25.763  1.00  0.00    -0.246 OA
BRANCH   4   6
ATOM      6  C   UNL A   1      41.166  20.711  26.587  1.00  0.00     0.060 A 
ATOM      7  C   UNL A   1      41.284  20.996  27.947  1.00  0.00     0.016 A 
ATOM      8  C   UNL A   1      41.484  21.749  25.685  1.00  0.00     0.016 A 
ATOM      9  C   UNL A   1      41.702  22.259  28.391  1.00  0.00     0.010 A 
ATOM     10  C   UNL A   1      41.934  23.002  26.119  1.00  0.00     0.010 A 
ATOM     11  C   UNL A   1      42.033  23.270  27.483  1.00  0.00    -0.014 A 
BRANCH  11  12
ATOM     12  C   UNL A   1      42.422  24.613  27.979  1.00  0.00     0.031 A 
ATOM     13  C   UNL A   1      43.869  24.971  28.071  1.00  0.00     0.074 A 
ATOM     14  C   UNL A   1      41.482  25.535  28.252  1.00  0.00     0.049 A 
ATOM     15  N   UNL A   1      44.411  26.121  28.374  1.00  0.00    -0.248 NA
ATOM     16  C   UNL A   1      44.832  23.907  27.753  1.00  0.00     0.031 C 
ATOM     17  C   UNL A   1      40.052  25.309  28.116  1.00  0.00     0.029 A 
ATOM     18  N   UNL A   1      41.571  26.842  28.654  1.00  0.00    -0.354 N 
ATOM     19  C   UNL A   1      45.778  25.930  28.248  1.00  0.00     0.074 A 
ATOM     20  C   UNL A   1      45.985  24.542  27.898  1.00  0.00     0.031 C 
ATOM     21  C   UNL A   1      39.389  26.448  28.363  1.00  0.00     0.029 A 
ATOM     22  C   UNL A   1      40.350  27.473  28.744  1.00  0.00     0.049 A 
ATOM     23  H   UNL A   1      42.424  27.287  28.859  1.00  0.00     0.167 HD
ATOM     24  C   UNL A   1      46.768  26.842  28.383  1.00  0.00     0.037 A 
ATOM     25  C   UNL A   1      40.049  28.736  29.100  1.00  0.00     0.037 A 
ATOM     26  C   UNL A   1      46.560  28.211  28.769  1.00  0.00     0.049 A 
ATOM     27  C   UNL A   1      41.176  29.650  29.483  1.00  0.00     0.074 A 
ATOM     28  C   UNL A   1      47.494  29.212  28.954  1.00  0.00     0.029 A 
ATOM     29  N   UNL A   1      45.317  28.764  29.049  1.00  0.00    -0.354 N 
ATOM     30  N   UNL A   1      42.466  29.463  29.354  1.00  0.00    -0.248 NA
ATOM     31  C   UNL A   1      40.808  30.937  30.086  1.00  0.00     0.031 C 
ATOM     32  C   UNL A   1      46.819  30.363  29.384  1.00  0.00     0.029 A 
ATOM     33  C   UNL A   1      45.462  30.084  29.439  1.00  0.00     0.049 A 
ATOM     34  H   UNL A   1      44.459  28.286  28.981  1.00  0.00     0.167 HD
ATOM     35  C   UNL A   1      43.065  30.630  29.802  1.00  0.00     0.074 A 
ATOM     36  C   UNL A   1      41.995  31.510  30.231  1.00  0.00     0.031 C 
ATOM     37  C   UNL A   1      44.381  30.949  29.838  1.00  0.00     0.037 A 
BRANCH  24  38
ATOM     38  C   UNL A   1      48.155  26.347  28.122  1.00  0.00     0.057 A 
ATOM     39  C   UNL A   1      48.734  26.442  26.850  1.00  0.00     0.134 A 
ATOM     40  C   UNL A   1      48.888  25.704  29.124  1.00  0.00     0.134 A 
ATOM     41  F   UNL A   1      48.066  27.021  25.840  1.00  0.00    -0.206 F 
ATOM     42  C   UNL A   1      49.983  25.884  26.575  1.00  0.00     0.040 A 
ATOM     43  C   UNL A   1      50.146  25.157  28.866  1.00  0.00     0.040 A 
ATOM     44  F   UNL A   1      48.382  25.572  30.360  1.00  0.00    -0.206 F 
ATOM     45  C   UNL A   1      50.691  25.237  27.586  1.00  0.00     0.006 A 
ENDBRANCH  24  38
BRANCH  25  46
ATOM     46  C   UNL A   1      38.644  29.221  29.109  1.00  0.00     0.057 A 
ATOM     47  C   UNL A   1      37.877  29.191  30.280  1.00  0.00     0.134 A 
ATOM     48  C   UNL A   1      38.020  29.697  27.951  1.00  0.00     0.134 A 
ATOM     49  F   UNL A   1      38.408  28.725  31.421  1.00  0.00    -0.206 F 
ATOM     50  C   UNL A   1      36.543  29.605  30.298  1.00  0.00     0.040 A 
ATOM     51  C   UNL A   1      36.694  30.137  27.960  1.00  0.00     0.040 A 
ATOM     52  F   UNL A   1      38.696  29.748  26.795  1.00  0.00    -0.206 F 
ATOM     53  C   UNL A   1      35.949  30.085  29.135  1.00  0.00     0.006 A 
ENDBRANCH  25  46
BRANCH  37  54
ATOM     54  C   UNL A   1      44.718  32.337  30.282  1.00  0.00     0.057 A 
ATOM     55  C   UNL A   1      44.746  33.414  29.389  1.00  0.00     0.134 A 
ATOM     56  C   UNL A   1      45.015  32.594  31.625  1.00  0.00     0.134 A 
ATOM     57  F   UNL A   1      44.495  33.223  28.085  1.00  0.00    -0.206 F 
ATOM     58  C   UNL A   1      45.076  34.701  29.816  1.00  0.00     0.040 A 
ATOM     59  C   UNL A   1      45.327  33.878  32.069  1.00  0.00     0.040 A 
ATOM     60  F   UNL A   1      45.007  31.600  32.527  1.00  0.00    -0.206 F 
ATOM     61  C   UNL A   1      45.362  34.936  31.161  1.00  0.00     0.006 A 
ENDBRANCH  37  54
ENDBRANCH  11  12
ENDBRANCH   4   6
ENDBRANCH   3   4
ENDBRANCH   2   3
ENDBRANCH   1   2
BRANCH   1  62
ATOM     62  O   UNL A   1      36.495  21.011  24.664  1.00  0.00    -0.457 OA
BRANCH  62  63
ATOM     63  C   UNL A   1      35.418  20.882  25.494  1.00  0.00     0.356 C 
ATOM     64  O   UNL A   1      35.140  21.633  26.418  1.00  0.00    -0.244 OA
BRANCH  63  65
ATOM     65  C   UNL A   1      34.553  19.863  24.988  1.00  0.00     0.152 A 
ATOM     66  N   UNL A   1      35.022  18.597  24.761  1.00  0.00    -0.271 N 
ATOM     67  C   UNL A   1      33.199  19.830  24.680  1.00  0.00     0.059 A 
ATOM     68  N   UNL A   1      34.051  17.701  24.534  1.00  0.00    -0.183 NA
ATOM     69  H   UNL A   1      35.979  18.366  24.765  1.00  0.00     0.190 HD
ATOM     70  C   UNL A   1      32.944  18.444  24.514  1.00  0.00     0.145 A 
BRANCH  67  71
ATOM     71  C   UNL A   1      32.238  20.978  24.612  1.00  0.00     0.303 C 
BRANCH  71  72
ATOM     72  N   UNL A   1      32.780  22.204  24.002  1.00  0.00    -0.330 N 
ATOM     73  C   UNL A   1      32.505  22.294  22.566  1.00  0.00     0.262 C 
ATOM     74  C   UNL A   1      32.421  23.447  24.704  1.00  0.00     0.275 C 
ATOM     75  H   UNL A   1      33.790  22.111  24.113  1.00  0.00     0.348 HD
ATOM     76  C   UNL A   1      33.240  23.486  21.944  1.00  0.00     0.062 C 
ATOM     77  C   UNL A   1      33.157  24.679  24.150  1.00  0.00     0.131 C 
ATOM     78  C   UNL A   1      32.893  24.798  22.647  1.00  0.00     0.025 C 
BRANCH  77  79
ATOM     79  C   UNL A   1      32.718  25.907  24.883  1.00  0.00     0.204 A 
ATOM     80  N   UNL A   1      32.631  26.105  26.186  1.00  0.00    -0.213 NA
ATOM     81  O   UNL A   1      32.442  27.009  24.115  1.00  0.00    -0.440 OA
ATOM     82  C   UNL A   1      32.344  27.444  26.293  1.00  0.00     0.109 A 
ATOM     83  C   UNL A   1      32.227  28.000  25.030  1.00  0.00     0.154 A 
ATOM     84  C   UNL A   1      32.192  28.271  27.413  1.00  0.00     0.032 A 
ATOM     85  C   UNL A   1      31.970  29.341  24.775  1.00  0.00     0.049 A 
ATOM     86  C   UNL A   1      31.944  29.636  27.199  1.00  0.00     0.003 A 
ATOM     87  C   UNL A   1      31.840  30.160  25.905  1.00  0.00     0.004 A 
ENDBRANCH  77  79
ENDBRANCH  71  72
ENDBRANCH  67  71
ENDBRANCH  63  65
ENDBRANCH  62  63
ENDBRANCH   1  62
TORSDOF 14
ENDMDL
MODEL 3
REMARK VINA RESULT:     -12.6      4.236      9.731
REMARK SMILES O=C(OCCOC(=O)c1[nH]ncc1C[N@H+]1CCC[C@@H](c2nc3ccccc3o2)C1)c1ccc(-c2c3nc(c(-c4c(F)cccc4F)c4ccc([nH]4)c(-c4c(F)cccc4F)c4nc(c(-c5c(F)cccc5F)c5ccc2[nH]5)C=C4)C=C3)cc1
REMARK SMILES IDX 5 1 4 2 3 3 2 4 1 5 30 6 31 7 83 8 32 9 82 10 33 11 34 12
REMARK SMILES IDX 35 13 76 14 36 15 81 16 75 17 77 18 37 19 80 20 74 21 73 22
REMARK SMILES IDX 38 24 64 25 47 26 63 27 48 28 51 29 62 30 78 31 49 32 50 33
REMARK SMILES IDX 61 35 79 36 52 37 39 38 40 39 45 40 41 41 42 42 44 43 46 44
REMARK SMILES IDX 43 45 65 46 66 47 71 48 67 49 68 50 70 51 72 52 69 53 53 54
REMARK SMILES IDX 54 55 59 56 55 57 56 58 58 59 60 60 57 61 6 62 7 63 8 64
REMARK SMILES IDX 9 65 10 66 13 67 11 68 12 70 14 71 15 72 16 73 29 74 17 76
REMARK SMILES IDX 19 77 18 78 20 79 21 80 28 81 22 82 27 83 23 84 26 85 24 86
REMARK SMILES IDX 25 87
REMARK H PARENT 77 23 51 34 10 69 15 75
REMARK Flexibility Score: inf
ROOT
ATOM      1  C   UNL A   1      32.305  31.125  26.705  1.00  0.00     0.275 C 
ENDROOT
BRANCH   1   2
ATOM      2  C   UNL A   1      31.502  32.365  27.111  1.00  0.00     0.275 C 
BRANCH   2   3
ATOM      3  O   UNL A   1      32.292  33.567  27.170  1.00  0.00    -0.458 OA
BRANCH   3   4
ATOM      4  C   UNL A   1      33.030  34.135  28.149  1.00  0.00     0.338 C 
ATOM      5  O   UNL A   1      32.650  35.226  28.576  1.00  0.00    -0.246 OA
BRANCH   4   6
ATOM      6  C   UNL A   1      34.316  33.594  28.713  1.00  0.00     0.060 A 
ATOM      7  C   UNL A   1      35.588  34.155  28.592  1.00  0.00     0.016 A 
ATOM      8  C   UNL A   1      34.212  32.394  29.448  1.00  0.00     0.016 A 
ATOM      9  C   UNL A   1      36.707  33.547  29.179  1.00  0.00     0.010 A 
ATOM     10  C   UNL A   1      35.319  31.800  30.065  1.00  0.00     0.010 A 
ATOM     11  C   UNL A   1      36.583  32.369  29.922  1.00  0.00    -0.014 A 
BRANCH  11  12
ATOM     12  C   UNL A   1      37.791  31.720  30.488  1.00  0.00     0.031 A 
ATOM     13  C   UNL A   1      38.198  32.023  31.892  1.00  0.00     0.074 A 
ATOM     14  C   UNL A   1      38.459  30.792  29.780  1.00  0.00     0.049 A 
ATOM     15  N   UNL A   1      39.151  31.482  32.604  1.00  0.00    -0.248 NA
ATOM     16  C   UNL A   1      37.413  33.046  32.598  1.00  0.00     0.031 C 
ATOM     17  C   UNL A   1      38.094  30.370  28.437  1.00  0.00     0.029 A 
ATOM     18  N   UNL A   1      39.543  30.012  30.085  1.00  0.00    -0.354 N 
ATOM     19  C   UNL A   1      39.058  32.073  33.855  1.00  0.00     0.074 A 
ATOM     20  C   UNL A   1      37.996  33.052  33.788  1.00  0.00     0.031 C 
ATOM     21  C   UNL A   1      38.890  29.364  28.047  1.00  0.00     0.029 A 
ATOM     22  C   UNL A   1      39.872  29.116  29.093  1.00  0.00     0.049 A 
ATOM     23  H   UNL A   1      40.040  30.085  30.931  1.00  0.00     0.167 HD
ATOM     24  C   UNL A   1      39.777  31.798  34.968  1.00  0.00     0.037 A 
ATOM     25  C   UNL A   1      40.860  28.202  29.039  1.00  0.00     0.037 A 
ATOM     26  C   UNL A   1      40.858  30.851  35.019  1.00  0.00     0.049 A 
ATOM     27  C   UNL A   1      41.794  28.102  30.210  1.00  0.00     0.074 A 
ATOM     28  C   UNL A   1      41.664  30.512  36.089  1.00  0.00     0.029 A 
ATOM     29  N   UNL A   1      41.294  30.104  33.933  1.00  0.00    -0.354 N 
ATOM     30  N   UNL A   1      41.694  28.660  31.391  1.00  0.00    -0.248 NA
ATOM     31  C   UNL A   1      42.990  27.270  30.031  1.00  0.00     0.031 C 
ATOM     32  C   UNL A   1      42.615  29.585  35.640  1.00  0.00     0.029 A 
ATOM     33  C   UNL A   1      42.381  29.327  34.298  1.00  0.00     0.049 A 
ATOM     34  H   UNL A   1      40.890  30.123  33.036  1.00  0.00     0.167 HD
ATOM     35  C   UNL A   1      42.780  28.200  32.119  1.00  0.00     0.074 A 
ATOM     36  C   UNL A   1      43.541  27.337  31.235  1.00  0.00     0.031 C 
ATOM     37  C   UNL A   1      43.107  28.456  33.408  1.00  0.00     0.037 A 
BRANCH  24  38
ATOM     38  C   UNL A   1      39.402  32.564  36.196  1.00  0.00     0.057 A 
ATOM     39  C   UNL A   1      38.421  32.090  37.078  1.00  0.00     0.134 A 
ATOM     40  C   UNL A   1      39.966  33.816  36.462  1.00  0.00     0.134 A 
ATOM     41  F   UNL A   1      37.822  30.910  36.858  1.00  0.00    -0.206 F 
ATOM     42  C   UNL A   1      37.991  32.852  38.164  1.00  0.00     0.040 A 
ATOM     43  C   UNL A   1      39.556  34.579  37.556  1.00  0.00     0.040 A 
ATOM     44  F   UNL A   1      40.902  34.328  35.648  1.00  0.00    -0.206 F 
ATOM     45  C   UNL A   1      38.558  34.102  38.404  1.00  0.00     0.006 A 
ENDBRANCH  24  38
BRANCH  25  46
ATOM     46  C   UNL A   1      41.022  27.309  27.862  1.00  0.00     0.057 A 
ATOM     47  C   UNL A   1      40.417  26.046  27.825  1.00  0.00     0.134 A 
ATOM     48  C   UNL A   1      41.803  27.673  26.761  1.00  0.00     0.134 A 
ATOM     49  F   UNL A   1      39.672  25.626  28.858  1.00  0.00    -0.206 F 
ATOM     50  C   UNL A   1      40.590  25.178  26.745  1.00  0.00     0.040 A 
ATOM     51  C   UNL A   1      41.966  26.824  25.663  1.00  0.00     0.040 A 
ATOM     52  F   UNL A   1      42.414  28.865  26.735  1.00  0.00    -0.206 F 
ATOM     53  C   UNL A   1      41.364  25.569  25.656  1.00  0.00     0.006 A 
ENDBRANCH  25  46
BRANCH  37  54
ATOM     54  C   UNL A   1      44.294  27.727  33.953  1.00  0.00     0.057 A 
ATOM     55  C   UNL A   1      45.578  28.282  33.933  1.00  0.00     0.134 A 
ATOM     56  C   UNL A   1      44.142  26.450  34.507  1.00  0.00     0.134 A 
ATOM     57  F   UNL A   1      45.788  29.492  33.391  1.00  0.00    -0.206 F 
ATOM     58  C   UNL A   1      46.677  27.584  34.434  1.00  0.00     0.040 A 
ATOM     59  C   UNL A   1      45.229  25.750  35.028  1.00  0.00     0.040 A 
ATOM     60  F   UNL A   1      42.935  25.865  34.551  1.00  0.00    -0.206 F 
ATOM     61  C   UNL A   1      46.503  26.315  34.988  1.00  0.00     0.006 A 
ENDBRANCH  37  54
ENDBRANCH  11  12
ENDBRANCH   4   6
ENDBRANCH   3   4
ENDBRANCH   2   3
ENDBRANCH   1   2
BRANCH   1  62
ATOM     62  O   UNL A   1      31.520  30.183  25.962  1.00  0.00    -0.457 OA
BRANCH  62  63
ATOM     63  C   UNL A   1      32.170  29.584  24.919  1.00  0.00     0.356 C 
ATOM     64  O   UNL A   1      33.376  29.392  24.853  1.00  0.00    -0.244 OA
BRANCH  63  65
ATOM     65  C   UNL A   1      31.207  29.030  24.020  1.00  0.00     0.152 A 
ATOM     66  N   UNL A   1      30.688  29.781  23.001  1.00  0.00    -0.271 N 
ATOM     67  C   UNL A   1      30.645  27.766  23.890  1.00  0.00     0.059 A 
ATOM     68  N   UNL A   1      30.003  29.060  22.103  1.00  0.00    -0.183 NA
ATOM     69  H   UNL A   1      30.807  30.756  22.933  1.00  0.00     0.190 HD
ATOM     70  C   UNL A   1      30.002  27.834  22.626  1.00  0.00     0.145 A 
BRANCH  67  71
ATOM     71  C   UNL A   1      30.757  26.602  24.826  1.00  0.00     0.303 C 
BRANCH  71  72
ATOM     72  N   UNL A   1      32.019  25.847  24.727  1.00  0.00    -0.330 N 
ATOM     73  C   UNL A   1      32.919  26.094  25.856  1.00  0.00     0.262 C 
ATOM     74  C   UNL A   1      31.851  24.408  24.469  1.00  0.00     0.275 C 
ATOM     75  H   UNL A   1      32.468  26.223  23.892  1.00  0.00     0.348 HD
ATOM     76  C   UNL A   1      34.282  25.436  25.619  1.00  0.00     0.062 C 
ATOM     77  C   UNL A   1      33.184  23.694  24.186  1.00  0.00     0.131 C 
ATOM     78  C   UNL A   1      34.151  23.937  25.346  1.00  0.00     0.025 C 
BRANCH  77  79
ATOM     79  C   UNL A   1      32.944  22.233  23.968  1.00  0.00     0.204 A 
ATOM     80  N   UNL A   1      32.283  21.641  22.991  1.00  0.00    -0.213 NA
ATOM     81  O   UNL A   1      33.551  21.378  24.852  1.00  0.00    -0.440 OA
ATOM     82  C   UNL A   1      32.523  20.305  23.199  1.00  0.00     0.109 A 
ATOM     83  C   UNL A   1      33.297  20.139  24.335  1.00  0.00     0.154 A 
ATOM     84  C   UNL A   1      32.148  19.172  22.465  1.00  0.00     0.032 A 
ATOM     85  C   UNL A   1      33.748  18.917  24.816  1.00  0.00     0.049 A 
ATOM     86  C   UNL A   1      32.594  17.917  22.910  1.00  0.00     0.003 A 
ATOM     87  C   UNL A   1      33.382  17.795  24.061  1.00  0.00     0.004 A 
ENDBRANCH  77  79
ENDBRANCH  71  72
ENDBRANCH  67  71
ENDBRANCH  63  65
ENDBRANCH  62  63
ENDBRANCH   1  62
TORSDOF 14
ENDMDL
