MODEL 1
REMARK VINA RESULT:     -12.8      0.000      0.000
REMARK SMILES Cc1ccc(S(=O)(=O)n2cc(C(=O)C(=O)NCC(=O)N[C@@H](Cc3c[nH]c4ccccc34)C(=O)OCCOC(=O)c3ccc(-c4c5nc(c(-c6c(F)cccc6F)c6ccc([nH]6)c(-c6c(F)cccc6F)c6nc(c(-c7c(F)cccc7F)c7ccc4[nH]7)C=C6)C=C5)cc3)c3ccccc32)cc1
REMARK SMILES IDX 32 1 33 2 21 3 20 4 18 5 19 6 17 8 16 9 14 10 15 11 12 13
REMARK SMILES IDX 13 14 11 15 9 16 10 17 99 18 94 19 98 20 95 21 97 22 96 23
REMARK SMILES IDX 6 24 7 25 8 26 5 27 1 28 2 29 3 30 101 31 4 32 100 33 22 34
REMARK SMILES IDX 23 35 24 36 31 37 25 38 26 39 30 40 27 42 29 43 28 44 34 45
REMARK SMILES IDX 35 46 36 47 37 48 38 49 39 50 40 51 41 52 93 53 42 54 92 55
REMARK SMILES IDX 43 56 44 57 45 58 86 59 46 60 91 61 85 62 87 63 47 64 90 65
REMARK SMILES IDX 84 66 83 67 48 69 74 70 57 71 73 72 58 73 61 74 72 75 88 76
REMARK SMILES IDX 59 77 60 78 71 80 89 81 62 82 49 83 50 84 55 85 51 86 52 87
REMARK SMILES IDX 54 88 56 89 53 90 75 91 76 92 81 93 77 94 78 95 80 96 82 97
REMARK SMILES IDX 79 98 63 99 64 100 69 101 65 102 66 103 68 104 70 105 67 106
REMARK H PARENT 20 7 16 12 25 41 87 68 61 79
REMARK Flexibility Score: inf
ROOT
ATOM      1  C   UNL A   1      35.995  23.231  24.236  1.00  0.00     0.329 C 
ATOM      2  O   UNL A   1      35.924  23.226  23.014  1.00  0.00    -0.250 OA
ENDROOT
BRANCH   1   3
ATOM      3  C   UNL A   1      35.082  22.360  25.096  1.00  0.00     0.196 C 
BRANCH   3   4
ATOM      4  N   UNL A   1      33.881  23.011  25.604  1.00  0.00    -0.341 N 
ATOM      5  C   UNL A   1      32.697  23.270  24.974  1.00  0.00     0.240 C 
ATOM      6  O   UNL A   1      31.788  23.735  25.668  1.00  0.00    -0.273 OA
ATOM      7  H   UNL A   1      33.930  23.309  26.542  1.00  0.00     0.164 HD
BRANCH   5   8
ATOM      8  C   UNL A   1      32.445  22.870  23.494  1.00  0.00     0.216 C 
BRANCH   8   9
ATOM      9  N   UNL A   1      33.036  23.735  22.463  1.00  0.00    -0.340 N 
ATOM     10  C   UNL A   1      32.678  25.040  22.117  1.00  0.00     0.292 C 
ATOM     11  O   UNL A   1      33.280  25.631  21.228  1.00  0.00    -0.265 OA
ATOM     12  H   UNL A   1      33.780  23.344  21.950  1.00  0.00     0.164 HD
BRANCH  10  13
ATOM     13  C   UNL A   1      31.537  25.751  22.861  1.00  0.00     0.252 C 
ATOM     14  O   UNL A   1      30.417  25.268  22.679  1.00  0.00    -0.283 OA
BRANCH  13  15
ATOM     15  C   UNL A   1      31.701  26.973  23.697  1.00  0.00     0.054 A 
ATOM     16  N   UNL A   1      32.282  28.589  25.181  1.00  0.00    -0.240 N 
ATOM     17  C   UNL A   1      32.604  27.313  24.737  1.00  0.00     0.117 A 
ATOM     18  C   UNL A   1      31.184  29.069  24.441  1.00  0.00     0.065 A 
ATOM     19  C   UNL A   1      30.816  28.101  23.525  1.00  0.00     0.012 A 
ATOM     20  C   UNL A   1      30.514  30.324  24.490  1.00  0.00     0.028 A 
ATOM     21  C   UNL A   1      29.744  28.411  22.647  1.00  0.00     0.011 A 
ATOM     22  C   UNL A   1      29.515  30.627  23.585  1.00  0.00     0.002 A 
ATOM     23  C   UNL A   1      29.120  29.670  22.675  1.00  0.00     0.001 A 
BRANCH  16  24
ATOM     24  S   UNL A   1      32.745  29.650  26.425  1.00  0.00     0.268 S 
ATOM     25  O   UNL A   1      34.164  29.319  26.503  1.00  0.00    -0.201 OA
ATOM     26  O   UNL A   1      31.789  29.132  27.404  1.00  0.00    -0.201 OA
BRANCH  24  27
ATOM     27  C   UNL A   1      32.770  31.266  27.101  1.00  0.00     0.088 A 
ATOM     28  C   UNL A   1      34.313  35.080  28.503  1.00  0.00     0.044 C 
ATOM     29  C   UNL A   1      33.714  33.776  28.063  1.00  0.00    -0.051 A 
ATOM     30  C   UNL A   1      34.569  32.697  28.060  1.00  0.00     0.005 A 
ATOM     31  C   UNL A   1      32.380  33.589  27.620  1.00  0.00     0.005 A 
ATOM     32  C   UNL A   1      34.103  31.496  27.578  1.00  0.00     0.022 A 
ATOM     33  C   UNL A   1      31.892  32.331  27.132  1.00  0.00     0.022 A 
ENDBRANCH  24  27
ENDBRANCH  16  24
ENDBRANCH  13  15
ENDBRANCH  10  13
ENDBRANCH   8   9
ENDBRANCH   5   8
ENDBRANCH   3   4
BRANCH   3  34
ATOM     34  C   UNL A   1      34.781  21.010  24.420  1.00  0.00     0.074 C 
BRANCH  34  35
ATOM     35  C   UNL A   1      34.062  19.919  25.188  1.00  0.00    -0.020 A 
ATOM     36  C   UNL A   1      33.296  19.989  26.340  1.00  0.00     0.087 A 
ATOM     37  C   UNL A   1      33.956  18.556  24.739  1.00  0.00     0.003 A 
ATOM     38  N   UNL A   1      32.615  18.812  26.493  1.00  0.00    -0.361 N 
ATOM     39  C   UNL A   1      33.047  17.900  25.568  1.00  0.00     0.046 A 
ATOM     40  C   UNL A   1      34.524  17.831  23.672  1.00  0.00     0.010 A 
ATOM     41  H   UNL A   1      31.918  18.645  27.168  1.00  0.00     0.166 HD
ATOM     42  C   UNL A   1      32.677  16.565  25.398  1.00  0.00     0.026 A 
ATOM     43  C   UNL A   1      34.193  16.482  23.506  1.00  0.00     0.001 A 
ATOM     44  C   UNL A   1      33.283  15.860  24.358  1.00  0.00     0.002 A 
ENDBRANCH  34  35
ENDBRANCH   3  34
ENDBRANCH   1   3
BRANCH   1  45
ATOM     45  O   UNL A   1      36.931  23.953  24.907  1.00  0.00    -0.461 OA
BRANCH  45  46
ATOM     46  C   UNL A   1      37.753  23.147  25.770  1.00  0.00     0.274 C 
BRANCH  46  47
ATOM     47  C   UNL A   1      38.597  23.964  26.751  1.00  0.00     0.275 C 
BRANCH  47  48
ATOM     48  O   UNL A   1      40.049  23.875  26.673  1.00  0.00    -0.458 OA
BRANCH  48  49
ATOM     49  C   UNL A   1      40.963  24.857  26.513  1.00  0.00     0.338 C 
ATOM     50  O   UNL A   1      41.812  24.812  25.619  1.00  0.00    -0.246 OA
BRANCH  49  51
ATOM     51  C   UNL A   1      40.917  26.025  27.401  1.00  0.00     0.060 A 
ATOM     52  C   UNL A   1      41.483  25.941  28.692  1.00  0.00     0.016 A 
ATOM     53  C   UNL A   1      40.407  27.224  26.932  1.00  0.00     0.016 A 
ATOM     54  C   UNL A   1      41.645  27.090  29.469  1.00  0.00     0.010 A 
ATOM     55  C   UNL A   1      40.690  28.368  27.630  1.00  0.00     0.010 A 
ATOM     56  C   UNL A   1      41.263  28.309  28.914  1.00  0.00    -0.014 A 
BRANCH  56  57
ATOM     57  C   UNL A   1      41.301  29.590  29.608  1.00  0.00     0.031 A 
ATOM     58  C   UNL A   1      40.097  30.418  29.807  1.00  0.00     0.074 A 
ATOM     59  C   UNL A   1      42.514  29.871  30.136  1.00  0.00     0.049 A 
ATOM     60  N   UNL A   1      40.106  31.697  29.954  1.00  0.00    -0.248 NA
ATOM     61  C   UNL A   1      38.742  29.880  29.835  1.00  0.00     0.031 C 
ATOM     62  C   UNL A   1      42.946  30.877  31.082  1.00  0.00     0.029 A 
ATOM     63  N   UNL A   1      43.715  29.276  29.734  1.00  0.00    -0.354 N 
ATOM     64  C   UNL A   1      38.875  32.057  30.478  1.00  0.00     0.074 A 
ATOM     65  C   UNL A   1      38.016  30.939  30.208  1.00  0.00     0.031 C 
ATOM     66  C   UNL A   1      44.275  31.061  30.937  1.00  0.00     0.029 A 
ATOM     67  C   UNL A   1      44.711  30.248  29.810  1.00  0.00     0.049 A 
ATOM     68  H   UNL A   1      43.835  28.340  29.450  1.00  0.00     0.167 HD
ATOM     69  C   UNL A   1      38.808  33.161  31.282  1.00  0.00     0.037 A 
ATOM     70  C   UNL A   1      45.230  30.702  28.629  1.00  0.00     0.037 A 
ATOM     71  C   UNL A   1      40.122  33.794  31.321  1.00  0.00     0.049 A 
ATOM     72  C   UNL A   1      44.811  32.126  28.373  1.00  0.00     0.074 A 
ATOM     73  C   UNL A   1      41.164  33.691  32.228  1.00  0.00     0.029 A 
ATOM     74  N   UNL A   1      40.662  34.310  30.150  1.00  0.00    -0.354 N 
ATOM     75  N   UNL A   1      43.725  32.669  28.855  1.00  0.00    -0.248 NA
ATOM     76  C   UNL A   1      45.638  33.073  27.636  1.00  0.00     0.031 C 
ATOM     77  C   UNL A   1      42.359  34.056  31.556  1.00  0.00     0.029 A 
ATOM     78  C   UNL A   1      42.038  34.385  30.250  1.00  0.00     0.049 A 
ATOM     79  H   UNL A   1      40.139  34.582  29.361  1.00  0.00     0.167 HD
ATOM     80  C   UNL A   1      43.752  34.017  28.619  1.00  0.00     0.074 A 
ATOM     81  C   UNL A   1      44.956  34.215  27.831  1.00  0.00     0.031 C 
ATOM     82  C   UNL A   1      42.826  34.879  29.135  1.00  0.00     0.037 A 
BRANCH  69  83
ATOM     83  C   UNL A   1      37.715  33.479  32.288  1.00  0.00     0.057 A 
ATOM     84  C   UNL A   1      36.491  34.039  31.853  1.00  0.00     0.134 A 
ATOM     85  C   UNL A   1      37.791  33.303  33.680  1.00  0.00     0.134 A 
ATOM     86  F   UNL A   1      36.209  34.201  30.554  1.00  0.00    -0.206 F 
ATOM     87  C   UNL A   1      35.479  34.465  32.723  1.00  0.00     0.040 A 
ATOM     88  C   UNL A   1      36.792  33.745  34.568  1.00  0.00     0.040 A 
ATOM     89  F   UNL A   1      38.806  32.651  34.254  1.00  0.00    -0.206 F 
ATOM     90  C   UNL A   1      35.634  34.339  34.092  1.00  0.00     0.006 A 
ENDBRANCH  69  83
BRANCH  70  91
ATOM     91  C   UNL A   1      45.294  29.602  27.615  1.00  0.00     0.057 A 
ATOM     92  C   UNL A   1      46.211  28.551  27.844  1.00  0.00     0.134 A 
ATOM     93  C   UNL A   1      44.189  29.305  26.819  1.00  0.00     0.134 A 
ATOM     94  F   UNL A   1      47.301  28.765  28.599  1.00  0.00    -0.206 F 
ATOM     95  C   UNL A   1      45.953  27.232  27.454  1.00  0.00     0.040 A 
ATOM     96  C   UNL A   1      43.933  27.989  26.426  1.00  0.00     0.040 A 
ATOM     97  F   UNL A   1      43.281  30.239  26.503  1.00  0.00    -0.206 F 
ATOM     98  C   UNL A   1      44.776  26.941  26.787  1.00  0.00     0.006 A 
ENDBRANCH  70  91
BRANCH  82  99
ATOM     99  C   UNL A   1      42.643  36.320  28.735  1.00  0.00     0.057 A 
ATOM    100  C   UNL A   1      43.219  37.399  29.416  1.00  0.00     0.134 A 
ATOM    101  C   UNL A   1      41.986  36.654  27.526  1.00  0.00     0.134 A 
ATOM    102  F   UNL A   1      43.997  37.221  30.491  1.00  0.00    -0.206 F 
ATOM    103  C   UNL A   1      43.072  38.720  28.979  1.00  0.00     0.040 A 
ATOM    104  C   UNL A   1      41.905  37.959  27.041  1.00  0.00     0.040 A 
ATOM    105  F   UNL A   1      41.418  35.729  26.739  1.00  0.00    -0.206 F 
ATOM    106  C   UNL A   1      42.425  39.002  27.784  1.00  0.00     0.006 A 
ENDBRANCH  82  99
ENDBRANCH  56  57
ENDBRANCH  49  51
ENDBRANCH  48  49
ENDBRANCH  47  48
ENDBRANCH  46  47
ENDBRANCH  45  46
ENDBRANCH   1  45
TORSDOF 20
ENDMDL
MODEL 2
REMARK VINA RESULT:     -12.7      2.017      3.146
REMARK SMILES Cc1ccc(S(=O)(=O)n2cc(C(=O)C(=O)NCC(=O)N[C@@H](Cc3c[nH]c4ccccc34)C(=O)OCCOC(=O)c3ccc(-c4c5nc(c(-c6c(F)cccc6F)c6ccc([nH]6)c(-c6c(F)cccc6F)c6nc(c(-c7c(F)cccc7F)c7ccc4[nH]7)C=C6)C=C5)cc3)c3ccccc32)cc1
REMARK SMILES IDX 32 1 33 2 21 3 20 4 18 5 19 6 17 8 16 9 14 10 15 11 12 13
REMARK SMILES IDX 13 14 11 15 9 16 10 17 99 18 94 19 98 20 95 21 97 22 96 23
REMARK SMILES IDX 6 24 7 25 8 26 5 27 1 28 2 29 3 30 101 31 4 32 100 33 22 34
REMARK SMILES IDX 23 35 24 36 31 37 25 38 26 39 30 40 27 42 29 43 28 44 34 45
REMARK SMILES IDX 35 46 36 47 37 48 38 49 39 50 40 51 41 52 93 53 42 54 92 55
REMARK SMILES IDX 43 56 44 57 45 58 86 59 46 60 91 61 85 62 87 63 47 64 90 65
REMARK SMILES IDX 84 66 83 67 48 69 74 70 57 71 73 72 58 73 61 74 72 75 88 76
REMARK SMILES IDX 59 77 60 78 71 80 89 81 62 82 49 83 50 84 55 85 51 86 52 87
REMARK SMILES IDX 54 88 56 89 53 90 75 91 76 92 81 93 77 94 78 95 80 96 82 97
REMARK SMILES IDX 79 98 63 99 64 100 69 101 65 102 66 103 68 104 70 105 67 106
REMARK H PARENT 20 7 16 12 25 41 87 68 61 79
REMARK Flexibility Score: inf
ROOT
ATOM      1  C   UNL A   1      34.980  23.316  23.827  1.00  0.00     0.329 C 
ATOM      2  O   UNL A   1      34.803  23.312  22.616  1.00  0.00    -0.250 OA
ENDROOT
BRANCH   1   3
ATOM      3  C   UNL A   1      33.918  22.800  24.796  1.00  0.00     0.196 C 
BRANCH   3   4
ATOM      4  N   UNL A   1      32.944  23.784  25.250  1.00  0.00    -0.341 N 
ATOM      5  C   UNL A   1      31.869  24.314  24.594  1.00  0.00     0.240 C 
ATOM      6  O   UNL A   1      31.128  25.052  25.249  1.00  0.00    -0.273 OA
ATOM      7  H   UNL A   1      33.081  24.117  26.167  1.00  0.00     0.164 HD
BRANCH   5   8
ATOM      8  C   UNL A   1      31.504  23.903  23.141  1.00  0.00     0.216 C 
BRANCH   8   9
ATOM      9  N   UNL A   1      32.359  24.429  22.068  1.00  0.00    -0.340 N 
ATOM     10  C   UNL A   1      32.514  25.754  21.654  1.00  0.00     0.292 C 
ATOM     11  O   UNL A   1      33.278  26.030  20.737  1.00  0.00    -0.265 OA
ATOM     12  H   UNL A   1      32.892  23.762  21.577  1.00  0.00     0.164 HD
BRANCH  10  13
ATOM     13  C   UNL A   1      31.739  26.879  22.358  1.00  0.00     0.252 C 
ATOM     14  O   UNL A   1      30.643  27.146  21.860  1.00  0.00    -0.283 OA
BRANCH  13  15
ATOM     15  C   UNL A   1      32.249  27.665  23.516  1.00  0.00     0.054 A 
ATOM     16  N   UNL A   1      33.354  28.538  25.295  1.00  0.00    -0.240 N 
ATOM     17  C   UNL A   1      33.388  27.522  24.349  1.00  0.00     0.117 A 
ATOM     18  C   UNL A   1      32.208  29.328  25.081  1.00  0.00     0.065 A 
ATOM     19  C   UNL A   1      31.521  28.817  23.995  1.00  0.00     0.012 A 
ATOM     20  C   UNL A   1      31.753  30.498  25.751  1.00  0.00     0.028 A 
ATOM     21  C   UNL A   1      30.347  29.503  23.587  1.00  0.00     0.011 A 
ATOM     22  C   UNL A   1      30.642  31.185  25.298  1.00  0.00     0.002 A 
ATOM     23  C   UNL A   1      29.932  30.683  24.229  1.00  0.00     0.001 A 
BRANCH  16  24
ATOM     24  S   UNL A   1      34.215  29.002  26.686  1.00  0.00     0.268 S 
ATOM     25  O   UNL A   1      35.403  28.173  26.515  1.00  0.00    -0.201 OA
ATOM     26  O   UNL A   1      33.158  28.631  27.626  1.00  0.00    -0.201 OA
BRANCH  24  27
ATOM     27  C   UNL A   1      34.867  30.266  27.706  1.00  0.00     0.088 A 
ATOM     28  C   UNL A   1      35.032  33.831  30.190  1.00  0.00     0.044 C 
ATOM     29  C   UNL A   1      35.056  32.607  29.322  1.00  0.00    -0.051 A 
ATOM     30  C   UNL A   1      34.048  32.518  28.387  1.00  0.00     0.005 A 
ATOM     31  C   UNL A   1      35.987  31.542  29.421  1.00  0.00     0.005 A 
ATOM     32  C   UNL A   1      33.962  31.376  27.626  1.00  0.00     0.022 A 
ATOM     33  C   UNL A   1      35.903  30.358  28.615  1.00  0.00     0.022 A 
ENDBRANCH  24  27
ENDBRANCH  16  24
ENDBRANCH  13  15
ENDBRANCH  10  13
ENDBRANCH   8   9
ENDBRANCH   5   8
ENDBRANCH   3   4
BRANCH   3  34
ATOM     34  C   UNL A   1      33.257  21.508  24.280  1.00  0.00     0.074 C 
BRANCH  34  35
ATOM     35  C   UNL A   1      33.268  20.256  25.133  1.00  0.00    -0.020 A 
ATOM     36  C   UNL A   1      33.113  20.100  26.500  1.00  0.00     0.087 A 
ATOM     37  C   UNL A   1      33.329  18.921  24.599  1.00  0.00     0.003 A 
ATOM     38  N   UNL A   1      32.903  18.776  26.776  1.00  0.00    -0.361 N 
ATOM     39  C   UNL A   1      33.093  18.029  25.645  1.00  0.00     0.046 A 
ATOM     40  C   UNL A   1      33.522  18.392  23.308  1.00  0.00     0.010 A 
ATOM     41  H   UNL A   1      32.653  18.415  27.656  1.00  0.00     0.166 HD
ATOM     42  C   UNL A   1      33.045  16.644  25.477  1.00  0.00     0.026 A 
ATOM     43  C   UNL A   1      33.513  17.005  23.125  1.00  0.00     0.001 A 
ATOM     44  C   UNL A   1      33.278  16.146  24.196  1.00  0.00     0.002 A 
ENDBRANCH  34  35
ENDBRANCH   3  34
ENDBRANCH   1   3
BRANCH   1  45
ATOM     45  O   UNL A   1      36.154  23.711  24.389  1.00  0.00    -0.461 OA
BRANCH  45  46
ATOM     46  C   UNL A   1      37.164  22.687  24.361  1.00  0.00     0.274 C 
BRANCH  46  47
ATOM     47  C   UNL A   1      37.662  22.281  25.751  1.00  0.00     0.275 C 
BRANCH  47  48
ATOM     48  O   UNL A   1      38.827  21.413  25.854  1.00  0.00    -0.458 OA
BRANCH  48  49
ATOM     49  C   UNL A   1      40.121  21.733  26.072  1.00  0.00     0.338 C 
ATOM     50  O   UNL A   1      41.042  21.088  25.565  1.00  0.00    -0.246 OA
BRANCH  49  51
ATOM     51  C   UNL A   1      40.436  22.904  26.901  1.00  0.00     0.060 A 
ATOM     52  C   UNL A   1      41.212  22.741  28.068  1.00  0.00     0.016 A 
ATOM     53  C   UNL A   1      40.052  24.166  26.480  1.00  0.00     0.016 A 
ATOM     54  C   UNL A   1      41.705  23.856  28.751  1.00  0.00     0.010 A 
ATOM     55  C   UNL A   1      40.645  25.254  27.063  1.00  0.00     0.010 A 
ATOM     56  C   UNL A   1      41.432  25.115  28.221  1.00  0.00    -0.014 A 
BRANCH  56  57
ATOM     57  C   UNL A   1      41.809  26.380  28.839  1.00  0.00     0.031 A 
ATOM     58  C   UNL A   1      40.834  27.455  29.098  1.00  0.00     0.074 A 
ATOM     59  C   UNL A   1      43.100  26.408  29.243  1.00  0.00     0.049 A 
ATOM     60  N   UNL A   1      41.131  28.706  29.175  1.00  0.00    -0.248 NA
ATOM     61  C   UNL A   1      39.406  27.226  29.275  1.00  0.00     0.031 C 
ATOM     62  C   UNL A   1      43.827  27.327  30.091  1.00  0.00     0.029 A 
ATOM     63  N   UNL A   1      44.101  25.552  28.769  1.00  0.00    -0.354 N 
ATOM     64  C   UNL A   1      40.062  29.343  29.785  1.00  0.00     0.074 A 
ATOM     65  C   UNL A   1      38.962  28.430  29.652  1.00  0.00     0.031 C 
ATOM     66  C   UNL A   1      45.144  27.213  29.820  1.00  0.00     0.029 A 
ATOM     67  C   UNL A   1      45.284  26.287  28.704  1.00  0.00     0.049 A 
ATOM     68  H   UNL A   1      43.990  24.604  28.526  1.00  0.00     0.167 HD
ATOM     69  C   UNL A   1      40.311  30.462  30.531  1.00  0.00     0.037 A 
ATOM     70  C   UNL A   1      45.770  26.577  27.460  1.00  0.00     0.037 A 
ATOM     71  C   UNL A   1      41.728  30.795  30.420  1.00  0.00     0.049 A 
ATOM     72  C   UNL A   1      45.642  28.048  27.165  1.00  0.00     0.074 A 
ATOM     73  C   UNL A   1      42.807  30.498  31.235  1.00  0.00     0.029 A 
ATOM     74  N   UNL A   1      42.248  31.141  29.180  1.00  0.00    -0.354 N 
ATOM     75  N   UNL A   1      44.748  28.830  27.711  1.00  0.00    -0.248 NA
ATOM     76  C   UNL A   1      46.576  28.767  26.308  1.00  0.00     0.031 C 
ATOM     77  C   UNL A   1      43.981  30.572  30.443  1.00  0.00     0.029 A 
ATOM     78  C   UNL A   1      43.611  30.918  29.154  1.00  0.00     0.049 A 
ATOM     79  H   UNL A   1      41.720  31.494  28.427  1.00  0.00     0.167 HD
ATOM     80  C   UNL A   1      45.040  30.131  27.400  1.00  0.00     0.074 A 
ATOM     81  C   UNL A   1      46.175  30.037  26.500  1.00  0.00     0.031 C 
ATOM     82  C   UNL A   1      44.374  31.192  27.948  1.00  0.00     0.037 A 
BRANCH  69  83
ATOM     83  C   UNL A   1      39.415  31.044  31.611  1.00  0.00     0.057 A 
ATOM     84  C   UNL A   1      39.216  30.342  32.823  1.00  0.00     0.134 A 
ATOM     85  C   UNL A   1      38.695  32.247  31.532  1.00  0.00     0.134 A 
ATOM     86  F   UNL A   1      39.885  29.217  33.108  1.00  0.00    -0.206 F 
ATOM     87  C   UNL A   1      38.321  30.753  33.820  1.00  0.00     0.040 A 
ATOM     88  C   UNL A   1      37.776  32.662  32.515  1.00  0.00     0.040 A 
ATOM     89  F   UNL A   1      38.875  33.113  30.530  1.00  0.00    -0.206 F 
ATOM     90  C   UNL A   1      37.578  31.908  33.660  1.00  0.00     0.006 A 
ENDBRANCH  69  83
BRANCH  70  91
ATOM     91  C   UNL A   1      45.498  25.455  26.505  1.00  0.00     0.057 A 
ATOM     92  C   UNL A   1      46.127  24.214  26.754  1.00  0.00     0.134 A 
ATOM     93  C   UNL A   1      44.315  25.420  25.769  1.00  0.00     0.134 A 
ATOM     94  F   UNL A   1      47.273  24.172  27.453  1.00  0.00    -0.206 F 
ATOM     95  C   UNL A   1      45.521  22.991  26.447  1.00  0.00     0.040 A 
ATOM     96  C   UNL A   1      43.711  24.199  25.458  1.00  0.00     0.040 A 
ATOM     97  F   UNL A   1      43.661  26.543  25.439  1.00  0.00    -0.206 F 
ATOM     98  C   UNL A   1      44.276  22.986  25.842  1.00  0.00     0.006 A 
ENDBRANCH  70  91
BRANCH  82  99
ATOM     99  C   UNL A   1      44.464  32.623  27.489  1.00  0.00     0.057 A 
ATOM    100  C   UNL A   1      45.116  33.634  28.205  1.00  0.00     0.134 A 
ATOM    101  C   UNL A   1      44.013  32.996  26.199  1.00  0.00     0.134 A 
ATOM    102  F   UNL A   1      45.726  33.391  29.372  1.00  0.00    -0.206 F 
ATOM    103  C   UNL A   1      45.228  34.940  27.717  1.00  0.00     0.040 A 
ATOM    104  C   UNL A   1      44.192  34.274  25.672  1.00  0.00     0.040 A 
ATOM    105  F   UNL A   1      43.405  32.131  25.375  1.00  0.00    -0.206 F 
ATOM    106  C   UNL A   1      44.776  35.261  26.444  1.00  0.00     0.006 A 
ENDBRANCH  82  99
ENDBRANCH  56  57
ENDBRANCH  49  51
ENDBRANCH  48  49
ENDBRANCH  47  48
ENDBRANCH  46  47
ENDBRANCH  45  46
ENDBRANCH   1  45
TORSDOF 20
ENDMDL
MODEL 3
REMARK VINA RESULT:     -12.7      1.708      2.782
REMARK SMILES Cc1ccc(S(=O)(=O)n2cc(C(=O)C(=O)NCC(=O)N[C@@H](Cc3c[nH]c4ccccc34)C(=O)OCCOC(=O)c3ccc(-c4c5nc(c(-c6c(F)cccc6F)c6ccc([nH]6)c(-c6c(F)cccc6F)c6nc(c(-c7c(F)cccc7F)c7ccc4[nH]7)C=C6)C=C5)cc3)c3ccccc32)cc1
REMARK SMILES IDX 32 1 33 2 21 3 20 4 18 5 19 6 17 8 16 9 14 10 15 11 12 13
REMARK SMILES IDX 13 14 11 15 9 16 10 17 99 18 94 19 98 20 95 21 97 22 96 23
REMARK SMILES IDX 6 24 7 25 8 26 5 27 1 28 2 29 3 30 101 31 4 32 100 33 22 34
REMARK SMILES IDX 23 35 24 36 31 37 25 38 26 39 30 40 27 42 29 43 28 44 34 45
REMARK SMILES IDX 35 46 36 47 37 48 38 49 39 50 40 51 41 52 93 53 42 54 92 55
REMARK SMILES IDX 43 56 44 57 45 58 86 59 46 60 91 61 85 62 87 63 47 64 90 65
REMARK SMILES IDX 84 66 83 67 48 69 74 70 57 71 73 72 58 73 61 74 72 75 88 76
REMARK SMILES IDX 59 77 60 78 71 80 89 81 62 82 49 83 50 84 55 85 51 86 52 87
REMARK SMILES IDX 54 88 56 89 53 90 75 91 76 92 81 93 77 94 78 95 80 96 82 97
REMARK SMILES IDX 79 98 63 99 64 100 69 101 65 102 66 103 68 104 70 105 67 106
REMARK H PARENT 20 7 16 12 25 41 87 68 61 79
REMARK Flexibility Score: inf
ROOT
ATOM      1  C   UNL A   1      36.916  22.323  24.597  1.00  0.00     0.329 C 
ATOM      2  O   UNL A   1      36.900  22.547  23.394  1.00  0.00    -0.250 OA
ENDROOT
BRANCH   1   3
ATOM      3  C   UNL A   1      35.660  21.891  25.350  1.00  0.00     0.196 C 
BRANCH   3   4
ATOM      4  N   UNL A   1      34.831  22.970  25.871  1.00  0.00    -0.341 N 
ATOM      5  C   UNL A   1      33.695  23.525  25.353  1.00  0.00     0.240 C 
ATOM      6  O   UNL A   1      33.114  24.358  26.054  1.00  0.00    -0.273 OA
ATOM      7  H   UNL A   1      35.135  23.358  26.724  1.00  0.00     0.164 HD
BRANCH   5   8
ATOM      8  C   UNL A   1      33.074  23.037  24.015  1.00  0.00     0.216 C 
BRANCH   8   9
ATOM      9  N   UNL A   1      33.487  23.744  22.795  1.00  0.00    -0.340 N 
ATOM     10  C   UNL A   1      32.952  24.912  22.247  1.00  0.00     0.292 C 
ATOM     11  O   UNL A   1      33.418  25.381  21.215  1.00  0.00    -0.265 OA
ATOM     12  H   UNL A   1      34.238  23.344  22.299  1.00  0.00     0.164 HD
BRANCH  10  13
ATOM     13  C   UNL A   1      31.784  25.628  22.944  1.00  0.00     0.252 C 
ATOM     14  O   UNL A   1      30.672  25.144  22.724  1.00  0.00    -0.283 OA
BRANCH  13  15
ATOM     15  C   UNL A   1      31.918  26.854  23.779  1.00  0.00     0.054 A 
ATOM     16  N   UNL A   1      32.466  28.490  25.253  1.00  0.00    -0.240 N 
ATOM     17  C   UNL A   1      32.826  27.227  24.802  1.00  0.00     0.117 A 
ATOM     18  C   UNL A   1      31.337  28.929  24.536  1.00  0.00     0.065 A 
ATOM     19  C   UNL A   1      30.988  27.948  23.625  1.00  0.00     0.012 A 
ATOM     20  C   UNL A   1      30.621  30.158  24.599  1.00  0.00     0.028 A 
ATOM     21  C   UNL A   1      29.889  28.219  22.767  1.00  0.00     0.011 A 
ATOM     22  C   UNL A   1      29.594  30.424  23.713  1.00  0.00     0.002 A 
ATOM     23  C   UNL A   1      29.219  29.453  22.809  1.00  0.00     0.001 A 
BRANCH  16  24
ATOM     24  S   UNL A   1      32.911  29.567  26.490  1.00  0.00     0.268 S 
ATOM     25  O   UNL A   1      34.336  29.264  26.565  1.00  0.00    -0.201 OA
ATOM     26  O   UNL A   1      31.969  29.036  27.475  1.00  0.00    -0.201 OA
BRANCH  24  27
ATOM     27  C   UNL A   1      32.907  31.186  27.157  1.00  0.00     0.088 A 
ATOM     28  C   UNL A   1      34.392  34.965  28.711  1.00  0.00     0.044 C 
ATOM     29  C   UNL A   1      33.808  33.676  28.211  1.00  0.00    -0.051 A 
ATOM     30  C   UNL A   1      34.626  32.572  28.312  1.00  0.00     0.005 A 
ATOM     31  C   UNL A   1      32.529  33.524  27.617  1.00  0.00     0.005 A 
ATOM     32  C   UNL A   1      34.182  31.381  27.785  1.00  0.00     0.022 A 
ATOM     33  C   UNL A   1      32.064  32.277  27.082  1.00  0.00     0.022 A 
ENDBRANCH  24  27
ENDBRANCH  16  24
ENDBRANCH  13  15
ENDBRANCH  10  13
ENDBRANCH   8   9
ENDBRANCH   5   8
ENDBRANCH   3   4
BRANCH   3  34
ATOM     34  C   UNL A   1      34.847  20.854  24.553  1.00  0.00     0.074 C 
BRANCH  34  35
ATOM     35  C   UNL A   1      34.067  19.778  25.281  1.00  0.00    -0.020 A 
ATOM     36  C   UNL A   1      33.265  19.858  26.407  1.00  0.00     0.087 A 
ATOM     37  C   UNL A   1      33.931  18.425  24.809  1.00  0.00     0.003 A 
ATOM     38  N   UNL A   1      32.541  18.702  26.521  1.00  0.00    -0.361 N 
ATOM     39  C   UNL A   1      32.973  17.788  25.598  1.00  0.00     0.046 A 
ATOM     40  C   UNL A   1      34.510  17.696  23.751  1.00  0.00     0.010 A 
ATOM     41  H   UNL A   1      31.816  18.550  27.169  1.00  0.00     0.166 HD
ATOM     42  C   UNL A   1      32.566  16.469  25.396  1.00  0.00     0.026 A 
ATOM     43  C   UNL A   1      34.141  16.360  23.555  1.00  0.00     0.001 A 
ATOM     44  C   UNL A   1      33.183  15.759  24.366  1.00  0.00     0.002 A 
ENDBRANCH  34  35
ENDBRANCH   3  34
ENDBRANCH   1   3
BRANCH   1  45
ATOM     45  O   UNL A   1      38.060  22.374  25.331  1.00  0.00    -0.461 OA
BRANCH  45  46
ATOM     46  C   UNL A   1      38.739  21.108  25.404  1.00  0.00     0.274 C 
BRANCH  46  47
ATOM     47  C   UNL A   1      39.880  21.083  26.425  1.00  0.00     0.275 C 
BRANCH  47  48
ATOM     48  O   UNL A   1      41.254  21.051  25.942  1.00  0.00    -0.458 OA
BRANCH  48  49
ATOM     49  C   UNL A   1      42.134  22.064  25.785  1.00  0.00     0.338 C 
ATOM     50  O   UNL A   1      43.047  22.005  24.958  1.00  0.00    -0.246 OA
BRANCH  49  51
ATOM     51  C   UNL A   1      41.973  23.281  26.591  1.00  0.00     0.060 A 
ATOM     52  C   UNL A   1      41.925  23.182  27.998  1.00  0.00     0.016 A 
ATOM     53  C   UNL A   1      41.965  24.518  25.970  1.00  0.00     0.016 A 
ATOM     54  C   UNL A   1      41.990  24.331  28.790  1.00  0.00     0.010 A 
ATOM     55  C   UNL A   1      42.169  25.633  26.740  1.00  0.00     0.010 A 
ATOM     56  C   UNL A   1      42.136  25.557  28.145  1.00  0.00    -0.014 A 
BRANCH  56  57
ATOM     57  C   UNL A   1      42.153  26.853  28.811  1.00  0.00     0.031 A 
ATOM     58  C   UNL A   1      41.004  27.778  28.771  1.00  0.00     0.074 A 
ATOM     59  C   UNL A   1      43.268  27.056  29.548  1.00  0.00     0.049 A 
ATOM     60  N   UNL A   1      41.093  29.056  28.894  1.00  0.00    -0.248 NA
ATOM     61  C   UNL A   1      39.628  27.348  28.560  1.00  0.00     0.031 C 
ATOM     62  C   UNL A   1      43.603  28.056  30.539  1.00  0.00     0.029 A 
ATOM     63  N   UNL A   1      44.469  26.356  29.383  1.00  0.00    -0.354 N 
ATOM     64  C   UNL A   1      39.820  29.528  29.177  1.00  0.00     0.074 A 
ATOM     65  C   UNL A   1      38.936  28.472  28.774  1.00  0.00     0.031 C 
ATOM     66  C   UNL A   1      44.947  28.131  30.636  1.00  0.00     0.029 A 
ATOM     67  C   UNL A   1      45.511  27.250  29.624  1.00  0.00     0.049 A 
ATOM     68  H   UNL A   1      44.561  25.405  29.143  1.00  0.00     0.167 HD
ATOM     69  C   UNL A   1      39.700  30.660  29.935  1.00  0.00     0.037 A 
ATOM     70  C   UNL A   1      46.272  27.624  28.550  1.00  0.00     0.037 A 
ATOM     71  C   UNL A   1      41.033  31.190  30.203  1.00  0.00     0.049 A 
ATOM     72  C   UNL A   1      46.025  29.066  28.196  1.00  0.00     0.074 A 
ATOM     73  C   UNL A   1      41.881  31.035  31.287  1.00  0.00     0.029 A 
ATOM     74  N   UNL A   1      41.817  31.623  29.142  1.00  0.00    -0.354 N 
ATOM     75  N   UNL A   1      44.918  29.707  28.461  1.00  0.00    -0.248 NA
ATOM     76  C   UNL A   1      47.047  29.922  27.606  1.00  0.00     0.031 C 
ATOM     77  C   UNL A   1      43.204  31.285  30.840  1.00  0.00     0.029 A 
ATOM     78  C   UNL A   1      43.153  31.595  29.492  1.00  0.00     0.049 A 
ATOM     79  H   UNL A   1      41.470  31.909  28.266  1.00  0.00     0.167 HD
ATOM     80  C   UNL A   1      45.099  31.041  28.209  1.00  0.00     0.074 A 
ATOM     81  C   UNL A   1      46.438  31.120  27.652  1.00  0.00     0.031 C 
ATOM     82  C   UNL A   1      44.169  31.990  28.531  1.00  0.00     0.037 A 
BRANCH  69  83
ATOM     83  C   UNL A   1      38.473  31.095  30.717  1.00  0.00     0.057 A 
ATOM     84  C   UNL A   1      37.878  30.215  31.652  1.00  0.00     0.134 A 
ATOM     85  C   UNL A   1      37.802  32.323  30.594  1.00  0.00     0.134 A 
ATOM     86  F   UNL A   1      38.428  29.033  31.961  1.00  0.00    -0.206 F 
ATOM     87  C   UNL A   1      36.684  30.494  32.330  1.00  0.00     0.040 A 
ATOM     88  C   UNL A   1      36.591  32.610  31.252  1.00  0.00     0.040 A 
ATOM     89  F   UNL A   1      38.303  33.332  29.875  1.00  0.00    -0.206 F 
ATOM     90  C   UNL A   1      36.021  31.689  32.116  1.00  0.00     0.006 A 
ENDBRANCH  69  83
BRANCH  70  91
ATOM     91  C   UNL A   1      46.428  26.489  27.585  1.00  0.00     0.057 A 
ATOM     92  C   UNL A   1      45.807  26.611  26.321  1.00  0.00     0.134 A 
ATOM     93  C   UNL A   1      47.531  25.640  27.659  1.00  0.00     0.134 A 
ATOM     94  F   UNL A   1      44.736  27.409  26.176  1.00  0.00    -0.206 F 
ATOM     95  C   UNL A   1      46.359  26.064  25.158  1.00  0.00     0.040 A 
ATOM     96  C   UNL A   1      48.080  25.090  26.499  1.00  0.00     0.040 A 
ATOM     97  F   UNL A   1      48.168  25.417  28.818  1.00  0.00    -0.206 F 
ATOM     98  C   UNL A   1      47.537  25.342  25.242  1.00  0.00     0.006 A 
ENDBRANCH  70  91
BRANCH  82  99
ATOM     99  C   UNL A   1      44.181  33.426  28.079  1.00  0.00     0.057 A 
ATOM    100  C   UNL A   1      43.965  33.831  26.757  1.00  0.00     0.134 A 
ATOM    101  C   UNL A   1      44.261  34.478  29.024  1.00  0.00     0.134 A 
ATOM    102  F   UNL A   1      43.720  32.949  25.779  1.00  0.00    -0.206 F 
ATOM    103  C   UNL A   1      43.926  35.180  26.387  1.00  0.00     0.040 A 
ATOM    104  C   UNL A   1      44.142  35.822  28.675  1.00  0.00     0.040 A 
ATOM    105  F   UNL A   1      44.426  34.252  30.335  1.00  0.00    -0.206 F 
ATOM    106  C   UNL A   1      44.003  36.179  27.347  1.00  0.00     0.006 A 
ENDBRANCH  82  99
ENDBRANCH  56  57
ENDBRANCH  49  51
ENDBRANCH  48  49
ENDBRANCH  47  48
ENDBRANCH  46  47
ENDBRANCH  45  46
ENDBRANCH   1  45
TORSDOF 20
ENDMDL
