MODEL 1
REMARK VINA RESULT:     -15.3      0.000      0.000
REMARK SMILES Cc1ccccc1NC(=S)NN1C(=O)CS[C@H]1c1ccccc1C(=O)OCCOC(=O)c1ccc(-c2c3nc(c(-c4c(F)cccc4F)c4ccc([nH]4)c(-c4c(F)cccc4F)c4nc(c(-c5c(F)cccc5F)c5ccc2[nH]5)C=C4)C=C3)cc1
REMARK SMILES IDX 26 1 24 2 25 3 23 4 18 5 19 6 20 7 22 8 21 9 17 10 12 11
REMARK SMILES IDX 13 12 14 13 15 14 16 15 11 16 9 18 10 19 8 20 7 22 1 23 2 24
REMARK SMILES IDX 3 25 4 26 6 27 5 28 27 29 28 30 29 31 30 32 31 33 32 34
REMARK SMILES IDX 33 35 85 36 34 37 84 38 35 39 36 40 37 41 78 42 38 43 83 44
REMARK SMILES IDX 77 45 79 46 39 47 82 48 76 49 75 50 40 52 66 53 49 54 65 55
REMARK SMILES IDX 50 56 53 57 64 58 80 59 51 60 52 61 63 63 81 64 54 65 41 66
REMARK SMILES IDX 42 67 47 68 43 69 44 70 46 71 48 72 45 73 67 74 68 75 73 76
REMARK SMILES IDX 69 77 70 78 72 79 74 80 71 81 55 82 56 83 61 84 57 85 58 86
REMARK SMILES IDX 60 87 62 88 59 89
REMARK H PARENT 11 17 8 21 79 51 53 62
REMARK Flexibility Score: inf
ROOT
ATOM      1  O   UNL A   1      33.090  28.197  27.256  1.00  0.00    -0.458 OA
ENDROOT
BRANCH   1   2
ATOM      2  C   UNL A   1      32.681  26.570  26.700  1.00  0.00     0.338 C 
ATOM      3  O   UNL A   1      31.480  26.595  27.064  1.00  0.00    -0.246 OA
BRANCH   2   4
ATOM      4  C   UNL A   1      33.888  25.319  25.378  1.00  0.00     0.066 A 
ATOM      5  C   UNL A   1      33.305  24.776  23.867  1.00  0.00     0.001 A 
ATOM      6  C   UNL A   1      34.041  24.008  22.933  1.00  0.00     0.008 A 
ATOM      7  C   UNL A   1      35.261  23.483  23.290  1.00  0.00     0.000 A 
ATOM      8  C   UNL A   1      35.158  24.562  25.527  1.00  0.00     0.016 A 
ATOM      9  C   UNL A   1      35.761  23.690  24.569  1.00  0.00     0.001 A 
BRANCH   5  10
ATOM     10  C   UNL A   1      31.596  24.997  23.322  1.00  0.00     0.197 C 
ATOM     11  N   UNL A   1      30.372  25.597  24.325  1.00  0.00    -0.236 N 
ATOM     12  C   UNL A   1      30.358  27.201  23.935  1.00  0.00     0.252 C 
ATOM     13  O   UNL A   1      30.533  28.195  24.653  1.00  0.00    -0.272 OA
ATOM     14  C   UNL A   1      30.551  27.453  22.493  1.00  0.00     0.174 C 
ATOM     15  S   UNL A   1      31.708  26.269  21.881  1.00  0.00    -0.120 SA
BRANCH  11  16
ATOM     16  N   UNL A   1      29.875  24.796  26.085  1.00  0.00    -0.270 N 
ATOM     17  H   UNL A   1      29.347  25.418  26.635  1.00  0.00     0.191 HD
BRANCH  16  18
ATOM     18  C   UNL A   1      30.134  23.295  26.885  1.00  0.00     0.189 C 
ATOM     19  S   UNL A   1      28.770  22.407  27.334  1.00  0.00    -0.039 S 
BRANCH  18  20
ATOM     20  N   UNL A   1      31.535  22.479  26.786  1.00  0.00    -0.331 N 
ATOM     21  H   UNL A   1      31.971  22.449  27.668  1.00  0.00     0.169 HD
BRANCH  20  22
ATOM     22  C   UNL A   1      32.412  21.721  25.723  1.00  0.00     0.043 A 
ATOM     23  C   UNL A   1      34.597  21.494  27.073  1.00  0.00     0.046 C 
ATOM     24  C   UNL A   1      33.600  21.030  26.054  1.00  0.00    -0.028 A 
ATOM     25  C   UNL A   1      34.032  19.911  25.263  1.00  0.00     0.005 A 
ATOM     26  C   UNL A   1      33.338  19.488  24.139  1.00  0.00     0.000 A 
ATOM     27  C   UNL A   1      32.038  21.495  24.384  1.00  0.00     0.026 A 
ATOM     28  C   UNL A   1      32.363  20.328  23.663  1.00  0.00     0.002 A 
ENDBRANCH  20  22
ENDBRANCH  18  20
ENDBRANCH  16  18
ENDBRANCH  11  16
ENDBRANCH   5  10
ENDBRANCH   2   4
ENDBRANCH   1   2
BRANCH   1  29
ATOM     29  C   UNL A   1      34.115  29.703  26.798  1.00  0.00     0.275 C 
BRANCH  29  30
ATOM     30  C   UNL A   1      33.756  31.601  27.587  1.00  0.00     0.275 C 
BRANCH  30  31
ATOM     31  O   UNL A   1      35.041  32.362  28.694  1.00  0.00    -0.458 OA
BRANCH  31  32
ATOM     32  C   UNL A   1      36.510  32.095  28.927  1.00  0.00     0.338 C 
ATOM     33  O   UNL A   1      37.306  33.031  28.987  1.00  0.00    -0.246 OA
BRANCH  32  34
ATOM     34  C   UNL A   1      37.156  30.557  29.046  1.00  0.00     0.060 A 
ATOM     35  C   UNL A   1      37.192  29.637  30.604  1.00  0.00     0.016 A 
ATOM     36  C   UNL A   1      38.234  29.724  27.711  1.00  0.00     0.016 A 
ATOM     37  C   UNL A   1      38.328  28.190  30.710  1.00  0.00     0.010 A 
ATOM     38  C   UNL A   1      39.149  28.329  27.899  1.00  0.00     0.010 A 
ATOM     39  C   UNL A   1      39.309  27.593  29.344  1.00  0.00    -0.014 A 
BRANCH  39  40
ATOM     40  C   UNL A   1      40.843  27.436  29.158  1.00  0.00     0.031 A 
ATOM     41  C   UNL A   1      41.303  26.001  28.579  1.00  0.00     0.074 A 
ATOM     42  C   UNL A   1      41.549  28.611  29.065  1.00  0.00     0.049 A 
ATOM     43  N   UNL A   1      42.245  25.266  29.076  1.00  0.00    -0.248 NA
ATOM     44  C   UNL A   1      40.639  25.141  27.491  1.00  0.00     0.031 C 
ATOM     45  C   UNL A   1      42.889  28.987  28.595  1.00  0.00     0.029 A 
ATOM     46  N   UNL A   1      41.108  29.835  29.583  1.00  0.00    -0.354 N 
ATOM     47  C   UNL A   1      42.582  24.365  28.058  1.00  0.00     0.074 A 
ATOM     48  C   UNL A   1      41.378  24.045  27.404  1.00  0.00     0.031 C 
ATOM     49  C   UNL A   1      43.277  30.130  29.217  1.00  0.00     0.029 A 
ATOM     50  C   UNL A   1      42.179  30.595  30.051  1.00  0.00     0.049 A 
ATOM     51  H   UNL A   1      40.166  30.120  29.614  1.00  0.00     0.167 HD
ATOM     52  C   UNL A   1      43.846  24.366  27.535  1.00  0.00     0.037 A 
ATOM     53  C   UNL A   1      42.173  30.809  31.396  1.00  0.00     0.037 A 
ATOM     54  C   UNL A   1      44.639  25.360  28.265  1.00  0.00     0.049 A 
ATOM     55  C   UNL A   1      42.956  29.668  32.029  1.00  0.00     0.074 A 
ATOM     56  C   UNL A   1      45.275  26.542  27.946  1.00  0.00     0.029 A 
ATOM     57  N   UNL A   1      44.534  25.356  29.647  1.00  0.00    -0.354 N 
ATOM     58  N   UNL A   1      43.302  28.578  31.386  1.00  0.00    -0.248 NA
ATOM     59  C   UNL A   1      43.550  29.723  33.356  1.00  0.00     0.031 C 
ATOM     60  C   UNL A   1      45.460  27.273  29.171  1.00  0.00     0.029 A 
ATOM     61  C   UNL A   1      44.917  26.543  30.219  1.00  0.00     0.049 A 
ATOM     62  H   UNL A   1      44.217  24.582  30.165  1.00  0.00     0.167 HD
ATOM     63  C   UNL A   1      44.172  27.839  32.126  1.00  0.00     0.074 A 
ATOM     64  C   UNL A   1      44.287  28.597  33.358  1.00  0.00     0.031 C 
ATOM     65  C   UNL A   1      44.766  26.691  31.670  1.00  0.00     0.037 A 
BRANCH  52  66
ATOM     66  C   UNL A   1      44.335  23.648  26.276  1.00  0.00     0.057 A 
ATOM     67  C   UNL A   1      45.450  22.797  26.396  1.00  0.00     0.134 A 
ATOM     68  C   UNL A   1      43.802  23.688  24.966  1.00  0.00     0.134 A 
ATOM     69  F   UNL A   1      46.075  22.633  27.570  1.00  0.00    -0.206 F 
ATOM     70  C   UNL A   1      45.976  22.048  25.329  1.00  0.00     0.040 A 
ATOM     71  C   UNL A   1      44.301  22.920  23.895  1.00  0.00     0.040 A 
ATOM     72  F   UNL A   1      42.787  24.478  24.606  1.00  0.00    -0.206 F 
ATOM     73  C   UNL A   1      45.394  22.094  24.075  1.00  0.00     0.006 A 
ENDBRANCH  52  66
BRANCH  53  74
ATOM     74  C   UNL A   1      40.849  31.433  31.790  1.00  0.00     0.057 A 
ATOM     75  C   UNL A   1      40.084  30.721  32.751  1.00  0.00     0.134 A 
ATOM     76  C   UNL A   1      40.514  32.780  31.646  1.00  0.00     0.134 A 
ATOM     77  F   UNL A   1      40.278  29.401  32.911  1.00  0.00    -0.206 F 
ATOM     78  C   UNL A   1      39.218  31.347  33.658  1.00  0.00     0.040 A 
ATOM     79  C   UNL A   1      39.572  33.405  32.501  1.00  0.00     0.040 A 
ATOM     80  F   UNL A   1      41.207  33.571  30.814  1.00  0.00    -0.206 F 
ATOM     81  C   UNL A   1      38.988  32.709  33.559  1.00  0.00     0.006 A 
ENDBRANCH  53  74
BRANCH  65  82
ATOM     82  C   UNL A   1      45.314  25.601  32.581  1.00  0.00     0.057 A 
ATOM     83  C   UNL A   1      44.654  24.393  32.838  1.00  0.00     0.134 A 
ATOM     84  C   UNL A   1      46.613  25.676  33.147  1.00  0.00     0.134 A 
ATOM     85  F   UNL A   1      43.522  24.048  32.210  1.00  0.00    -0.206 F 
ATOM     86  C   UNL A   1      45.154  23.430  33.720  1.00  0.00     0.040 A 
ATOM     87  C   UNL A   1      47.174  24.666  33.929  1.00  0.00     0.040 A 
ATOM     88  F   UNL A   1      47.436  26.716  32.966  1.00  0.00    -0.206 F 
ATOM     89  C   UNL A   1      46.420  23.563  34.269  1.00  0.00     0.006 A 
ENDBRANCH  65  82
ENDBRANCH  39  40
ENDBRANCH  32  34
ENDBRANCH  31  32
ENDBRANCH  30  31
ENDBRANCH  29  30
ENDBRANCH   1  29
TORSDOF 16
ENDMDL
MODEL 2
REMARK VINA RESULT:     -15.3      1.434      2.148
REMARK SMILES Cc1ccccc1NC(=S)NN1C(=O)CS[C@H]1c1ccccc1C(=O)OCCOC(=O)c1ccc(-c2c3nc(c(-c4c(F)cccc4F)c4ccc([nH]4)c(-c4c(F)cccc4F)c4nc(c(-c5c(F)cccc5F)c5ccc2[nH]5)C=C4)C=C3)cc1
REMARK SMILES IDX 26 1 24 2 25 3 23 4 18 5 19 6 20 7 22 8 21 9 17 10 12 11
REMARK SMILES IDX 13 12 14 13 15 14 16 15 11 16 9 18 10 19 8 20 7 22 1 23 2 24
REMARK SMILES IDX 3 25 4 26 6 27 5 28 27 29 28 30 29 31 30 32 31 33 32 34
REMARK SMILES IDX 33 35 85 36 34 37 84 38 35 39 36 40 37 41 78 42 38 43 83 44
REMARK SMILES IDX 77 45 79 46 39 47 82 48 76 49 75 50 40 52 66 53 49 54 65 55
REMARK SMILES IDX 50 56 53 57 64 58 80 59 51 60 52 61 63 63 81 64 54 65 41 66
REMARK SMILES IDX 42 67 47 68 43 69 44 70 46 71 48 72 45 73 67 74 68 75 73 76
REMARK SMILES IDX 69 77 70 78 72 79 74 80 71 81 55 82 56 83 61 84 57 85 58 86
REMARK SMILES IDX 60 87 62 88 59 89
REMARK H PARENT 11 17 8 21 79 51 53 62
REMARK Flexibility Score: inf
ROOT
ATOM      1  O   UNL A   1      33.063  28.252  27.046  1.00  0.00    -0.458 OA
ENDROOT
BRANCH   1   2
ATOM      2  C   UNL A   1      32.718  26.562  26.664  1.00  0.00     0.338 C 
ATOM      3  O   UNL A   1      31.558  26.545  27.144  1.00  0.00    -0.246 OA
BRANCH   2   4
ATOM      4  C   UNL A   1      33.879  25.279  25.332  1.00  0.00     0.066 A 
ATOM      5  C   UNL A   1      33.269  24.754  23.825  1.00  0.00     0.001 A 
ATOM      6  C   UNL A   1      33.976  23.966  22.885  1.00  0.00     0.008 A 
ATOM      7  C   UNL A   1      35.183  23.406  23.232  1.00  0.00     0.000 A 
ATOM      8  C   UNL A   1      35.127  24.484  25.471  1.00  0.00     0.016 A 
ATOM      9  C   UNL A   1      35.698  23.597  24.507  1.00  0.00     0.001 A 
BRANCH   5  10
ATOM     10  C   UNL A   1      31.563  25.025  23.293  1.00  0.00     0.197 C 
ATOM     11  N   UNL A   1      30.359  25.637  24.313  1.00  0.00    -0.236 N 
ATOM     12  C   UNL A   1      30.381  27.247  23.949  1.00  0.00     0.252 C 
ATOM     13  O   UNL A   1      30.583  28.225  24.682  1.00  0.00    -0.272 OA
ATOM     14  C   UNL A   1      30.573  27.518  22.510  1.00  0.00     0.174 C 
ATOM     15  S   UNL A   1      31.698  26.318  21.872  1.00  0.00    -0.120 SA
BRANCH  11  16
ATOM     16  N   UNL A   1      29.851  24.819  26.061  1.00  0.00    -0.270 N 
ATOM     17  H   UNL A   1      29.286  25.420  26.597  1.00  0.00     0.191 HD
BRANCH  16  18
ATOM     18  C   UNL A   1      30.150  23.331  26.871  1.00  0.00     0.189 C 
ATOM     19  S   UNL A   1      28.810  22.411  27.330  1.00  0.00    -0.039 S 
BRANCH  18  20
ATOM     20  N   UNL A   1      31.571  22.548  26.772  1.00  0.00    -0.331 N 
ATOM     21  H   UNL A   1      32.044  22.598  27.634  1.00  0.00     0.169 HD
BRANCH  20  22
ATOM     22  C   UNL A   1      32.427  21.738  25.732  1.00  0.00     0.043 A 
ATOM     23  C   UNL A   1      34.600  21.478  27.094  1.00  0.00     0.046 C 
ATOM     24  C   UNL A   1      33.593  21.019  26.084  1.00  0.00    -0.028 A 
ATOM     25  C   UNL A   1      33.992  19.867  25.323  1.00  0.00     0.005 A 
ATOM     26  C   UNL A   1      33.288  19.437  24.208  1.00  0.00     0.000 A 
ATOM     27  C   UNL A   1      32.050  21.488  24.398  1.00  0.00     0.026 A 
ATOM     28  C   UNL A   1      32.341  20.295  23.708  1.00  0.00     0.002 A 
ENDBRANCH  20  22
ENDBRANCH  18  20
ENDBRANCH  16  18
ENDBRANCH  11  16
ENDBRANCH   5  10
ENDBRANCH   2   4
ENDBRANCH   1   2
BRANCH   1  29
ATOM     29  C   UNL A   1      33.324  29.928  26.237  1.00  0.00     0.275 C 
BRANCH  29  30
ATOM     30  C   UNL A   1      32.617  31.708  27.063  1.00  0.00     0.275 C 
BRANCH  30  31
ATOM     31  O   UNL A   1      33.809  32.799  27.983  1.00  0.00    -0.458 OA
BRANCH  31  32
ATOM     32  C   UNL A   1      35.287  32.710  28.284  1.00  0.00     0.338 C 
ATOM     33  O   UNL A   1      35.987  33.720  28.241  1.00  0.00    -0.246 OA
BRANCH  32  34
ATOM     34  C   UNL A   1      36.071  31.270  28.617  1.00  0.00     0.060 A 
ATOM     35  C   UNL A   1      35.920  30.430  30.212  1.00  0.00     0.016 A 
ATOM     36  C   UNL A   1      37.468  30.523  27.556  1.00  0.00     0.016 A 
ATOM     37  C   UNL A   1      37.174  29.141  30.616  1.00  0.00     0.010 A 
ATOM     38  C   UNL A   1      38.485  29.261  27.996  1.00  0.00     0.010 A 
ATOM     39  C   UNL A   1      38.455  28.613  29.491  1.00  0.00    -0.014 A 
BRANCH  39  40
ATOM     40  C   UNL A   1      40.005  28.641  29.595  1.00  0.00     0.031 A 
ATOM     41  C   UNL A   1      40.731  27.276  29.130  1.00  0.00     0.074 A 
ATOM     42  C   UNL A   1      40.572  29.892  29.620  1.00  0.00     0.049 A 
ATOM     43  N   UNL A   1      41.643  26.653  29.802  1.00  0.00    -0.248 NA
ATOM     44  C   UNL A   1      40.387  26.354  27.948  1.00  0.00     0.031 C 
ATOM     45  C   UNL A   1      41.922  30.428  29.402  1.00  0.00     0.029 A 
ATOM     46  N   UNL A   1      39.901  31.050  30.032  1.00  0.00    -0.354 N 
ATOM     47  C   UNL A   1      42.269  25.808  28.876  1.00  0.00     0.074 A 
ATOM     48  C   UNL A   1      41.254  25.354  28.014  1.00  0.00     0.031 C 
ATOM     49  C   UNL A   1      42.050  31.603  30.072  1.00  0.00     0.029 A 
ATOM     50  C   UNL A   1      40.769  31.927  30.681  1.00  0.00     0.049 A 
ATOM     51  H   UNL A   1      38.943  31.221  29.883  1.00  0.00     0.167 HD
ATOM     52  C   UNL A   1      43.599  25.964  28.598  1.00  0.00     0.037 A 
ATOM     53  C   UNL A   1      40.487  32.126  31.999  1.00  0.00     0.037 A 
ATOM     54  C   UNL A   1      44.119  27.038  29.450  1.00  0.00     0.049 A 
ATOM     55  C   UNL A   1      41.268  31.079  32.780  1.00  0.00     0.074 A 
ATOM     56  C   UNL A   1      44.658  28.290  29.239  1.00  0.00     0.029 A 
ATOM     57  N   UNL A   1      43.759  27.008  30.788  1.00  0.00    -0.354 N 
ATOM     58  N   UNL A   1      41.854  30.044  32.227  1.00  0.00    -0.248 NA
ATOM     59  C   UNL A   1      41.594  31.192  34.194  1.00  0.00     0.031 C 
ATOM     60  C   UNL A   1      44.525  29.025  30.469  1.00  0.00     0.029 A 
ATOM     61  C   UNL A   1      43.886  28.226  31.406  1.00  0.00     0.049 A 
ATOM     62  H   UNL A   1      43.445  26.197  31.248  1.00  0.00     0.167 HD
ATOM     63  C   UNL A   1      42.652  29.406  33.125  1.00  0.00     0.074 A 
ATOM     64  C   UNL A   1      42.445  30.161  34.348  1.00  0.00     0.031 C 
ATOM     65  C   UNL A   1      43.452  28.341  32.802  1.00  0.00     0.037 A 
BRANCH  52  66
ATOM     66  C   UNL A   1      44.394  25.321  27.461  1.00  0.00     0.057 A 
ATOM     67  C   UNL A   1      44.456  26.007  26.232  1.00  0.00     0.134 A 
ATOM     68  C   UNL A   1      45.128  24.111  27.462  1.00  0.00     0.134 A 
ATOM     69  F   UNL A   1      43.825  27.176  26.058  1.00  0.00    -0.206 F 
ATOM     70  C   UNL A   1      45.183  25.548  25.121  1.00  0.00     0.040 A 
ATOM     71  C   UNL A   1      45.886  23.655  26.364  1.00  0.00     0.040 A 
ATOM     72  F   UNL A   1      45.156  23.265  28.495  1.00  0.00    -0.206 F 
ATOM     73  C   UNL A   1      45.916  24.376  25.186  1.00  0.00     0.006 A 
ENDBRANCH  52  66
BRANCH  53  74
ATOM     74  C   UNL A   1      39.048  32.584  32.132  1.00  0.00     0.057 A 
ATOM     75  C   UNL A   1      38.206  31.774  32.937  1.00  0.00     0.134 A 
ATOM     76  C   UNL A   1      38.591  33.886  31.918  1.00  0.00     0.134 A 
ATOM     77  F   UNL A   1      38.520  30.484  33.139  1.00  0.00    -0.206 F 
ATOM     78  C   UNL A   1      37.117  32.281  33.660  1.00  0.00     0.040 A 
ATOM     79  C   UNL A   1      37.438  34.383  32.575  1.00  0.00     0.040 A 
ATOM     80  F   UNL A   1      39.330  34.765  31.225  1.00  0.00    -0.206 F 
ATOM     81  C   UNL A   1      36.751  33.608  33.509  1.00  0.00     0.006 A 
ENDBRANCH  53  74
BRANCH  65  82
ATOM     82  C   UNL A   1      43.945  27.315  33.813  1.00  0.00     0.057 A 
ATOM     83  C   UNL A   1      45.291  27.149  34.163  1.00  0.00     0.134 A 
ATOM     84  C   UNL A   1      43.051  26.526  34.582  1.00  0.00     0.134 A 
ATOM     85  F   UNL A   1      46.255  27.961  33.710  1.00  0.00    -0.206 F 
ATOM     86  C   UNL A   1      45.724  26.164  35.056  1.00  0.00     0.040 A 
ATOM     87  C   UNL A   1      43.464  25.627  35.565  1.00  0.00     0.040 A 
ATOM     88  F   UNL A   1      41.720  26.585  34.451  1.00  0.00    -0.206 F 
ATOM     89  C   UNL A   1      44.810  25.399  35.764  1.00  0.00     0.006 A 
ENDBRANCH  65  82
ENDBRANCH  39  40
ENDBRANCH  32  34
ENDBRANCH  31  32
ENDBRANCH  30  31
ENDBRANCH  29  30
ENDBRANCH   1  29
TORSDOF 16
ENDMDL
MODEL 3
REMARK VINA RESULT:     -14.6      2.660      3.963
REMARK SMILES Cc1ccccc1NC(=S)NN1C(=O)CS[C@H]1c1ccccc1C(=O)OCCOC(=O)c1ccc(-c2c3nc(c(-c4c(F)cccc4F)c4ccc([nH]4)c(-c4c(F)cccc4F)c4nc(c(-c5c(F)cccc5F)c5ccc2[nH]5)C=C4)C=C3)cc1
REMARK SMILES IDX 26 1 24 2 25 3 23 4 18 5 19 6 20 7 22 8 21 9 17 10 12 11
REMARK SMILES IDX 13 12 14 13 15 14 16 15 11 16 9 18 10 19 8 20 7 22 1 23 2 24
REMARK SMILES IDX 3 25 4 26 6 27 5 28 27 29 28 30 29 31 30 32 31 33 32 34
REMARK SMILES IDX 33 35 85 36 34 37 84 38 35 39 36 40 37 41 78 42 38 43 83 44
REMARK SMILES IDX 77 45 79 46 39 47 82 48 76 49 75 50 40 52 66 53 49 54 65 55
REMARK SMILES IDX 50 56 53 57 64 58 80 59 51 60 52 61 63 63 81 64 54 65 41 66
REMARK SMILES IDX 42 67 47 68 43 69 44 70 46 71 48 72 45 73 67 74 68 75 73 76
REMARK SMILES IDX 69 77 70 78 72 79 74 80 71 81 55 82 56 83 61 84 57 85 58 86
REMARK SMILES IDX 60 87 62 88 59 89
REMARK H PARENT 11 17 8 21 79 51 53 62
REMARK Flexibility Score: inf
ROOT
ATOM      1  O   UNL A   1      31.579  29.981  25.387  1.00  0.00    -0.458 OA
ENDROOT
BRANCH   1   2
ATOM      2  C   UNL A   1      31.094  28.514  24.529  1.00  0.00     0.338 C 
ATOM      3  O   UNL A   1      31.323  28.945  23.373  1.00  0.00    -0.246 OA
BRANCH   2   4
ATOM      4  C   UNL A   1      30.745  26.553  25.426  1.00  0.00     0.066 A 
ATOM      5  C   UNL A   1      31.810  25.242  25.174  1.00  0.00     0.001 A 
ATOM      6  C   UNL A   1      31.683  23.959  25.759  1.00  0.00     0.008 A 
ATOM      7  C   UNL A   1      30.540  23.634  26.451  1.00  0.00     0.000 A 
ATOM      8  C   UNL A   1      29.601  25.912  26.126  1.00  0.00     0.016 A 
ATOM      9  C   UNL A   1      29.506  24.555  26.561  1.00  0.00     0.001 A 
BRANCH   5  10
ATOM     10  C   UNL A   1      33.180  25.285  23.996  1.00  0.00     0.197 C 
ATOM     11  N   UNL A   1      34.133  23.936  23.630  1.00  0.00    -0.236 N 
ATOM     12  C   UNL A   1      33.409  23.360  22.263  1.00  0.00     0.252 C 
ATOM     13  O   UNL A   1      32.908  22.250  22.037  1.00  0.00    -0.272 OA
ATOM     14  C   UNL A   1      32.960  24.426  21.346  1.00  0.00     0.174 C 
ATOM     15  S   UNL A   1      32.364  25.771  22.321  1.00  0.00    -0.120 SA
BRANCH  11  16
ATOM     16  N   UNL A   1      35.128  22.867  24.991  1.00  0.00    -0.270 N 
ATOM     17  H   UNL A   1      35.021  23.236  25.896  1.00  0.00     0.191 HD
BRANCH  16  18
ATOM     18  C   UNL A   1      36.126  21.465  24.985  1.00  0.00     0.189 C 
ATOM     19  S   UNL A   1      37.774  21.682  25.283  1.00  0.00    -0.039 S 
BRANCH  18  20
ATOM     20  N   UNL A   1      35.535  19.968  25.209  1.00  0.00    -0.331 N 
ATOM     21  H   UNL A   1      36.037  19.511  25.921  1.00  0.00     0.169 HD
BRANCH  20  22
ATOM     22  C   UNL A   1      34.414  19.021  24.644  1.00  0.00     0.043 A 
ATOM     23  C   UNL A   1      32.358  20.521  25.054  1.00  0.00     0.046 C 
ATOM     24  C   UNL A   1      33.121  19.477  24.298  1.00  0.00    -0.028 A 
ATOM     25  C   UNL A   1      32.361  18.798  23.285  1.00  0.00     0.005 A 
ATOM     26  C   UNL A   1      32.835  17.664  22.640  1.00  0.00     0.000 A 
ATOM     27  C   UNL A   1      34.611  17.681  24.259  1.00  0.00     0.026 A 
ATOM     28  C   UNL A   1      33.947  17.067  23.178  1.00  0.00     0.002 A 
ENDBRANCH  20  22
ENDBRANCH  18  20
ENDBRANCH  16  18
ENDBRANCH  11  16
ENDBRANCH   5  10
ENDBRANCH   2   4
ENDBRANCH   1   2
BRANCH   1  29
ATOM     29  C   UNL A   1      32.651  30.577  26.810  1.00  0.00     0.275 C 
BRANCH  29  30
ATOM     30  C   UNL A   1      34.087  29.374  27.729  1.00  0.00     0.275 C 
BRANCH  30  31
ATOM     31  O   UNL A   1      35.601  30.182  28.444  1.00  0.00    -0.458 OA
BRANCH  31  32
ATOM     32  C   UNL A   1      36.789  29.668  29.224  1.00  0.00     0.338 C 
ATOM     33  O   UNL A   1      36.640  29.250  30.371  1.00  0.00    -0.246 OA
BRANCH  32  34
ATOM     34  C   UNL A   1      38.355  29.697  28.637  1.00  0.00     0.060 A 
ATOM     35  C   UNL A   1      38.736  29.482  26.881  1.00  0.00     0.016 A 
ATOM     36  C   UNL A   1      39.923  29.594  29.716  1.00  0.00     0.016 A 
ATOM     37  C   UNL A   1      40.474  29.064  26.433  1.00  0.00     0.010 A 
ATOM     38  C   UNL A   1      41.487  29.313  29.173  1.00  0.00     0.010 A 
ATOM     39  C   UNL A   1      41.807  28.960  27.615  1.00  0.00    -0.014 A 
BRANCH  39  40
ATOM     40  C   UNL A   1      42.751  27.793  28.014  1.00  0.00     0.031 A 
ATOM     41  C   UNL A   1      42.078  26.328  27.930  1.00  0.00     0.074 A 
ATOM     42  C   UNL A   1      44.095  28.071  27.946  1.00  0.00     0.049 A 
ATOM     43  N   UNL A   1      42.129  25.431  28.860  1.00  0.00    -0.248 NA
ATOM     44  C   UNL A   1      41.113  25.769  26.870  1.00  0.00     0.031 C 
ATOM     45  C   UNL A   1      45.325  27.268  27.911  1.00  0.00     0.029 A 
ATOM     46  N   UNL A   1      44.634  29.361  28.023  1.00  0.00    -0.354 N 
ATOM     47  C   UNL A   1      41.806  24.225  28.225  1.00  0.00     0.074 A 
ATOM     48  C   UNL A   1      40.825  24.538  27.266  1.00  0.00     0.031 C 
ATOM     49  C   UNL A   1      46.356  28.010  28.392  1.00  0.00     0.029 A 
ATOM     50  C   UNL A   1      45.865  29.349  28.678  1.00  0.00     0.049 A 
ATOM     51  H   UNL A   1      44.200  30.168  27.664  1.00  0.00     0.167 HD
ATOM     52  C   UNL A   1      42.717  23.205  28.190  1.00  0.00     0.037 A 
ATOM     53  C   UNL A   1      45.879  30.018  29.865  1.00  0.00     0.037 A 
ATOM     54  C   UNL A   1      43.903  23.629  28.940  1.00  0.00     0.049 A 
ATOM     55  C   UNL A   1      45.512  29.010  30.944  1.00  0.00     0.074 A 
ATOM     56  C   UNL A   1      45.227  23.870  28.638  1.00  0.00     0.029 A 
ATOM     57  N   UNL A   1      43.686  24.233  30.169  1.00  0.00    -0.354 N 
ATOM     58  N   UNL A   1      45.019  27.821  30.692  1.00  0.00    -0.248 NA
ATOM     59  C   UNL A   1      45.819  29.180  32.356  1.00  0.00     0.031 C 
ATOM     60  C   UNL A   1      45.759  24.707  29.681  1.00  0.00     0.029 A 
ATOM     61  C   UNL A   1      44.751  24.987  30.593  1.00  0.00     0.049 A 
ATOM     62  H   UNL A   1      42.855  24.132  30.684  1.00  0.00     0.167 HD
ATOM     63  C   UNL A   1      44.994  27.062  31.821  1.00  0.00     0.074 A 
ATOM     64  C   UNL A   1      45.497  27.965  32.839  1.00  0.00     0.031 C 
ATOM     65  C   UNL A   1      44.608  25.747  31.838  1.00  0.00     0.037 A 
BRANCH  52  66
ATOM     66  C   UNL A   1      42.655  21.928  27.351  1.00  0.00     0.057 A 
ATOM     67  C   UNL A   1      43.544  21.810  26.266  1.00  0.00     0.134 A 
ATOM     68  C   UNL A   1      41.828  20.792  27.520  1.00  0.00     0.134 A 
ATOM     69  F   UNL A   1      44.407  22.791  25.966  1.00  0.00    -0.206 F 
ATOM     70  C   UNL A   1      43.619  20.676  25.440  1.00  0.00     0.040 A 
ATOM     71  C   UNL A   1      41.914  19.636  26.718  1.00  0.00     0.040 A 
ATOM     72  F   UNL A   1      40.865  20.710  28.442  1.00  0.00    -0.206 F 
ATOM     73  C   UNL A   1      42.814  19.575  25.672  1.00  0.00     0.006 A 
ENDBRANCH  52  66
BRANCH  53  74
ATOM     74  C   UNL A   1      45.395  31.437  29.637  1.00  0.00     0.057 A 
ATOM     75  C   UNL A   1      46.063  32.170  28.622  1.00  0.00     0.134 A 
ATOM     76  C   UNL A   1      44.140  31.932  29.998  1.00  0.00     0.134 A 
ATOM     77  F   UNL A   1      47.307  31.819  28.257  1.00  0.00    -0.206 F 
ATOM     78  C   UNL A   1      45.441  33.172  27.864  1.00  0.00     0.040 A 
ATOM     79  C   UNL A   1      43.537  33.005  29.296  1.00  0.00     0.040 A 
ATOM     80  F   UNL A   1      43.386  31.288  30.902  1.00  0.00    -0.206 F 
ATOM     81  C   UNL A   1      44.151  33.568  28.178  1.00  0.00     0.006 A 
ENDBRANCH  53  74
BRANCH  65  82
ATOM     82  C   UNL A   1      44.091  25.033  33.080  1.00  0.00     0.057 A 
ATOM     83  C   UNL A   1      43.168  25.590  33.974  1.00  0.00     0.134 A 
ATOM     84  C   UNL A   1      44.414  23.679  33.360  1.00  0.00     0.134 A 
ATOM     85  F   UNL A   1      42.577  26.770  33.749  1.00  0.00    -0.206 F 
ATOM     86  C   UNL A   1      42.749  24.934  35.136  1.00  0.00     0.040 A 
ATOM     87  C   UNL A   1      43.905  22.973  34.449  1.00  0.00     0.040 A 
ATOM     88  F   UNL A   1      45.225  22.943  32.590  1.00  0.00    -0.206 F 
ATOM     89  C   UNL A   1      43.116  23.619  35.377  1.00  0.00     0.006 A 
ENDBRANCH  65  82
ENDBRANCH  39  40
ENDBRANCH  32  34
ENDBRANCH  31  32
ENDBRANCH  30  31
ENDBRANCH  29  30
ENDBRANCH   1  29
TORSDOF 16
ENDMDL
