MODEL 1
REMARK VINA RESULT:     -10.2      0.000      0.000
REMARK SMILES C[C@H]1C[C@](C(=O)OCCOC(=O)c2ccc(-c3c4nc(c(-c5c(F)cccc5F)c5ccc([nH]5)c(-c5c(F)cccc5F)c5nc(c(-c6c(F)cccc6F)c6ccc3[nH]6)C=C5)C=C4)cc2)(N(C=O)C2CC2)CS1
REMARK SMILES IDX 8 1 7 2 5 3 6 4 4 5 1 6 2 7 3 8 74 9 73 10 67 11 68 12 69 13
REMARK SMILES IDX 70 14 71 15 72 16 9 17 10 18 11 19 12 20 13 21 14 22 66 23
REMARK SMILES IDX 15 24 65 25 16 26 17 27 18 28 59 29 19 30 64 31 58 32 60 33
REMARK SMILES IDX 20 34 63 35 57 36 56 37 21 39 47 40 30 41 46 42 31 43 34 44
REMARK SMILES IDX 45 45 61 46 32 47 33 48 44 50 62 51 35 52 22 53 23 54 28 55
REMARK SMILES IDX 24 56 25 57 27 58 29 59 26 60 48 61 49 62 54 63 50 64 51 65
REMARK SMILES IDX 53 66 55 67 52 68 36 69 37 70 42 71 38 72 39 73 41 74 43 75
REMARK SMILES IDX 40 76
REMARK H PARENT 60 38 34 49
REMARK Flexibility Score: inf
ROOT
ATOM      1  C   UNL A   1      35.099  21.864  26.407  1.00  0.00     0.274 C 
ENDROOT
BRANCH   1   2
ATOM      2  O   UNL A   1      34.699  23.123  25.816  1.00  0.00    -0.460 OA
BRANCH   2   3
ATOM      3  C   UNL A   1      33.383  23.458  25.971  1.00  0.00     0.333 C 
ATOM      4  O   UNL A   1      32.647  22.944  26.808  1.00  0.00    -0.249 OA
BRANCH   3   5
ATOM      5  C   UNL A   1      32.856  24.345  24.814  1.00  0.00     0.150 C 
ATOM      6  C   UNL A   1      33.798  27.568  26.349  1.00  0.00     0.019 C 
ATOM      7  C   UNL A   1      32.964  26.884  25.275  1.00  0.00     0.046 C 
ATOM      8  C   UNL A   1      33.649  25.669  24.635  1.00  0.00     0.055 C 
ATOM      9  S   UNL A   1      31.385  26.332  25.934  1.00  0.00    -0.156 SA
ATOM     10  C   UNL A   1      31.390  24.755  25.068  1.00  0.00     0.110 C 
BRANCH   5  11
ATOM     11  N   UNL A   1      32.914  23.395  23.651  1.00  0.00    -0.325 N 
BRANCH  11  12
ATOM     12  C   UNL A   1      33.885  23.546  22.656  1.00  0.00     0.341 C 
ATOM     13  O   UNL A   1      35.013  23.070  22.677  1.00  0.00    -0.279 OA
ENDBRANCH  11  12
BRANCH  11  14
ATOM     14  C   UNL A   1      32.031  22.256  23.542  1.00  0.00     0.086 C 
ATOM     15  C   UNL A   1      32.037  21.200  22.467  1.00  0.00     0.027 C 
ATOM     16  C   UNL A   1      32.595  20.877  23.811  1.00  0.00     0.027 C 
ENDBRANCH  11  14
ENDBRANCH   5  11
ENDBRANCH   3   5
ENDBRANCH   2   3
ENDBRANCH   1   2
BRANCH   1  17
ATOM     17  C   UNL A   1      35.834  20.987  25.400  1.00  0.00     0.275 C 
BRANCH  17  18
ATOM     18  O   UNL A   1      37.018  21.670  24.961  1.00  0.00    -0.458 OA
BRANCH  18  19
ATOM     19  C   UNL A   1      38.177  21.252  25.521  1.00  0.00     0.338 C 
ATOM     20  O   UNL A   1      38.671  20.141  25.455  1.00  0.00    -0.246 OA
BRANCH  19  21
ATOM     21  C   UNL A   1      38.831  22.380  26.212  1.00  0.00     0.060 A 
ATOM     22  C   UNL A   1      38.312  23.669  26.100  1.00  0.00     0.016 A 
ATOM     23  C   UNL A   1      40.056  22.177  26.849  1.00  0.00     0.016 A 
ATOM     24  C   UNL A   1      39.063  24.760  26.526  1.00  0.00     0.010 A 
ATOM     25  C   UNL A   1      40.760  23.269  27.365  1.00  0.00     0.010 A 
ATOM     26  C   UNL A   1      40.292  24.580  27.170  1.00  0.00    -0.014 A 
BRANCH  26  27
ATOM     27  C   UNL A   1      41.104  25.758  27.584  1.00  0.00     0.031 A 
ATOM     28  C   UNL A   1      40.519  26.795  28.507  1.00  0.00     0.074 A 
ATOM     29  C   UNL A   1      42.377  25.897  27.164  1.00  0.00     0.049 A 
ATOM     30  N   UNL A   1      40.968  27.988  28.802  1.00  0.00    -0.248 NA
ATOM     31  C   UNL A   1      39.250  26.451  29.172  1.00  0.00     0.031 C 
ATOM     32  C   UNL A   1      43.103  24.946  26.319  1.00  0.00     0.029 A 
ATOM     33  N   UNL A   1      43.293  26.890  27.405  1.00  0.00    -0.354 N 
ATOM     34  C   UNL A   1      40.004  28.566  29.618  1.00  0.00     0.074 A 
ATOM     35  C   UNL A   1      38.953  27.586  29.791  1.00  0.00     0.031 C 
ATOM     36  C   UNL A   1      44.364  25.374  26.160  1.00  0.00     0.029 A 
ATOM     37  C   UNL A   1      44.509  26.674  26.804  1.00  0.00     0.049 A 
ATOM     38  H   UNL A   1      43.097  27.683  27.955  1.00  0.00     0.167 HD
ATOM     39  C   UNL A   1      39.995  29.806  30.164  1.00  0.00     0.037 A 
ATOM     40  C   UNL A   1      45.605  27.451  26.738  1.00  0.00     0.037 A 
ATOM     41  C   UNL A   1      41.078  30.748  30.059  1.00  0.00     0.049 A 
ATOM     42  C   UNL A   1      45.578  28.815  27.358  1.00  0.00     0.074 A 
ATOM     43  C   UNL A   1      41.165  32.028  30.578  1.00  0.00     0.029 A 
ATOM     44  N   UNL A   1      42.281  30.495  29.417  1.00  0.00    -0.354 N 
ATOM     45  N   UNL A   1      44.614  29.397  28.026  1.00  0.00    -0.248 NA
ATOM     46  C   UNL A   1      46.778  29.644  27.182  1.00  0.00     0.031 C 
ATOM     47  C   UNL A   1      42.415  32.557  30.237  1.00  0.00     0.029 A 
ATOM     48  C   UNL A   1      43.116  31.594  29.528  1.00  0.00     0.049 A 
ATOM     49  H   UNL A   1      42.508  29.658  28.950  1.00  0.00     0.167 HD
ATOM     50  C   UNL A   1      45.083  30.664  28.341  1.00  0.00     0.074 A 
ATOM     51  C   UNL A   1      46.431  30.754  27.817  1.00  0.00     0.031 C 
ATOM     52  C   UNL A   1      44.448  31.669  28.990  1.00  0.00     0.037 A 
BRANCH  39  53
ATOM     53  C   UNL A   1      38.757  30.234  30.892  1.00  0.00     0.057 A 
ATOM     54  C   UNL A   1      38.584  30.019  32.263  1.00  0.00     0.134 A 
ATOM     55  C   UNL A   1      37.738  30.910  30.207  1.00  0.00     0.134 A 
ATOM     56  F   UNL A   1      39.514  29.362  32.971  1.00  0.00    -0.206 F 
ATOM     57  C   UNL A   1      37.434  30.452  32.927  1.00  0.00     0.040 A 
ATOM     58  C   UNL A   1      36.593  31.365  30.863  1.00  0.00     0.040 A 
ATOM     59  F   UNL A   1      37.844  31.150  28.891  1.00  0.00    -0.206 F 
ATOM     60  C   UNL A   1      36.439  31.133  32.228  1.00  0.00     0.006 A 
ENDBRANCH  39  53
BRANCH  40  61
ATOM     61  C   UNL A   1      46.802  26.970  26.006  1.00  0.00     0.057 A 
ATOM     62  C   UNL A   1      46.995  27.282  24.657  1.00  0.00     0.134 A 
ATOM     63  C   UNL A   1      47.790  26.209  26.643  1.00  0.00     0.134 A 
ATOM     64  F   UNL A   1      46.071  27.988  23.989  1.00  0.00    -0.206 F 
ATOM     65  C   UNL A   1      48.129  26.856  23.965  1.00  0.00     0.040 A 
ATOM     66  C   UNL A   1      48.939  25.796  25.971  1.00  0.00     0.040 A 
ATOM     67  F   UNL A   1      47.661  25.879  27.937  1.00  0.00    -0.206 F 
ATOM     68  C   UNL A   1      49.110  26.118  24.626  1.00  0.00     0.006 A 
ENDBRANCH  40  61
BRANCH  52  69
ATOM     69  C   UNL A   1      45.211  32.945  29.165  1.00  0.00     0.057 A 
ATOM     70  C   UNL A   1      46.052  33.144  30.267  1.00  0.00     0.134 A 
ATOM     71  C   UNL A   1      45.112  33.975  28.224  1.00  0.00     0.134 A 
ATOM     72  F   UNL A   1      46.174  32.198  31.209  1.00  0.00    -0.206 F 
ATOM     73  C   UNL A   1      46.758  34.336  30.435  1.00  0.00     0.040 A 
ATOM     74  C   UNL A   1      45.825  35.165  28.374  1.00  0.00     0.040 A 
ATOM     75  F   UNL A   1      44.323  33.842  27.147  1.00  0.00    -0.206 F 
ATOM     76  C   UNL A   1      46.647  35.349  29.485  1.00  0.00     0.006 A 
ENDBRANCH  52  69
ENDBRANCH  26  27
ENDBRANCH  19  21
ENDBRANCH  18  19
ENDBRANCH  17  18
ENDBRANCH   1  17
TORSDOF 14
ENDMDL
MODEL 2
REMARK VINA RESULT:     -10.0      1.104      2.130
REMARK SMILES C[C@H]1C[C@](C(=O)OCCOC(=O)c2ccc(-c3c4nc(c(-c5c(F)cccc5F)c5ccc([nH]5)c(-c5c(F)cccc5F)c5nc(c(-c6c(F)cccc6F)c6ccc3[nH]6)C=C5)C=C4)cc2)(N(C=O)C2CC2)CS1
REMARK SMILES IDX 8 1 7 2 5 3 6 4 4 5 1 6 2 7 3 8 74 9 73 10 67 11 68 12 69 13
REMARK SMILES IDX 70 14 71 15 72 16 9 17 10 18 11 19 12 20 13 21 14 22 66 23
REMARK SMILES IDX 15 24 65 25 16 26 17 27 18 28 59 29 19 30 64 31 58 32 60 33
REMARK SMILES IDX 20 34 63 35 57 36 56 37 21 39 47 40 30 41 46 42 31 43 34 44
REMARK SMILES IDX 45 45 61 46 32 47 33 48 44 50 62 51 35 52 22 53 23 54 28 55
REMARK SMILES IDX 24 56 25 57 27 58 29 59 26 60 48 61 49 62 54 63 50 64 51 65
REMARK SMILES IDX 53 66 55 67 52 68 36 69 37 70 42 71 38 72 39 73 41 74 43 75
REMARK SMILES IDX 40 76
REMARK H PARENT 60 38 34 49
REMARK Flexibility Score: inf
ROOT
ATOM      1  C   UNL A   1      36.761  22.568  23.672  1.00  0.00     0.274 C 
ENDROOT
BRANCH   1   2
ATOM      2  O   UNL A   1      35.712  23.416  24.195  1.00  0.00    -0.460 OA
BRANCH   2   3
ATOM      3  C   UNL A   1      34.494  23.295  23.589  1.00  0.00     0.333 C 
ATOM      4  O   UNL A   1      34.327  23.390  22.376  1.00  0.00    -0.249 OA
BRANCH   3   5
ATOM      5  C   UNL A   1      33.323  23.296  24.604  1.00  0.00     0.150 C 
ATOM      6  C   UNL A   1      31.210  25.683  22.741  1.00  0.00     0.019 C 
ATOM      7  C   UNL A   1      31.449  24.994  24.077  1.00  0.00     0.046 C 
ATOM      8  C   UNL A   1      31.935  23.544  23.951  1.00  0.00     0.055 C 
ATOM      9  S   UNL A   1      32.660  25.888  25.060  1.00  0.00    -0.156 SA
ATOM     10  C   UNL A   1      33.510  24.416  25.650  1.00  0.00     0.110 C 
BRANCH   5  11
ATOM     11  N   UNL A   1      33.495  21.959  25.268  1.00  0.00    -0.325 N 
BRANCH  11  12
ATOM     12  C   UNL A   1      33.482  21.850  26.662  1.00  0.00     0.341 C 
ATOM     13  O   UNL A   1      34.433  21.532  27.365  1.00  0.00    -0.279 OA
ENDBRANCH  11  12
BRANCH  11  14
ATOM     14  C   UNL A   1      33.610  20.732  24.513  1.00  0.00     0.086 C 
ATOM     15  C   UNL A   1      33.308  19.336  24.993  1.00  0.00     0.027 C 
ATOM     16  C   UNL A   1      32.341  20.024  24.091  1.00  0.00     0.027 C 
ENDBRANCH  11  14
ENDBRANCH   5  11
ENDBRANCH   3   5
ENDBRANCH   2   3
ENDBRANCH   1   2
BRANCH   1  17
ATOM     17  C   UNL A   1      36.978  21.345  24.555  1.00  0.00     0.275 C 
BRANCH  17  18
ATOM     18  O   UNL A   1      37.459  21.774  25.838  1.00  0.00    -0.458 OA
BRANCH  18  19
ATOM     19  C   UNL A   1      38.774  21.559  26.072  1.00  0.00     0.338 C 
ATOM     20  O   UNL A   1      39.413  20.552  25.828  1.00  0.00    -0.246 OA
BRANCH  19  21
ATOM     21  C   UNL A   1      39.384  22.777  26.641  1.00  0.00     0.060 A 
ATOM     22  C   UNL A   1      38.982  24.036  26.199  1.00  0.00     0.016 A 
ATOM     23  C   UNL A   1      40.470  22.659  27.509  1.00  0.00     0.016 A 
ATOM     24  C   UNL A   1      39.727  25.162  26.536  1.00  0.00     0.010 A 
ATOM     25  C   UNL A   1      41.154  23.804  27.925  1.00  0.00     0.010 A 
ATOM     26  C   UNL A   1      40.819  25.067  27.408  1.00  0.00    -0.014 A 
BRANCH  26  27
ATOM     27  C   UNL A   1      41.632  26.273  27.727  1.00  0.00     0.031 A 
ATOM     28  C   UNL A   1      41.072  27.350  28.618  1.00  0.00     0.074 A 
ATOM     29  C   UNL A   1      42.885  26.402  27.249  1.00  0.00     0.049 A 
ATOM     30  N   UNL A   1      41.519  28.562  28.833  1.00  0.00    -0.248 NA
ATOM     31  C   UNL A   1      39.835  27.029  29.351  1.00  0.00     0.031 C 
ATOM     32  C   UNL A   1      43.589  25.417  26.425  1.00  0.00     0.029 A 
ATOM     33  N   UNL A   1      43.798  27.416  27.401  1.00  0.00    -0.354 N 
ATOM     34  C   UNL A   1      40.581  29.172  29.657  1.00  0.00     0.074 A 
ATOM     35  C   UNL A   1      39.549  28.192  29.922  1.00  0.00     0.031 C 
ATOM     36  C   UNL A   1      44.837  25.848  26.193  1.00  0.00     0.029 A 
ATOM     37  C   UNL A   1      44.991  27.181  26.763  1.00  0.00     0.049 A 
ATOM     38  H   UNL A   1      43.615  28.234  27.917  1.00  0.00     0.167 HD
ATOM     39  C   UNL A   1      40.579  30.438  30.138  1.00  0.00     0.037 A 
ATOM     40  C   UNL A   1      46.075  27.963  26.612  1.00  0.00     0.037 A 
ATOM     41  C   UNL A   1      41.646  31.384  29.941  1.00  0.00     0.049 A 
ATOM     42  C   UNL A   1      46.057  29.358  27.162  1.00  0.00     0.074 A 
ATOM     43  C   UNL A   1      41.738  32.691  30.389  1.00  0.00     0.029 A 
ATOM     44  N   UNL A   1      42.825  31.110  29.264  1.00  0.00    -0.354 N 
ATOM     45  N   UNL A   1      45.113  29.965  27.838  1.00  0.00    -0.248 NA
ATOM     46  C   UNL A   1      47.239  30.188  26.895  1.00  0.00     0.031 C 
ATOM     47  C   UNL A   1      42.967  33.213  29.970  1.00  0.00     0.029 A 
ATOM     48  C   UNL A   1      43.650  32.222  29.284  1.00  0.00     0.049 A 
ATOM     49  H   UNL A   1      43.043  30.253  28.832  1.00  0.00     0.167 HD
ATOM     50  C   UNL A   1      45.579  31.250  28.068  1.00  0.00     0.074 A 
ATOM     51  C   UNL A   1      46.905  31.327  27.486  1.00  0.00     0.031 C 
ATOM     52  C   UNL A   1      44.959  32.282  28.689  1.00  0.00     0.037 A 
BRANCH  39  53
ATOM     53  C   UNL A   1      39.366  30.891  30.892  1.00  0.00     0.057 A 
ATOM     54  C   UNL A   1      38.260  31.463  30.256  1.00  0.00     0.134 A 
ATOM     55  C   UNL A   1      39.295  30.711  32.281  1.00  0.00     0.134 A 
ATOM     56  F   UNL A   1      38.273  31.678  28.932  1.00  0.00    -0.206 F 
ATOM     57  C   UNL A   1      37.128  31.852  30.976  1.00  0.00     0.040 A 
ATOM     58  C   UNL A   1      38.161  31.077  33.008  1.00  0.00     0.040 A 
ATOM     59  F   UNL A   1      40.322  30.166  32.950  1.00  0.00    -0.206 F 
ATOM     60  C   UNL A   1      37.074  31.652  32.354  1.00  0.00     0.006 A 
ENDBRANCH  39  53
BRANCH  40  61
ATOM     61  C   UNL A   1      47.247  27.457  25.859  1.00  0.00     0.057 A 
ATOM     62  C   UNL A   1      47.338  27.621  24.473  1.00  0.00     0.134 A 
ATOM     63  C   UNL A   1      48.313  26.820  26.507  1.00  0.00     0.134 A 
ATOM     64  F   UNL A   1      46.337  28.202  23.795  1.00  0.00    -0.206 F 
ATOM     65  C   UNL A   1      48.448  27.171  23.757  1.00  0.00     0.040 A 
ATOM     66  C   UNL A   1      49.438  26.386  25.808  1.00  0.00     0.040 A 
ATOM     67  F   UNL A   1      48.283  26.636  27.836  1.00  0.00    -0.206 F 
ATOM     68  C   UNL A   1      49.506  26.559  24.427  1.00  0.00     0.006 A 
ENDBRANCH  40  61
BRANCH  52  69
ATOM     69  C   UNL A   1      45.713  33.572  28.768  1.00  0.00     0.057 A 
ATOM     70  C   UNL A   1      45.577  34.555  27.779  1.00  0.00     0.134 A 
ATOM     71  C   UNL A   1      46.569  33.840  29.841  1.00  0.00     0.134 A 
ATOM     72  F   UNL A   1      44.782  34.348  26.719  1.00  0.00    -0.206 F 
ATOM     73  C   UNL A   1      46.285  35.756  27.847  1.00  0.00     0.040 A 
ATOM     74  C   UNL A   1      47.269  35.044  29.928  1.00  0.00     0.040 A 
ATOM     75  F   UNL A   1      46.738  32.938  30.820  1.00  0.00    -0.206 F 
ATOM     76  C   UNL A   1      47.131  36.003  28.927  1.00  0.00     0.006 A 
ENDBRANCH  52  69
ENDBRANCH  26  27
ENDBRANCH  19  21
ENDBRANCH  18  19
ENDBRANCH  17  18
ENDBRANCH   1  17
TORSDOF 14
ENDMDL
MODEL 3
REMARK VINA RESULT:     -10.0      3.935      8.536
REMARK SMILES C[C@H]1C[C@](C(=O)OCCOC(=O)c2ccc(-c3c4nc(c(-c5c(F)cccc5F)c5ccc([nH]5)c(-c5c(F)cccc5F)c5nc(c(-c6c(F)cccc6F)c6ccc3[nH]6)C=C5)C=C4)cc2)(N(C=O)C2CC2)CS1
REMARK SMILES IDX 8 1 7 2 5 3 6 4 4 5 1 6 2 7 3 8 74 9 73 10 67 11 68 12 69 13
REMARK SMILES IDX 70 14 71 15 72 16 9 17 10 18 11 19 12 20 13 21 14 22 66 23
REMARK SMILES IDX 15 24 65 25 16 26 17 27 18 28 59 29 19 30 64 31 58 32 60 33
REMARK SMILES IDX 20 34 63 35 57 36 56 37 21 39 47 40 30 41 46 42 31 43 34 44
REMARK SMILES IDX 45 45 61 46 32 47 33 48 44 50 62 51 35 52 22 53 23 54 28 55
REMARK SMILES IDX 24 56 25 57 27 58 29 59 26 60 48 61 49 62 54 63 50 64 51 65
REMARK SMILES IDX 53 66 55 67 52 68 36 69 37 70 42 71 38 72 39 73 41 74 43 75
REMARK SMILES IDX 40 76
REMARK H PARENT 60 38 34 49
REMARK Flexibility Score: inf
ROOT
ATOM      1  C   UNL A   1      31.812  28.366  26.959  1.00  0.00     0.274 C 
ENDROOT
BRANCH   1   2
ATOM      2  O   UNL A   1      32.509  27.293  26.285  1.00  0.00    -0.460 OA
BRANCH   2   3
ATOM      3  C   UNL A   1      31.726  26.269  25.833  1.00  0.00     0.333 C 
ATOM      4  O   UNL A   1      30.758  25.832  26.449  1.00  0.00    -0.249 OA
BRANCH   3   5
ATOM      5  C   UNL A   1      32.342  25.546  24.607  1.00  0.00     0.150 C 
ATOM      6  C   UNL A   1      33.405  28.617  22.853  1.00  0.00     0.019 C 
ATOM      7  C   UNL A   1      33.142  27.123  22.724  1.00  0.00     0.046 C 
ATOM      8  C   UNL A   1      33.532  26.313  23.968  1.00  0.00     0.055 C 
ATOM      9  S   UNL A   1      31.407  26.797  22.387  1.00  0.00    -0.156 SA
ATOM     10  C   UNL A   1      31.290  25.380  23.489  1.00  0.00     0.110 C 
BRANCH   5  11
ATOM     11  N   UNL A   1      32.675  24.200  25.184  1.00  0.00    -0.325 N 
BRANCH  11  12
ATOM     12  C   UNL A   1      33.651  24.072  26.175  1.00  0.00     0.341 C 
ATOM     13  O   UNL A   1      34.783  23.632  26.015  1.00  0.00    -0.279 OA
ENDBRANCH  11  12
BRANCH  11  14
ATOM     14  C   UNL A   1      31.966  23.000  24.799  1.00  0.00     0.086 C 
ATOM     15  C   UNL A   1      32.131  21.620  25.381  1.00  0.00     0.027 C 
ATOM     16  C   UNL A   1      30.938  22.432  25.755  1.00  0.00     0.027 C 
ENDBRANCH  11  14
ENDBRANCH   5  11
ENDBRANCH   3   5
ENDBRANCH   2   3
ENDBRANCH   1   2
BRANCH   1  17
ATOM     17  C   UNL A   1      31.606  29.560  26.035  1.00  0.00     0.275 C 
BRANCH  17  18
ATOM     18  O   UNL A   1      32.854  30.251  25.879  1.00  0.00    -0.458 OA
BRANCH  18  19
ATOM     19  C   UNL A   1      33.148  31.156  26.840  1.00  0.00     0.338 C 
ATOM     20  O   UNL A   1      32.432  32.048  27.260  1.00  0.00    -0.246 OA
BRANCH  19  21
ATOM     21  C   UNL A   1      34.492  30.884  27.387  1.00  0.00     0.060 A 
ATOM     22  C   UNL A   1      34.902  29.572  27.622  1.00  0.00     0.016 A 
ATOM     23  C   UNL A   1      35.289  31.947  27.810  1.00  0.00     0.016 A 
ATOM     24  C   UNL A   1      36.048  29.326  28.370  1.00  0.00     0.010 A 
ATOM     25  C   UNL A   1      36.492  31.692  28.474  1.00  0.00     0.010 A 
ATOM     26  C   UNL A   1      36.865  30.377  28.802  1.00  0.00    -0.014 A 
BRANCH  26  27
ATOM     27  C   UNL A   1      38.067  30.102  29.638  1.00  0.00     0.031 A 
ATOM     28  C   UNL A   1      39.210  29.296  29.078  1.00  0.00     0.074 A 
ATOM     29  C   UNL A   1      38.160  30.592  30.890  1.00  0.00     0.049 A 
ATOM     30  N   UNL A   1      40.228  28.761  29.702  1.00  0.00    -0.248 NA
ATOM     31  C   UNL A   1      39.196  29.044  27.627  1.00  0.00     0.031 C 
ATOM     32  C   UNL A   1      37.164  31.440  31.549  1.00  0.00     0.029 A 
ATOM     33  N   UNL A   1      39.151  30.456  31.829  1.00  0.00    -0.354 N 
ATOM     34  C   UNL A   1      40.929  28.045  28.739  1.00  0.00     0.074 A 
ATOM     35  C   UNL A   1      40.233  28.229  27.484  1.00  0.00     0.031 C 
ATOM     36  C   UNL A   1      37.620  31.793  32.760  1.00  0.00     0.029 A 
ATOM     37  C   UNL A   1      38.889  31.119  33.003  1.00  0.00     0.049 A 
ATOM     38  H   UNL A   1      39.972  29.934  31.676  1.00  0.00     0.167 HD
ATOM     39  C   UNL A   1      42.046  27.295  28.895  1.00  0.00     0.037 A 
ATOM     40  C   UNL A   1      39.568  31.148  34.165  1.00  0.00     0.037 A 
ATOM     41  C   UNL A   1      42.783  27.180  30.126  1.00  0.00     0.049 A 
ATOM     42  C   UNL A   1      40.808  30.318  34.313  1.00  0.00     0.074 A 
ATOM     43  C   UNL A   1      43.928  26.444  30.384  1.00  0.00     0.029 A 
ATOM     44  N   UNL A   1      42.465  27.848  31.299  1.00  0.00    -0.354 N 
ATOM     45  N   UNL A   1      41.395  29.550  33.429  1.00  0.00    -0.248 NA
ATOM     46  C   UNL A   1      41.457  30.331  35.630  1.00  0.00     0.031 C 
ATOM     47  C   UNL A   1      44.294  26.656  31.719  1.00  0.00     0.029 A 
ATOM     48  C   UNL A   1      43.391  27.543  32.282  1.00  0.00     0.049 A 
ATOM     49  H   UNL A   1      41.694  28.449  31.416  1.00  0.00     0.167 HD
ATOM     50  C   UNL A   1      42.475  28.978  34.085  1.00  0.00     0.074 A 
ATOM     51  C   UNL A   1      42.481  29.513  35.432  1.00  0.00     0.031 C 
ATOM     52  C   UNL A   1      43.373  28.077  33.619  1.00  0.00     0.037 A 
BRANCH  39  53
ATOM     53  C   UNL A   1      42.520  26.504  27.714  1.00  0.00     0.057 A 
ATOM     54  C   UNL A   1      42.104  25.190  27.479  1.00  0.00     0.134 A 
ATOM     55  C   UNL A   1      43.380  27.091  26.774  1.00  0.00     0.134 A 
ATOM     56  F   UNL A   1      41.296  24.566  28.348  1.00  0.00    -0.206 F 
ATOM     57  C   UNL A   1      42.536  24.480  26.355  1.00  0.00     0.040 A 
ATOM     58  C   UNL A   1      43.802  26.399  25.638  1.00  0.00     0.040 A 
ATOM     59  F   UNL A   1      43.813  28.349  26.941  1.00  0.00    -0.206 F 
ATOM     60  C   UNL A   1      43.381  25.088  25.428  1.00  0.00     0.006 A 
ENDBRANCH  39  53
BRANCH  40  61
ATOM     61  C   UNL A   1      39.050  31.953  35.297  1.00  0.00     0.057 A 
ATOM     62  C   UNL A   1      38.251  31.373  36.287  1.00  0.00     0.134 A 
ATOM     63  C   UNL A   1      39.363  33.312  35.429  1.00  0.00     0.134 A 
ATOM     64  F   UNL A   1      37.900  30.082  36.201  1.00  0.00    -0.206 F 
ATOM     65  C   UNL A   1      37.779  32.116  37.370  1.00  0.00     0.040 A 
ATOM     66  C   UNL A   1      38.917  34.060  36.518  1.00  0.00     0.040 A 
ATOM     67  F   UNL A   1      40.127  33.923  34.512  1.00  0.00    -0.206 F 
ATOM     68  C   UNL A   1      38.121  33.463  37.492  1.00  0.00     0.006 A 
ENDBRANCH  40  61
BRANCH  52  69
ATOM     69  C   UNL A   1      44.428  27.620  34.576  1.00  0.00     0.057 A 
ATOM     70  C   UNL A   1      44.248  26.480  35.368  1.00  0.00     0.134 A 
ATOM     71  C   UNL A   1      45.635  28.316  34.699  1.00  0.00     0.134 A 
ATOM     72  F   UNL A   1      43.105  25.781  35.304  1.00  0.00    -0.206 F 
ATOM     73  C   UNL A   1      45.228  26.057  36.267  1.00  0.00     0.040 A 
ATOM     74  C   UNL A   1      46.629  27.894  35.583  1.00  0.00     0.040 A 
ATOM     75  F   UNL A   1      45.867  29.415  33.965  1.00  0.00    -0.206 F 
ATOM     76  C   UNL A   1      46.425  26.764  36.373  1.00  0.00     0.006 A 
ENDBRANCH  52  69
ENDBRANCH  26  27
ENDBRANCH  19  21
ENDBRANCH  18  19
ENDBRANCH  17  18
ENDBRANCH   1  17
TORSDOF 14
ENDMDL
