MODEL 1
REMARK VINA RESULT:      -9.8      0.000      0.000
REMARK SMILES C[C@H]1CCC[C@@H]([NH2+]Cc2ccc(C(=O)OCCOC(=O)c3ccc(-c4c5nc(c(-c6c(F)cccc6F)c6ccc([nH]6)c(-c6c(F)cccc6F)c6nc(c(-c7c(F)cccc7F)c7ccc4[nH]7)C=C6)C=C5)cc3)cn2)C1
REMARK SMILES IDX 16 1 15 2 13 3 14 4 12 5 9 6 10 7 76 8 11 9 75 10 8 11 7 12
REMARK SMILES IDX 6 15 1 16 2 17 3 18 77 19 4 20 5 21 17 22 18 23 19 24 20 25
REMARK SMILES IDX 21 26 22 27 74 28 23 29 73 30 24 31 25 32 26 33 67 34 27 35
REMARK SMILES IDX 72 36 66 37 68 38 28 39 71 40 65 41 64 42 29 44 55 45 38 46
REMARK SMILES IDX 54 47 39 48 42 49 53 50 69 51 40 52 41 53 52 55 70 56 43 57
REMARK SMILES IDX 30 58 31 59 36 60 32 61 33 62 35 63 37 64 34 65 56 66 57 67
REMARK SMILES IDX 62 68 58 69 59 70 61 71 63 72 60 73 44 74 45 75 50 76 46 77
REMARK SMILES IDX 47 78 49 79 51 80 48 81
REMARK H PARENT 7 13 7 14 68 43 42 54
REMARK Flexibility Score: inf
ROOT
ATOM      1  C   UNL A   1      33.113  36.666  30.225  1.00  0.00     0.275 C 
ENDROOT
BRANCH   1   2
ATOM      2  O   UNL A   1      32.566  35.859  31.289  1.00  0.00    -0.458 OA
BRANCH   2   3
ATOM      3  C   UNL A   1      32.978  36.185  32.539  1.00  0.00     0.339 C 
ATOM      4  O   UNL A   1      32.514  37.056  33.250  1.00  0.00    -0.246 OA
BRANCH   3   5
ATOM      5  C   UNL A   1      34.036  35.266  32.999  1.00  0.00     0.078 A 
ATOM      6  C   UNL A   1      36.190  33.709  33.731  1.00  0.00     0.094 A 
ATOM      7  C   UNL A   1      34.927  33.120  33.593  1.00  0.00     0.031 A 
ATOM      8  N   UNL A   1      36.387  35.031  33.542  1.00  0.00    -0.254 NA
ATOM      9  C   UNL A   1      33.835  33.909  33.225  1.00  0.00     0.019 A 
ATOM     10  C   UNL A   1      35.321  35.764  33.155  1.00  0.00     0.127 A 
BRANCH   6  11
ATOM     11  C   UNL A   1      37.429  32.887  34.031  1.00  0.00     0.318 C 
BRANCH  11  12
ATOM     12  N   UNL A   1      37.115  31.457  34.088  1.00  0.00    -0.339 N 
ATOM     13  H   UNL A   1      37.314  31.125  35.031  1.00  0.00     0.346 HD
ATOM     14  H   UNL A   1      36.132  31.366  33.832  1.00  0.00     0.346 HD
BRANCH  12  15
ATOM     15  C   UNL A   1      37.870  30.634  33.144  1.00  0.00     0.182 C 
ATOM     16  C   UNL A   1      41.326  28.987  33.800  1.00  0.00     0.008 C 
ATOM     17  C   UNL A   1      40.067  29.353  33.017  1.00  0.00    -0.008 C 
ATOM     18  C   UNL A   1      39.303  28.097  32.583  1.00  0.00     0.004 C 
ATOM     19  C   UNL A   1      39.175  30.263  33.864  1.00  0.00     0.068 C 
ATOM     20  C   UNL A   1      38.000  28.450  31.871  1.00  0.00     0.006 C 
ATOM     21  C   UNL A   1      37.117  29.364  32.720  1.00  0.00     0.065 C 
ENDBRANCH  12  15
ENDBRANCH  11  12
ENDBRANCH   6  11
ENDBRANCH   3   5
ENDBRANCH   2   3
ENDBRANCH   1   2
BRANCH   1  22
ATOM     22  C   UNL A   1      32.921  36.000  28.860  1.00  0.00     0.275 C 
BRANCH  22  23
ATOM     23  O   UNL A   1      32.441  34.649  29.001  1.00  0.00    -0.458 OA
BRANCH  23  24
ATOM     24  C   UNL A   1      33.137  33.723  28.306  1.00  0.00     0.338 C 
ATOM     25  O   UNL A   1      32.810  33.174  27.266  1.00  0.00    -0.246 OA
BRANCH  24  26
ATOM     26  C   UNL A   1      34.453  33.494  28.916  1.00  0.00     0.060 A 
ATOM     27  C   UNL A   1      35.558  34.051  28.287  1.00  0.00     0.016 A 
ATOM     28  C   UNL A   1      34.631  32.560  29.933  1.00  0.00     0.016 A 
ATOM     29  C   UNL A   1      36.833  33.564  28.544  1.00  0.00     0.010 A 
ATOM     30  C   UNL A   1      35.932  32.186  30.300  1.00  0.00     0.010 A 
ATOM     31  C   UNL A   1      37.051  32.642  29.575  1.00  0.00    -0.014 A 
BRANCH  31  32
ATOM     32  C   UNL A   1      38.432  32.151  29.871  1.00  0.00     0.031 A 
ATOM     33  C   UNL A   1      38.917  30.836  29.310  1.00  0.00     0.074 A 
ATOM     34  C   UNL A   1      39.269  32.882  30.637  1.00  0.00     0.049 A 
ATOM     35  N   UNL A   1      39.992  30.150  29.609  1.00  0.00    -0.248 NA
ATOM     36  C   UNL A   1      38.070  30.197  28.290  1.00  0.00     0.031 C 
ATOM     37  C   UNL A   1      38.966  34.195  31.214  1.00  0.00     0.029 A 
ATOM     38  N   UNL A   1      40.550  32.629  31.065  1.00  0.00    -0.354 N 
ATOM     39  C   UNL A   1      39.918  28.977  28.867  1.00  0.00     0.074 A 
ATOM     40  C   UNL A   1      38.685  29.037  28.111  1.00  0.00     0.031 C 
ATOM     41  C   UNL A   1      40.039  34.650  31.873  1.00  0.00     0.029 A 
ATOM     42  C   UNL A   1      41.066  33.617  31.870  1.00  0.00     0.049 A 
ATOM     43  H   UNL A   1      41.050  31.818  30.818  1.00  0.00     0.167 HD
ATOM     44  C   UNL A   1      40.797  27.945  28.819  1.00  0.00     0.037 A 
ATOM     45  C   UNL A   1      42.209  33.674  32.579  1.00  0.00     0.037 A 
ATOM     46  C   UNL A   1      42.052  27.917  29.532  1.00  0.00     0.049 A 
ATOM     47  C   UNL A   1      43.142  32.500  32.552  1.00  0.00     0.074 A 
ATOM     48  C   UNL A   1      43.021  26.928  29.532  1.00  0.00     0.029 A 
ATOM     49  N   UNL A   1      42.514  28.929  30.360  1.00  0.00    -0.354 N 
ATOM     50  N   UNL A   1      43.037  31.375  31.887  1.00  0.00    -0.248 NA
ATOM     51  C   UNL A   1      44.345  32.594  33.389  1.00  0.00     0.031 C 
ATOM     52  C   UNL A   1      44.045  27.319  30.400  1.00  0.00     0.029 A 
ATOM     53  C   UNL A   1      43.744  28.577  30.895  1.00  0.00     0.049 A 
ATOM     54  H   UNL A   1      42.038  29.771  30.542  1.00  0.00     0.167 HD
ATOM     55  C   UNL A   1      44.168  30.638  32.207  1.00  0.00     0.074 A 
ATOM     56  C   UNL A   1      44.955  31.450  33.112  1.00  0.00     0.031 C 
ATOM     57  C   UNL A   1      44.521  29.398  31.789  1.00  0.00     0.037 A 
BRANCH  44  58
ATOM     58  C   UNL A   1      40.419  26.741  28.002  1.00  0.00     0.057 A 
ATOM     59  C   UNL A   1      40.938  26.506  26.722  1.00  0.00     0.134 A 
ATOM     60  C   UNL A   1      39.538  25.781  28.522  1.00  0.00     0.134 A 
ATOM     61  F   UNL A   1      41.779  27.385  26.157  1.00  0.00    -0.206 F 
ATOM     62  C   UNL A   1      40.570  25.381  25.978  1.00  0.00     0.040 A 
ATOM     63  C   UNL A   1      39.189  24.637  27.802  1.00  0.00     0.040 A 
ATOM     64  F   UNL A   1      39.010  25.933  29.746  1.00  0.00    -0.206 F 
ATOM     65  C   UNL A   1      39.698  24.439  26.522  1.00  0.00     0.006 A 
ENDBRANCH  44  58
BRANCH  45  66
ATOM     66  C   UNL A   1      42.504  34.867  33.415  1.00  0.00     0.057 A 
ATOM     67  C   UNL A   1      43.167  35.977  32.885  1.00  0.00     0.134 A 
ATOM     68  C   UNL A   1      42.120  34.928  34.762  1.00  0.00     0.134 A 
ATOM     69  F   UNL A   1      43.583  35.971  31.610  1.00  0.00    -0.206 F 
ATOM     70  C   UNL A   1      43.448  37.102  33.663  1.00  0.00     0.040 A 
ATOM     71  C   UNL A   1      42.364  36.059  35.543  1.00  0.00     0.040 A 
ATOM     72  F   UNL A   1      41.477  33.899  35.332  1.00  0.00    -0.206 F 
ATOM     73  C   UNL A   1      43.037  37.148  34.995  1.00  0.00     0.006 A 
ENDBRANCH  45  66
BRANCH  57  74
ATOM     74  C   UNL A   1      45.839  28.865  32.272  1.00  0.00     0.057 A 
ATOM     75  C   UNL A   1      47.034  29.103  31.582  1.00  0.00     0.134 A 
ATOM     76  C   UNL A   1      45.912  28.123  33.457  1.00  0.00     0.134 A 
ATOM     77  F   UNL A   1      47.031  29.793  30.432  1.00  0.00    -0.206 F 
ATOM     78  C   UNL A   1      48.253  28.600  32.041  1.00  0.00     0.040 A 
ATOM     79  C   UNL A   1      47.128  27.640  33.942  1.00  0.00     0.040 A 
ATOM     80  F   UNL A   1      44.805  27.865  34.171  1.00  0.00    -0.206 F 
ATOM     81  C   UNL A   1      48.302  27.871  33.229  1.00  0.00     0.006 A 
ENDBRANCH  57  74
ENDBRANCH  31  32
ENDBRANCH  24  26
ENDBRANCH  23  24
ENDBRANCH  22  23
ENDBRANCH   1  22
TORSDOF 14
ENDMDL
MODEL 2
REMARK VINA RESULT:      -9.3      4.890     10.572
REMARK SMILES C[C@H]1CCC[C@@H]([NH2+]Cc2ccc(C(=O)OCCOC(=O)c3ccc(-c4c5nc(c(-c6c(F)cccc6F)c6ccc([nH]6)c(-c6c(F)cccc6F)c6nc(c(-c7c(F)cccc7F)c7ccc4[nH]7)C=C6)C=C5)cc3)cn2)C1
REMARK SMILES IDX 16 1 15 2 13 3 14 4 12 5 9 6 10 7 76 8 11 9 75 10 8 11 7 12
REMARK SMILES IDX 6 15 1 16 2 17 3 18 77 19 4 20 5 21 17 22 18 23 19 24 20 25
REMARK SMILES IDX 21 26 22 27 74 28 23 29 73 30 24 31 25 32 26 33 67 34 27 35
REMARK SMILES IDX 72 36 66 37 68 38 28 39 71 40 65 41 64 42 29 44 55 45 38 46
REMARK SMILES IDX 54 47 39 48 42 49 53 50 69 51 40 52 41 53 52 55 70 56 43 57
REMARK SMILES IDX 30 58 31 59 36 60 32 61 33 62 35 63 37 64 34 65 56 66 57 67
REMARK SMILES IDX 62 68 58 69 59 70 61 71 63 72 60 73 44 74 45 75 50 76 46 77
REMARK SMILES IDX 47 78 49 79 51 80 48 81
REMARK H PARENT 7 13 7 14 68 43 42 54
REMARK Flexibility Score: inf
ROOT
ATOM      1  C   UNL A   1      42.656  20.647  26.072  1.00  0.00     0.275 C 
ENDROOT
BRANCH   1   2
ATOM      2  O   UNL A   1      41.295  20.992  25.740  1.00  0.00    -0.458 OA
BRANCH   2   3
ATOM      3  C   UNL A   1      40.497  21.297  26.793  1.00  0.00     0.339 C 
ATOM      4  O   UNL A   1      40.743  21.102  27.968  1.00  0.00    -0.246 OA
BRANCH   3   5
ATOM      5  C   UNL A   1      39.283  22.004  26.344  1.00  0.00     0.078 A 
ATOM      6  C   UNL A   1      37.026  23.175  25.280  1.00  0.00     0.094 A 
ATOM      7  C   UNL A   1      37.827  23.902  26.169  1.00  0.00     0.031 A 
ATOM      8  N   UNL A   1      37.308  21.899  24.942  1.00  0.00    -0.254 NA
ATOM      9  C   UNL A   1      38.969  23.307  26.711  1.00  0.00     0.019 A 
ATOM     10  C   UNL A   1      38.435  21.361  25.454  1.00  0.00     0.127 A 
BRANCH   6  11
ATOM     11  C   UNL A   1      35.831  23.799  24.585  1.00  0.00     0.318 C 
BRANCH  11  12
ATOM     12  N   UNL A   1      34.592  23.097  24.931  1.00  0.00    -0.339 N 
ATOM     13  H   UNL A   1      34.241  22.637  24.091  1.00  0.00     0.346 HD
ATOM     14  H   UNL A   1      34.829  22.441  25.675  1.00  0.00     0.346 HD
BRANCH  12  15
ATOM     15  C   UNL A   1      33.534  23.959  25.456  1.00  0.00     0.182 C 
ATOM     16  C   UNL A   1      33.799  27.784  26.083  1.00  0.00     0.008 C 
ATOM     17  C   UNL A   1      33.143  26.405  26.049  1.00  0.00    -0.008 C 
ATOM     18  C   UNL A   1      31.891  26.413  25.164  1.00  0.00     0.004 C 
ATOM     19  C   UNL A   1      34.149  25.364  25.552  1.00  0.00     0.068 C 
ATOM     20  C   UNL A   1      31.272  25.022  25.054  1.00  0.00     0.006 C 
ATOM     21  C   UNL A   1      32.283  23.986  24.565  1.00  0.00     0.065 C 
ENDBRANCH  12  15
ENDBRANCH  11  12
ENDBRANCH   6  11
ENDBRANCH   3   5
ENDBRANCH   2   3
ENDBRANCH   1   2
BRANCH   1  22
ATOM     22  C   UNL A   1      43.654  21.606  25.419  1.00  0.00     0.275 C 
BRANCH  22  23
ATOM     23  O   UNL A   1      42.994  22.785  24.918  1.00  0.00    -0.458 OA
BRANCH  23  24
ATOM     24  C   UNL A   1      43.671  23.939  25.105  1.00  0.00     0.338 C 
ATOM     25  O   UNL A   1      44.709  24.287  24.563  1.00  0.00    -0.246 OA
BRANCH  24  26
ATOM     26  C   UNL A   1      42.940  24.832  26.013  1.00  0.00     0.060 A 
ATOM     27  C   UNL A   1      43.158  26.197  25.885  1.00  0.00     0.016 A 
ATOM     28  C   UNL A   1      42.251  24.340  27.118  1.00  0.00     0.016 A 
ATOM     29  C   UNL A   1      42.845  27.060  26.927  1.00  0.00     0.010 A 
ATOM     30  C   UNL A   1      41.794  25.236  28.096  1.00  0.00     0.010 A 
ATOM     31  C   UNL A   1      42.131  26.603  28.042  1.00  0.00    -0.014 A 
BRANCH  31  32
ATOM     32  C   UNL A   1      41.763  27.546  29.142  1.00  0.00     0.031 A 
ATOM     33  C   UNL A   1      42.565  27.586  30.420  1.00  0.00     0.074 A 
ATOM     34  C   UNL A   1      40.713  28.384  29.003  1.00  0.00     0.049 A 
ATOM     35  N   UNL A   1      42.292  28.181  31.555  1.00  0.00    -0.248 NA
ATOM     36  C   UNL A   1      43.834  26.841  30.431  1.00  0.00     0.031 C 
ATOM     37  C   UNL A   1      39.869  28.500  27.811  1.00  0.00     0.029 A 
ATOM     38  N   UNL A   1      40.174  29.302  29.873  1.00  0.00    -0.354 N 
ATOM     39  C   UNL A   1      43.316  27.831  32.429  1.00  0.00     0.074 A 
ATOM     40  C   UNL A   1      44.211  26.961  31.696  1.00  0.00     0.031 C 
ATOM     41  C   UNL A   1      38.957  29.462  28.004  1.00  0.00     0.029 A 
ATOM     42  C   UNL A   1      39.070  29.950  29.371  1.00  0.00     0.049 A 
ATOM     43  H   UNL A   1      40.543  29.478  30.768  1.00  0.00     0.167 HD
ATOM     44  C   UNL A   1      43.494  28.201  33.721  1.00  0.00     0.037 A 
ATOM     45  C   UNL A   1      38.203  30.800  29.953  1.00  0.00     0.037 A 
ATOM     46  C   UNL A   1      42.629  29.114  34.428  1.00  0.00     0.049 A 
ATOM     47  C   UNL A   1      38.390  31.156  31.398  1.00  0.00     0.074 A 
ATOM     48  C   UNL A   1      42.736  29.570  35.731  1.00  0.00     0.029 A 
ATOM     49  N   UNL A   1      41.504  29.720  33.885  1.00  0.00    -0.354 N 
ATOM     50  N   UNL A   1      39.332  30.779  32.227  1.00  0.00    -0.248 NA
ATOM     51  C   UNL A   1      37.381  32.041  31.995  1.00  0.00     0.031 C 
ATOM     52  C   UNL A   1      41.649  30.410  35.993  1.00  0.00     0.029 A 
ATOM     53  C   UNL A   1      40.896  30.526  34.835  1.00  0.00     0.049 A 
ATOM     54  H   UNL A   1      41.185  29.594  32.963  1.00  0.00     0.167 HD
ATOM     55  C   UNL A   1      39.045  31.396  33.436  1.00  0.00     0.074 A 
ATOM     56  C   UNL A   1      37.849  32.188  33.226  1.00  0.00     0.031 C 
ATOM     57  C   UNL A   1      39.710  31.314  34.613  1.00  0.00     0.037 A 
BRANCH  44  58
ATOM     58  C   UNL A   1      44.645  27.590  34.472  1.00  0.00     0.057 A 
ATOM     59  C   UNL A   1      45.897  28.212  34.568  1.00  0.00     0.134 A 
ATOM     60  C   UNL A   1      44.484  26.366  35.138  1.00  0.00     0.134 A 
ATOM     61  F   UNL A   1      46.126  29.380  33.950  1.00  0.00    -0.206 F 
ATOM     62  C   UNL A   1      46.953  27.624  35.270  1.00  0.00     0.040 A 
ATOM     63  C   UNL A   1      45.523  25.786  35.868  1.00  0.00     0.040 A 
ATOM     64  F   UNL A   1      43.310  25.719  35.100  1.00  0.00    -0.206 F 
ATOM     65  C   UNL A   1      46.765  26.411  35.928  1.00  0.00     0.006 A 
ENDBRANCH  44  58
BRANCH  45  66
ATOM     66  C   UNL A   1      37.050  31.328  29.177  1.00  0.00     0.057 A 
ATOM     67  C   UNL A   1      35.926  30.538  28.920  1.00  0.00     0.134 A 
ATOM     68  C   UNL A   1      37.041  32.640  28.684  1.00  0.00     0.134 A 
ATOM     69  F   UNL A   1      35.883  29.266  29.344  1.00  0.00    -0.206 F 
ATOM     70  C   UNL A   1      34.839  31.026  28.193  1.00  0.00     0.040 A 
ATOM     71  C   UNL A   1      35.948  33.153  27.985  1.00  0.00     0.040 A 
ATOM     72  F   UNL A   1      38.086  33.453  28.898  1.00  0.00    -0.206 F 
ATOM     73  C   UNL A   1      34.844  32.342  27.731  1.00  0.00     0.006 A 
ENDBRANCH  45  66
BRANCH  57  74
ATOM     74  C   UNL A   1      39.185  32.138  35.753  1.00  0.00     0.057 A 
ATOM     75  C   UNL A   1      38.315  31.608  36.713  1.00  0.00     0.134 A 
ATOM     76  C   UNL A   1      39.578  33.474  35.901  1.00  0.00     0.134 A 
ATOM     77  F   UNL A   1      37.888  30.340  36.620  1.00  0.00    -0.206 F 
ATOM     78  C   UNL A   1      37.833  32.387  37.767  1.00  0.00     0.040 A 
ATOM     79  C   UNL A   1      39.126  34.254  36.966  1.00  0.00     0.040 A 
ATOM     80  F   UNL A   1      40.415  34.042  35.019  1.00  0.00    -0.206 F 
ATOM     81  C   UNL A   1      38.244  33.712  37.898  1.00  0.00     0.006 A 
ENDBRANCH  57  74
ENDBRANCH  31  32
ENDBRANCH  24  26
ENDBRANCH  23  24
ENDBRANCH  22  23
ENDBRANCH   1  22
TORSDOF 14
ENDMDL
MODEL 3
REMARK VINA RESULT:      -9.3      4.894     10.643
REMARK SMILES C[C@H]1CCC[C@@H]([NH2+]Cc2ccc(C(=O)OCCOC(=O)c3ccc(-c4c5nc(c(-c6c(F)cccc6F)c6ccc([nH]6)c(-c6c(F)cccc6F)c6nc(c(-c7c(F)cccc7F)c7ccc4[nH]7)C=C6)C=C5)cc3)cn2)C1
REMARK SMILES IDX 16 1 15 2 13 3 14 4 12 5 9 6 10 7 76 8 11 9 75 10 8 11 7 12
REMARK SMILES IDX 6 15 1 16 2 17 3 18 77 19 4 20 5 21 17 22 18 23 19 24 20 25
REMARK SMILES IDX 21 26 22 27 74 28 23 29 73 30 24 31 25 32 26 33 67 34 27 35
REMARK SMILES IDX 72 36 66 37 68 38 28 39 71 40 65 41 64 42 29 44 55 45 38 46
REMARK SMILES IDX 54 47 39 48 42 49 53 50 69 51 40 52 41 53 52 55 70 56 43 57
REMARK SMILES IDX 30 58 31 59 36 60 32 61 33 62 35 63 37 64 34 65 56 66 57 67
REMARK SMILES IDX 62 68 58 69 59 70 61 71 63 72 60 73 44 74 45 75 50 76 46 77
REMARK SMILES IDX 47 78 49 79 51 80 48 81
REMARK H PARENT 7 13 7 14 68 43 42 54
REMARK Flexibility Score: inf
ROOT
ATOM      1  C   UNL A   1      42.659  20.668  26.116  1.00  0.00     0.275 C 
ENDROOT
BRANCH   1   2
ATOM      2  O   UNL A   1      41.292  20.919  25.730  1.00  0.00    -0.458 OA
BRANCH   2   3
ATOM      3  C   UNL A   1      40.445  21.223  26.745  1.00  0.00     0.339 C 
ATOM      4  O   UNL A   1      40.664  21.090  27.934  1.00  0.00    -0.246 OA
BRANCH   3   5
ATOM      5  C   UNL A   1      39.211  21.844  26.230  1.00  0.00     0.078 A 
ATOM      6  C   UNL A   1      36.925  22.841  25.055  1.00  0.00     0.094 A 
ATOM      7  C   UNL A   1      37.681  23.662  25.901  1.00  0.00     0.031 A 
ATOM      8  N   UNL A   1      37.265  21.557  24.812  1.00  0.00    -0.254 NA
ATOM      9  C   UNL A   1      38.837  23.156  26.498  1.00  0.00     0.019 A 
ATOM     10  C   UNL A   1      38.405  21.104  25.377  1.00  0.00     0.127 A 
BRANCH   6  11
ATOM     11  C   UNL A   1      35.717  23.363  24.301  1.00  0.00     0.318 C 
BRANCH  11  12
ATOM     12  N   UNL A   1      34.848  24.153  25.176  1.00  0.00    -0.339 N 
ATOM     13  H   UNL A   1      34.357  23.513  25.799  1.00  0.00     0.346 HD
ATOM     14  H   UNL A   1      35.454  24.807  25.673  1.00  0.00     0.346 HD
BRANCH  12  15
ATOM     15  C   UNL A   1      33.853  24.960  24.472  1.00  0.00     0.182 C 
ATOM     16  C   UNL A   1      33.339  28.793  24.841  1.00  0.00     0.008 C 
ATOM     17  C   UNL A   1      33.083  27.383  24.313  1.00  0.00    -0.008 C 
ATOM     18  C   UNL A   1      33.245  27.328  22.790  1.00  0.00     0.004 C 
ATOM     19  C   UNL A   1      34.033  26.395  24.993  1.00  0.00     0.068 C 
ATOM     20  C   UNL A   1      33.074  25.907  22.257  1.00  0.00     0.006 C 
ATOM     21  C   UNL A   1      34.020  24.924  22.946  1.00  0.00     0.065 C 
ENDBRANCH  12  15
ENDBRANCH  11  12
ENDBRANCH   6  11
ENDBRANCH   3   5
ENDBRANCH   2   3
ENDBRANCH   1   2
BRANCH   1  22
ATOM     22  C   UNL A   1      43.627  21.612  25.399  1.00  0.00     0.275 C 
BRANCH  22  23
ATOM     23  O   UNL A   1      42.942  22.769  24.881  1.00  0.00    -0.458 OA
BRANCH  23  24
ATOM     24  C   UNL A   1      43.606  23.936  25.025  1.00  0.00     0.338 C 
ATOM     25  O   UNL A   1      44.624  24.286  24.449  1.00  0.00    -0.246 OA
BRANCH  24  26
ATOM     26  C   UNL A   1      42.885  24.839  25.933  1.00  0.00     0.060 A 
ATOM     27  C   UNL A   1      43.201  26.189  25.879  1.00  0.00     0.016 A 
ATOM     28  C   UNL A   1      42.103  24.349  26.974  1.00  0.00     0.016 A 
ATOM     29  C   UNL A   1      42.886  27.027  26.941  1.00  0.00     0.010 A 
ATOM     30  C   UNL A   1      41.651  25.232  27.966  1.00  0.00     0.010 A 
ATOM     31  C   UNL A   1      42.081  26.574  27.993  1.00  0.00    -0.014 A 
BRANCH  31  32
ATOM     32  C   UNL A   1      41.715  27.493  29.115  1.00  0.00     0.031 A 
ATOM     33  C   UNL A   1      42.500  27.484  30.404  1.00  0.00     0.074 A 
ATOM     34  C   UNL A   1      40.681  28.352  28.985  1.00  0.00     0.049 A 
ATOM     35  N   UNL A   1      42.221  28.053  31.551  1.00  0.00    -0.248 NA
ATOM     36  C   UNL A   1      43.756  26.717  30.411  1.00  0.00     0.031 C 
ATOM     37  C   UNL A   1      39.855  28.515  27.786  1.00  0.00     0.029 A 
ATOM     38  N   UNL A   1      40.145  29.255  29.872  1.00  0.00    -0.354 N 
ATOM     39  C   UNL A   1      43.228  27.661  32.428  1.00  0.00     0.074 A 
ATOM     40  C   UNL A   1      44.118  26.796  31.683  1.00  0.00     0.031 C 
ATOM     41  C   UNL A   1      38.957  29.487  27.993  1.00  0.00     0.029 A 
ATOM     42  C   UNL A   1      39.059  29.936  29.375  1.00  0.00     0.049 A 
ATOM     43  H   UNL A   1      40.505  29.400  30.777  1.00  0.00     0.167 HD
ATOM     44  C   UNL A   1      43.394  27.993  33.731  1.00  0.00     0.037 A 
ATOM     45  C   UNL A   1      38.199  30.784  29.968  1.00  0.00     0.037 A 
ATOM     46  C   UNL A   1      42.535  28.901  34.452  1.00  0.00     0.049 A 
ATOM     47  C   UNL A   1      38.372  31.097  31.424  1.00  0.00     0.074 A 
ATOM     48  C   UNL A   1      42.633  29.319  35.769  1.00  0.00     0.029 A 
ATOM     49  N   UNL A   1      41.428  29.540  33.912  1.00  0.00    -0.354 N 
ATOM     50  N   UNL A   1      39.297  30.681  32.255  1.00  0.00    -0.248 NA
ATOM     51  C   UNL A   1      37.371  31.984  32.033  1.00  0.00     0.031 C 
ATOM     52  C   UNL A   1      41.556  30.170  36.039  1.00  0.00     0.029 A 
ATOM     53  C   UNL A   1      40.822  30.330  34.876  1.00  0.00     0.049 A 
ATOM     54  H   UNL A   1      41.120  29.445  32.982  1.00  0.00     0.167 HD
ATOM     55  C   UNL A   1      39.004  31.271  33.477  1.00  0.00     0.074 A 
ATOM     56  C   UNL A   1      37.825  32.088  33.274  1.00  0.00     0.031 C 
ATOM     57  C   UNL A   1      39.652  31.145  34.659  1.00  0.00     0.037 A 
BRANCH  44  58
ATOM     58  C   UNL A   1      44.525  27.342  34.481  1.00  0.00     0.057 A 
ATOM     59  C   UNL A   1      44.411  26.071  35.061  1.00  0.00     0.134 A 
ATOM     60  C   UNL A   1      45.763  27.990  34.596  1.00  0.00     0.134 A 
ATOM     61  F   UNL A   1      43.253  25.396  34.997  1.00  0.00    -0.206 F 
ATOM     62  C   UNL A   1      45.473  25.486  35.755  1.00  0.00     0.040 A 
ATOM     63  C   UNL A   1      46.841  27.401  35.259  1.00  0.00     0.040 A 
ATOM     64  F   UNL A   1      45.950  29.204  34.055  1.00  0.00    -0.206 F 
ATOM     65  C   UNL A   1      46.695  26.149  35.849  1.00  0.00     0.006 A 
ENDBRANCH  44  58
BRANCH  45  66
ATOM     66  C   UNL A   1      37.066  31.353  29.193  1.00  0.00     0.057 A 
ATOM     67  C   UNL A   1      37.095  32.672  28.729  1.00  0.00     0.134 A 
ATOM     68  C   UNL A   1      35.931  30.589  28.888  1.00  0.00     0.134 A 
ATOM     69  F   UNL A   1      38.141  33.464  29.008  1.00  0.00    -0.206 F 
ATOM     70  C   UNL A   1      36.035  33.215  28.000  1.00  0.00     0.040 A 
ATOM     71  C   UNL A   1      34.880  31.107  28.132  1.00  0.00     0.040 A 
ATOM     72  F   UNL A   1      35.840  29.316  29.299  1.00  0.00    -0.206 F 
ATOM     73  C   UNL A   1      34.927  32.428  27.691  1.00  0.00     0.006 A 
ENDBRANCH  45  66
BRANCH  57  74
ATOM     74  C   UNL A   1      39.126  31.946  35.815  1.00  0.00     0.057 A 
ATOM     75  C   UNL A   1      38.229  31.408  36.745  1.00  0.00     0.134 A 
ATOM     76  C   UNL A   1      39.544  33.269  36.008  1.00  0.00     0.134 A 
ATOM     77  F   UNL A   1      37.778  30.152  36.608  1.00  0.00    -0.206 F 
ATOM     78  C   UNL A   1      37.746  32.166  37.814  1.00  0.00     0.040 A 
ATOM     79  C   UNL A   1      39.091  34.027  37.089  1.00  0.00     0.040 A 
ATOM     80  F   UNL A   1      40.407  33.844  35.157  1.00  0.00    -0.206 F 
ATOM     81  C   UNL A   1      38.183  33.477  37.991  1.00  0.00     0.006 A 
ENDBRANCH  57  74
ENDBRANCH  31  32
ENDBRANCH  24  26
ENDBRANCH  23  24
ENDBRANCH  22  23
ENDBRANCH   1  22
TORSDOF 14
ENDMDL
