MODEL 1
REMARK VINA RESULT:     -13.0      0.000      0.000
REMARK SMILES Cc1c(C(=O)OCCOC(=O)c2ccc(-c3c4nc(c(-c5c(F)cccc5F)c5ccc([nH]5)c(-c5c(F)cccc5F)c5nc(c(-c6c(F)cccc6F)c6ccc3[nH]6)C=C5)C=C4)cc2)cccc1-n1c(C)cc(/C=C2/C(=O)NC(=S)N=C2O)c1C
REMARK SMILES IDX 7 1 6 2 4 3 5 4 3 5 1 6 2 7 69 8 66 9 68 10 67 11 70 12
REMARK SMILES IDX 71 13 85 14 72 15 73 16 74 17 86 18 75 19 76 20 77 21 83 22
REMARK SMILES IDX 78 23 79 24 82 25 80 26 81 28 84 29 8 31 9 32 10 33 11 34
REMARK SMILES IDX 12 35 13 36 65 37 14 38 64 39 15 40 16 41 17 42 58 43 18 44
REMARK SMILES IDX 63 45 57 46 59 47 19 48 62 49 56 50 55 51 20 53 46 54 29 55
REMARK SMILES IDX 45 56 30 57 33 58 44 59 60 60 31 61 32 62 43 64 61 65 34 66
REMARK SMILES IDX 21 67 22 68 27 69 23 70 24 71 26 72 28 73 25 74 47 75 48 76
REMARK SMILES IDX 53 77 49 78 50 79 52 80 54 81 51 82 35 83 36 84 41 85 37 86
REMARK SMILES IDX 38 87 40 88 42 89 39 90
REMARK H PARENT 79 27 84 30 59 52 33 63
REMARK Flexibility Score: inf
ROOT
ATOM      1  C   UNL A   1      36.057  21.275  24.677  1.00  0.00     0.275 C 
ENDROOT
BRANCH   1   2
ATOM      2  O   UNL A   1      34.988  22.211  24.500  1.00  0.00    -0.458 OA
BRANCH   2   3
ATOM      3  C   UNL A   1      35.191  22.993  23.417  1.00  0.00     0.338 C 
ATOM      4  O   UNL A   1      36.225  23.058  22.768  1.00  0.00    -0.246 OA
BRANCH   3   5
ATOM      5  C   UNL A   1      34.075  23.903  23.125  1.00  0.00     0.065 A 
ATOM      6  C   UNL A   1      34.537  24.852  25.412  1.00  0.00     0.047 C 
ATOM      7  C   UNL A   1      33.879  24.932  24.052  1.00  0.00    -0.012 A 
ATOM      8  C   UNL A   1      32.985  25.951  23.692  1.00  0.00     0.049 A 
ATOM      9  C   UNL A   1      33.305  23.824  21.955  1.00  0.00     0.016 A 
ATOM     10  C   UNL A   1      32.293  25.948  22.471  1.00  0.00     0.027 A 
ATOM     11  C   UNL A   1      32.443  24.869  21.608  1.00  0.00     0.003 A 
BRANCH   8  12
ATOM     12  N   UNL A   1      32.452  26.735  24.728  1.00  0.00    -0.318 N 
ATOM     13  C   UNL A   1      31.321  26.455  25.467  1.00  0.00     0.020 A 
ATOM     14  C   UNL A   1      32.750  28.091  24.819  1.00  0.00     0.027 A 
ATOM     15  C   UNL A   1      30.595  25.152  25.392  1.00  0.00     0.065 C 
ATOM     16  C   UNL A   1      31.031  27.595  26.193  1.00  0.00     0.031 A 
ATOM     17  C   UNL A   1      31.962  28.609  25.830  1.00  0.00    -0.003 A 
ATOM     18  C   UNL A   1      33.704  28.731  23.849  1.00  0.00     0.065 C 
BRANCH  17  19
ATOM     19  C   UNL A   1      31.905  29.959  26.289  1.00  0.00     0.029 C 
ATOM     20  C   UNL A   1      32.737  30.660  27.082  1.00  0.00     0.102 C 
ATOM     21  C   UNL A   1      32.467  32.115  27.179  1.00  0.00     0.262 C 
ATOM     22  C   UNL A   1      33.952  30.245  27.786  1.00  0.00     0.226 C 
ATOM     23  O   UNL A   1      31.404  32.644  26.876  1.00  0.00    -0.269 OA
ATOM     24  N   UNL A   1      33.547  32.848  27.594  1.00  0.00    -0.297 N 
ATOM     25  N   UNL A   1      34.901  31.007  28.191  1.00  0.00    -0.184 NA
ATOM     26  C   UNL A   1      34.761  32.356  28.004  1.00  0.00     0.203 C 
ATOM     27  H   UNL A   1      33.442  33.827  27.596  1.00  0.00     0.172 HD
ATOM     28  S   UNL A   1      35.984  33.459  28.316  1.00  0.00    -0.038 S 
BRANCH  22  29
ATOM     29  O   UNL A   1      34.057  28.950  28.091  1.00  0.00    -0.493 OA
ATOM     30  H   UNL A   1      34.889  28.591  28.331  1.00  0.00     0.295 HD
ENDBRANCH  22  29
ENDBRANCH  17  19
ENDBRANCH   8  12
ENDBRANCH   3   5
ENDBRANCH   2   3
ENDBRANCH   1   2
BRANCH   1  31
ATOM     31  C   UNL A   1      37.095  21.746  25.693  1.00  0.00     0.275 C 
BRANCH  31  32
ATOM     32  O   UNL A   1      38.509  21.610  25.370  1.00  0.00    -0.458 OA
BRANCH  32  33
ATOM     33  C   UNL A   1      39.590  21.444  26.180  1.00  0.00     0.338 C 
ATOM     34  O   UNL A   1      40.154  20.377  26.288  1.00  0.00    -0.246 OA
BRANCH  33  35
ATOM     35  C   UNL A   1      40.101  22.618  26.916  1.00  0.00     0.060 A 
ATOM     36  C   UNL A   1      40.976  22.417  28.001  1.00  0.00     0.016 A 
ATOM     37  C   UNL A   1      39.792  23.896  26.482  1.00  0.00     0.016 A 
ATOM     38  C   UNL A   1      41.653  23.491  28.565  1.00  0.00     0.010 A 
ATOM     39  C   UNL A   1      40.550  24.942  26.935  1.00  0.00     0.010 A 
ATOM     40  C   UNL A   1      41.439  24.745  28.004  1.00  0.00    -0.014 A 
BRANCH  40  41
ATOM     41  C   UNL A   1      41.793  25.979  28.676  1.00  0.00     0.031 A 
ATOM     42  C   UNL A   1      40.792  27.008  28.966  1.00  0.00     0.074 A 
ATOM     43  C   UNL A   1      43.095  25.965  29.034  1.00  0.00     0.049 A 
ATOM     44  N   UNL A   1      41.000  28.274  28.836  1.00  0.00    -0.248 NA
ATOM     45  C   UNL A   1      39.418  26.697  29.372  1.00  0.00     0.031 C 
ATOM     46  C   UNL A   1      43.875  26.782  29.936  1.00  0.00     0.029 A 
ATOM     47  N   UNL A   1      44.051  25.119  28.443  1.00  0.00    -0.354 N 
ATOM     48  C   UNL A   1      39.976  28.887  29.531  1.00  0.00     0.074 A 
ATOM     49  C   UNL A   1      38.917  27.913  29.621  1.00  0.00     0.031 C 
ATOM     50  C   UNL A   1      45.180  26.625  29.619  1.00  0.00     0.029 A 
ATOM     51  C   UNL A   1      45.252  25.816  28.403  1.00  0.00     0.049 A 
ATOM     52  H   UNL A   1      43.897  24.203  28.118  1.00  0.00     0.167 HD
ATOM     53  C   UNL A   1      40.239  29.992  30.285  1.00  0.00     0.037 A 
ATOM     54  C   UNL A   1      45.682  26.219  27.169  1.00  0.00     0.037 A 
ATOM     55  C   UNL A   1      41.674  30.247  30.299  1.00  0.00     0.049 A 
ATOM     56  C   UNL A   1      45.612  27.723  27.025  1.00  0.00     0.074 A 
ATOM     57  C   UNL A   1      42.671  29.892  31.194  1.00  0.00     0.029 A 
ATOM     58  N   UNL A   1      42.317  30.571  29.124  1.00  0.00    -0.354 N 
ATOM     59  N   UNL A   1      44.867  28.493  27.770  1.00  0.00    -0.248 NA
ATOM     60  C   UNL A   1      46.338  28.469  26.004  1.00  0.00     0.031 C 
ATOM     61  C   UNL A   1      43.927  30.064  30.552  1.00  0.00     0.029 A 
ATOM     62  C   UNL A   1      43.687  30.492  29.261  1.00  0.00     0.049 A 
ATOM     63  H   UNL A   1      41.857  30.826  28.292  1.00  0.00     0.167 HD
ATOM     64  C   UNL A   1      45.065  29.798  27.421  1.00  0.00     0.074 A 
ATOM     65  C   UNL A   1      45.937  29.725  26.262  1.00  0.00     0.031 C 
ATOM     66  C   UNL A   1      44.513  30.834  28.121  1.00  0.00     0.037 A 
BRANCH  53  67
ATOM     67  C   UNL A   1      39.279  30.581  31.286  1.00  0.00     0.057 A 
ATOM     68  C   UNL A   1      39.060  29.970  32.536  1.00  0.00     0.134 A 
ATOM     69  C   UNL A   1      38.560  31.771  31.079  1.00  0.00     0.134 A 
ATOM     70  F   UNL A   1      39.727  28.874  32.916  1.00  0.00    -0.206 F 
ATOM     71  C   UNL A   1      38.140  30.452  33.472  1.00  0.00     0.040 A 
ATOM     72  C   UNL A   1      37.617  32.255  32.002  1.00  0.00     0.040 A 
ATOM     73  F   UNL A   1      38.759  32.520  29.983  1.00  0.00    -0.206 F 
ATOM     74  C   UNL A   1      37.396  31.588  33.200  1.00  0.00     0.006 A 
ENDBRANCH  53  67
BRANCH  54  75
ATOM     75  C   UNL A   1      45.376  25.245  26.060  1.00  0.00     0.057 A 
ATOM     76  C   UNL A   1      46.231  24.140  25.847  1.00  0.00     0.134 A 
ATOM     77  C   UNL A   1      44.145  25.204  25.397  1.00  0.00     0.134 A 
ATOM     78  F   UNL A   1      47.437  24.092  26.440  1.00  0.00    -0.206 F 
ATOM     79  C   UNL A   1      45.840  23.014  25.113  1.00  0.00     0.040 A 
ATOM     80  C   UNL A   1      43.755  24.093  24.630  1.00  0.00     0.040 A 
ATOM     81  F   UNL A   1      43.257  26.197  25.534  1.00  0.00    -0.206 F 
ATOM     82  C   UNL A   1      44.587  22.981  24.515  1.00  0.00     0.006 A 
ENDBRANCH  54  75
BRANCH  66  83
ATOM     83  C   UNL A   1      44.704  32.286  27.795  1.00  0.00     0.057 A 
ATOM     84  C   UNL A   1      44.176  32.884  26.646  1.00  0.00     0.134 A 
ATOM     85  C   UNL A   1      45.521  33.121  28.589  1.00  0.00     0.134 A 
ATOM     86  F   UNL A   1      43.519  32.163  25.726  1.00  0.00    -0.206 F 
ATOM     87  C   UNL A   1      44.339  34.246  26.377  1.00  0.00     0.040 A 
ATOM     88  C   UNL A   1      45.739  34.466  28.300  1.00  0.00     0.040 A 
ATOM     89  F   UNL A   1      46.143  32.685  29.692  1.00  0.00    -0.206 F 
ATOM     90  C   UNL A   1      45.116  35.043  27.209  1.00  0.00     0.006 A 
ENDBRANCH  66  83
ENDBRANCH  40  41
ENDBRANCH  33  35
ENDBRANCH  32  33
ENDBRANCH  31  32
ENDBRANCH   1  31
TORSDOF 14
ENDMDL
MODEL 2
REMARK VINA RESULT:     -13.0      3.481      8.937
REMARK SMILES Cc1c(C(=O)OCCOC(=O)c2ccc(-c3c4nc(c(-c5c(F)cccc5F)c5ccc([nH]5)c(-c5c(F)cccc5F)c5nc(c(-c6c(F)cccc6F)c6ccc3[nH]6)C=C5)C=C4)cc2)cccc1-n1c(C)cc(/C=C2/C(=O)NC(=S)N=C2O)c1C
REMARK SMILES IDX 7 1 6 2 4 3 5 4 3 5 1 6 2 7 69 8 66 9 68 10 67 11 70 12
REMARK SMILES IDX 71 13 85 14 72 15 73 16 74 17 86 18 75 19 76 20 77 21 83 22
REMARK SMILES IDX 78 23 79 24 82 25 80 26 81 28 84 29 8 31 9 32 10 33 11 34
REMARK SMILES IDX 12 35 13 36 65 37 14 38 64 39 15 40 16 41 17 42 58 43 18 44
REMARK SMILES IDX 63 45 57 46 59 47 19 48 62 49 56 50 55 51 20 53 46 54 29 55
REMARK SMILES IDX 45 56 30 57 33 58 44 59 60 60 31 61 32 62 43 64 61 65 34 66
REMARK SMILES IDX 21 67 22 68 27 69 23 70 24 71 26 72 28 73 25 74 47 75 48 76
REMARK SMILES IDX 53 77 49 78 50 79 52 80 54 81 51 82 35 83 36 84 41 85 37 86
REMARK SMILES IDX 38 87 40 88 42 89 39 90
REMARK H PARENT 79 27 84 30 59 52 33 63
REMARK Flexibility Score: inf
ROOT
ATOM      1  C   UNL A   1      32.390  30.295  26.842  1.00  0.00     0.275 C 
ENDROOT
BRANCH   1   2
ATOM      2  O   UNL A   1      31.521  29.260  26.369  1.00  0.00    -0.458 OA
BRANCH   2   3
ATOM      3  C   UNL A   1      31.579  29.144  25.024  1.00  0.00     0.338 C 
ATOM      4  O   UNL A   1      31.861  30.041  24.242  1.00  0.00    -0.246 OA
BRANCH   3   5
ATOM      5  C   UNL A   1      31.136  27.836  24.522  1.00  0.00     0.065 A 
ATOM      6  C   UNL A   1      33.576  27.218  24.621  1.00  0.00     0.047 C 
ATOM      7  C   UNL A   1      32.116  26.839  24.495  1.00  0.00    -0.012 A 
ATOM      8  C   UNL A   1      31.684  25.528  24.250  1.00  0.00     0.049 A 
ATOM      9  C   UNL A   1      29.805  27.554  24.178  1.00  0.00     0.016 A 
ATOM     10  C   UNL A   1      30.336  25.210  24.020  1.00  0.00     0.027 A 
ATOM     11  C   UNL A   1      29.398  26.234  23.968  1.00  0.00     0.003 A 
BRANCH   8  12
ATOM     12  N   UNL A   1      32.644  24.607  23.800  1.00  0.00    -0.318 N 
ATOM     13  C   UNL A   1      32.884  24.249  22.489  1.00  0.00     0.020 A 
ATOM     14  C   UNL A   1      33.147  23.630  24.654  1.00  0.00     0.027 A 
ATOM     15  C   UNL A   1      32.268  24.951  21.324  1.00  0.00     0.065 C 
ATOM     16  C   UNL A   1      33.725  23.153  22.525  1.00  0.00     0.031 A 
ATOM     17  C   UNL A   1      33.938  22.795  23.887  1.00  0.00    -0.003 A 
ATOM     18  C   UNL A   1      32.725  23.583  26.095  1.00  0.00     0.065 C 
BRANCH  17  19
ATOM     19  C   UNL A   1      34.660  21.640  24.313  1.00  0.00     0.029 C 
ATOM     20  C   UNL A   1      34.232  20.435  24.733  1.00  0.00     0.102 C 
ATOM     21  C   UNL A   1      35.279  19.398  24.900  1.00  0.00     0.262 C 
ATOM     22  C   UNL A   1      32.874  19.930  24.947  1.00  0.00     0.226 C 
ATOM     23  O   UNL A   1      36.478  19.633  25.001  1.00  0.00    -0.269 OA
ATOM     24  N   UNL A   1      34.794  18.117  24.876  1.00  0.00    -0.297 N 
ATOM     25  N   UNL A   1      32.506  18.701  24.963  1.00  0.00    -0.184 NA
ATOM     26  C   UNL A   1      33.474  17.743  24.819  1.00  0.00     0.203 C 
ATOM     27  H   UNL A   1      35.458  17.391  24.902  1.00  0.00     0.172 HD
ATOM     28  S   UNL A   1      33.132  16.112  24.641  1.00  0.00    -0.038 S 
BRANCH  22  29
ATOM     29  O   UNL A   1      31.931  20.837  25.212  1.00  0.00    -0.493 OA
ATOM     30  H   UNL A   1      31.630  20.956  26.091  1.00  0.00     0.295 HD
ENDBRANCH  22  29
ENDBRANCH  17  19
ENDBRANCH   8  12
ENDBRANCH   3   5
ENDBRANCH   2   3
ENDBRANCH   1   2
BRANCH   1  31
ATOM     31  C   UNL A   1      33.774  29.779  27.227  1.00  0.00     0.275 C 
BRANCH  31  32
ATOM     32  O   UNL A   1      34.842  30.739  27.469  1.00  0.00    -0.458 OA
BRANCH  32  33
ATOM     33  C   UNL A   1      35.612  30.948  28.573  1.00  0.00     0.338 C 
ATOM     34  O   UNL A   1      35.267  31.690  29.465  1.00  0.00    -0.246 OA
BRANCH  33  35
ATOM     35  C   UNL A   1      36.886  30.210  28.686  1.00  0.00     0.060 A 
ATOM     36  C   UNL A   1      37.073  29.332  29.771  1.00  0.00     0.016 A 
ATOM     37  C   UNL A   1      37.841  30.318  27.689  1.00  0.00     0.016 A 
ATOM     38  C   UNL A   1      38.151  28.456  29.788  1.00  0.00     0.010 A 
ATOM     39  C   UNL A   1      38.828  29.371  27.624  1.00  0.00     0.010 A 
ATOM     40  C   UNL A   1      39.008  28.479  28.693  1.00  0.00    -0.014 A 
BRANCH  40  41
ATOM     41  C   UNL A   1      40.330  27.888  28.717  1.00  0.00     0.031 A 
ATOM     42  C   UNL A   1      40.566  26.516  28.260  1.00  0.00     0.074 A 
ATOM     43  C   UNL A   1      41.246  28.795  29.124  1.00  0.00     0.049 A 
ATOM     44  N   UNL A   1      41.354  25.684  28.851  1.00  0.00    -0.248 NA
ATOM     45  C   UNL A   1      39.871  25.924  27.114  1.00  0.00     0.031 C 
ATOM     46  C   UNL A   1      42.689  28.826  29.069  1.00  0.00     0.029 A 
ATOM     47  N   UNL A   1      40.916  29.954  29.850  1.00  0.00    -0.354 N 
ATOM     48  C   UNL A   1      41.569  24.672  27.937  1.00  0.00     0.074 A 
ATOM     49  C   UNL A   1      40.466  24.729  27.011  1.00  0.00     0.031 C 
ATOM     50  C   UNL A   1      43.122  29.737  29.969  1.00  0.00     0.029 A 
ATOM     51  C   UNL A   1      41.962  30.202  30.729  1.00  0.00     0.049 A 
ATOM     52  H   UNL A   1      40.096  30.489  29.752  1.00  0.00     0.167 HD
ATOM     53  C   UNL A   1      42.814  24.131  27.810  1.00  0.00     0.037 A 
ATOM     54  C   UNL A   1      41.707  29.989  32.056  1.00  0.00     0.037 A 
ATOM     55  C   UNL A   1      43.758  24.869  28.640  1.00  0.00     0.049 A 
ATOM     56  C   UNL A   1      42.475  28.797  32.581  1.00  0.00     0.074 A 
ATOM     57  C   UNL A   1      44.621  25.916  28.358  1.00  0.00     0.029 A 
ATOM     58  N   UNL A   1      43.606  24.861  30.010  1.00  0.00    -0.354 N 
ATOM     59  N   UNL A   1      42.966  27.854  31.823  1.00  0.00    -0.248 NA
ATOM     60  C   UNL A   1      42.711  28.551  33.998  1.00  0.00     0.031 C 
ATOM     61  C   UNL A   1      45.030  26.500  29.587  1.00  0.00     0.029 A 
ATOM     62  C   UNL A   1      44.389  25.826  30.608  1.00  0.00     0.049 A 
ATOM     63  H   UNL A   1      43.015  24.246  30.499  1.00  0.00     0.167 HD
ATOM     64  C   UNL A   1      43.642  26.952  32.593  1.00  0.00     0.074 A 
ATOM     65  C   UNL A   1      43.390  27.392  33.955  1.00  0.00     0.031 C 
ATOM     66  C   UNL A   1      44.369  25.929  32.053  1.00  0.00     0.037 A 
BRANCH  53  67
ATOM     67  C   UNL A   1      43.231  23.224  26.681  1.00  0.00     0.057 A 
ATOM     68  C   UNL A   1      43.042  21.831  26.753  1.00  0.00     0.134 A 
ATOM     69  C   UNL A   1      43.804  23.679  25.479  1.00  0.00     0.134 A 
ATOM     70  F   UNL A   1      42.440  21.251  27.798  1.00  0.00    -0.206 F 
ATOM     71  C   UNL A   1      43.463  20.949  25.754  1.00  0.00     0.040 A 
ATOM     72  C   UNL A   1      44.250  22.802  24.475  1.00  0.00     0.040 A 
ATOM     73  F   UNL A   1      43.934  24.990  25.225  1.00  0.00    -0.206 F 
ATOM     74  C   UNL A   1      44.090  21.429  24.616  1.00  0.00     0.006 A 
ENDBRANCH  53  67
BRANCH  54  75
ATOM     75  C   UNL A   1      40.306  30.349  32.481  1.00  0.00     0.057 A 
ATOM     76  C   UNL A   1      39.400  29.325  32.839  1.00  0.00     0.134 A 
ATOM     77  C   UNL A   1      39.919  31.653  32.810  1.00  0.00     0.134 A 
ATOM     78  F   UNL A   1      39.684  28.042  32.560  1.00  0.00    -0.206 F 
ATOM     79  C   UNL A   1      38.238  29.571  33.579  1.00  0.00     0.040 A 
ATOM     80  C   UNL A   1      38.739  31.915  33.525  1.00  0.00     0.040 A 
ATOM     81  F   UNL A   1      40.706  32.697  32.521  1.00  0.00    -0.206 F 
ATOM     82  C   UNL A   1      37.913  30.872  33.941  1.00  0.00     0.006 A 
ENDBRANCH  54  75
BRANCH  66  83
ATOM     83  C   UNL A   1      45.142  24.917  32.846  1.00  0.00     0.057 A 
ATOM     84  C   UNL A   1      44.588  23.711  33.287  1.00  0.00     0.134 A 
ATOM     85  C   UNL A   1      46.462  25.170  33.283  1.00  0.00     0.134 A 
ATOM     86  F   UNL A   1      43.295  23.423  33.081  1.00  0.00    -0.206 F 
ATOM     87  C   UNL A   1      45.335  22.767  33.998  1.00  0.00     0.040 A 
ATOM     88  C   UNL A   1      47.198  24.262  34.040  1.00  0.00     0.040 A 
ATOM     89  F   UNL A   1      47.114  26.302  32.990  1.00  0.00    -0.206 F 
ATOM     90  C   UNL A   1      46.647  23.038  34.370  1.00  0.00     0.006 A 
ENDBRANCH  66  83
ENDBRANCH  40  41
ENDBRANCH  33  35
ENDBRANCH  32  33
ENDBRANCH  31  32
ENDBRANCH   1  31
TORSDOF 14
ENDMDL
MODEL 3
REMARK VINA RESULT:     -12.9      3.520      9.435
REMARK SMILES Cc1c(C(=O)OCCOC(=O)c2ccc(-c3c4nc(c(-c5c(F)cccc5F)c5ccc([nH]5)c(-c5c(F)cccc5F)c5nc(c(-c6c(F)cccc6F)c6ccc3[nH]6)C=C5)C=C4)cc2)cccc1-n1c(C)cc(/C=C2/C(=O)NC(=S)N=C2O)c1C
REMARK SMILES IDX 7 1 6 2 4 3 5 4 3 5 1 6 2 7 69 8 66 9 68 10 67 11 70 12
REMARK SMILES IDX 71 13 85 14 72 15 73 16 74 17 86 18 75 19 76 20 77 21 83 22
REMARK SMILES IDX 78 23 79 24 82 25 80 26 81 28 84 29 8 31 9 32 10 33 11 34
REMARK SMILES IDX 12 35 13 36 65 37 14 38 64 39 15 40 16 41 17 42 58 43 18 44
REMARK SMILES IDX 63 45 57 46 59 47 19 48 62 49 56 50 55 51 20 53 46 54 29 55
REMARK SMILES IDX 45 56 30 57 33 58 44 59 60 60 31 61 32 62 43 64 61 65 34 66
REMARK SMILES IDX 21 67 22 68 27 69 23 70 24 71 26 72 28 73 25 74 47 75 48 76
REMARK SMILES IDX 53 77 49 78 50 79 52 80 54 81 51 82 35 83 36 84 41 85 37 86
REMARK SMILES IDX 38 87 40 88 42 89 39 90
REMARK H PARENT 79 27 84 30 59 52 33 63
REMARK Flexibility Score: inf
ROOT
ATOM      1  C   UNL A   1      31.856  30.843  26.372  1.00  0.00     0.275 C 
ENDROOT
BRANCH   1   2
ATOM      2  O   UNL A   1      31.712  29.483  25.948  1.00  0.00    -0.458 OA
BRANCH   2   3
ATOM      3  C   UNL A   1      31.111  29.404  24.740  1.00  0.00     0.338 C 
ATOM      4  O   UNL A   1      30.737  30.352  24.066  1.00  0.00    -0.246 OA
BRANCH   3   5
ATOM      5  C   UNL A   1      30.808  28.029  24.318  1.00  0.00     0.065 A 
ATOM      6  C   UNL A   1      33.296  27.669  24.458  1.00  0.00     0.047 C 
ATOM      7  C   UNL A   1      31.884  27.137  24.353  1.00  0.00    -0.012 A 
ATOM      8  C   UNL A   1      31.588  25.777  24.188  1.00  0.00     0.049 A 
ATOM      9  C   UNL A   1      29.515  27.594  23.990  1.00  0.00     0.016 A 
ATOM     10  C   UNL A   1      30.281  25.310  23.975  1.00  0.00     0.027 A 
ATOM     11  C   UNL A   1      29.244  26.229  23.859  1.00  0.00     0.003 A 
BRANCH   8  12
ATOM     12  N   UNL A   1      32.639  24.932  23.796  1.00  0.00    -0.318 N 
ATOM     13  C   UNL A   1      32.989  24.607  22.501  1.00  0.00     0.020 A 
ATOM     14  C   UNL A   1      33.156  23.985  24.674  1.00  0.00     0.027 A 
ATOM     15  C   UNL A   1      32.401  25.275  21.302  1.00  0.00     0.065 C 
ATOM     16  C   UNL A   1      33.903  23.574  22.586  1.00  0.00     0.031 A 
ATOM     17  C   UNL A   1      34.054  23.217  23.956  1.00  0.00    -0.003 A 
ATOM     18  C   UNL A   1      32.645  23.891  26.085  1.00  0.00     0.065 C 
BRANCH  17  19
ATOM     19  C   UNL A   1      34.828  22.113  24.422  1.00  0.00     0.029 C 
ATOM     20  C   UNL A   1      34.493  20.828  24.642  1.00  0.00     0.102 C 
ATOM     21  C   UNL A   1      35.618  19.906  24.931  1.00  0.00     0.262 C 
ATOM     22  C   UNL A   1      33.199  20.151  24.530  1.00  0.00     0.226 C 
ATOM     23  O   UNL A   1      36.732  20.264  25.295  1.00  0.00    -0.269 OA
ATOM     24  N   UNL A   1      35.321  18.588  24.700  1.00  0.00    -0.297 N 
ATOM     25  N   UNL A   1      33.003  18.894  24.367  1.00  0.00    -0.184 NA
ATOM     26  C   UNL A   1      34.099  18.074  24.343  1.00  0.00     0.203 C 
ATOM     27  H   UNL A   1      36.060  17.945  24.800  1.00  0.00     0.172 HD
ATOM     28  S   UNL A   1      34.020  16.444  23.963  1.00  0.00    -0.038 S 
BRANCH  22  29
ATOM     29  O   UNL A   1      32.110  20.910  24.673  1.00  0.00    -0.493 OA
ATOM     30  H   UNL A   1      31.396  20.822  24.073  1.00  0.00     0.295 HD
ENDBRANCH  22  29
ENDBRANCH  17  19
ENDBRANCH   8  12
ENDBRANCH   3   5
ENDBRANCH   2   3
ENDBRANCH   1   2
BRANCH   1  31
ATOM     31  C   UNL A   1      33.067  31.057  27.277  1.00  0.00     0.275 C 
BRANCH  31  32
ATOM     32  O   UNL A   1      33.439  32.417  27.644  1.00  0.00    -0.458 OA
BRANCH  32  33
ATOM     33  C   UNL A   1      34.136  32.885  28.716  1.00  0.00     0.338 C 
ATOM     34  O   UNL A   1      33.651  33.666  29.505  1.00  0.00    -0.246 OA
BRANCH  33  35
ATOM     35  C   UNL A   1      35.510  32.387  28.929  1.00  0.00     0.060 A 
ATOM     36  C   UNL A   1      36.596  33.182  28.514  1.00  0.00     0.016 A 
ATOM     37  C   UNL A   1      35.720  31.200  29.609  1.00  0.00     0.016 A 
ATOM     38  C   UNL A   1      37.890  32.859  28.902  1.00  0.00     0.010 A 
ATOM     39  C   UNL A   1      36.968  30.945  30.111  1.00  0.00     0.010 A 
ATOM     40  C   UNL A   1      38.052  31.745  29.717  1.00  0.00    -0.014 A 
BRANCH  40  41
ATOM     41  C   UNL A   1      39.332  31.096  29.917  1.00  0.00     0.031 A 
ATOM     42  C   UNL A   1      39.660  29.827  29.261  1.00  0.00     0.074 A 
ATOM     43  C   UNL A   1      40.135  31.860  30.688  1.00  0.00     0.049 A 
ATOM     44  N   UNL A   1      40.288  28.859  29.835  1.00  0.00    -0.248 NA
ATOM     45  C   UNL A   1      39.241  29.502  27.894  1.00  0.00     0.031 C 
ATOM     46  C   UNL A   1      41.553  31.830  30.964  1.00  0.00     0.029 A 
ATOM     47  N   UNL A   1      39.654  32.873  31.538  1.00  0.00    -0.354 N 
ATOM     48  C   UNL A   1      40.701  28.031  28.810  1.00  0.00     0.074 A 
ATOM     49  C   UNL A   1      39.839  28.320  27.692  1.00  0.00     0.031 C 
ATOM     50  C   UNL A   1      41.774  32.529  32.100  1.00  0.00     0.029 A 
ATOM     51  C   UNL A   1      40.473  32.895  32.660  1.00  0.00     0.049 A 
ATOM     52  H   UNL A   1      38.880  33.458  31.369  1.00  0.00     0.167 HD
ATOM     53  C   UNL A   1      41.940  27.464  28.859  1.00  0.00     0.037 A 
ATOM     54  C   UNL A   1      39.921  32.444  33.827  1.00  0.00     0.037 A 
ATOM     55  C   UNL A   1      42.673  27.981  30.007  1.00  0.00     0.049 A 
ATOM     56  C   UNL A   1      40.544  31.137  34.262  1.00  0.00     0.074 A 
ATOM     57  C   UNL A   1      43.582  29.019  30.137  1.00  0.00     0.029 A 
ATOM     58  N   UNL A   1      42.213  27.718  31.279  1.00  0.00    -0.354 N 
ATOM     59  N   UNL A   1      41.190  30.335  33.461  1.00  0.00    -0.248 NA
ATOM     60  C   UNL A   1      40.449  30.613  35.619  1.00  0.00     0.031 C 
ATOM     61  C   UNL A   1      43.703  29.335  31.517  1.00  0.00     0.029 A 
ATOM     62  C   UNL A   1      42.843  28.509  32.216  1.00  0.00     0.049 A 
ATOM     63  H   UNL A   1      41.523  27.050  31.493  1.00  0.00     0.167 HD
ATOM     64  C   UNL A   1      41.669  29.269  34.168  1.00  0.00     0.074 A 
ATOM     65  C   UNL A   1      41.115  29.451  35.499  1.00  0.00     0.031 C 
ATOM     66  C   UNL A   1      42.495  28.334  33.611  1.00  0.00     0.037 A 
BRANCH  53  67
ATOM     67  C   UNL A   1      42.599  26.771  27.693  1.00  0.00     0.057 A 
ATOM     68  C   UNL A   1      42.559  25.370  27.557  1.00  0.00     0.134 A 
ATOM     69  C   UNL A   1      43.269  27.445  26.656  1.00  0.00     0.134 A 
ATOM     70  F   UNL A   1      41.895  24.593  28.420  1.00  0.00    -0.206 F 
ATOM     71  C   UNL A   1      43.203  24.684  26.523  1.00  0.00     0.040 A 
ATOM     72  C   UNL A   1      43.937  26.766  25.622  1.00  0.00     0.040 A 
ATOM     73  F   UNL A   1      43.283  28.786  26.595  1.00  0.00    -0.206 F 
ATOM     74  C   UNL A   1      43.914  25.379  25.560  1.00  0.00     0.006 A 
ENDBRANCH  53  67
BRANCH  54  75
ATOM     75  C   UNL A   1      38.462  32.786  33.992  1.00  0.00     0.057 A 
ATOM     76  C   UNL A   1      38.084  34.122  34.256  1.00  0.00     0.134 A 
ATOM     77  C   UNL A   1      37.428  31.917  33.627  1.00  0.00     0.134 A 
ATOM     78  F   UNL A   1      39.008  35.029  34.617  1.00  0.00    -0.206 F 
ATOM     79  C   UNL A   1      36.779  34.590  34.059  1.00  0.00     0.040 A 
ATOM     80  C   UNL A   1      36.108  32.368  33.458  1.00  0.00     0.040 A 
ATOM     81  F   UNL A   1      37.677  30.631  33.349  1.00  0.00    -0.206 F 
ATOM     82  C   UNL A   1      35.788  33.712  33.641  1.00  0.00     0.006 A 
ENDBRANCH  54  75
BRANCH  66  83
ATOM     83  C   UNL A   1      43.062  27.151  34.339  1.00  0.00     0.057 A 
ATOM     84  C   UNL A   1      42.268  26.118  34.849  1.00  0.00     0.134 A 
ATOM     85  C   UNL A   1      44.439  27.059  34.642  1.00  0.00     0.134 A 
ATOM     86  F   UNL A   1      40.931  26.167  34.773  1.00  0.00    -0.206 F 
ATOM     87  C   UNL A   1      42.820  25.009  35.496  1.00  0.00     0.040 A 
ATOM     88  C   UNL A   1      44.993  25.987  35.337  1.00  0.00     0.040 A 
ATOM     89  F   UNL A   1      45.323  27.994  34.271  1.00  0.00    -0.206 F 
ATOM     90  C   UNL A   1      44.187  24.937  35.736  1.00  0.00     0.006 A 
ENDBRANCH  66  83
ENDBRANCH  40  41
ENDBRANCH  33  35
ENDBRANCH  32  33
ENDBRANCH  31  32
ENDBRANCH   1  31
TORSDOF 14
ENDMDL
