MODEL 1
REMARK VINA RESULT:     -13.2      0.000      0.000
REMARK SMILES O=C(OCCOC(=O)[C@H]1[C@H]2CC[C@H](CC2)[C@@H]1C(=O)Nc1sc2c(c1C(=O)N1CCCCC1)CCCC2)c1ccc(-c2c3nc(c(-c4c(F)cccc4F)c4ccc([nH]4)c(-c4c(F)cccc4F)c4nc(c(-c5c(F)cccc5F)c5ccc2[nH]5)C=C4)C=C3)cc1
REMARK SMILES IDX 5 1 4 2 3 3 2 4 1 5 37 6 38 7 90 8 39 9 89 10 40 11 41 12
REMARK SMILES IDX 42 13 83 14 43 15 88 16 82 17 84 18 44 19 87 20 81 21 80 22
REMARK SMILES IDX 45 24 71 25 54 26 70 27 55 28 58 29 69 30 85 31 56 32 57 33
REMARK SMILES IDX 68 35 86 36 59 37 46 38 47 39 52 40 48 41 49 42 51 43 53 44
REMARK SMILES IDX 50 45 72 46 73 47 78 48 74 49 75 50 77 51 79 52 76 53 60 54
REMARK SMILES IDX 61 55 66 56 62 57 63 58 65 59 67 60 64 61 6 62 7 63 8 64
REMARK SMILES IDX 9 65 10 66 16 67 15 68 11 69 13 70 14 71 12 72 17 73 18 74
REMARK SMILES IDX 19 75 20 77 21 78 24 79 22 80 23 81 36 82 33 83 35 84 34 85
REMARK SMILES IDX 25 86 26 87 27 88 28 89 32 90 29 91 31 92 30 93
REMARK H PARENT 84 23 58 34 19 76
REMARK Flexibility Score: inf
ROOT
ATOM      1  C   UNL A   1      31.887  29.480  26.566  1.00  0.00     0.274 C 
ENDROOT
BRANCH   1   2
ATOM      2  C   UNL A   1      32.914  30.485  27.106  1.00  0.00     0.275 C 
BRANCH   2   3
ATOM      3  O   UNL A   1      34.167  30.005  27.623  1.00  0.00    -0.458 OA
BRANCH   3   4
ATOM      4  C   UNL A   1      34.854  30.817  28.445  1.00  0.00     0.338 C 
ATOM      5  O   UNL A   1      34.379  31.812  28.972  1.00  0.00    -0.246 OA
BRANCH   4   6
ATOM      6  C   UNL A   1      36.226  30.308  28.720  1.00  0.00     0.060 A 
ATOM      7  C   UNL A   1      36.595  29.648  29.902  1.00  0.00     0.016 A 
ATOM      8  C   UNL A   1      37.153  30.411  27.686  1.00  0.00     0.016 A 
ATOM      9  C   UNL A   1      37.857  29.045  30.022  1.00  0.00     0.010 A 
ATOM     10  C   UNL A   1      38.378  29.750  27.779  1.00  0.00     0.010 A 
ATOM     11  C   UNL A   1      38.753  29.072  28.951  1.00  0.00    -0.014 A 
BRANCH  11  12
ATOM     12  C   UNL A   1      40.150  28.557  29.049  1.00  0.00     0.031 A 
ATOM     13  C   UNL A   1      41.200  29.519  29.484  1.00  0.00     0.074 A 
ATOM     14  C   UNL A   1      40.531  27.348  28.599  1.00  0.00     0.049 A 
ATOM     15  N   UNL A   1      42.494  29.422  29.368  1.00  0.00    -0.248 NA
ATOM     16  C   UNL A   1      40.718  30.814  29.987  1.00  0.00     0.031 C 
ATOM     17  C   UNL A   1      39.627  26.399  27.996  1.00  0.00     0.029 A 
ATOM     18  N   UNL A   1      41.747  26.719  28.524  1.00  0.00    -0.354 N 
ATOM     19  C   UNL A   1      42.968  30.682  29.677  1.00  0.00     0.074 A 
ATOM     20  C   UNL A   1      41.818  31.537  29.881  1.00  0.00     0.031 C 
ATOM     21  C   UNL A   1      40.285  25.293  27.618  1.00  0.00     0.029 A 
ATOM     22  C   UNL A   1      41.686  25.459  27.963  1.00  0.00     0.049 A 
ATOM     23  H   UNL A   1      42.586  27.128  28.839  1.00  0.00     0.167 HD
ATOM     24  C   UNL A   1      44.250  31.078  29.828  1.00  0.00     0.037 A 
ATOM     25  C   UNL A   1      42.652  24.542  27.764  1.00  0.00     0.037 A 
ATOM     26  C   UNL A   1      45.365  30.181  29.729  1.00  0.00     0.049 A 
ATOM     27  C   UNL A   1      44.054  24.922  28.139  1.00  0.00     0.074 A 
ATOM     28  C   UNL A   1      46.695  30.423  30.004  1.00  0.00     0.029 A 
ATOM     29  N   UNL A   1      45.263  28.847  29.351  1.00  0.00    -0.354 N 
ATOM     30  N   UNL A   1      44.500  26.092  28.531  1.00  0.00    -0.248 NA
ATOM     31  C   UNL A   1      45.084  23.881  28.051  1.00  0.00     0.031 C 
ATOM     32  C   UNL A   1      47.398  29.226  29.812  1.00  0.00     0.029 A 
ATOM     33  C   UNL A   1      46.501  28.239  29.430  1.00  0.00     0.049 A 
ATOM     34  H   UNL A   1      44.432  28.402  29.067  1.00  0.00     0.167 HD
ATOM     35  C   UNL A   1      45.855  25.926  28.759  1.00  0.00     0.074 A 
ATOM     36  C   UNL A   1      46.159  24.538  28.468  1.00  0.00     0.031 C 
ATOM     37  C   UNL A   1      46.763  26.844  29.166  1.00  0.00     0.037 A 
BRANCH  24  38
ATOM     38  C   UNL A   1      44.441  32.525  30.163  1.00  0.00     0.057 A 
ATOM     39  C   UNL A   1      44.701  33.477  29.165  1.00  0.00     0.134 A 
ATOM     40  C   UNL A   1      44.527  32.942  31.495  1.00  0.00     0.134 A 
ATOM     41  F   UNL A   1      44.671  33.127  27.868  1.00  0.00    -0.206 F 
ATOM     42  C   UNL A   1      45.129  34.766  29.480  1.00  0.00     0.040 A 
ATOM     43  C   UNL A   1      44.911  34.243  31.822  1.00  0.00     0.040 A 
ATOM     44  F   UNL A   1      44.290  32.083  32.498  1.00  0.00    -0.206 F 
ATOM     45  C   UNL A   1      45.239  35.150  30.814  1.00  0.00     0.006 A 
ENDBRANCH  24  38
BRANCH  25  46
ATOM     46  C   UNL A   1      42.325  23.178  27.267  1.00  0.00     0.057 A 
ATOM     47  C   UNL A   1      41.931  22.169  28.157  1.00  0.00     0.134 A 
ATOM     48  C   UNL A   1      42.384  22.843  25.910  1.00  0.00     0.134 A 
ATOM     49  F   UNL A   1      41.871  22.418  29.474  1.00  0.00    -0.206 F 
ATOM     50  C   UNL A   1      41.628  20.877  27.721  1.00  0.00     0.040 A 
ATOM     51  C   UNL A   1      42.063  21.559  25.456  1.00  0.00     0.040 A 
ATOM     52  F   UNL A   1      42.748  23.760  25.002  1.00  0.00    -0.206 F 
ATOM     53  C   UNL A   1      41.691  20.569  26.364  1.00  0.00     0.006 A 
ENDBRANCH  25  46
BRANCH  37  54
ATOM     54  C   UNL A   1      48.157  26.357  29.392  1.00  0.00     0.057 A 
ATOM     55  C   UNL A   1      49.134  26.429  28.394  1.00  0.00     0.134 A 
ATOM     56  C   UNL A   1      48.536  25.875  30.650  1.00  0.00     0.134 A 
ATOM     57  F   UNL A   1      48.822  26.866  27.165  1.00  0.00    -0.206 F 
ATOM     58  C   UNL A   1      50.449  26.035  28.642  1.00  0.00     0.040 A 
ATOM     59  C   UNL A   1      49.850  25.496  30.914  1.00  0.00     0.040 A 
ATOM     60  F   UNL A   1      47.639  25.784  31.643  1.00  0.00    -0.206 F 
ATOM     61  C   UNL A   1      50.812  25.576  29.909  1.00  0.00     0.006 A 
ENDBRANCH  37  54
ENDBRANCH  11  12
ENDBRANCH   4   6
ENDBRANCH   3   4
ENDBRANCH   2   3
ENDBRANCH   1   2
BRANCH   1  62
ATOM     62  O   UNL A   1      32.079  29.173  25.168  1.00  0.00    -0.462 OA
BRANCH  62  63
ATOM     63  C   UNL A   1      32.697  27.974  24.965  1.00  0.00     0.310 C 
ATOM     64  O   UNL A   1      33.917  27.849  24.897  1.00  0.00    -0.252 OA
BRANCH  63  65
ATOM     65  C   UNL A   1      31.763  26.771  24.843  1.00  0.00     0.115 C 
ATOM     66  C   UNL A   1      30.793  27.016  23.646  1.00  0.00     0.004 C 
ATOM     67  C   UNL A   1      32.421  25.370  24.753  1.00  0.00     0.096 C 
ATOM     68  C   UNL A   1      31.555  26.885  22.321  1.00  0.00     0.005 C 
ATOM     69  C   UNL A   1      29.680  25.946  23.659  1.00  0.00     0.005 C 
ATOM     70  C   UNL A   1      31.816  24.645  23.477  1.00  0.00     0.002 C 
ATOM     71  C   UNL A   1      32.084  25.462  22.192  1.00  0.00     0.005 C 
ATOM     72  C   UNL A   1      30.280  24.543  23.528  1.00  0.00     0.005 C 
BRANCH  67  73
ATOM     73  C   UNL A   1      32.153  24.546  26.062  1.00  0.00     0.229 C 
ATOM     74  O   UNL A   1      31.448  25.015  26.961  1.00  0.00    -0.274 OA
ATOM     75  N   UNL A   1      32.526  23.224  26.201  1.00  0.00    -0.317 N 
ATOM     76  H   UNL A   1      31.833  22.651  26.604  1.00  0.00     0.170 HD
BRANCH  75  77
ATOM     77  C   UNL A   1      33.694  22.555  25.878  1.00  0.00     0.108 A 
ATOM     78  S   UNL A   1      35.144  23.296  26.340  1.00  0.00    -0.122 S 
ATOM     79  C   UNL A   1      33.877  21.243  25.406  1.00  0.00     0.078 A 
ATOM     80  C   UNL A   1      36.070  21.992  25.813  1.00  0.00     0.011 A 
ATOM     81  C   UNL A   1      35.306  20.961  25.305  1.00  0.00    -0.019 A 
ATOM     82  C   UNL A   1      37.559  21.974  25.948  1.00  0.00     0.047 C 
ATOM     83  C   UNL A   1      35.968  19.723  24.769  1.00  0.00     0.037 C 
ATOM     84  C   UNL A   1      38.158  21.026  24.908  1.00  0.00     0.006 C 
ATOM     85  C   UNL A   1      37.484  19.658  24.992  1.00  0.00     0.005 C 
BRANCH  79  86
ATOM     86  C   UNL A   1      32.748  20.336  25.058  1.00  0.00     0.257 C 
ATOM     87  O   UNL A   1      31.585  20.734  25.050  1.00  0.00    -0.269 OA
ATOM     88  N   UNL A   1      33.063  19.007  24.732  1.00  0.00    -0.339 N 
ATOM     89  C   UNL A   1      32.627  18.516  23.426  1.00  0.00     0.120 C 
ATOM     90  C   UNL A   1      32.912  18.001  25.782  1.00  0.00     0.120 C 
ATOM     91  C   UNL A   1      33.445  17.292  23.010  1.00  0.00     0.022 C 
ATOM     92  C   UNL A   1      33.705  16.727  25.465  1.00  0.00     0.022 C 
ATOM     93  C   UNL A   1      33.400  16.188  24.069  1.00  0.00     0.004 C 
ENDBRANCH  79  86
ENDBRANCH  75  77
ENDBRANCH  67  73
ENDBRANCH  63  65
ENDBRANCH  62  63
ENDBRANCH   1  62
TORSDOF 14
ENDMDL
MODEL 2
REMARK VINA RESULT:     -13.2      1.341      1.760
REMARK SMILES O=C(OCCOC(=O)[C@H]1[C@H]2CC[C@H](CC2)[C@@H]1C(=O)Nc1sc2c(c1C(=O)N1CCCCC1)CCCC2)c1ccc(-c2c3nc(c(-c4c(F)cccc4F)c4ccc([nH]4)c(-c4c(F)cccc4F)c4nc(c(-c5c(F)cccc5F)c5ccc2[nH]5)C=C4)C=C3)cc1
REMARK SMILES IDX 5 1 4 2 3 3 2 4 1 5 37 6 38 7 90 8 39 9 89 10 40 11 41 12
REMARK SMILES IDX 42 13 83 14 43 15 88 16 82 17 84 18 44 19 87 20 81 21 80 22
REMARK SMILES IDX 45 24 71 25 54 26 70 27 55 28 58 29 69 30 85 31 56 32 57 33
REMARK SMILES IDX 68 35 86 36 59 37 46 38 47 39 52 40 48 41 49 42 51 43 53 44
REMARK SMILES IDX 50 45 72 46 73 47 78 48 74 49 75 50 77 51 79 52 76 53 60 54
REMARK SMILES IDX 61 55 66 56 62 57 63 58 65 59 67 60 64 61 6 62 7 63 8 64
REMARK SMILES IDX 9 65 10 66 16 67 15 68 11 69 13 70 14 71 12 72 17 73 18 74
REMARK SMILES IDX 19 75 20 77 21 78 24 79 22 80 23 81 36 82 33 83 35 84 34 85
REMARK SMILES IDX 25 86 26 87 27 88 28 89 32 90 29 91 31 92 30 93
REMARK H PARENT 84 23 58 34 19 76
REMARK Flexibility Score: inf
ROOT
ATOM      1  C   UNL A   1      33.071  30.057  26.307  1.00  0.00     0.274 C 
ENDROOT
BRANCH   1   2
ATOM      2  C   UNL A   1      33.844  30.709  27.462  1.00  0.00     0.275 C 
BRANCH   2   3
ATOM      3  O   UNL A   1      34.851  29.951  28.155  1.00  0.00    -0.458 OA
BRANCH   3   4
ATOM      4  C   UNL A   1      35.642  30.611  29.019  1.00  0.00     0.338 C 
ATOM      5  O   UNL A   1      35.238  31.464  29.795  1.00  0.00    -0.246 OA
BRANCH   4   6
ATOM      6  C   UNL A   1      37.043  30.108  28.993  1.00  0.00     0.060 A 
ATOM      7  C   UNL A   1      37.697  29.553  30.103  1.00  0.00     0.016 A 
ATOM      8  C   UNL A   1      37.685  30.103  27.758  1.00  0.00     0.016 A 
ATOM      9  C   UNL A   1      38.955  28.945  29.963  1.00  0.00     0.010 A 
ATOM     10  C   UNL A   1      38.900  29.435  27.605  1.00  0.00     0.010 A 
ATOM     11  C   UNL A   1      39.559  28.861  28.706  1.00  0.00    -0.014 A 
BRANCH  11  12
ATOM     12  C   UNL A   1      40.940  28.337  28.503  1.00  0.00     0.031 A 
ATOM     13  C   UNL A   1      42.053  29.326  28.522  1.00  0.00     0.074 A 
ATOM     14  C   UNL A   1      41.210  27.073  28.130  1.00  0.00     0.049 A 
ATOM     15  N   UNL A   1      43.274  29.190  28.087  1.00  0.00    -0.248 NA
ATOM     16  C   UNL A   1      41.699  30.684  28.961  1.00  0.00     0.031 C 
ATOM     17  C   UNL A   1      40.195  26.071  27.912  1.00  0.00     0.029 A 
ATOM     18  N   UNL A   1      42.374  26.415  27.824  1.00  0.00    -0.354 N 
ATOM     19  C   UNL A   1      43.792  30.471  28.097  1.00  0.00     0.074 A 
ATOM     20  C   UNL A   1      42.722  31.366  28.480  1.00  0.00     0.031 C 
ATOM     21  C   UNL A   1      40.749  24.913  27.522  1.00  0.00     0.029 A 
ATOM     22  C   UNL A   1      42.189  25.096  27.466  1.00  0.00     0.049 A 
ATOM     23  H   UNL A   1      43.260  26.846  27.854  1.00  0.00     0.167 HD
ATOM     24  C   UNL A   1      45.063  30.859  27.857  1.00  0.00     0.037 A 
ATOM     25  C   UNL A   1      43.083  24.142  27.144  1.00  0.00     0.037 A 
ATOM     26  C   UNL A   1      46.128  29.935  27.588  1.00  0.00     0.049 A 
ATOM     27  C   UNL A   1      44.528  24.541  27.089  1.00  0.00     0.074 A 
ATOM     28  C   UNL A   1      47.480  30.185  27.475  1.00  0.00     0.029 A 
ATOM     29  N   UNL A   1      45.951  28.566  27.426  1.00  0.00    -0.354 N 
ATOM     30  N   UNL A   1      45.043  25.743  27.197  1.00  0.00    -0.248 NA
ATOM     31  C   UNL A   1      45.516  23.478  26.872  1.00  0.00     0.031 C 
ATOM     32  C   UNL A   1      48.126  28.960  27.263  1.00  0.00     0.029 A 
ATOM     33  C   UNL A   1      47.176  27.949  27.259  1.00  0.00     0.049 A 
ATOM     34  H   UNL A   1      45.081  28.104  27.428  1.00  0.00     0.167 HD
ATOM     35  C   UNL A   1      46.413  25.582  27.084  1.00  0.00     0.074 A 
ATOM     36  C   UNL A   1      46.652  24.162  26.906  1.00  0.00     0.031 C 
ATOM     37  C   UNL A   1      47.382  26.527  27.118  1.00  0.00     0.037 A 
BRANCH  24  38
ATOM     38  C   UNL A   1      45.313  32.332  27.940  1.00  0.00     0.057 A 
ATOM     39  C   UNL A   1      45.276  33.145  26.796  1.00  0.00     0.134 A 
ATOM     40  C   UNL A   1      45.749  32.914  29.134  1.00  0.00     0.134 A 
ATOM     41  F   UNL A   1      44.902  32.633  25.612  1.00  0.00    -0.206 F 
ATOM     42  C   UNL A   1      45.751  34.455  26.817  1.00  0.00     0.040 A 
ATOM     43  C   UNL A   1      46.185  34.239  29.177  1.00  0.00     0.040 A 
ATOM     44  F   UNL A   1      45.808  32.194  30.265  1.00  0.00    -0.206 F 
ATOM     45  C   UNL A   1      46.212  35.004  28.010  1.00  0.00     0.006 A 
ENDBRANCH  24  38
BRANCH  25  46
ATOM     46  C   UNL A   1      42.659  22.732  26.930  1.00  0.00     0.057 A 
ATOM     47  C   UNL A   1      42.635  22.180  25.643  1.00  0.00     0.134 A 
ATOM     48  C   UNL A   1      42.277  21.899  27.988  1.00  0.00     0.134 A 
ATOM     49  F   UNL A   1      42.971  22.929  24.582  1.00  0.00    -0.206 F 
ATOM     50  C   UNL A   1      42.232  20.862  25.411  1.00  0.00     0.040 A 
ATOM     51  C   UNL A   1      41.891  20.572  27.774  1.00  0.00     0.040 A 
ATOM     52  F   UNL A   1      42.280  22.360  29.247  1.00  0.00    -0.206 F 
ATOM     53  C   UNL A   1      41.860  20.052  26.481  1.00  0.00     0.006 A 
ENDBRANCH  25  46
BRANCH  37  54
ATOM     54  C   UNL A   1      48.794  26.047  27.036  1.00  0.00     0.057 A 
ATOM     55  C   UNL A   1      49.482  25.988  25.819  1.00  0.00     0.134 A 
ATOM     56  C   UNL A   1      49.488  25.707  28.201  1.00  0.00     0.134 A 
ATOM     57  F   UNL A   1      48.861  26.285  24.669  1.00  0.00    -0.206 F 
ATOM     58  C   UNL A   1      50.822  25.603  25.767  1.00  0.00     0.040 A 
ATOM     59  C   UNL A   1      50.832  25.339  28.164  1.00  0.00     0.040 A 
ATOM     60  F   UNL A   1      48.876  25.746  29.395  1.00  0.00    -0.206 F 
ATOM     61  C   UNL A   1      51.503  25.288  26.943  1.00  0.00     0.006 A 
ENDBRANCH  37  54
ENDBRANCH  11  12
ENDBRANCH   4   6
ENDBRANCH   3   4
ENDBRANCH   2   3
ENDBRANCH   1   2
BRANCH   1  62
ATOM     62  O   UNL A   1      32.331  28.885  26.712  1.00  0.00    -0.462 OA
BRANCH  62  63
ATOM     63  C   UNL A   1      32.867  27.724  26.234  1.00  0.00     0.310 C 
ATOM     64  O   UNL A   1      34.075  27.510  26.186  1.00  0.00    -0.252 OA
BRANCH  63  65
ATOM     65  C   UNL A   1      31.851  26.680  25.771  1.00  0.00     0.115 C 
ATOM     66  C   UNL A   1      30.958  27.315  24.661  1.00  0.00     0.004 C 
ATOM     67  C   UNL A   1      32.405  25.303  25.326  1.00  0.00     0.096 C 
ATOM     68  C   UNL A   1      31.768  27.476  23.368  1.00  0.00     0.005 C 
ATOM     69  C   UNL A   1      29.769  26.378  24.360  1.00  0.00     0.005 C 
ATOM     70  C   UNL A   1      31.807  24.996  23.887  1.00  0.00     0.002 C 
ATOM     71  C   UNL A   1      32.195  26.099  22.876  1.00  0.00     0.005 C 
ATOM     72  C   UNL A   1      30.267  25.015  23.872  1.00  0.00     0.005 C 
BRANCH  67  73
ATOM     73  C   UNL A   1      32.016  24.187  26.359  1.00  0.00     0.229 C 
ATOM     74  O   UNL A   1      31.194  24.421  27.251  1.00  0.00    -0.274 OA
ATOM     75  N   UNL A   1      32.416  22.872  26.225  1.00  0.00    -0.317 N 
ATOM     76  H   UNL A   1      31.702  22.215  26.393  1.00  0.00     0.170 HD
BRANCH  75  77
ATOM     77  C   UNL A   1      33.637  22.308  25.897  1.00  0.00     0.108 A 
ATOM     78  S   UNL A   1      35.017  23.092  26.485  1.00  0.00    -0.122 S 
ATOM     79  C   UNL A   1      33.923  21.058  25.321  1.00  0.00     0.078 A 
ATOM     80  C   UNL A   1      36.046  21.900  25.889  1.00  0.00     0.011 A 
ATOM     81  C   UNL A   1      35.371  20.873  25.259  1.00  0.00    -0.019 A 
ATOM     82  C   UNL A   1      37.527  21.962  26.088  1.00  0.00     0.047 C 
ATOM     83  C   UNL A   1      36.133  19.731  24.648  1.00  0.00     0.037 C 
ATOM     84  C   UNL A   1      38.226  21.149  24.997  1.00  0.00     0.006 C 
ATOM     85  C   UNL A   1      37.640  19.741  24.931  1.00  0.00     0.005 C 
BRANCH  79  86
ATOM     86  C   UNL A   1      32.870  20.118  24.846  1.00  0.00     0.257 C 
ATOM     87  O   UNL A   1      31.728  20.502  24.608  1.00  0.00    -0.269 OA
ATOM     88  N   UNL A   1      33.235  18.773  24.672  1.00  0.00    -0.339 N 
ATOM     89  C   UNL A   1      33.032  18.189  23.348  1.00  0.00     0.120 C 
ATOM     90  C   UNL A   1      32.901  17.840  25.747  1.00  0.00     0.120 C 
ATOM     91  C   UNL A   1      33.907  16.948  23.165  1.00  0.00     0.022 C 
ATOM     92  C   UNL A   1      33.735  16.554  25.661  1.00  0.00     0.022 C 
ATOM     93  C   UNL A   1      33.676  15.918  24.274  1.00  0.00     0.004 C 
ENDBRANCH  79  86
ENDBRANCH  75  77
ENDBRANCH  67  73
ENDBRANCH  63  65
ENDBRANCH  62  63
ENDBRANCH   1  62
TORSDOF 14
ENDMDL
MODEL 3
REMARK VINA RESULT:     -12.9      1.443      5.991
REMARK SMILES O=C(OCCOC(=O)[C@H]1[C@H]2CC[C@H](CC2)[C@@H]1C(=O)Nc1sc2c(c1C(=O)N1CCCCC1)CCCC2)c1ccc(-c2c3nc(c(-c4c(F)cccc4F)c4ccc([nH]4)c(-c4c(F)cccc4F)c4nc(c(-c5c(F)cccc5F)c5ccc2[nH]5)C=C4)C=C3)cc1
REMARK SMILES IDX 5 1 4 2 3 3 2 4 1 5 37 6 38 7 90 8 39 9 89 10 40 11 41 12
REMARK SMILES IDX 42 13 83 14 43 15 88 16 82 17 84 18 44 19 87 20 81 21 80 22
REMARK SMILES IDX 45 24 71 25 54 26 70 27 55 28 58 29 69 30 85 31 56 32 57 33
REMARK SMILES IDX 68 35 86 36 59 37 46 38 47 39 52 40 48 41 49 42 51 43 53 44
REMARK SMILES IDX 50 45 72 46 73 47 78 48 74 49 75 50 77 51 79 52 76 53 60 54
REMARK SMILES IDX 61 55 66 56 62 57 63 58 65 59 67 60 64 61 6 62 7 63 8 64
REMARK SMILES IDX 9 65 10 66 16 67 15 68 11 69 13 70 14 71 12 72 17 73 18 74
REMARK SMILES IDX 19 75 20 77 21 78 24 79 22 80 23 81 36 82 33 83 35 84 34 85
REMARK SMILES IDX 25 86 26 87 27 88 28 89 32 90 29 91 31 92 30 93
REMARK H PARENT 84 23 58 34 19 76
REMARK Flexibility Score: inf
ROOT
ATOM      1  C   UNL A   1      33.194  28.989  26.825  1.00  0.00     0.274 C 
ENDROOT
BRANCH   1   2
ATOM      2  C   UNL A   1      34.648  29.383  27.123  1.00  0.00     0.275 C 
BRANCH   2   3
ATOM      3  O   UNL A   1      35.166  29.214  28.454  1.00  0.00    -0.458 OA
BRANCH   3   4
ATOM      4  C   UNL A   1      35.944  30.194  28.948  1.00  0.00     0.338 C 
ATOM      5  O   UNL A   1      35.510  31.188  29.511  1.00  0.00    -0.246 OA
BRANCH   4   6
ATOM      6  C   UNL A   1      37.393  29.878  28.820  1.00  0.00     0.060 A 
ATOM      7  C   UNL A   1      38.179  29.368  29.865  1.00  0.00     0.016 A 
ATOM      8  C   UNL A   1      37.954  30.003  27.553  1.00  0.00     0.016 A 
ATOM      9  C   UNL A   1      39.492  28.932  29.628  1.00  0.00     0.010 A 
ATOM     10  C   UNL A   1      39.232  29.503  27.303  1.00  0.00     0.010 A 
ATOM     11  C   UNL A   1      40.024  28.976  28.337  1.00  0.00    -0.014 A 
BRANCH  11  12
ATOM     12  C   UNL A   1      41.446  28.643  28.034  1.00  0.00     0.031 A 
ATOM     13  C   UNL A   1      41.749  27.235  27.656  1.00  0.00     0.074 A 
ATOM     14  C   UNL A   1      42.472  29.483  28.257  1.00  0.00     0.049 A 
ATOM     15  N   UNL A   1      42.900  26.624  27.637  1.00  0.00    -0.248 NA
ATOM     16  C   UNL A   1      40.585  26.372  27.403  1.00  0.00     0.031 C 
ATOM     17  C   UNL A   1      42.312  30.815  28.788  1.00  0.00     0.029 A 
ATOM     18  N   UNL A   1      43.831  29.358  28.124  1.00  0.00    -0.354 N 
ATOM     19  C   UNL A   1      42.583  25.288  27.482  1.00  0.00     0.074 A 
ATOM     20  C   UNL A   1      41.141  25.180  27.516  1.00  0.00     0.031 C 
ATOM     21  C   UNL A   1      43.503  31.414  28.932  1.00  0.00     0.029 A 
ATOM     22  C   UNL A   1      44.532  30.489  28.489  1.00  0.00     0.049 A 
ATOM     23  H   UNL A   1      44.267  28.536  27.800  1.00  0.00     0.167 HD
ATOM     24  C   UNL A   1      43.422  24.250  27.276  1.00  0.00     0.037 A 
ATOM     25  C   UNL A   1      45.852  30.749  28.457  1.00  0.00     0.037 A 
ATOM     26  C   UNL A   1      44.841  24.404  27.135  1.00  0.00     0.049 A 
ATOM     27  C   UNL A   1      46.764  29.642  28.018  1.00  0.00     0.074 A 
ATOM     28  C   UNL A   1      45.782  23.460  26.779  1.00  0.00     0.029 A 
ATOM     29  N   UNL A   1      45.517  25.606  27.313  1.00  0.00    -0.354 N 
ATOM     30  N   UNL A   1      46.460  28.390  27.769  1.00  0.00    -0.248 NA
ATOM     31  C   UNL A   1      48.186  29.962  27.851  1.00  0.00     0.031 C 
ATOM     32  C   UNL A   1      47.029  24.096  26.721  1.00  0.00     0.029 A 
ATOM     33  C   UNL A   1      46.860  25.438  27.029  1.00  0.00     0.049 A 
ATOM     34  H   UNL A   1      45.102  26.451  27.600  1.00  0.00     0.167 HD
ATOM     35  C   UNL A   1      47.642  27.777  27.396  1.00  0.00     0.074 A 
ATOM     36  C   UNL A   1      48.673  28.797  27.443  1.00  0.00     0.031 C 
ATOM     37  C   UNL A   1      47.854  26.484  27.052  1.00  0.00     0.037 A 
BRANCH  24  38
ATOM     38  C   UNL A   1      42.768  22.909  27.150  1.00  0.00     0.057 A 
ATOM     39  C   UNL A   1      42.453  22.366  25.894  1.00  0.00     0.134 A 
ATOM     40  C   UNL A   1      42.306  22.233  28.283  1.00  0.00     0.134 A 
ATOM     41  F   UNL A   1      42.836  22.991  24.769  1.00  0.00    -0.206 F 
ATOM     42  C   UNL A   1      41.625  21.252  25.769  1.00  0.00     0.040 A 
ATOM     43  C   UNL A   1      41.514  21.089  28.171  1.00  0.00     0.040 A 
ATOM     44  F   UNL A   1      42.573  22.698  29.514  1.00  0.00    -0.206 F 
ATOM     45  C   UNL A   1      41.149  20.613  26.911  1.00  0.00     0.006 A 
ENDBRANCH  24  38
BRANCH  25  46
ATOM     46  C   UNL A   1      46.375  32.107  28.768  1.00  0.00     0.057 A 
ATOM     47  C   UNL A   1      46.823  32.423  30.058  1.00  0.00     0.134 A 
ATOM     48  C   UNL A   1      46.453  33.116  27.802  1.00  0.00     0.134 A 
ATOM     49  F   UNL A   1      46.759  31.507  31.036  1.00  0.00    -0.206 F 
ATOM     50  C   UNL A   1      47.309  33.692  30.381  1.00  0.00     0.040 A 
ATOM     51  C   UNL A   1      46.957  34.385  28.105  1.00  0.00     0.040 A 
ATOM     52  F   UNL A   1      46.046  32.883  26.546  1.00  0.00    -0.206 F 
ATOM     53  C   UNL A   1      47.380  34.679  29.401  1.00  0.00     0.006 A 
ENDBRANCH  25  46
BRANCH  37  54
ATOM     54  C   UNL A   1      49.239  26.119  26.628  1.00  0.00     0.057 A 
ATOM     55  C   UNL A   1      49.704  26.374  25.334  1.00  0.00     0.134 A 
ATOM     56  C   UNL A   1      50.134  25.569  27.552  1.00  0.00     0.134 A 
ATOM     57  F   UNL A   1      48.885  26.883  24.403  1.00  0.00    -0.206 F 
ATOM     58  C   UNL A   1      51.021  26.091  24.972  1.00  0.00     0.040 A 
ATOM     59  C   UNL A   1      51.457  25.300  27.208  1.00  0.00     0.040 A 
ATOM     60  F   UNL A   1      49.740  25.304  28.807  1.00  0.00    -0.206 F 
ATOM     61  C   UNL A   1      51.904  25.562  25.914  1.00  0.00     0.006 A 
ENDBRANCH  37  54
ENDBRANCH  11  12
ENDBRANCH   4   6
ENDBRANCH   3   4
ENDBRANCH   2   3
ENDBRANCH   1   2
BRANCH   1  62
ATOM     62  O   UNL A   1      33.073  28.073  25.715  1.00  0.00    -0.462 OA
BRANCH  62  63
ATOM     63  C   UNL A   1      31.818  28.043  25.183  1.00  0.00     0.310 C 
ATOM     64  O   UNL A   1      31.174  29.055  24.919  1.00  0.00    -0.252 OA
BRANCH  63  65
ATOM     65  C   UNL A   1      31.258  26.647  24.911  1.00  0.00     0.115 C 
ATOM     66  C   UNL A   1      30.487  26.676  23.556  1.00  0.00     0.004 C 
ATOM     67  C   UNL A   1      32.256  25.462  24.962  1.00  0.00     0.096 C 
ATOM     68  C   UNL A   1      31.480  26.785  22.392  1.00  0.00     0.005 C 
ATOM     69  C   UNL A   1      29.699  25.360  23.384  1.00  0.00     0.005 C 
ATOM     70  C   UNL A   1      32.093  24.649  23.608  1.00  0.00     0.002 C 
ATOM     71  C   UNL A   1      32.368  25.548  22.381  1.00  0.00     0.005 C 
ATOM     72  C   UNL A   1      30.650  24.160  23.383  1.00  0.00     0.005 C 
BRANCH  67  73
ATOM     73  C   UNL A   1      31.978  24.555  26.213  1.00  0.00     0.229 C 
ATOM     74  O   UNL A   1      31.259  24.961  27.131  1.00  0.00    -0.274 OA
ATOM     75  N   UNL A   1      32.359  23.229  26.273  1.00  0.00    -0.317 N 
ATOM     76  H   UNL A   1      31.665  22.627  26.631  1.00  0.00     0.170 HD
BRANCH  75  77
ATOM     77  C   UNL A   1      33.536  22.590  25.924  1.00  0.00     0.108 A 
ATOM     78  S   UNL A   1      34.977  23.360  26.365  1.00  0.00    -0.122 S 
ATOM     79  C   UNL A   1      33.740  21.286  25.437  1.00  0.00     0.078 A 
ATOM     80  C   UNL A   1      35.923  22.082  25.810  1.00  0.00     0.011 A 
ATOM     81  C   UNL A   1      35.173  21.037  25.308  1.00  0.00    -0.019 A 
ATOM     82  C   UNL A   1      37.415  22.097  25.919  1.00  0.00     0.047 C 
ATOM     83  C   UNL A   1      35.854  19.819  24.750  1.00  0.00     0.037 C 
ATOM     84  C   UNL A   1      38.016  21.171  24.860  1.00  0.00     0.006 C 
ATOM     85  C   UNL A   1      37.375  19.787  24.944  1.00  0.00     0.005 C 
BRANCH  79  86
ATOM     86  C   UNL A   1      32.626  20.356  25.103  1.00  0.00     0.257 C 
ATOM     87  O   UNL A   1      31.457  20.733  25.095  1.00  0.00    -0.269 OA
ATOM     88  N   UNL A   1      32.964  19.030  24.787  1.00  0.00    -0.339 N 
ATOM     89  C   UNL A   1      32.531  18.519  23.488  1.00  0.00     0.120 C 
ATOM     90  C   UNL A   1      32.834  18.031  25.848  1.00  0.00     0.120 C 
ATOM     91  C   UNL A   1      33.369  17.306  23.080  1.00  0.00     0.022 C 
ATOM     92  C   UNL A   1      33.648  16.768  25.539  1.00  0.00     0.022 C 
ATOM     93  C   UNL A   1      33.347  16.211  24.149  1.00  0.00     0.004 C 
ENDBRANCH  79  86
ENDBRANCH  75  77
ENDBRANCH  67  73
ENDBRANCH  63  65
ENDBRANCH  62  63
ENDBRANCH   1  62
TORSDOF 14
ENDMDL
