MODEL 1
REMARK VINA RESULT:     -13.0      0.000      0.000
REMARK SMILES O=C(OCCOC(=O)C1(n2cnc3ccccc32)CC[NH+](Cc2cccc3nonc23)CC1)c1ccc(-c2c3nc(c(-c4c(F)cccc4F)c4ccc([nH]4)c(-c4c(F)cccc4F)c4nc(c(-c5c(F)cccc5F)c5ccc2[nH]5)C=C4)C=C3)cc1
REMARK SMILES IDX 4 1 3 2 2 3 1 4 34 5 35 6 87 7 36 8 86 9 37 10 38 11 39 12
REMARK SMILES IDX 80 13 40 14 85 15 79 16 81 17 41 18 84 19 78 20 77 21 42 23
REMARK SMILES IDX 68 24 51 25 67 26 52 27 55 28 66 29 82 30 53 31 54 32 65 34
REMARK SMILES IDX 83 35 56 36 43 37 44 38 49 39 45 40 46 41 48 42 50 43 47 44
REMARK SMILES IDX 69 45 70 46 75 47 71 48 72 49 74 50 76 51 73 52 57 53 58 54
REMARK SMILES IDX 63 55 59 56 60 57 62 58 64 59 61 60 5 61 6 62 7 63 8 64 9 65
REMARK SMILES IDX 19 66 33 67 20 68 32 69 21 70 10 72 11 73 18 74 12 75 13 76
REMARK SMILES IDX 17 77 14 78 16 79 15 80 22 81 23 82 24 83 31 84 25 85 27 86
REMARK SMILES IDX 30 87 26 88 28 89 29 90
REMARK H PARENT 81 22 55 33 21 71
REMARK Flexibility Score: inf
ROOT
ATOM      1  C   UNL A   1      34.171  28.933  26.328  1.00  0.00     0.275 C 
ENDROOT
BRANCH   1   2
ATOM      2  O   UNL A   1      35.370  28.876  27.128  1.00  0.00    -0.458 OA
BRANCH   2   3
ATOM      3  C   UNL A   1      35.897  29.957  27.765  1.00  0.00     0.338 C 
ATOM      4  O   UNL A   1      35.513  31.102  27.572  1.00  0.00    -0.246 OA
BRANCH   3   5
ATOM      5  C   UNL A   1      37.146  29.689  28.488  1.00  0.00     0.060 A 
ATOM      6  C   UNL A   1      38.270  30.027  27.772  1.00  0.00     0.016 A 
ATOM      7  C   UNL A   1      37.248  28.901  29.633  1.00  0.00     0.016 A 
ATOM      8  C   UNL A   1      39.443  29.353  28.011  1.00  0.00     0.010 A 
ATOM      9  C   UNL A   1      38.470  28.274  29.913  1.00  0.00     0.010 A 
ATOM     10  C   UNL A   1      39.541  28.411  29.023  1.00  0.00    -0.014 A 
BRANCH  10  11
ATOM     11  C   UNL A   1      40.802  27.645  28.999  1.00  0.00     0.031 A 
ATOM     12  C   UNL A   1      41.742  27.890  30.151  1.00  0.00     0.074 A 
ATOM     13  C   UNL A   1      41.135  26.820  27.986  1.00  0.00     0.049 A 
ATOM     14  N   UNL A   1      43.019  28.135  30.131  1.00  0.00    -0.248 NA
ATOM     15  C   UNL A   1      41.131  28.034  31.489  1.00  0.00     0.031 C 
ATOM     16  C   UNL A   1      40.290  26.427  26.856  1.00  0.00     0.029 A 
ATOM     17  N   UNL A   1      42.254  26.049  27.820  1.00  0.00    -0.354 N 
ATOM     18  C   UNL A   1      43.391  28.287  31.469  1.00  0.00     0.074 A 
ATOM     19  C   UNL A   1      42.178  28.378  32.233  1.00  0.00     0.031 C 
ATOM     20  C   UNL A   1      40.785  25.299  26.312  1.00  0.00     0.029 A 
ATOM     21  C   UNL A   1      42.022  24.958  26.993  1.00  0.00     0.049 A 
ATOM     22  H   UNL A   1      43.123  26.246  28.238  1.00  0.00     0.167 HD
ATOM     23  C   UNL A   1      44.655  28.069  31.920  1.00  0.00     0.037 A 
ATOM     24  C   UNL A   1      42.701  23.787  26.971  1.00  0.00     0.037 A 
ATOM     25  C   UNL A   1      45.654  28.245  30.908  1.00  0.00     0.049 A 
ATOM     26  C   UNL A   1      44.023  23.983  27.599  1.00  0.00     0.074 A 
ATOM     27  C   UNL A   1      46.218  29.298  30.224  1.00  0.00     0.029 A 
ATOM     28  N   UNL A   1      46.146  27.108  30.328  1.00  0.00    -0.354 N 
ATOM     29  N   UNL A   1      45.018  24.619  27.053  1.00  0.00    -0.248 NA
ATOM     30  C   UNL A   1      44.163  23.716  29.024  1.00  0.00     0.031 C 
ATOM     31  C   UNL A   1      46.749  28.740  29.022  1.00  0.00     0.029 A 
ATOM     32  C   UNL A   1      46.464  27.375  29.026  1.00  0.00     0.049 A 
ATOM     33  H   UNL A   1      46.251  26.238  30.776  1.00  0.00     0.167 HD
ATOM     34  C   UNL A   1      45.686  25.202  28.116  1.00  0.00     0.074 A 
ATOM     35  C   UNL A   1      45.225  24.479  29.292  1.00  0.00     0.031 C 
ATOM     36  C   UNL A   1      46.320  26.402  27.966  1.00  0.00     0.037 A 
BRANCH  23  37
ATOM     37  C   UNL A   1      44.924  27.251  33.171  1.00  0.00     0.057 A 
ATOM     38  C   UNL A   1      45.287  27.820  34.412  1.00  0.00     0.134 A 
ATOM     39  C   UNL A   1      44.498  25.913  33.233  1.00  0.00     0.134 A 
ATOM     40  F   UNL A   1      45.626  29.108  34.542  1.00  0.00    -0.206 F 
ATOM     41  C   UNL A   1      45.218  27.121  35.619  1.00  0.00     0.040 A 
ATOM     42  C   UNL A   1      44.373  25.222  34.447  1.00  0.00     0.040 A 
ATOM     43  F   UNL A   1      44.103  25.264  32.127  1.00  0.00    -0.206 F 
ATOM     44  C   UNL A   1      44.726  25.829  35.646  1.00  0.00     0.006 A 
ENDBRANCH  23  37
BRANCH  24  45
ATOM     45  C   UNL A   1      42.144  22.439  26.721  1.00  0.00     0.057 A 
ATOM     46  C   UNL A   1      41.072  21.929  27.477  1.00  0.00     0.134 A 
ATOM     47  C   UNL A   1      42.811  21.518  25.901  1.00  0.00     0.134 A 
ATOM     48  F   UNL A   1      40.427  22.690  28.373  1.00  0.00    -0.206 F 
ATOM     49  C   UNL A   1      40.677  20.591  27.414  1.00  0.00     0.040 A 
ATOM     50  C   UNL A   1      42.436  20.170  25.843  1.00  0.00     0.040 A 
ATOM     51  F   UNL A   1      43.879  21.894  25.184  1.00  0.00    -0.206 F 
ATOM     52  C   UNL A   1      41.368  19.703  26.603  1.00  0.00     0.006 A 
ENDBRANCH  24  45
BRANCH  36  53
ATOM     53  C   UNL A   1      46.642  26.843  26.566  1.00  0.00     0.057 A 
ATOM     54  C   UNL A   1      47.921  26.589  26.056  1.00  0.00     0.134 A 
ATOM     55  C   UNL A   1      45.770  27.581  25.752  1.00  0.00     0.134 A 
ATOM     56  F   UNL A   1      48.828  25.932  26.796  1.00  0.00    -0.206 F 
ATOM     57  C   UNL A   1      48.312  27.034  24.791  1.00  0.00     0.040 A 
ATOM     58  C   UNL A   1      46.136  27.998  24.469  1.00  0.00     0.040 A 
ATOM     59  F   UNL A   1      44.568  27.973  26.198  1.00  0.00    -0.206 F 
ATOM     60  C   UNL A   1      47.413  27.729  23.987  1.00  0.00     0.006 A 
ENDBRANCH  36  53
ENDBRANCH  10  11
ENDBRANCH   3   5
ENDBRANCH   2   3
ENDBRANCH   1   2
BRANCH   1  61
ATOM     61  C   UNL A   1      33.649  27.588  25.775  1.00  0.00     0.274 C 
BRANCH  61  62
ATOM     62  O   UNL A   1      32.686  27.616  24.691  1.00  0.00    -0.460 OA
BRANCH  62  63
ATOM     63  C   UNL A   1      31.520  26.955  24.913  1.00  0.00     0.332 C 
ATOM     64  O   UNL A   1      31.082  26.794  26.051  1.00  0.00    -0.249 OA
BRANCH  63  65
ATOM     65  C   UNL A   1      30.866  26.253  23.667  1.00  0.00     0.154 C 
ATOM     66  C   UNL A   1      30.449  24.761  23.531  1.00  0.00     0.102 C 
ATOM     67  C   UNL A   1      31.899  26.447  22.512  1.00  0.00     0.102 C 
ATOM     68  C   UNL A   1      31.484  23.677  23.207  1.00  0.00     0.265 C 
ATOM     69  C   UNL A   1      33.105  25.490  22.640  1.00  0.00     0.265 C 
ATOM     70  N   UNL A   1      32.712  24.095  22.583  1.00  0.00    -0.331 N 
ATOM     71  H   UNL A   1      32.387  24.142  21.617  1.00  0.00     0.348 HD
BRANCH  65  72
ATOM     72  N   UNL A   1      29.590  27.006  23.503  1.00  0.00    -0.313 N 
ATOM     73  C   UNL A   1      28.342  26.613  23.901  1.00  0.00     0.201 A 
ATOM     74  C   UNL A   1      29.461  28.270  22.935  1.00  0.00     0.069 A 
ATOM     75  N   UNL A   1      27.435  27.535  23.670  1.00  0.00    -0.237 NA
ATOM     76  C   UNL A   1      28.108  28.572  23.077  1.00  0.00     0.088 A 
ATOM     77  C   UNL A   1      30.356  29.177  22.343  1.00  0.00     0.028 A 
ATOM     78  C   UNL A   1      27.624  29.814  22.631  1.00  0.00     0.030 A 
ATOM     79  C   UNL A   1      29.862  30.413  21.924  1.00  0.00     0.002 A 
ATOM     80  C   UNL A   1      28.514  30.731  22.061  1.00  0.00     0.002 A 
ENDBRANCH  65  72
BRANCH  70  81
ATOM     81  C   UNL A   1      33.773  23.077  22.492  1.00  0.00     0.301 C 
BRANCH  81  82
ATOM     82  C   UNL A   1      34.794  22.986  23.605  1.00  0.00     0.038 A 
ATOM     83  C   UNL A   1      36.201  22.984  23.377  1.00  0.00     0.012 A 
ATOM     84  C   UNL A   1      34.477  22.996  24.987  1.00  0.00     0.144 A 
ATOM     85  C   UNL A   1      37.188  22.905  24.406  1.00  0.00     0.003 A 
ATOM     86  C   UNL A   1      35.491  22.941  26.041  1.00  0.00     0.135 A 
ATOM     87  N   UNL A   1      33.278  23.077  25.579  1.00  0.00    -0.049 NA
ATOM     88  C   UNL A   1      36.869  22.863  25.772  1.00  0.00     0.034 A 
ATOM     89  N   UNL A   1      34.874  22.987  27.228  1.00  0.00    -0.050 NA
ATOM     90  O   UNL A   1      33.521  23.042  26.942  1.00  0.00    -0.243 OA
ENDBRANCH  81  82
ENDBRANCH  70  81
ENDBRANCH  63  65
ENDBRANCH  62  63
ENDBRANCH  61  62
ENDBRANCH   1  61
TORSDOF 14
ENDMDL
MODEL 2
REMARK VINA RESULT:     -13.0      1.685      4.830
REMARK SMILES O=C(OCCOC(=O)C1(n2cnc3ccccc32)CC[NH+](Cc2cccc3nonc23)CC1)c1ccc(-c2c3nc(c(-c4c(F)cccc4F)c4ccc([nH]4)c(-c4c(F)cccc4F)c4nc(c(-c5c(F)cccc5F)c5ccc2[nH]5)C=C4)C=C3)cc1
REMARK SMILES IDX 4 1 3 2 2 3 1 4 34 5 35 6 87 7 36 8 86 9 37 10 38 11 39 12
REMARK SMILES IDX 80 13 40 14 85 15 79 16 81 17 41 18 84 19 78 20 77 21 42 23
REMARK SMILES IDX 68 24 51 25 67 26 52 27 55 28 66 29 82 30 53 31 54 32 65 34
REMARK SMILES IDX 83 35 56 36 43 37 44 38 49 39 45 40 46 41 48 42 50 43 47 44
REMARK SMILES IDX 69 45 70 46 75 47 71 48 72 49 74 50 76 51 73 52 57 53 58 54
REMARK SMILES IDX 63 55 59 56 60 57 62 58 64 59 61 60 5 61 6 62 7 63 8 64 9 65
REMARK SMILES IDX 19 66 33 67 20 68 32 69 21 70 10 72 11 73 18 74 12 75 13 76
REMARK SMILES IDX 17 77 14 78 16 79 15 80 22 81 23 82 24 83 31 84 25 85 27 86
REMARK SMILES IDX 30 87 26 88 28 89 29 90
REMARK H PARENT 81 22 55 33 21 71
REMARK Flexibility Score: inf
ROOT
ATOM      1  C   UNL A   1      34.446  29.248  27.385  1.00  0.00     0.275 C 
ENDROOT
BRANCH   1   2
ATOM      2  O   UNL A   1      35.885  29.353  27.350  1.00  0.00    -0.458 OA
BRANCH   2   3
ATOM      3  C   UNL A   1      36.586  30.273  28.066  1.00  0.00     0.338 C 
ATOM      4  O   UNL A   1      36.453  31.480  27.920  1.00  0.00    -0.246 OA
BRANCH   3   5
ATOM      5  C   UNL A   1      37.716  29.722  28.825  1.00  0.00     0.060 A 
ATOM      6  C   UNL A   1      38.933  30.219  28.423  1.00  0.00     0.016 A 
ATOM      7  C   UNL A   1      37.647  28.601  29.650  1.00  0.00     0.016 A 
ATOM      8  C   UNL A   1      40.057  29.447  28.585  1.00  0.00     0.010 A 
ATOM      9  C   UNL A   1      38.815  27.857  29.873  1.00  0.00     0.010 A 
ATOM     10  C   UNL A   1      40.004  28.223  29.234  1.00  0.00    -0.014 A 
BRANCH  10  11
ATOM     11  C   UNL A   1      41.254  27.445  29.133  1.00  0.00     0.031 A 
ATOM     12  C   UNL A   1      42.264  27.679  30.226  1.00  0.00     0.074 A 
ATOM     13  C   UNL A   1      41.518  26.619  28.099  1.00  0.00     0.049 A 
ATOM     14  N   UNL A   1      43.540  27.911  30.130  1.00  0.00    -0.248 NA
ATOM     15  C   UNL A   1      41.736  27.824  31.598  1.00  0.00     0.031 C 
ATOM     16  C   UNL A   1      40.602  26.236  27.022  1.00  0.00     0.029 A 
ATOM     17  N   UNL A   1      42.617  25.838  27.865  1.00  0.00    -0.354 N 
ATOM     18  C   UNL A   1      43.994  28.057  31.443  1.00  0.00     0.074 A 
ATOM     19  C   UNL A   1      42.830  28.158  32.279  1.00  0.00     0.031 C 
ATOM     20  C   UNL A   1      41.053  25.105  26.447  1.00  0.00     0.029 A 
ATOM     21  C   UNL A   1      42.325  24.751  27.051  1.00  0.00     0.049 A 
ATOM     22  H   UNL A   1      43.511  26.025  28.230  1.00  0.00     0.167 HD
ATOM     23  C   UNL A   1      45.280  27.825  31.816  1.00  0.00     0.037 A 
ATOM     24  C   UNL A   1      42.990  23.574  26.987  1.00  0.00     0.037 A 
ATOM     25  C   UNL A   1      46.218  27.994  30.746  1.00  0.00     0.049 A 
ATOM     26  C   UNL A   1      44.350  23.756  27.535  1.00  0.00     0.074 A 
ATOM     27  C   UNL A   1      46.750  29.044  30.031  1.00  0.00     0.029 A 
ATOM     28  N   UNL A   1      46.663  26.854  30.136  1.00  0.00    -0.354 N 
ATOM     29  N   UNL A   1      45.316  24.383  26.931  1.00  0.00    -0.248 NA
ATOM     30  C   UNL A   1      44.573  23.484  28.947  1.00  0.00     0.031 C 
ATOM     31  C   UNL A   1      47.202  28.483  28.799  1.00  0.00     0.029 A 
ATOM     32  C   UNL A   1      46.904  27.121  28.818  1.00  0.00     0.049 A 
ATOM     33  H   UNL A   1      46.787  25.981  30.575  1.00  0.00     0.167 HD
ATOM     34  C   UNL A   1      46.052  24.958  27.952  1.00  0.00     0.074 A 
ATOM     35  C   UNL A   1      45.656  24.236  29.153  1.00  0.00     0.031 C 
ATOM     36  C   UNL A   1      46.687  26.151  27.766  1.00  0.00     0.037 A 
BRANCH  23  37
ATOM     37  C   UNL A   1      45.616  27.002  33.047  1.00  0.00     0.057 A 
ATOM     38  C   UNL A   1      46.116  27.558  34.246  1.00  0.00     0.134 A 
ATOM     39  C   UNL A   1      45.129  25.688  33.161  1.00  0.00     0.134 A 
ATOM     40  F   UNL A   1      46.530  28.828  34.333  1.00  0.00    -0.206 F 
ATOM     41  C   UNL A   1      46.118  26.871  35.461  1.00  0.00     0.040 A 
ATOM     42  C   UNL A   1      45.076  25.011  34.388  1.00  0.00     0.040 A 
ATOM     43  F   UNL A   1      44.606  25.054  32.100  1.00  0.00    -0.206 F 
ATOM     44  C   UNL A   1      45.564  25.606  35.545  1.00  0.00     0.006 A 
ENDBRANCH  23  37
BRANCH  24  45
ATOM     45  C   UNL A   1      42.406  22.231  26.768  1.00  0.00     0.057 A 
ATOM     46  C   UNL A   1      41.475  21.675  27.665  1.00  0.00     0.134 A 
ATOM     47  C   UNL A   1      42.934  21.357  25.809  1.00  0.00     0.134 A 
ATOM     48  F   UNL A   1      40.981  22.387  28.689  1.00  0.00    -0.206 F 
ATOM     49  C   UNL A   1      41.081  20.337  27.604  1.00  0.00     0.040 A 
ATOM     50  C   UNL A   1      42.561  20.008  25.749  1.00  0.00     0.040 A 
ATOM     51  F   UNL A   1      43.869  21.778  24.945  1.00  0.00    -0.206 F 
ATOM     52  C   UNL A   1      41.634  19.494  26.651  1.00  0.00     0.006 A 
ENDBRANCH  24  45
BRANCH  36  53
ATOM     53  C   UNL A   1      46.929  26.593  26.350  1.00  0.00     0.057 A 
ATOM     54  C   UNL A   1      48.139  26.251  25.734  1.00  0.00     0.134 A 
ATOM     55  C   UNL A   1      46.054  27.410  25.619  1.00  0.00     0.134 A 
ATOM     56  F   UNL A   1      49.049  25.513  26.389  1.00  0.00    -0.206 F 
ATOM     57  C   UNL A   1      48.460  26.688  24.447  1.00  0.00     0.040 A 
ATOM     58  C   UNL A   1      46.347  27.822  24.317  1.00  0.00     0.040 A 
ATOM     59  F   UNL A   1      44.926  27.885  26.167  1.00  0.00    -0.206 F 
ATOM     60  C   UNL A   1      47.556  27.465  23.728  1.00  0.00     0.006 A 
ENDBRANCH  36  53
ENDBRANCH  10  11
ENDBRANCH   3   5
ENDBRANCH   2   3
ENDBRANCH   1   2
BRANCH   1  61
ATOM     61  C   UNL A   1      33.746  28.951  26.040  1.00  0.00     0.274 C 
BRANCH  61  62
ATOM     62  O   UNL A   1      32.297  28.884  26.018  1.00  0.00    -0.460 OA
BRANCH  62  63
ATOM     63  C   UNL A   1      31.757  27.642  26.120  1.00  0.00     0.332 C 
ATOM     64  O   UNL A   1      31.450  27.164  27.211  1.00  0.00    -0.249 OA
BRANCH  63  65
ATOM     65  C   UNL A   1      31.718  26.787  24.801  1.00  0.00     0.154 C 
ATOM     66  C   UNL A   1      31.942  27.281  23.344  1.00  0.00     0.102 C 
ATOM     67  C   UNL A   1      30.278  26.182  24.761  1.00  0.00     0.102 C 
ATOM     68  C   UNL A   1      30.817  27.971  22.562  1.00  0.00     0.265 C 
ATOM     69  C   UNL A   1      29.219  27.221  24.328  1.00  0.00     0.265 C 
ATOM     70  N   UNL A   1      29.464  27.737  22.996  1.00  0.00    -0.331 N 
ATOM     71  H   UNL A   1      29.305  26.843  22.532  1.00  0.00     0.348 HD
BRANCH  65  72
ATOM     72  N   UNL A   1      32.810  25.797  25.023  1.00  0.00    -0.313 N 
ATOM     73  C   UNL A   1      34.088  25.856  24.541  1.00  0.00     0.201 A 
ATOM     74  C   UNL A   1      32.715  24.643  25.797  1.00  0.00     0.069 A 
ATOM     75  N   UNL A   1      34.828  24.859  24.974  1.00  0.00    -0.237 NA
ATOM     76  C   UNL A   1      33.997  24.099  25.758  1.00  0.00     0.088 A 
ATOM     77  C   UNL A   1      31.683  24.035  26.531  1.00  0.00     0.028 A 
ATOM     78  C   UNL A   1      34.274  22.922  26.475  1.00  0.00     0.030 A 
ATOM     79  C   UNL A   1      31.980  22.878  27.252  1.00  0.00     0.002 A 
ATOM     80  C   UNL A   1      33.256  22.323  27.226  1.00  0.00     0.002 A 
ENDBRANCH  65  72
BRANCH  70  81
ATOM     81  C   UNL A   1      28.429  28.583  22.376  1.00  0.00     0.301 C 
BRANCH  81  82
ATOM     82  C   UNL A   1      28.517  30.084  22.545  1.00  0.00     0.038 A 
ATOM     83  C   UNL A   1      29.087  30.709  23.691  1.00  0.00     0.012 A 
ATOM     84  C   UNL A   1      28.143  31.026  21.553  1.00  0.00     0.144 A 
ATOM     85  C   UNL A   1      29.189  32.121  23.876  1.00  0.00     0.003 A 
ATOM     86  C   UNL A   1      28.272  32.473  21.734  1.00  0.00     0.135 A 
ATOM     87  N   UNL A   1      27.653  30.812  20.325  1.00  0.00    -0.049 NA
ATOM     88  C   UNL A   1      28.770  33.053  22.914  1.00  0.00     0.034 A 
ATOM     89  N   UNL A   1      27.855  33.080  20.617  1.00  0.00    -0.050 NA
ATOM     90  O   UNL A   1      27.452  32.064  19.769  1.00  0.00    -0.243 OA
ENDBRANCH  81  82
ENDBRANCH  70  81
ENDBRANCH  63  65
ENDBRANCH  62  63
ENDBRANCH  61  62
ENDBRANCH   1  61
TORSDOF 14
ENDMDL
MODEL 3
REMARK VINA RESULT:     -13.0      4.646      9.604
REMARK SMILES O=C(OCCOC(=O)C1(n2cnc3ccccc32)CC[NH+](Cc2cccc3nonc23)CC1)c1ccc(-c2c3nc(c(-c4c(F)cccc4F)c4ccc([nH]4)c(-c4c(F)cccc4F)c4nc(c(-c5c(F)cccc5F)c5ccc2[nH]5)C=C4)C=C3)cc1
REMARK SMILES IDX 4 1 3 2 2 3 1 4 34 5 35 6 87 7 36 8 86 9 37 10 38 11 39 12
REMARK SMILES IDX 80 13 40 14 85 15 79 16 81 17 41 18 84 19 78 20 77 21 42 23
REMARK SMILES IDX 68 24 51 25 67 26 52 27 55 28 66 29 82 30 53 31 54 32 65 34
REMARK SMILES IDX 83 35 56 36 43 37 44 38 49 39 45 40 46 41 48 42 50 43 47 44
REMARK SMILES IDX 69 45 70 46 75 47 71 48 72 49 74 50 76 51 73 52 57 53 58 54
REMARK SMILES IDX 63 55 59 56 60 57 62 58 64 59 61 60 5 61 6 62 7 63 8 64 9 65
REMARK SMILES IDX 19 66 33 67 20 68 32 69 21 70 10 72 11 73 18 74 12 75 13 76
REMARK SMILES IDX 17 77 14 78 16 79 15 80 22 81 23 82 24 83 31 84 25 85 27 86
REMARK SMILES IDX 30 87 26 88 28 89 29 90
REMARK H PARENT 81 22 55 33 21 71
REMARK Flexibility Score: inf
ROOT
ATOM      1  C   UNL A   1      38.101  23.842  25.824  1.00  0.00     0.275 C 
ENDROOT
BRANCH   1   2
ATOM      2  O   UNL A   1      38.484  24.437  27.081  1.00  0.00    -0.458 OA
BRANCH   2   3
ATOM      3  C   UNL A   1      39.771  24.497  27.520  1.00  0.00     0.338 C 
ATOM      4  O   UNL A   1      40.381  23.525  27.943  1.00  0.00    -0.246 OA
BRANCH   3   5
ATOM      5  C   UNL A   1      40.285  25.858  27.717  1.00  0.00     0.060 A 
ATOM      6  C   UNL A   1      40.734  26.088  28.996  1.00  0.00     0.016 A 
ATOM      7  C   UNL A   1      40.079  26.919  26.838  1.00  0.00     0.016 A 
ATOM      8  C   UNL A   1      40.696  27.366  29.498  1.00  0.00     0.010 A 
ATOM      9  C   UNL A   1      40.115  28.227  27.343  1.00  0.00     0.010 A 
ATOM     10  C   UNL A   1      40.308  28.439  28.711  1.00  0.00    -0.014 A 
BRANCH  10  11
ATOM     11  C   UNL A   1      40.128  29.694  29.468  1.00  0.00     0.031 A 
ATOM     12  C   UNL A   1      41.380  30.495  29.718  1.00  0.00     0.074 A 
ATOM     13  C   UNL A   1      38.936  30.081  29.965  1.00  0.00     0.049 A 
ATOM     14  N   UNL A   1      41.808  31.023  30.826  1.00  0.00    -0.248 NA
ATOM     15  C   UNL A   1      42.350  30.577  28.607  1.00  0.00     0.031 C 
ATOM     16  C   UNL A   1      37.636  29.449  29.728  1.00  0.00     0.029 A 
ATOM     17  N   UNL A   1      38.611  31.203  30.678  1.00  0.00    -0.354 N 
ATOM     18  C   UNL A   1      43.014  31.648  30.501  1.00  0.00     0.074 A 
ATOM     19  C   UNL A   1      43.372  31.205  29.181  1.00  0.00     0.031 C 
ATOM     20  C   UNL A   1      36.662  30.333  30.016  1.00  0.00     0.029 A 
ATOM     21  C   UNL A   1      37.271  31.542  30.542  1.00  0.00     0.049 A 
ATOM     22  H   UNL A   1      39.253  31.711  31.225  1.00  0.00     0.167 HD
ATOM     23  C   UNL A   1      43.526  32.692  31.205  1.00  0.00     0.037 A 
ATOM     24  C   UNL A   1      36.716  32.767  30.698  1.00  0.00     0.037 A 
ATOM     25  C   UNL A   1      43.087  32.723  32.569  1.00  0.00     0.049 A 
ATOM     26  C   UNL A   1      37.625  33.611  31.499  1.00  0.00     0.074 A 
ATOM     27  C   UNL A   1      43.320  32.000  33.717  1.00  0.00     0.029 A 
ATOM     28  N   UNL A   1      42.079  33.597  32.868  1.00  0.00    -0.354 N 
ATOM     29  N   UNL A   1      37.816  33.489  32.780  1.00  0.00    -0.248 NA
ATOM     30  C   UNL A   1      38.593  34.447  30.803  1.00  0.00     0.031 C 
ATOM     31  C   UNL A   1      42.189  32.230  34.556  1.00  0.00     0.029 A 
ATOM     32  C   UNL A   1      41.312  33.067  33.867  1.00  0.00     0.049 A 
ATOM     33  H   UNL A   1      41.930  34.468  32.433  1.00  0.00     0.167 HD
ATOM     34  C   UNL A   1      39.136  33.856  32.973  1.00  0.00     0.074 A 
ATOM     35  C   UNL A   1      39.502  34.590  31.770  1.00  0.00     0.031 C 
ATOM     36  C   UNL A   1      39.884  33.277  33.957  1.00  0.00     0.037 A 
BRANCH  23  37
ATOM     37  C   UNL A   1      44.063  33.933  30.513  1.00  0.00     0.057 A 
ATOM     38  C   UNL A   1      43.249  34.847  29.808  1.00  0.00     0.134 A 
ATOM     39  C   UNL A   1      45.350  34.404  30.828  1.00  0.00     0.134 A 
ATOM     40  F   UNL A   1      41.969  34.592  29.513  1.00  0.00    -0.206 F 
ATOM     41  C   UNL A   1      43.673  36.130  29.456  1.00  0.00     0.040 A 
ATOM     42  C   UNL A   1      45.764  35.710  30.528  1.00  0.00     0.040 A 
ATOM     43  F   UNL A   1      46.213  33.642  31.517  1.00  0.00    -0.206 F 
ATOM     44  C   UNL A   1      44.921  36.580  29.847  1.00  0.00     0.006 A 
ENDBRANCH  23  37
BRANCH  24  45
ATOM     45  C   UNL A   1      35.590  33.339  29.925  1.00  0.00     0.057 A 
ATOM     46  C   UNL A   1      35.677  33.549  28.537  1.00  0.00     0.134 A 
ATOM     47  C   UNL A   1      34.493  33.927  30.569  1.00  0.00     0.134 A 
ATOM     48  F   UNL A   1      36.735  33.123  27.832  1.00  0.00    -0.206 F 
ATOM     49  C   UNL A   1      34.726  34.285  27.827  1.00  0.00     0.040 A 
ATOM     50  C   UNL A   1      33.542  34.684  29.872  1.00  0.00     0.040 A 
ATOM     51  F   UNL A   1      34.352  33.832  31.898  1.00  0.00    -0.206 F 
ATOM     52  C   UNL A   1      33.659  34.867  28.497  1.00  0.00     0.006 A 
ENDBRANCH  24  45
BRANCH  36  53
ATOM     53  C   UNL A   1      39.146  32.583  35.067  1.00  0.00     0.057 A 
ATOM     54  C   UNL A   1      38.813  33.312  36.216  1.00  0.00     0.134 A 
ATOM     55  C   UNL A   1      38.839  31.214  35.075  1.00  0.00     0.134 A 
ATOM     56  F   UNL A   1      39.118  34.616  36.304  1.00  0.00    -0.206 F 
ATOM     57  C   UNL A   1      38.192  32.714  37.315  1.00  0.00     0.040 A 
ATOM     58  C   UNL A   1      38.184  30.612  36.152  1.00  0.00     0.040 A 
ATOM     59  F   UNL A   1      39.223  30.411  34.072  1.00  0.00    -0.206 F 
ATOM     60  C   UNL A   1      37.862  31.362  37.279  1.00  0.00     0.006 A 
ENDBRANCH  36  53
ENDBRANCH  10  11
ENDBRANCH   3   5
ENDBRANCH   2   3
ENDBRANCH   1   2
BRANCH   1  61
ATOM     61  C   UNL A   1      36.625  23.404  25.693  1.00  0.00     0.274 C 
BRANCH  61  62
ATOM     62  O   UNL A   1      35.704  24.285  25.000  1.00  0.00    -0.460 OA
BRANCH  62  63
ATOM     63  C   UNL A   1      34.882  23.694  24.095  1.00  0.00     0.332 C 
ATOM     64  O   UNL A   1      35.269  23.420  22.960  1.00  0.00    -0.249 OA
BRANCH  63  65
ATOM     65  C   UNL A   1      33.372  23.550  24.512  1.00  0.00     0.154 C 
ATOM     66  C   UNL A   1      32.133  23.485  23.575  1.00  0.00     0.102 C 
ATOM     67  C   UNL A   1      33.085  24.799  25.405  1.00  0.00     0.102 C 
ATOM     68  C   UNL A   1      31.525  24.760  22.978  1.00  0.00     0.265 C 
ATOM     69  C   UNL A   1      32.915  26.088  24.571  1.00  0.00     0.265 C 
ATOM     70  N   UNL A   1      31.802  26.005  23.646  1.00  0.00    -0.331 N 
ATOM     71  H   UNL A   1      31.093  25.950  24.376  1.00  0.00     0.348 HD
BRANCH  65  72
ATOM     72  N   UNL A   1      33.357  22.245  25.231  1.00  0.00    -0.313 N 
ATOM     73  C   UNL A   1      33.609  22.030  26.557  1.00  0.00     0.201 A 
ATOM     74  C   UNL A   1      33.047  21.011  24.666  1.00  0.00     0.069 A 
ATOM     75  N   UNL A   1      33.448  20.770  26.894  1.00  0.00    -0.237 NA
ATOM     76  C   UNL A   1      33.094  20.122  25.738  1.00  0.00     0.088 A 
ATOM     77  C   UNL A   1      32.715  20.579  23.370  1.00  0.00     0.028 A 
ATOM     78  C   UNL A   1      32.795  18.765  25.529  1.00  0.00     0.030 A 
ATOM     79  C   UNL A   1      32.401  19.232  23.185  1.00  0.00     0.002 A 
ATOM     80  C   UNL A   1      32.442  18.332  24.245  1.00  0.00     0.002 A 
ENDBRANCH  65  72
BRANCH  70  81
ATOM     81  C   UNL A   1      31.399  27.229  22.930  1.00  0.00     0.301 C 
BRANCH  81  82
ATOM     82  C   UNL A   1      29.951  27.664  22.988  1.00  0.00     0.038 A 
ATOM     83  C   UNL A   1      28.954  26.962  23.725  1.00  0.00     0.012 A 
ATOM     84  C   UNL A   1      29.448  28.857  22.411  1.00  0.00     0.144 A 
ATOM     85  C   UNL A   1      27.582  27.350  23.804  1.00  0.00     0.003 A 
ATOM     86  C   UNL A   1      28.047  29.267  22.514  1.00  0.00     0.135 A 
ATOM     87  N   UNL A   1      30.100  29.804  21.723  1.00  0.00    -0.049 NA
ATOM     88  C   UNL A   1      27.076  28.505  23.188  1.00  0.00     0.034 A 
ATOM     89  N   UNL A   1      27.900  30.440  21.886  1.00  0.00    -0.050 NA
ATOM     90  O   UNL A   1      29.150  30.751  21.380  1.00  0.00    -0.243 OA
ENDBRANCH  81  82
ENDBRANCH  70  81
ENDBRANCH  63  65
ENDBRANCH  62  63
ENDBRANCH  61  62
ENDBRANCH   1  61
TORSDOF 14
ENDMDL
