MODEL 1
REMARK VINA RESULT:     -12.4      0.000      0.000
REMARK SMILES O=CN[C@@H](CCS[C@@H]1CCO[C@]2(CCOC2)C1)C(=O)OCCOC(=O)c1ccc(-c2c3nc(c(-c4c(F)cccc4F)c4ccc([nH]4)c(-c4c(F)cccc4F)c4nc(c(-c5c(F)cccc5F)c5ccc2[nH]5)C=C4)C=C3)cc1
REMARK SMILES IDX 21 1 20 2 18 3 19 4 4 5 3 6 1 7 2 8 5 10 6 11 7 12 8 13 9 14
REMARK SMILES IDX 17 15 10 16 12 17 11 18 13 19 16 20 14 21 15 22 22 23 23 24
REMARK SMILES IDX 24 25 25 26 26 27 27 28 79 29 28 30 78 31 29 32 30 33 31 34
REMARK SMILES IDX 72 35 32 36 77 37 71 38 73 39 33 40 76 41 70 42 69 43 34 45
REMARK SMILES IDX 60 46 43 47 59 48 44 49 47 50 58 51 74 52 45 53 46 54 57 56
REMARK SMILES IDX 75 57 48 58 35 59 36 60 41 61 37 62 38 63 40 64 42 65 39 66
REMARK SMILES IDX 61 67 62 68 67 69 63 70 64 71 66 72 68 73 65 74 49 75 50 76
REMARK SMILES IDX 55 77 51 78 52 79 54 80 56 81 53 82
REMARK H PARENT 3 9 73 44 47 55
REMARK Flexibility Score: inf
ROOT
ATOM      1  C   UNL A   1      33.774  21.175  24.264  1.00  0.00     0.274 C 
ENDROOT
BRANCH   1   2
ATOM      2  O   UNL A   1      33.464  22.548  23.414  1.00  0.00    -0.461 OA
BRANCH   2   3
ATOM      3  C   UNL A   1      33.103  23.683  22.763  1.00  0.00     0.328 C 
ATOM      4  O   UNL A   1      33.444  23.775  21.575  1.00  0.00    -0.250 OA
BRANCH   3   5
ATOM      5  C   UNL A   1      32.384  25.008  23.394  1.00  0.00     0.192 C 
BRANCH   5   6
ATOM      6  N   UNL A   1      31.793  25.342  24.720  1.00  0.00    -0.345 N 
ATOM      7  O   UNL A   1      30.242  25.280  26.345  1.00  0.00    -0.279 OA
ATOM      8  C   UNL A   1      30.962  24.672  25.562  1.00  0.00     0.337 C 
ATOM      9  H   UNL A   1      32.058  26.229  25.055  1.00  0.00     0.164 HD
ENDBRANCH   5   6
BRANCH   5  10
ATOM     10  C   UNL A   1      33.536  25.958  23.370  1.00  0.00     0.048 C 
BRANCH  10  11
ATOM     11  C   UNL A   1      33.051  27.163  22.545  1.00  0.00     0.072 C 
BRANCH  11  12
ATOM     12  S   UNL A   1      32.312  28.833  23.426  1.00  0.00    -0.158 SA
BRANCH  12  13
ATOM     13  C   UNL A   1      30.167  28.957  23.544  1.00  0.00     0.052 C 
ATOM     14  C   UNL A   1      28.959  27.881  23.485  1.00  0.00     0.043 C 
ATOM     15  C   UNL A   1      29.608  30.408  23.493  1.00  0.00     0.052 C 
ATOM     16  C   UNL A   1      27.668  28.288  22.829  1.00  0.00     0.162 C 
ATOM     17  C   UNL A   1      28.180  30.586  22.904  1.00  0.00     0.095 C 
ATOM     18  O   UNL A   1      27.295  29.557  23.334  1.00  0.00    -0.372 OA
ATOM     19  C   UNL A   1      28.003  30.727  21.402  1.00  0.00     0.066 C 
ATOM     20  C   UNL A   1      27.659  31.947  23.365  1.00  0.00     0.195 C 
ATOM     21  C   UNL A   1      28.115  32.200  21.118  1.00  0.00     0.163 C 
ATOM     22  O   UNL A   1      28.089  32.883  22.372  1.00  0.00    -0.378 OA
ENDBRANCH  12  13
ENDBRANCH  11  12
ENDBRANCH  10  11
ENDBRANCH   5  10
ENDBRANCH   3   5
ENDBRANCH   2   3
ENDBRANCH   1   2
BRANCH   1  23
ATOM     23  C   UNL A   1      35.154  20.716  25.088  1.00  0.00     0.275 C 
BRANCH  23  24
ATOM     24  O   UNL A   1      36.183  21.693  25.549  1.00  0.00    -0.458 OA
BRANCH  24  25
ATOM     25  C   UNL A   1      37.539  21.351  25.553  1.00  0.00     0.338 C 
ATOM     26  O   UNL A   1      37.983  20.344  25.020  1.00  0.00    -0.246 OA
BRANCH  25  27
ATOM     27  C   UNL A   1      38.499  22.385  26.185  1.00  0.00     0.060 A 
ATOM     28  C   UNL A   1      38.267  23.748  26.031  1.00  0.00     0.016 A 
ATOM     29  C   UNL A   1      39.749  22.094  26.737  1.00  0.00     0.016 A 
ATOM     30  C   UNL A   1      39.074  24.788  26.523  1.00  0.00     0.010 A 
ATOM     31  C   UNL A   1      40.616  23.140  27.223  1.00  0.00     0.010 A 
ATOM     32  C   UNL A   1      40.264  24.505  27.160  1.00  0.00    -0.014 A 
BRANCH  32  33
ATOM     33  C   UNL A   1      41.124  25.638  27.644  1.00  0.00     0.031 A 
ATOM     34  C   UNL A   1      40.552  26.686  28.557  1.00  0.00     0.074 A 
ATOM     35  C   UNL A   1      42.455  25.701  27.405  1.00  0.00     0.049 A 
ATOM     36  N   UNL A   1      40.996  27.886  28.838  1.00  0.00    -0.248 NA
ATOM     37  C   UNL A   1      39.331  26.311  29.285  1.00  0.00     0.031 C 
ATOM     38  C   UNL A   1      43.266  24.654  26.785  1.00  0.00     0.029 A 
ATOM     39  N   UNL A   1      43.365  26.711  27.656  1.00  0.00    -0.354 N 
ATOM     40  C   UNL A   1      40.071  28.439  29.715  1.00  0.00     0.074 A 
ATOM     41  C   UNL A   1      39.070  27.421  29.963  1.00  0.00     0.031 C 
ATOM     42  C   UNL A   1      44.533  25.091  26.662  1.00  0.00     0.029 A 
ATOM     43  C   UNL A   1      44.607  26.481  27.103  1.00  0.00     0.049 A 
ATOM     44  H   UNL A   1      43.148  27.516  28.179  1.00  0.00     0.167 HD
ATOM     45  C   UNL A   1      40.046  29.692  30.234  1.00  0.00     0.037 A 
ATOM     46  C   UNL A   1      45.650  27.313  26.892  1.00  0.00     0.037 A 
ATOM     47  C   UNL A   1      41.069  30.682  30.013  1.00  0.00     0.049 A 
ATOM     48  C   UNL A   1      45.538  28.763  27.300  1.00  0.00     0.074 A 
ATOM     49  C   UNL A   1      41.097  32.008  30.417  1.00  0.00     0.029 A 
ATOM     50  N   UNL A   1      42.259  30.448  29.342  1.00  0.00    -0.354 N 
ATOM     51  N   UNL A   1      44.578  29.363  27.959  1.00  0.00    -0.248 NA
ATOM     52  C   UNL A   1      46.637  29.661  26.903  1.00  0.00     0.031 C 
ATOM     53  C   UNL A   1      42.279  32.586  29.943  1.00  0.00     0.029 A 
ATOM     54  C   UNL A   1      43.016  31.607  29.299  1.00  0.00     0.049 A 
ATOM     55  H   UNL A   1      42.528  29.583  28.955  1.00  0.00     0.167 HD
ATOM     56  C   UNL A   1      44.966  30.693  28.080  1.00  0.00     0.074 A 
ATOM     57  C   UNL A   1      46.253  30.816  27.431  1.00  0.00     0.031 C 
ATOM     58  C   UNL A   1      44.311  31.718  28.677  1.00  0.00     0.037 A 
BRANCH  45  59
ATOM     59  C   UNL A   1      38.816  30.102  30.991  1.00  0.00     0.057 A 
ATOM     60  C   UNL A   1      37.690  30.655  30.372  1.00  0.00     0.134 A 
ATOM     61  C   UNL A   1      38.764  29.917  32.381  1.00  0.00     0.134 A 
ATOM     62  F   UNL A   1      37.677  30.870  29.049  1.00  0.00    -0.206 F 
ATOM     63  C   UNL A   1      36.566  31.035  31.113  1.00  0.00     0.040 A 
ATOM     64  C   UNL A   1      37.639  30.267  33.127  1.00  0.00     0.040 A 
ATOM     65  F   UNL A   1      39.805  29.381  33.035  1.00  0.00    -0.206 F 
ATOM     66  C   UNL A   1      36.538  30.838  32.493  1.00  0.00     0.006 A 
ENDBRANCH  45  59
BRANCH  46  67
ATOM     67  C   UNL A   1      46.852  26.846  26.140  1.00  0.00     0.057 A 
ATOM     68  C   UNL A   1      47.935  26.234  26.784  1.00  0.00     0.134 A 
ATOM     69  C   UNL A   1      46.972  27.061  24.759  1.00  0.00     0.134 A 
ATOM     70  F   UNL A   1      47.910  26.040  28.111  1.00  0.00    -0.206 F 
ATOM     71  C   UNL A   1      49.089  25.861  26.087  1.00  0.00     0.040 A 
ATOM     72  C   UNL A   1      48.105  26.663  24.046  1.00  0.00     0.040 A 
ATOM     73  F   UNL A   1      45.987  27.665  24.078  1.00  0.00    -0.206 F 
ATOM     74  C   UNL A   1      49.172  26.068  24.712  1.00  0.00     0.006 A 
ENDBRANCH  46  67
BRANCH  58  75
ATOM     75  C   UNL A   1      44.989  33.057  28.720  1.00  0.00     0.057 A 
ATOM     76  C   UNL A   1      44.749  34.045  27.757  1.00  0.00     0.134 A 
ATOM     77  C   UNL A   1      45.831  33.388  29.790  1.00  0.00     0.134 A 
ATOM     78  F   UNL A   1      43.963  33.789  26.702  1.00  0.00    -0.206 F 
ATOM     79  C   UNL A   1      45.328  35.312  27.854  1.00  0.00     0.040 A 
ATOM     80  C   UNL A   1      46.397  34.658  29.911  1.00  0.00     0.040 A 
ATOM     81  F   UNL A   1      46.097  32.490  30.750  1.00  0.00    -0.206 F 
ATOM     82  C   UNL A   1      46.146  35.625  28.939  1.00  0.00     0.006 A 
ENDBRANCH  58  75
ENDBRANCH  32  33
ENDBRANCH  25  27
ENDBRANCH  24  25
ENDBRANCH  23  24
ENDBRANCH   1  23
TORSDOF 16
ENDMDL
MODEL 2
REMARK VINA RESULT:     -12.2      4.192      7.779
REMARK SMILES O=CN[C@@H](CCS[C@@H]1CCO[C@]2(CCOC2)C1)C(=O)OCCOC(=O)c1ccc(-c2c3nc(c(-c4c(F)cccc4F)c4ccc([nH]4)c(-c4c(F)cccc4F)c4nc(c(-c5c(F)cccc5F)c5ccc2[nH]5)C=C4)C=C3)cc1
REMARK SMILES IDX 21 1 20 2 18 3 19 4 4 5 3 6 1 7 2 8 5 10 6 11 7 12 8 13 9 14
REMARK SMILES IDX 17 15 10 16 12 17 11 18 13 19 16 20 14 21 15 22 22 23 23 24
REMARK SMILES IDX 24 25 25 26 26 27 27 28 79 29 28 30 78 31 29 32 30 33 31 34
REMARK SMILES IDX 72 35 32 36 77 37 71 38 73 39 33 40 76 41 70 42 69 43 34 45
REMARK SMILES IDX 60 46 43 47 59 48 44 49 47 50 58 51 74 52 45 53 46 54 57 56
REMARK SMILES IDX 75 57 48 58 35 59 36 60 41 61 37 62 38 63 40 64 42 65 39 66
REMARK SMILES IDX 61 67 62 68 67 69 63 70 64 71 66 72 68 73 65 74 49 75 50 76
REMARK SMILES IDX 55 77 51 78 52 79 54 80 56 81 53 82
REMARK H PARENT 3 9 73 44 47 55
REMARK Flexibility Score: inf
ROOT
ATOM      1  C   UNL A   1      38.845  22.158  25.967  1.00  0.00     0.274 C 
ENDROOT
BRANCH   1   2
ATOM      2  O   UNL A   1      37.227  21.880  25.869  1.00  0.00    -0.461 OA
BRANCH   2   3
ATOM      3  C   UNL A   1      35.876  21.762  25.820  1.00  0.00     0.328 C 
ATOM      4  O   UNL A   1      35.229  22.435  26.634  1.00  0.00    -0.250 OA
BRANCH   3   5
ATOM      5  C   UNL A   1      34.999  20.734  24.899  1.00  0.00     0.192 C 
BRANCH   5   6
ATOM      6  N   UNL A   1      34.260  19.469  25.163  1.00  0.00    -0.345 N 
ATOM      7  O   UNL A   1      32.468  18.210  25.670  1.00  0.00    -0.279 OA
ATOM      8  C   UNL A   1      32.967  19.092  24.981  1.00  0.00     0.337 C 
ATOM      9  H   UNL A   1      34.824  18.759  25.548  1.00  0.00     0.164 HD
ENDBRANCH   5   6
BRANCH   5  10
ATOM     10  C   UNL A   1      33.865  21.632  24.528  1.00  0.00     0.048 C 
BRANCH  10  11
ATOM     11  C   UNL A   1      34.442  22.604  23.483  1.00  0.00     0.072 C 
BRANCH  11  12
ATOM     12  S   UNL A   1      34.270  24.613  23.683  1.00  0.00    -0.158 SA
BRANCH  12  13
ATOM     13  C   UNL A   1      32.804  25.289  25.105  1.00  0.00     0.052 C 
ATOM     14  C   UNL A   1      31.402  24.703  25.662  1.00  0.00     0.043 C 
ATOM     15  C   UNL A   1      33.016  26.751  25.595  1.00  0.00     0.052 C 
ATOM     16  C   UNL A   1      30.300  25.672  25.995  1.00  0.00     0.162 C 
ATOM     17  C   UNL A   1      31.745  27.532  26.034  1.00  0.00     0.095 C 
ATOM     18  O   UNL A   1      30.849  26.715  26.780  1.00  0.00    -0.372 OA
ATOM     19  C   UNL A   1      30.918  28.261  24.990  1.00  0.00     0.066 C 
ATOM     20  C   UNL A   1      32.204  28.714  26.888  1.00  0.00     0.195 C 
ATOM     21  C   UNL A   1      31.517  29.638  24.889  1.00  0.00     0.163 C 
ATOM     22  O   UNL A   1      32.438  29.786  25.970  1.00  0.00    -0.378 OA
ENDBRANCH  12  13
ENDBRANCH  11  12
ENDBRANCH  10  11
ENDBRANCH   5  10
ENDBRANCH   3   5
ENDBRANCH   2   3
ENDBRANCH   1   2
BRANCH   1  23
ATOM     23  C   UNL A   1      40.122  21.084  25.879  1.00  0.00     0.275 C 
BRANCH  23  24
ATOM     24  O   UNL A   1      41.501  21.427  26.333  1.00  0.00    -0.458 OA
BRANCH  24  25
ATOM     25  C   UNL A   1      42.164  22.545  25.820  1.00  0.00     0.338 C 
ATOM     26  O   UNL A   1      42.699  22.567  24.720  1.00  0.00    -0.246 OA
BRANCH  25  27
ATOM     27  C   UNL A   1      42.100  23.828  26.679  1.00  0.00     0.060 A 
ATOM     28  C   UNL A   1      41.510  23.804  27.939  1.00  0.00     0.016 A 
ATOM     29  C   UNL A   1      42.387  25.119  26.228  1.00  0.00     0.016 A 
ATOM     30  C   UNL A   1      41.356  24.899  28.806  1.00  0.00     0.010 A 
ATOM     31  C   UNL A   1      42.211  26.268  27.080  1.00  0.00     0.010 A 
ATOM     32  C   UNL A   1      41.732  26.164  28.404  1.00  0.00    -0.014 A 
BRANCH  32  33
ATOM     33  C   UNL A   1      41.523  27.322  29.337  1.00  0.00     0.031 A 
ATOM     34  C   UNL A   1      42.444  27.526  30.509  1.00  0.00     0.074 A 
ATOM     35  C   UNL A   1      40.610  28.294  29.105  1.00  0.00     0.049 A 
ATOM     36  N   UNL A   1      42.275  28.243  31.591  1.00  0.00    -0.248 NA
ATOM     37  C   UNL A   1      43.751  26.859  30.425  1.00  0.00     0.031 C 
ATOM     38  C   UNL A   1      39.809  28.447  27.891  1.00  0.00     0.029 A 
ATOM     39  N   UNL A   1      40.197  29.346  29.901  1.00  0.00    -0.354 N 
ATOM     40  C   UNL A   1      43.421  28.055  32.355  1.00  0.00     0.074 A 
ATOM     41  C   UNL A   1      44.301  27.200  31.584  1.00  0.00     0.031 C 
ATOM     42  C   UNL A   1      38.975  29.492  28.041  1.00  0.00     0.029 A 
ATOM     43  C   UNL A   1      39.110  30.025  29.394  1.00  0.00     0.049 A 
ATOM     44  H   UNL A   1      40.637  29.587  30.749  1.00  0.00     0.167 HD
ATOM     45  C   UNL A   1      43.693  28.526  33.597  1.00  0.00     0.037 A 
ATOM     46  C   UNL A   1      38.265  30.904  29.976  1.00  0.00     0.037 A 
ATOM     47  C   UNL A   1      42.828  29.410  34.337  1.00  0.00     0.049 A 
ATOM     48  C   UNL A   1      38.462  31.276  31.426  1.00  0.00     0.074 A 
ATOM     49  C   UNL A   1      42.966  29.873  35.636  1.00  0.00     0.029 A 
ATOM     50  N   UNL A   1      41.670  29.981  33.833  1.00  0.00    -0.354 N 
ATOM     51  N   UNL A   1      39.438  30.948  32.237  1.00  0.00    -0.248 NA
ATOM     52  C   UNL A   1      37.423  32.110  32.055  1.00  0.00     0.031 C 
ATOM     53  C   UNL A   1      41.863  30.681  35.932  1.00  0.00     0.029 A 
ATOM     54  C   UNL A   1      41.071  30.771  34.800  1.00  0.00     0.049 A 
ATOM     55  H   UNL A   1      41.325  29.846  32.921  1.00  0.00     0.167 HD
ATOM     56  C   UNL A   1      39.148  31.554  33.455  1.00  0.00     0.074 A 
ATOM     57  C   UNL A   1      37.906  32.276  33.279  1.00  0.00     0.031 C 
ATOM     58  C   UNL A   1      39.850  31.512  34.613  1.00  0.00     0.037 A 
BRANCH  45  59
ATOM     59  C   UNL A   1      44.920  27.998  34.283  1.00  0.00     0.057 A 
ATOM     60  C   UNL A   1      44.932  26.802  35.008  1.00  0.00     0.134 A 
ATOM     61  C   UNL A   1      46.125  28.711  34.193  1.00  0.00     0.134 A 
ATOM     62  F   UNL A   1      43.813  26.077  35.144  1.00  0.00    -0.206 F 
ATOM     63  C   UNL A   1      46.092  26.349  35.643  1.00  0.00     0.040 A 
ATOM     64  C   UNL A   1      47.295  28.256  34.800  1.00  0.00     0.040 A 
ATOM     65  F   UNL A   1      46.185  29.860  33.503  1.00  0.00    -0.206 F 
ATOM     66  C   UNL A   1      47.279  27.074  35.537  1.00  0.00     0.006 A 
ENDBRANCH  45  59
BRANCH  46  67
ATOM     67  C   UNL A   1      37.065  31.402  29.240  1.00  0.00     0.057 A 
ATOM     68  C   UNL A   1      35.943  30.593  29.023  1.00  0.00     0.134 A 
ATOM     69  C   UNL A   1      37.040  32.688  28.679  1.00  0.00     0.134 A 
ATOM     70  F   UNL A   1      35.916  29.335  29.490  1.00  0.00    -0.206 F 
ATOM     71  C   UNL A   1      34.849  31.038  28.274  1.00  0.00     0.040 A 
ATOM     72  C   UNL A   1      35.940  33.157  27.957  1.00  0.00     0.040 A 
ATOM     73  F   UNL A   1      38.089  33.511  28.822  1.00  0.00    -0.206 F 
ATOM     74  C   UNL A   1      34.843  32.327  27.746  1.00  0.00     0.006 A 
ENDBRANCH  46  67
BRANCH  58  75
ATOM     75  C   UNL A   1      39.340  32.315  35.775  1.00  0.00     0.057 A 
ATOM     76  C   UNL A   1      39.715  33.649  35.979  1.00  0.00     0.134 A 
ATOM     77  C   UNL A   1      38.396  31.767  36.653  1.00  0.00     0.134 A 
ATOM     78  F   UNL A   1      40.622  34.230  35.182  1.00  0.00    -0.206 F 
ATOM     79  C   UNL A   1      39.172  34.406  37.020  1.00  0.00     0.040 A 
ATOM     80  C   UNL A   1      37.829  32.520  37.682  1.00  0.00     0.040 A 
ATOM     81  F   UNL A   1      37.989  30.497  36.509  1.00  0.00    -0.206 F 
ATOM     82  C   UNL A   1      38.218  33.845  37.868  1.00  0.00     0.006 A 
ENDBRANCH  58  75
ENDBRANCH  32  33
ENDBRANCH  25  27
ENDBRANCH  24  25
ENDBRANCH  23  24
ENDBRANCH   1  23
TORSDOF 16
ENDMDL
MODEL 3
REMARK VINA RESULT:     -12.0      4.017      7.780
REMARK SMILES O=CN[C@@H](CCS[C@@H]1CCO[C@]2(CCOC2)C1)C(=O)OCCOC(=O)c1ccc(-c2c3nc(c(-c4c(F)cccc4F)c4ccc([nH]4)c(-c4c(F)cccc4F)c4nc(c(-c5c(F)cccc5F)c5ccc2[nH]5)C=C4)C=C3)cc1
REMARK SMILES IDX 21 1 20 2 18 3 19 4 4 5 3 6 1 7 2 8 5 10 6 11 7 12 8 13 9 14
REMARK SMILES IDX 17 15 10 16 12 17 11 18 13 19 16 20 14 21 15 22 22 23 23 24
REMARK SMILES IDX 24 25 25 26 26 27 27 28 79 29 28 30 78 31 29 32 30 33 31 34
REMARK SMILES IDX 72 35 32 36 77 37 71 38 73 39 33 40 76 41 70 42 69 43 34 45
REMARK SMILES IDX 60 46 43 47 59 48 44 49 47 50 58 51 74 52 45 53 46 54 57 56
REMARK SMILES IDX 75 57 48 58 35 59 36 60 41 61 37 62 38 63 40 64 42 65 39 66
REMARK SMILES IDX 61 67 62 68 67 69 63 70 64 71 66 72 68 73 65 74 49 75 50 76
REMARK SMILES IDX 55 77 51 78 52 79 54 80 56 81 53 82
REMARK H PARENT 3 9 73 44 47 55
REMARK Flexibility Score: inf
ROOT
ATOM      1  C   UNL A   1      40.425  20.203  26.145  1.00  0.00     0.274 C 
ENDROOT
BRANCH   1   2
ATOM      2  O   UNL A   1      39.178  21.233  25.846  1.00  0.00    -0.461 OA
BRANCH   2   3
ATOM      3  C   UNL A   1      38.079  22.006  25.655  1.00  0.00     0.328 C 
ATOM      4  O   UNL A   1      38.143  23.173  26.065  1.00  0.00    -0.250 OA
BRANCH   3   5
ATOM      5  C   UNL A   1      36.627  21.545  25.064  1.00  0.00     0.192 C 
BRANCH   5   6
ATOM      6  N   UNL A   1      35.536  20.657  25.553  1.00  0.00    -0.345 N 
ATOM      7  O   UNL A   1      33.410  19.971  25.803  1.00  0.00    -0.279 OA
ATOM      8  C   UNL A   1      34.314  20.325  25.056  1.00  0.00     0.337 C 
ATOM      9  H   UNL A   1      35.741  20.220  26.411  1.00  0.00     0.164 HD
ENDBRANCH   5   6
BRANCH   5  10
ATOM     10  C   UNL A   1      35.921  22.861  25.070  1.00  0.00     0.048 C 
BRANCH  10  11
ATOM     11  C   UNL A   1      35.702  23.211  23.587  1.00  0.00     0.072 C 
BRANCH  11  12
ATOM     12  S   UNL A   1      33.996  24.094  22.939  1.00  0.00    -0.158 SA
BRANCH  12  13
ATOM     13  C   UNL A   1      33.570  26.030  23.775  1.00  0.00     0.052 C 
ATOM     14  C   UNL A   1      33.831  26.734  25.209  1.00  0.00     0.043 C 
ATOM     15  C   UNL A   1      32.643  26.916  22.894  1.00  0.00     0.052 C 
ATOM     16  C   UNL A   1      32.802  27.697  25.733  1.00  0.00     0.162 C 
ATOM     17  C   UNL A   1      31.760  27.959  23.636  1.00  0.00     0.095 C 
ATOM     18  O   UNL A   1      32.468  28.598  24.693  1.00  0.00    -0.372 OA
ATOM     19  C   UNL A   1      30.413  27.534  24.196  1.00  0.00     0.066 C 
ATOM     20  C   UNL A   1      31.310  28.996  22.609  1.00  0.00     0.195 C 
ATOM     21  C   UNL A   1      29.427  27.751  23.081  1.00  0.00     0.163 C 
ATOM     22  O   UNL A   1      30.092  28.489  22.055  1.00  0.00    -0.378 OA
ENDBRANCH  12  13
ENDBRANCH  11  12
ENDBRANCH  10  11
ENDBRANCH   5  10
ENDBRANCH   3   5
ENDBRANCH   2   3
ENDBRANCH   1   2
BRANCH   1  23
ATOM     23  C   UNL A   1      41.796  20.426  27.074  1.00  0.00     0.275 C 
BRANCH  23  24
ATOM     24  O   UNL A   1      42.954  21.253  26.624  1.00  0.00    -0.458 OA
BRANCH  24  25
ATOM     25  C   UNL A   1      42.748  22.461  25.953  1.00  0.00     0.338 C 
ATOM     26  O   UNL A   1      42.573  22.541  24.745  1.00  0.00    -0.246 OA
BRANCH  25  27
ATOM     27  C   UNL A   1      42.642  23.723  26.840  1.00  0.00     0.060 A 
ATOM     28  C   UNL A   1      41.734  23.770  27.892  1.00  0.00     0.016 A 
ATOM     29  C   UNL A   1      43.230  24.959  26.560  1.00  0.00     0.016 A 
ATOM     30  C   UNL A   1      41.512  24.860  28.750  1.00  0.00     0.010 A 
ATOM     31  C   UNL A   1      43.000  26.107  27.402  1.00  0.00     0.010 A 
ATOM     32  C   UNL A   1      42.167  26.057  28.541  1.00  0.00    -0.014 A 
BRANCH  32  33
ATOM     33  C   UNL A   1      41.885  27.217  29.452  1.00  0.00     0.031 A 
ATOM     34  C   UNL A   1      42.750  27.459  30.658  1.00  0.00     0.074 A 
ATOM     35  C   UNL A   1      40.954  28.158  29.173  1.00  0.00     0.049 A 
ATOM     36  N   UNL A   1      42.515  28.181  31.725  1.00  0.00    -0.248 NA
ATOM     37  C   UNL A   1      44.079  26.832  30.636  1.00  0.00     0.031 C 
ATOM     38  C   UNL A   1      40.199  28.275  27.925  1.00  0.00     0.029 A 
ATOM     39  N   UNL A   1      40.477  29.205  29.940  1.00  0.00    -0.354 N 
ATOM     40  C   UNL A   1      43.634  28.035  32.537  1.00  0.00     0.074 A 
ATOM     41  C   UNL A   1      44.570  27.200  31.812  1.00  0.00     0.031 C 
ATOM     42  C   UNL A   1      39.329  29.296  28.029  1.00  0.00     0.029 A 
ATOM     43  C   UNL A   1      39.392  29.845  29.381  1.00  0.00     0.049 A 
ATOM     44  H   UNL A   1      40.874  29.467  30.802  1.00  0.00     0.167 HD
ATOM     45  C   UNL A   1      43.840  28.526  33.784  1.00  0.00     0.037 A 
ATOM     46  C   UNL A   1      38.497  30.704  29.918  1.00  0.00     0.037 A 
ATOM     47  C   UNL A   1      42.919  29.391  34.479  1.00  0.00     0.049 A 
ATOM     48  C   UNL A   1      38.623  31.095  31.371  1.00  0.00     0.074 A 
ATOM     49  C   UNL A   1      42.989  29.870  35.777  1.00  0.00     0.029 A 
ATOM     50  N   UNL A   1      41.766  29.921  33.922  1.00  0.00    -0.354 N 
ATOM     51  N   UNL A   1      39.574  30.804  32.225  1.00  0.00    -0.248 NA
ATOM     52  C   UNL A   1      37.534  31.903  31.948  1.00  0.00     0.031 C 
ATOM     53  C   UNL A   1      41.851  30.647  36.020  1.00  0.00     0.029 A 
ATOM     54  C   UNL A   1      41.104  30.701  34.855  1.00  0.00     0.049 A 
ATOM     55  H   UNL A   1      41.463  29.767  32.997  1.00  0.00     0.167 HD
ATOM     56  C   UNL A   1      39.215  31.413  33.424  1.00  0.00     0.074 A 
ATOM     57  C   UNL A   1      37.961  32.095  33.189  1.00  0.00     0.031 C 
ATOM     58  C   UNL A   1      39.869  31.404  34.610  1.00  0.00     0.037 A 
BRANCH  45  59
ATOM     59  C   UNL A   1      45.052  28.043  34.526  1.00  0.00     0.057 A 
ATOM     60  C   UNL A   1      46.264  28.742  34.544  1.00  0.00     0.134 A 
ATOM     61  C   UNL A   1      44.986  26.847  35.257  1.00  0.00     0.134 A 
ATOM     62  F   UNL A   1      46.399  29.886  33.858  1.00  0.00    -0.206 F 
ATOM     63  C   UNL A   1      47.375  28.254  35.238  1.00  0.00     0.040 A 
ATOM     64  C   UNL A   1      46.080  26.363  35.975  1.00  0.00     0.040 A 
ATOM     65  F   UNL A   1      43.851  26.133  35.292  1.00  0.00    -0.206 F 
ATOM     66  C   UNL A   1      47.283  27.064  35.959  1.00  0.00     0.006 A 
ENDBRANCH  45  59
BRANCH  46  67
ATOM     67  C   UNL A   1      37.314  31.158  29.129  1.00  0.00     0.057 A 
ATOM     68  C   UNL A   1      37.209  32.467  28.643  1.00  0.00     0.134 A 
ATOM     69  C   UNL A   1      36.226  30.304  28.896  1.00  0.00     0.134 A 
ATOM     70  F   UNL A   1      38.191  33.353  28.869  1.00  0.00    -0.206 F 
ATOM     71  C   UNL A   1      36.069  32.910  27.964  1.00  0.00     0.040 A 
ATOM     72  C   UNL A   1      35.095  30.723  28.191  1.00  0.00     0.040 A 
ATOM     73  F   UNL A   1      36.243  29.043  29.355  1.00  0.00    -0.206 F 
ATOM     74  C   UNL A   1      35.011  32.033  27.729  1.00  0.00     0.006 A 
ENDBRANCH  46  67
BRANCH  58  75
ATOM     75  C   UNL A   1      39.288  32.202  35.741  1.00  0.00     0.057 A 
ATOM     76  C   UNL A   1      39.595  33.554  35.932  1.00  0.00     0.134 A 
ATOM     77  C   UNL A   1      38.344  31.625  36.600  1.00  0.00     0.134 A 
ATOM     78  F   UNL A   1      40.499  34.164  35.152  1.00  0.00    -0.206 F 
ATOM     79  C   UNL A   1      38.987  34.303  36.942  1.00  0.00     0.040 A 
ATOM     80  C   UNL A   1      37.712  32.368  37.598  1.00  0.00     0.040 A 
ATOM     81  F   UNL A   1      38.000  30.335  36.467  1.00  0.00    -0.206 F 
ATOM     82  C   UNL A   1      38.034  33.713  37.772  1.00  0.00     0.006 A 
ENDBRANCH  58  75
ENDBRANCH  32  33
ENDBRANCH  25  27
ENDBRANCH  24  25
ENDBRANCH  23  24
ENDBRANCH   1  23
TORSDOF 16
ENDMDL
