MODEL 1
REMARK VINA RESULT:     -12.0      0.000      0.000
REMARK SMILES O=C(OCCOC(=O)c1ccccc1/C=C1/SC(=S)N(C2CCCC2)C1=O)c1ccc(-c2c3nc(c(-c4c(F)cccc4F)c4ccc([nH]4)c(-c4c(F)cccc4F)c4nc(c(-c5c(F)cccc5F)c5ccc2[nH]5)C=C4)C=C3)cc1
REMARK SMILES IDX 4 1 3 2 2 3 1 4 28 5 29 6 81 7 30 8 80 9 31 10 32 11 33 12
REMARK SMILES IDX 74 13 34 14 79 15 73 16 75 17 35 18 78 19 72 20 71 21 36 23
REMARK SMILES IDX 62 24 45 25 61 26 46 27 49 28 60 29 76 30 47 31 48 32 59 34
REMARK SMILES IDX 77 35 50 36 37 37 38 38 43 39 39 40 40 41 42 42 44 43 41 44
REMARK SMILES IDX 63 45 64 46 69 47 65 48 66 49 68 50 70 51 67 52 51 53 52 54
REMARK SMILES IDX 57 55 53 56 54 57 56 58 58 59 55 60 5 61 6 62 7 63 8 64 9 65
REMARK SMILES IDX 10 66 14 67 11 68 13 69 12 70 15 71 16 72 17 73 26 74 18 75
REMARK SMILES IDX 20 76 27 77 19 78 21 79 22 80 25 81 23 82 24 83
REMARK H PARENT 75 22 49 33
REMARK Flexibility Score: inf
ROOT
ATOM      1  C   UNL A   1      39.135  22.383  26.339  1.00  0.00     0.275 C 
ENDROOT
BRANCH   1   2
ATOM      2  O   UNL A   1      39.482  23.776  26.210  1.00  0.00    -0.458 OA
BRANCH   2   3
ATOM      3  C   UNL A   1      40.563  24.463  26.641  1.00  0.00     0.338 C 
ATOM      4  O   UNL A   1      41.680  24.046  26.333  1.00  0.00    -0.246 OA
BRANCH   3   5
ATOM      5  C   UNL A   1      40.511  25.646  27.562  1.00  0.00     0.060 A 
ATOM      6  C   UNL A   1      41.377  26.740  27.549  1.00  0.00     0.016 A 
ATOM      7  C   UNL A   1      39.511  25.616  28.556  1.00  0.00     0.016 A 
ATOM      8  C   UNL A   1      41.234  27.785  28.471  1.00  0.00     0.010 A 
ATOM      9  C   UNL A   1      39.363  26.655  29.482  1.00  0.00     0.010 A 
ATOM     10  C   UNL A   1      40.237  27.743  29.451  1.00  0.00    -0.014 A 
BRANCH  10  11
ATOM     11  C   UNL A   1      40.209  28.788  30.503  1.00  0.00     0.031 A 
ATOM     12  C   UNL A   1      39.230  29.902  30.379  1.00  0.00     0.074 A 
ATOM     13  C   UNL A   1      40.996  28.698  31.589  1.00  0.00     0.049 A 
ATOM     14  N   UNL A   1      38.976  30.860  31.228  1.00  0.00    -0.248 NA
ATOM     15  C   UNL A   1      38.424  29.936  29.151  1.00  0.00     0.031 C 
ATOM     16  C   UNL A   1      41.952  27.631  31.788  1.00  0.00     0.029 A 
ATOM     17  N   UNL A   1      41.134  29.465  32.714  1.00  0.00    -0.354 N 
ATOM     18  C   UNL A   1      37.961  31.600  30.650  1.00  0.00     0.074 A 
ATOM     19  C   UNL A   1      37.676  31.009  29.359  1.00  0.00     0.031 C 
ATOM     20  C   UNL A   1      42.585  27.780  32.959  1.00  0.00     0.029 A 
ATOM     21  C   UNL A   1      42.088  28.993  33.589  1.00  0.00     0.049 A 
ATOM     22  H   UNL A   1      40.601  30.277  32.882  1.00  0.00     0.167 HD
ATOM     23  C   UNL A   1      37.319  32.670  31.167  1.00  0.00     0.037 A 
ATOM     24  C   UNL A   1      42.519  29.494  34.761  1.00  0.00     0.037 A 
ATOM     25  C   UNL A   1      37.655  33.268  32.430  1.00  0.00     0.049 A 
ATOM     26  C   UNL A   1      41.850  30.737  35.268  1.00  0.00     0.074 A 
ATOM     27  C   UNL A   1      37.103  34.381  33.033  1.00  0.00     0.029 A 
ATOM     28  N   UNL A   1      38.653  32.804  33.278  1.00  0.00    -0.354 N 
ATOM     29  N   UNL A   1      40.867  31.414  34.724  1.00  0.00    -0.248 NA
ATOM     30  C   UNL A   1      42.333  31.284  36.541  1.00  0.00     0.031 C 
ATOM     31  C   UNL A   1      37.792  34.612  34.229  1.00  0.00     0.029 A 
ATOM     32  C   UNL A   1      38.747  33.620  34.392  1.00  0.00     0.049 A 
ATOM     33  H   UNL A   1      39.213  32.010  33.111  1.00  0.00     0.167 HD
ATOM     34  C   UNL A   1      40.594  32.454  35.596  1.00  0.00     0.074 A 
ATOM     35  C   UNL A   1      41.509  32.309  36.713  1.00  0.00     0.031 C 
ATOM     36  C   UNL A   1      39.670  33.439  35.486  1.00  0.00     0.037 A 
BRANCH  23  37
ATOM     37  C   UNL A   1      36.230  33.255  30.325  1.00  0.00     0.057 A 
ATOM     38  C   UNL A   1      34.882  32.941  30.550  1.00  0.00     0.134 A 
ATOM     39  C   UNL A   1      36.533  34.083  29.239  1.00  0.00     0.134 A 
ATOM     40  F   UNL A   1      34.533  32.123  31.554  1.00  0.00    -0.206 F 
ATOM     41  C   UNL A   1      33.875  33.409  29.706  1.00  0.00     0.040 A 
ATOM     42  C   UNL A   1      35.533  34.573  28.399  1.00  0.00     0.040 A 
ATOM     43  F   UNL A   1      37.805  34.406  28.963  1.00  0.00    -0.206 F 
ATOM     44  C   UNL A   1      34.200  34.229  28.626  1.00  0.00     0.006 A 
ENDBRANCH  23  37
BRANCH  24  45
ATOM     45  C   UNL A   1      43.618  28.833  35.516  1.00  0.00     0.057 A 
ATOM     46  C   UNL A   1      44.962  29.130  35.264  1.00  0.00     0.134 A 
ATOM     47  C   UNL A   1      43.350  27.875  36.504  1.00  0.00     0.134 A 
ATOM     48  F   UNL A   1      45.290  30.028  34.324  1.00  0.00    -0.206 F 
ATOM     49  C   UNL A   1      45.997  28.487  35.949  1.00  0.00     0.040 A 
ATOM     50  C   UNL A   1      44.374  27.243  37.213  1.00  0.00     0.040 A 
ATOM     51  F   UNL A   1      42.084  27.549  36.806  1.00  0.00    -0.206 F 
ATOM     52  C   UNL A   1      45.704  27.542  36.930  1.00  0.00     0.006 A 
ENDBRANCH  24  45
BRANCH  36  53
ATOM     53  C   UNL A   1      39.595  34.410  36.622  1.00  0.00     0.057 A 
ATOM     54  C   UNL A   1      38.858  34.133  37.779  1.00  0.00     0.134 A 
ATOM     55  C   UNL A   1      40.294  35.621  36.565  1.00  0.00     0.134 A 
ATOM     56  F   UNL A   1      38.151  32.997  37.880  1.00  0.00    -0.206 F 
ATOM     57  C   UNL A   1      38.805  35.039  38.837  1.00  0.00     0.040 A 
ATOM     58  C   UNL A   1      40.268  36.524  37.626  1.00  0.00     0.040 A 
ATOM     59  F   UNL A   1      41.019  35.939  35.481  1.00  0.00    -0.206 F 
ATOM     60  C   UNL A   1      39.519  36.234  38.765  1.00  0.00     0.006 A 
ENDBRANCH  36  53
ENDBRANCH  10  11
ENDBRANCH   3   5
ENDBRANCH   2   3
ENDBRANCH   1   2
BRANCH   1  61
ATOM     61  C   UNL A   1      38.133  21.890  25.299  1.00  0.00     0.275 C 
BRANCH  61  62
ATOM     62  O   UNL A   1      37.092  22.844  25.046  1.00  0.00    -0.458 OA
BRANCH  62  63
ATOM     63  C   UNL A   1      36.347  22.602  23.937  1.00  0.00     0.338 C 
ATOM     64  O   UNL A   1      36.731  22.695  22.781  1.00  0.00    -0.246 OA
BRANCH  63  65
ATOM     65  C   UNL A   1      34.996  22.121  24.302  1.00  0.00     0.067 A 
ATOM     66  C   UNL A   1      34.954  21.094  25.260  1.00  0.00     0.016 A 
ATOM     67  C   UNL A   1      33.804  22.608  23.727  1.00  0.00    -0.010 A 
ATOM     68  C   UNL A   1      33.732  20.566  25.674  1.00  0.00     0.001 A 
ATOM     69  C   UNL A   1      32.592  22.015  24.115  1.00  0.00     0.009 A 
ATOM     70  C   UNL A   1      32.553  21.022  25.096  1.00  0.00     0.001 A 
BRANCH  67  71
ATOM     71  C   UNL A   1      33.749  23.726  22.766  1.00  0.00     0.030 C 
ATOM     72  C   UNL A   1      33.797  25.020  23.085  1.00  0.00     0.081 C 
ATOM     73  S   UNL A   1      33.374  26.302  22.031  1.00  0.00    -0.054 SA
ATOM     74  C   UNL A   1      33.929  25.526  24.458  1.00  0.00     0.266 C 
ATOM     75  C   UNL A   1      32.877  27.320  23.393  1.00  0.00     0.148 C 
ATOM     76  N   UNL A   1      33.182  26.683  24.581  1.00  0.00    -0.290 N 
ATOM     77  O   UNL A   1      34.603  24.984  25.320  1.00  0.00    -0.268 OA
ATOM     78  S   UNL A   1      32.144  28.792  23.122  1.00  0.00    -0.052 S 
BRANCH  76  79
ATOM     79  C   UNL A   1      32.899  27.100  25.946  1.00  0.00     0.092 C 
ATOM     80  C   UNL A   1      33.597  28.377  26.382  1.00  0.00     0.025 C 
ATOM     81  C   UNL A   1      31.431  27.280  26.330  1.00  0.00     0.025 C 
ATOM     82  C   UNL A   1      32.917  28.662  27.710  1.00  0.00     0.002 C 
ATOM     83  C   UNL A   1      31.455  28.264  27.501  1.00  0.00     0.002 C 
ENDBRANCH  76  79
ENDBRANCH  67  71
ENDBRANCH  63  65
ENDBRANCH  62  63
ENDBRANCH  61  62
ENDBRANCH   1  61
TORSDOF 13
ENDMDL
MODEL 2
REMARK VINA RESULT:     -12.0      2.906      7.920
REMARK SMILES O=C(OCCOC(=O)c1ccccc1/C=C1/SC(=S)N(C2CCCC2)C1=O)c1ccc(-c2c3nc(c(-c4c(F)cccc4F)c4ccc([nH]4)c(-c4c(F)cccc4F)c4nc(c(-c5c(F)cccc5F)c5ccc2[nH]5)C=C4)C=C3)cc1
REMARK SMILES IDX 4 1 3 2 2 3 1 4 28 5 29 6 81 7 30 8 80 9 31 10 32 11 33 12
REMARK SMILES IDX 74 13 34 14 79 15 73 16 75 17 35 18 78 19 72 20 71 21 36 23
REMARK SMILES IDX 62 24 45 25 61 26 46 27 49 28 60 29 76 30 47 31 48 32 59 34
REMARK SMILES IDX 77 35 50 36 37 37 38 38 43 39 39 40 40 41 42 42 44 43 41 44
REMARK SMILES IDX 63 45 64 46 69 47 65 48 66 49 68 50 70 51 67 52 51 53 52 54
REMARK SMILES IDX 57 55 53 56 54 57 56 58 58 59 55 60 5 61 6 62 7 63 8 64 9 65
REMARK SMILES IDX 10 66 14 67 11 68 13 69 12 70 15 71 16 72 17 73 26 74 18 75
REMARK SMILES IDX 20 76 27 77 19 78 21 79 22 80 25 81 23 82 24 83
REMARK H PARENT 75 22 49 33
REMARK Flexibility Score: inf
ROOT
ATOM      1  C   UNL A   1      32.327  32.162  26.637  1.00  0.00     0.275 C 
ENDROOT
BRANCH   1   2
ATOM      2  O   UNL A   1      32.058  33.336  27.428  1.00  0.00    -0.458 OA
BRANCH   2   3
ATOM      3  C   UNL A   1      32.872  34.086  28.204  1.00  0.00     0.338 C 
ATOM      4  O   UNL A   1      32.530  35.240  28.463  1.00  0.00    -0.246 OA
BRANCH   3   5
ATOM      5  C   UNL A   1      34.223  33.654  28.693  1.00  0.00     0.060 A 
ATOM      6  C   UNL A   1      35.448  33.929  28.083  1.00  0.00     0.016 A 
ATOM      7  C   UNL A   1      34.236  32.860  29.859  1.00  0.00     0.016 A 
ATOM      8  C   UNL A   1      36.648  33.460  28.632  1.00  0.00     0.010 A 
ATOM      9  C   UNL A   1      35.432  32.386  30.412  1.00  0.00     0.010 A 
ATOM     10  C   UNL A   1      36.648  32.675  29.790  1.00  0.00    -0.014 A 
BRANCH  10  11
ATOM     11  C   UNL A   1      37.918  32.069  30.257  1.00  0.00     0.031 A 
ATOM     12  C   UNL A   1      38.630  32.695  31.403  1.00  0.00     0.074 A 
ATOM     13  C   UNL A   1      38.386  30.934  29.710  1.00  0.00     0.049 A 
ATOM     14  N   UNL A   1      39.698  32.276  32.025  1.00  0.00    -0.248 NA
ATOM     15  C   UNL A   1      38.063  33.946  31.927  1.00  0.00     0.031 C 
ATOM     16  C   UNL A   1      37.734  30.257  28.610  1.00  0.00     0.029 A 
ATOM     17  N   UNL A   1      39.471  30.142  29.975  1.00  0.00    -0.354 N 
ATOM     18  C   UNL A   1      39.918  33.196  33.033  1.00  0.00     0.074 A 
ATOM     19  C   UNL A   1      38.903  34.221  32.913  1.00  0.00     0.031 C 
ATOM     20  C   UNL A   1      38.404  29.145  28.280  1.00  0.00     0.029 A 
ATOM     21  C   UNL A   1      39.570  29.048  29.143  1.00  0.00     0.049 A 
ATOM     22  H   UNL A   1      40.118  30.337  30.691  1.00  0.00     0.167 HD
ATOM     23  C   UNL A   1      40.880  33.171  33.982  1.00  0.00     0.037 A 
ATOM     24  C   UNL A   1      40.506  28.083  29.081  1.00  0.00     0.037 A 
ATOM     25  C   UNL A   1      41.908  32.168  34.049  1.00  0.00     0.049 A 
ATOM     26  C   UNL A   1      41.615  28.132  30.089  1.00  0.00     0.074 A 
ATOM     27  C   UNL A   1      42.959  32.067  34.939  1.00  0.00     0.029 A 
ATOM     28  N   UNL A   1      42.017  31.096  33.172  1.00  0.00    -0.354 N 
ATOM     29  N   UNL A   1      41.797  28.995  31.060  1.00  0.00    -0.248 NA
ATOM     30  C   UNL A   1      42.639  27.084  30.008  1.00  0.00     0.031 C 
ATOM     31  C   UNL A   1      43.727  30.954  34.577  1.00  0.00     0.029 A 
ATOM     32  C   UNL A   1      43.132  30.338  33.486  1.00  0.00     0.049 A 
ATOM     33  H   UNL A   1      41.394  30.904  32.434  1.00  0.00     0.167 HD
ATOM     34  C   UNL A   1      42.942  28.585  31.723  1.00  0.00     0.074 A 
ATOM     35  C   UNL A   1      43.403  27.385  31.049  1.00  0.00     0.031 C 
ATOM     36  C   UNL A   1      43.555  29.146  32.792  1.00  0.00     0.037 A 
BRANCH  23  37
ATOM     37  C   UNL A   1      40.857  34.291  34.973  1.00  0.00     0.057 A 
ATOM     38  C   UNL A   1      40.169  34.178  36.189  1.00  0.00     0.134 A 
ATOM     39  C   UNL A   1      41.470  35.514  34.682  1.00  0.00     0.134 A 
ATOM     40  F   UNL A   1      39.532  33.042  36.507  1.00  0.00    -0.206 F 
ATOM     41  C   UNL A   1      40.067  35.256  37.070  1.00  0.00     0.040 A 
ATOM     42  C   UNL A   1      41.391  36.593  35.564  1.00  0.00     0.040 A 
ATOM     43  F   UNL A   1      42.129  35.688  33.527  1.00  0.00    -0.206 F 
ATOM     44  C   UNL A   1      40.680  36.468  36.757  1.00  0.00     0.006 A 
ENDBRANCH  23  37
BRANCH  24  45
ATOM     45  C   UNL A   1      40.435  27.016  28.046  1.00  0.00     0.057 A 
ATOM     46  C   UNL A   1      41.103  27.136  26.822  1.00  0.00     0.134 A 
ATOM     47  C   UNL A   1      39.685  25.851  28.252  1.00  0.00     0.134 A 
ATOM     48  F   UNL A   1      41.829  28.231  26.554  1.00  0.00    -0.206 F 
ATOM     49  C   UNL A   1      41.012  26.150  25.836  1.00  0.00     0.040 A 
ATOM     50  C   UNL A   1      39.604  24.846  27.285  1.00  0.00     0.040 A 
ATOM     51  F   UNL A   1      39.027  25.663  29.407  1.00  0.00    -0.206 F 
ATOM     52  C   UNL A   1      40.263  24.999  26.067  1.00  0.00     0.006 A 
ENDBRANCH  24  45
BRANCH  36  53
ATOM     53  C   UNL A   1      44.772  28.443  33.306  1.00  0.00     0.057 A 
ATOM     54  C   UNL A   1      46.058  28.782  32.868  1.00  0.00     0.134 A 
ATOM     55  C   UNL A   1      44.653  27.438  34.272  1.00  0.00     0.134 A 
ATOM     56  F   UNL A   1      46.230  29.723  31.928  1.00  0.00    -0.206 F 
ATOM     57  C   UNL A   1      47.186  28.130  33.363  1.00  0.00     0.040 A 
ATOM     58  C   UNL A   1      45.775  26.795  34.792  1.00  0.00     0.040 A 
ATOM     59  F   UNL A   1      43.446  27.072  34.731  1.00  0.00    -0.206 F 
ATOM     60  C   UNL A   1      47.046  27.139  34.334  1.00  0.00     0.006 A 
ENDBRANCH  36  53
ENDBRANCH  10  11
ENDBRANCH   3   5
ENDBRANCH   2   3
ENDBRANCH   1   2
BRANCH   1  61
ATOM     61  C   UNL A   1      31.903  30.853  27.297  1.00  0.00     0.275 C 
BRANCH  61  62
ATOM     62  O   UNL A   1      32.444  29.704  26.632  1.00  0.00    -0.458 OA
BRANCH  62  63
ATOM     63  C   UNL A   1      31.642  28.608  26.631  1.00  0.00     0.338 C 
ATOM     64  O   UNL A   1      31.172  28.062  27.617  1.00  0.00    -0.246 OA
BRANCH  63  65
ATOM     65  C   UNL A   1      31.326  28.186  25.248  1.00  0.00     0.067 A 
ATOM     66  C   UNL A   1      31.427  29.188  24.267  1.00  0.00     0.016 A 
ATOM     67  C   UNL A   1      30.914  26.884  24.896  1.00  0.00    -0.010 A 
ATOM     68  C   UNL A   1      31.150  28.899  22.933  1.00  0.00     0.001 A 
ATOM     69  C   UNL A   1      30.580  26.636  23.555  1.00  0.00     0.009 A 
ATOM     70  C   UNL A   1      30.720  27.625  22.579  1.00  0.00     0.001 A 
BRANCH  67  71
ATOM     71  C   UNL A   1      30.844  25.757  25.845  1.00  0.00     0.030 C 
ATOM     72  C   UNL A   1      31.874  24.993  26.212  1.00  0.00     0.081 C 
ATOM     73  S   UNL A   1      31.735  23.486  27.013  1.00  0.00    -0.054 SA
ATOM     74  C   UNL A   1      33.249  25.176  25.729  1.00  0.00     0.266 C 
ATOM     75  C   UNL A   1      33.242  22.907  26.286  1.00  0.00     0.148 C 
ATOM     76  N   UNL A   1      33.839  23.935  25.580  1.00  0.00    -0.290 N 
ATOM     77  O   UNL A   1      33.754  26.267  25.512  1.00  0.00    -0.268 OA
ATOM     78  S   UNL A   1      33.727  21.326  26.495  1.00  0.00    -0.052 S 
BRANCH  76  79
ATOM     79  C   UNL A   1      35.046  23.912  24.767  1.00  0.00     0.092 C 
ATOM     80  C   UNL A   1      36.324  23.606  25.528  1.00  0.00     0.025 C 
ATOM     81  C   UNL A   1      35.053  22.978  23.556  1.00  0.00     0.025 C 
ATOM     82  C   UNL A   1      37.318  23.411  24.397  1.00  0.00     0.002 C 
ATOM     83  C   UNL A   1      36.534  22.691  23.299  1.00  0.00     0.002 C 
ENDBRANCH  76  79
ENDBRANCH  67  71
ENDBRANCH  63  65
ENDBRANCH  62  63
ENDBRANCH  61  62
ENDBRANCH   1  61
TORSDOF 13
ENDMDL
MODEL 3
REMARK VINA RESULT:     -12.0      4.311      8.126
REMARK SMILES O=C(OCCOC(=O)c1ccccc1/C=C1/SC(=S)N(C2CCCC2)C1=O)c1ccc(-c2c3nc(c(-c4c(F)cccc4F)c4ccc([nH]4)c(-c4c(F)cccc4F)c4nc(c(-c5c(F)cccc5F)c5ccc2[nH]5)C=C4)C=C3)cc1
REMARK SMILES IDX 4 1 3 2 2 3 1 4 28 5 29 6 81 7 30 8 80 9 31 10 32 11 33 12
REMARK SMILES IDX 74 13 34 14 79 15 73 16 75 17 35 18 78 19 72 20 71 21 36 23
REMARK SMILES IDX 62 24 45 25 61 26 46 27 49 28 60 29 76 30 47 31 48 32 59 34
REMARK SMILES IDX 77 35 50 36 37 37 38 38 43 39 39 40 40 41 42 42 44 43 41 44
REMARK SMILES IDX 63 45 64 46 69 47 65 48 66 49 68 50 70 51 67 52 51 53 52 54
REMARK SMILES IDX 57 55 53 56 54 57 56 58 58 59 55 60 5 61 6 62 7 63 8 64 9 65
REMARK SMILES IDX 10 66 14 67 11 68 13 69 12 70 15 71 16 72 17 73 26 74 18 75
REMARK SMILES IDX 20 76 27 77 19 78 21 79 22 80 25 81 23 82 24 83
REMARK H PARENT 75 22 49 33
REMARK Flexibility Score: inf
ROOT
ATOM      1  C   UNL A   1      38.440  19.975  25.740  1.00  0.00     0.275 C 
ENDROOT
BRANCH   1   2
ATOM      2  O   UNL A   1      39.689  19.320  25.450  1.00  0.00    -0.458 OA
BRANCH   2   3
ATOM      3  C   UNL A   1      40.927  19.507  25.961  1.00  0.00     0.338 C 
ATOM      4  O   UNL A   1      41.695  18.546  25.996  1.00  0.00    -0.246 OA
BRANCH   3   5
ATOM      5  C   UNL A   1      41.407  20.781  26.590  1.00  0.00     0.060 A 
ATOM      6  C   UNL A   1      41.387  21.089  27.951  1.00  0.00     0.016 A 
ATOM      7  C   UNL A   1      41.883  21.770  25.704  1.00  0.00     0.016 A 
ATOM      8  C   UNL A   1      41.856  22.323  28.420  1.00  0.00     0.010 A 
ATOM      9  C   UNL A   1      42.351  23.007  26.165  1.00  0.00     0.010 A 
ATOM     10  C   UNL A   1      42.327  23.294  27.531  1.00  0.00    -0.014 A 
BRANCH  10  11
ATOM     11  C   UNL A   1      42.672  24.642  28.043  1.00  0.00     0.031 A 
ATOM     12  C   UNL A   1      44.106  24.986  28.241  1.00  0.00     0.074 A 
ATOM     13  C   UNL A   1      41.720  25.566  28.258  1.00  0.00     0.049 A 
ATOM     14  N   UNL A   1      44.627  26.131  28.588  1.00  0.00    -0.248 NA
ATOM     15  C   UNL A   1      45.080  23.911  28.005  1.00  0.00     0.031 C 
ATOM     16  C   UNL A   1      40.310  25.309  28.064  1.00  0.00     0.029 A 
ATOM     17  N   UNL A   1      41.754  26.873  28.661  1.00  0.00    -0.354 N 
ATOM     18  C   UNL A   1      45.995  25.925  28.588  1.00  0.00     0.074 A 
ATOM     19  C   UNL A   1      46.222  24.535  28.251  1.00  0.00     0.031 C 
ATOM     20  C   UNL A   1      39.591  26.408  28.332  1.00  0.00     0.029 A 
ATOM     21  C   UNL A   1      40.508  27.455  28.752  1.00  0.00     0.049 A 
ATOM     22  H   UNL A   1      42.590  27.351  28.867  1.00  0.00     0.167 HD
ATOM     23  C   UNL A   1      46.968  26.828  28.835  1.00  0.00     0.037 A 
ATOM     24  C   UNL A   1      40.151  28.691  29.144  1.00  0.00     0.037 A 
ATOM     25  C   UNL A   1      46.714  28.191  29.215  1.00  0.00     0.049 A 
ATOM     26  C   UNL A   1      41.250  29.646  29.501  1.00  0.00     0.074 A 
ATOM     27  C   UNL A   1      47.622  29.182  29.533  1.00  0.00     0.029 A 
ATOM     28  N   UNL A   1      45.447  28.746  29.346  1.00  0.00    -0.354 N 
ATOM     29  N   UNL A   1      42.547  29.448  29.468  1.00  0.00    -0.248 NA
ATOM     30  C   UNL A   1      40.853  30.989  29.939  1.00  0.00     0.031 C 
ATOM     31  C   UNL A   1      46.902  30.328  29.892  1.00  0.00     0.029 A 
ATOM     32  C   UNL A   1      45.547  30.064  29.760  1.00  0.00     0.049 A 
ATOM     33  H   UNL A   1      44.602  28.273  29.171  1.00  0.00     0.167 HD
ATOM     34  C   UNL A   1      43.124  30.644  29.857  1.00  0.00     0.074 A 
ATOM     35  C   UNL A   1      42.034  31.569  30.108  1.00  0.00     0.031 C 
ATOM     36  C   UNL A   1      44.436  30.953  29.994  1.00  0.00     0.037 A 
BRANCH  23  37
ATOM     37  C   UNL A   1      48.374  26.327  28.730  1.00  0.00     0.057 A 
ATOM     38  C   UNL A   1      49.052  25.811  29.843  1.00  0.00     0.134 A 
ATOM     39  C   UNL A   1      49.078  26.422  27.525  1.00  0.00     0.134 A 
ATOM     40  F   UNL A   1      48.440  25.728  31.034  1.00  0.00    -0.206 F 
ATOM     41  C   UNL A   1      50.393  25.433  29.767  1.00  0.00     0.040 A 
ATOM     42  C   UNL A   1      50.413  26.029  27.432  1.00  0.00     0.040 A 
ATOM     43  F   UNL A   1      48.488  26.922  26.429  1.00  0.00    -0.206 F 
ATOM     44  C   UNL A   1      51.077  25.542  28.557  1.00  0.00     0.006 A 
ENDBRANCH  23  37
BRANCH  24  45
ATOM     45  C   UNL A   1      38.717  29.084  29.218  1.00  0.00     0.057 A 
ATOM     46  C   UNL A   1      38.038  29.593  28.105  1.00  0.00     0.134 A 
ATOM     47  C   UNL A   1      37.991  28.969  30.411  1.00  0.00     0.134 A 
ATOM     48  F   UNL A   1      38.676  29.740  26.934  1.00  0.00    -0.206 F 
ATOM     49  C   UNL A   1      36.701  29.992  28.180  1.00  0.00     0.040 A 
ATOM     50  C   UNL A   1      36.648  29.342  30.494  1.00  0.00     0.040 A 
ATOM     51  F   UNL A   1      38.575  28.479  31.515  1.00  0.00    -0.206 F 
ATOM     52  C   UNL A   1      36.001  29.864  29.377  1.00  0.00     0.006 A 
ENDBRANCH  24  45
BRANCH  36  53
ATOM     53  C   UNL A   1      44.750  32.357  30.405  1.00  0.00     0.057 A 
ATOM     54  C   UNL A   1      44.894  33.384  29.464  1.00  0.00     0.134 A 
ATOM     55  C   UNL A   1      44.877  32.687  31.759  1.00  0.00     0.134 A 
ATOM     56  F   UNL A   1      44.804  33.122  28.152  1.00  0.00    -0.206 F 
ATOM     57  C   UNL A   1      45.173  34.692  29.859  1.00  0.00     0.040 A 
ATOM     58  C   UNL A   1      45.132  33.994  32.166  1.00  0.00     0.040 A 
ATOM     59  F   UNL A   1      44.746  31.743  32.705  1.00  0.00    -0.206 F 
ATOM     60  C   UNL A   1      45.284  35.000  31.214  1.00  0.00     0.006 A 
ENDBRANCH  36  53
ENDBRANCH  10  11
ENDBRANCH   3   5
ENDBRANCH   2   3
ENDBRANCH   1   2
BRANCH   1  61
ATOM     61  C   UNL A   1      38.153  21.189  24.859  1.00  0.00     0.275 C 
BRANCH  61  62
ATOM     62  O   UNL A   1      36.934  21.852  25.222  1.00  0.00    -0.458 OA
BRANCH  62  63
ATOM     63  C   UNL A   1      36.113  22.156  24.184  1.00  0.00     0.338 C 
ATOM     64  O   UNL A   1      36.461  22.598  23.100  1.00  0.00    -0.246 OA
BRANCH  63  65
ATOM     65  C   UNL A   1      34.711  21.803  24.499  1.00  0.00     0.067 A 
ATOM     66  C   UNL A   1      34.538  20.791  25.458  1.00  0.00     0.016 A 
ATOM     67  C   UNL A   1      33.591  22.393  23.877  1.00  0.00    -0.010 A 
ATOM     68  C   UNL A   1      33.259  20.381  25.827  1.00  0.00     0.001 A 
ATOM     69  C   UNL A   1      32.316  21.917  24.220  1.00  0.00     0.009 A 
ATOM     70  C   UNL A   1      32.149  20.938  25.203  1.00  0.00     0.001 A 
BRANCH  67  71
ATOM     71  C   UNL A   1      33.675  23.504  22.910  1.00  0.00     0.030 C 
ATOM     72  C   UNL A   1      33.793  24.795  23.226  1.00  0.00     0.081 C 
ATOM     73  S   UNL A   1      33.528  26.093  22.143  1.00  0.00    -0.054 SA
ATOM     74  C   UNL A   1      33.872  25.302  24.603  1.00  0.00     0.266 C 
ATOM     75  C   UNL A   1      33.017  27.155  23.465  1.00  0.00     0.148 C 
ATOM     76  N   UNL A   1      33.201  26.508  24.673  1.00  0.00    -0.290 N 
ATOM     77  O   UNL A   1      34.450  24.722  25.508  1.00  0.00    -0.268 OA
ATOM     78  S   UNL A   1      32.407  28.672  23.142  1.00  0.00    -0.052 S 
BRANCH  76  79
ATOM     79  C   UNL A   1      32.861  26.955  26.016  1.00  0.00     0.092 C 
ATOM     80  C   UNL A   1      33.566  28.223  26.465  1.00  0.00     0.025 C 
ATOM     81  C   UNL A   1      31.380  27.176  26.323  1.00  0.00     0.025 C 
ATOM     82  C   UNL A   1      32.829  28.546  27.753  1.00  0.00     0.002 C 
ATOM     83  C   UNL A   1      31.370  28.179  27.478  1.00  0.00     0.002 C 
ENDBRANCH  76  79
ENDBRANCH  67  71
ENDBRANCH  63  65
ENDBRANCH  62  63
ENDBRANCH  61  62
ENDBRANCH   1  61
TORSDOF 13
ENDMDL
