MODEL 1
REMARK VINA RESULT:     -11.7      0.000      0.000
REMARK SMILES CCCc1cc2c(cc1Cl)C=C(C(=O)OCCOC(=O)c1ccc(-c3c4nc(c(-c5c(F)cccc5F)c5ccc([nH]5)c(-c5c(F)cccc5F)c5nc(c(-c6c(F)cccc6F)c6ccc3[nH]6)C=C5)C=C4)cc1)[C@H](C(F)(F)F)O2
REMARK SMILES IDX 16 1 15 2 13 3 14 4 12 5 4 6 5 7 9 8 6 9 8 10 10 11 7 12
REMARK SMILES IDX 80 13 11 14 75 15 3 16 2 17 1 18 76 19 77 20 78 21 79 22
REMARK SMILES IDX 17 23 18 24 19 25 20 26 21 27 22 28 74 29 23 30 73 31 24 32
REMARK SMILES IDX 25 33 26 34 67 35 27 36 72 37 66 38 68 39 28 40 71 41 65 42
REMARK SMILES IDX 64 43 29 45 55 46 38 47 54 48 39 49 42 50 53 51 69 52 40 53
REMARK SMILES IDX 41 54 52 56 70 57 43 58 30 59 31 60 36 61 32 62 33 63 35 64
REMARK SMILES IDX 37 65 34 66 56 67 57 68 62 69 58 70 59 71 61 72 63 73 60 74
REMARK SMILES IDX 44 75 45 76 50 77 46 78 47 79 49 80 51 81 48 82
REMARK H PARENT 68 44 42 55
REMARK Flexibility Score: inf
ROOT
ATOM      1  C   UNL A   1      35.165  20.547  25.031  1.00  0.00     0.275 C 
ENDROOT
BRANCH   1   2
ATOM      2  O   UNL A   1      35.013  21.918  25.461  1.00  0.00    -0.459 OA
BRANCH   2   3
ATOM      3  C   UNL A   1      34.179  22.118  26.506  1.00  0.00     0.338 C 
ATOM      4  O   UNL A   1      34.121  21.447  27.524  1.00  0.00    -0.246 OA
BRANCH   3   5
ATOM      5  C   UNL A   1      33.409  23.359  26.313  1.00  0.00     0.087 C 
ATOM      6  C   UNL A   1      32.061  28.095  25.309  1.00  0.00    -0.026 A 
ATOM      7  C   UNL A   1      31.550  27.090  26.163  1.00  0.00     0.052 A 
ATOM      8  C   UNL A   1      33.144  27.778  24.474  1.00  0.00     0.045 A 
ATOM      9  C   UNL A   1      32.144  25.830  26.217  1.00  0.00     0.128 A 
ATOM     10  C   UNL A   1      33.792  26.551  24.599  1.00  0.00     0.032 A 
ATOM     11  Cl  UNL A   1      33.730  28.849  23.252  1.00  0.00    -0.084 Cl
ATOM     12  C   UNL A   1      33.311  25.599  25.498  1.00  0.00     0.019 A 
ATOM     13  O   UNL A   1      31.587  24.876  27.030  1.00  0.00    -0.475 OA
ATOM     14  C   UNL A   1      34.055  24.384  25.747  1.00  0.00     0.027 C 
ATOM     15  C   UNL A   1      31.982  23.485  26.768  1.00  0.00     0.316 C 
BRANCH   6  16
ATOM     16  C   UNL A   1      31.448  29.478  25.360  1.00  0.00     0.037 C 
BRANCH  16  17
ATOM     17  C   UNL A   1      31.760  30.245  26.656  1.00  0.00     0.001 C 
ATOM     18  C   UNL A   1      33.244  30.457  26.929  1.00  0.00     0.004 C 
ENDBRANCH  16  17
ENDBRANCH   6  16
BRANCH  15  19
ATOM     19  C   UNL A   1      30.961  22.767  25.860  1.00  0.00     0.430 C 
ATOM     20  F   UNL A   1      31.393  21.561  25.431  1.00  0.00    -0.167 F 
ATOM     21  F   UNL A   1      29.795  22.565  26.525  1.00  0.00    -0.167 F 
ATOM     22  F   UNL A   1      30.657  23.493  24.758  1.00  0.00    -0.167 F 
ENDBRANCH  15  19
ENDBRANCH   3   5
ENDBRANCH   2   3
ENDBRANCH   1   2
BRANCH   1  23
ATOM     23  C   UNL A   1      36.642  20.152  24.999  1.00  0.00     0.275 C 
BRANCH  23  24
ATOM     24  O   UNL A   1      37.453  21.269  25.410  1.00  0.00    -0.458 OA
BRANCH  24  25
ATOM     25  C   UNL A   1      38.720  20.985  25.784  1.00  0.00     0.338 C 
ATOM     26  O   UNL A   1      39.283  19.901  25.759  1.00  0.00    -0.246 OA
BRANCH  25  27
ATOM     27  C   UNL A   1      39.378  22.219  26.242  1.00  0.00     0.060 A 
ATOM     28  C   UNL A   1      40.668  22.190  26.761  1.00  0.00     0.016 A 
ATOM     29  C   UNL A   1      38.726  23.436  26.075  1.00  0.00     0.016 A 
ATOM     30  C   UNL A   1      41.281  23.388  27.148  1.00  0.00     0.010 A 
ATOM     31  C   UNL A   1      39.386  24.636  26.329  1.00  0.00     0.010 A 
ATOM     32  C   UNL A   1      40.657  24.630  26.918  1.00  0.00    -0.014 A 
BRANCH  32  33
ATOM     33  C   UNL A   1      41.283  25.917  27.342  1.00  0.00     0.031 A 
ATOM     34  C   UNL A   1      42.694  26.256  26.913  1.00  0.00     0.074 A 
ATOM     35  C   UNL A   1      40.615  26.771  28.145  1.00  0.00     0.049 A 
ATOM     36  N   UNL A   1      43.438  27.285  27.239  1.00  0.00    -0.248 NA
ATOM     37  C   UNL A   1      43.373  25.290  26.034  1.00  0.00     0.031 C 
ATOM     38  C   UNL A   1      39.275  26.553  28.692  1.00  0.00     0.029 A 
ATOM     39  N   UNL A   1      40.976  28.002  28.636  1.00  0.00    -0.354 N 
ATOM     40  C   UNL A   1      44.676  27.062  26.646  1.00  0.00     0.074 A 
ATOM     41  C   UNL A   1      44.604  25.775  25.991  1.00  0.00     0.031 C 
ATOM     42  C   UNL A   1      38.906  27.635  29.397  1.00  0.00     0.029 A 
ATOM     43  C   UNL A   1      39.995  28.606  29.387  1.00  0.00     0.049 A 
ATOM     44  H   UNL A   1      41.853  28.415  28.466  1.00  0.00     0.167 HD
ATOM     45  C   UNL A   1      45.768  27.863  26.616  1.00  0.00     0.037 A 
ATOM     46  C   UNL A   1      39.973  29.808  29.993  1.00  0.00     0.037 A 
ATOM     47  C   UNL A   1      45.823  29.178  27.197  1.00  0.00     0.049 A 
ATOM     48  C   UNL A   1      41.173  30.709  29.897  1.00  0.00     0.074 A 
ATOM     49  C   UNL A   1      46.856  30.099  27.156  1.00  0.00     0.029 A 
ATOM     50  N   UNL A   1      44.790  29.765  27.911  1.00  0.00    -0.354 N 
ATOM     51  N   UNL A   1      42.317  30.501  29.290  1.00  0.00    -0.248 NA
ATOM     52  C   UNL A   1      41.078  32.015  30.567  1.00  0.00     0.031 C 
ATOM     53  C   UNL A   1      46.453  31.238  27.861  1.00  0.00     0.029 A 
ATOM     54  C   UNL A   1      45.160  31.037  28.313  1.00  0.00     0.049 A 
ATOM     55  H   UNL A   1      43.922  29.340  28.102  1.00  0.00     0.167 HD
ATOM     56  C   UNL A   1      43.063  31.656  29.482  1.00  0.00     0.074 A 
ATOM     57  C   UNL A   1      42.241  32.566  30.251  1.00  0.00     0.031 C 
ATOM     58  C   UNL A   1      44.320  31.937  29.060  1.00  0.00     0.037 A 
BRANCH  45  59
ATOM     59  C   UNL A   1      46.987  27.345  25.905  1.00  0.00     0.057 A 
ATOM     60  C   UNL A   1      47.150  27.539  24.528  1.00  0.00     0.134 A 
ATOM     61  C   UNL A   1      47.995  26.644  26.582  1.00  0.00     0.134 A 
ATOM     62  F   UNL A   1      46.220  28.192  23.816  1.00  0.00    -0.206 F 
ATOM     63  C   UNL A   1      48.276  27.064  23.852  1.00  0.00     0.040 A 
ATOM     64  C   UNL A   1      49.139  26.190  25.923  1.00  0.00     0.040 A 
ATOM     65  F   UNL A   1      47.906  26.434  27.904  1.00  0.00    -0.206 F 
ATOM     66  C   UNL A   1      49.280  26.396  24.552  1.00  0.00     0.006 A 
ENDBRANCH  45  59
BRANCH  46  67
ATOM     67  C   UNL A   1      38.754  30.257  30.712  1.00  0.00     0.057 A 
ATOM     68  C   UNL A   1      37.741  30.975  30.067  1.00  0.00     0.134 A 
ATOM     69  C   UNL A   1      38.573  29.962  32.068  1.00  0.00     0.134 A 
ATOM     70  F   UNL A   1      37.858  31.292  28.769  1.00  0.00    -0.206 F 
ATOM     71  C   UNL A   1      36.594  31.389  30.745  1.00  0.00     0.040 A 
ATOM     72  C   UNL A   1      37.421  30.350  32.754  1.00  0.00     0.040 A 
ATOM     73  F   UNL A   1      39.500  29.259  32.736  1.00  0.00    -0.206 F 
ATOM     74  C   UNL A   1      36.428  31.069  32.092  1.00  0.00     0.006 A 
ENDBRANCH  46  67
BRANCH  58  75
ATOM     75  C   UNL A   1      44.864  33.295  29.381  1.00  0.00     0.057 A 
ATOM     76  C   UNL A   1      44.669  34.366  28.499  1.00  0.00     0.134 A 
ATOM     77  C   UNL A   1      45.612  33.535  30.539  1.00  0.00     0.134 A 
ATOM     78  F   UNL A   1      43.966  34.197  27.369  1.00  0.00    -0.206 F 
ATOM     79  C   UNL A   1      45.204  35.628  28.757  1.00  0.00     0.040 A 
ATOM     80  C   UNL A   1      46.135  34.799  30.818  1.00  0.00     0.040 A 
ATOM     81  F   UNL A   1      45.822  32.553  31.429  1.00  0.00    -0.206 F 
ATOM     82  C   UNL A   1      45.936  35.848  29.922  1.00  0.00     0.006 A 
ENDBRANCH  58  75
ENDBRANCH  32  33
ENDBRANCH  25  27
ENDBRANCH  24  25
ENDBRANCH  23  24
ENDBRANCH   1  23
TORSDOF 14
ENDMDL
MODEL 2
REMARK VINA RESULT:     -11.7      2.183      3.146
REMARK SMILES CCCc1cc2c(cc1Cl)C=C(C(=O)OCCOC(=O)c1ccc(-c3c4nc(c(-c5c(F)cccc5F)c5ccc([nH]5)c(-c5c(F)cccc5F)c5nc(c(-c6c(F)cccc6F)c6ccc3[nH]6)C=C5)C=C4)cc1)[C@H](C(F)(F)F)O2
REMARK SMILES IDX 16 1 15 2 13 3 14 4 12 5 4 6 5 7 9 8 6 9 8 10 10 11 7 12
REMARK SMILES IDX 80 13 11 14 75 15 3 16 2 17 1 18 76 19 77 20 78 21 79 22
REMARK SMILES IDX 17 23 18 24 19 25 20 26 21 27 22 28 74 29 23 30 73 31 24 32
REMARK SMILES IDX 25 33 26 34 67 35 27 36 72 37 66 38 68 39 28 40 71 41 65 42
REMARK SMILES IDX 64 43 29 45 55 46 38 47 54 48 39 49 42 50 53 51 69 52 40 53
REMARK SMILES IDX 41 54 52 56 70 57 43 58 30 59 31 60 36 61 32 62 33 63 35 64
REMARK SMILES IDX 37 65 34 66 56 67 57 68 62 69 58 70 59 71 61 72 63 73 60 74
REMARK SMILES IDX 44 75 45 76 50 77 46 78 47 79 49 80 51 81 48 82
REMARK H PARENT 68 44 42 55
REMARK Flexibility Score: inf
ROOT
ATOM      1  C   UNL A   1      37.847  19.973  24.980  1.00  0.00     0.275 C 
ENDROOT
BRANCH   1   2
ATOM      2  O   UNL A   1      36.840  20.963  25.286  1.00  0.00    -0.459 OA
BRANCH   2   3
ATOM      3  C   UNL A   1      35.562  20.598  25.036  1.00  0.00     0.338 C 
ATOM      4  O   UNL A   1      35.177  19.487  24.708  1.00  0.00    -0.246 OA
BRANCH   3   5
ATOM      5  C   UNL A   1      34.646  21.712  25.339  1.00  0.00     0.087 C 
ATOM      6  C   UNL A   1      32.647  26.279  25.976  1.00  0.00    -0.026 A 
ATOM      7  C   UNL A   1      32.426  25.018  26.577  1.00  0.00     0.052 A 
ATOM      8  C   UNL A   1      33.565  26.363  24.917  1.00  0.00     0.045 A 
ATOM      9  C   UNL A   1      33.143  23.896  26.168  1.00  0.00     0.128 A 
ATOM     10  C   UNL A   1      34.346  25.262  24.574  1.00  0.00     0.032 A 
ATOM     11  Cl  UNL A   1      33.779  27.795  23.974  1.00  0.00    -0.084 Cl
ATOM     12  C   UNL A   1      34.158  24.044  25.229  1.00  0.00     0.019 A 
ATOM     13  O   UNL A   1      32.863  22.687  26.754  1.00  0.00    -0.475 OA
ATOM     14  C   UNL A   1      35.056  22.937  24.991  1.00  0.00     0.027 C 
ATOM     15  C   UNL A   1      33.336  21.492  26.042  1.00  0.00     0.316 C 
BRANCH   6  16
ATOM     16  C   UNL A   1      31.920  27.488  26.523  1.00  0.00     0.037 C 
BRANCH  16  17
ATOM     17  C   UNL A   1      32.815  28.425  27.350  1.00  0.00     0.001 C 
ATOM     18  C   UNL A   1      32.742  29.894  26.951  1.00  0.00     0.004 C 
ENDBRANCH  16  17
ENDBRANCH   6  16
BRANCH  15  19
ATOM     19  C   UNL A   1      32.230  20.890  25.149  1.00  0.00     0.430 C 
ATOM     20  F   UNL A   1      32.433  21.117  23.832  1.00  0.00    -0.167 F 
ATOM     21  F   UNL A   1      32.163  19.545  25.320  1.00  0.00    -0.167 F 
ATOM     22  F   UNL A   1      31.004  21.380  25.450  1.00  0.00    -0.167 F 
ENDBRANCH  15  19
ENDBRANCH   3   5
ENDBRANCH   2   3
ENDBRANCH   1   2
BRANCH   1  23
ATOM     23  C   UNL A   1      39.222  20.435  25.463  1.00  0.00     0.275 C 
BRANCH  23  24
ATOM     24  O   UNL A   1      40.022  19.291  25.820  1.00  0.00    -0.458 OA
BRANCH  24  25
ATOM     25  C   UNL A   1      41.354  19.496  25.914  1.00  0.00     0.338 C 
ATOM     26  O   UNL A   1      42.253  18.743  25.572  1.00  0.00    -0.246 OA
BRANCH  25  27
ATOM     27  C   UNL A   1      41.600  20.821  26.506  1.00  0.00     0.060 A 
ATOM     28  C   UNL A   1      41.479  21.024  27.877  1.00  0.00     0.016 A 
ATOM     29  C   UNL A   1      42.038  21.856  25.688  1.00  0.00     0.016 A 
ATOM     30  C   UNL A   1      41.762  22.287  28.413  1.00  0.00     0.010 A 
ATOM     31  C   UNL A   1      42.452  23.067  26.237  1.00  0.00     0.010 A 
ATOM     32  C   UNL A   1      42.273  23.320  27.603  1.00  0.00    -0.014 A 
BRANCH  32  33
ATOM     33  C   UNL A   1      42.561  24.679  28.150  1.00  0.00     0.031 A 
ATOM     34  C   UNL A   1      43.974  25.066  28.524  1.00  0.00     0.074 A 
ATOM     35  C   UNL A   1      41.559  25.560  28.353  1.00  0.00     0.049 A 
ATOM     36  N   UNL A   1      44.415  26.168  29.083  1.00  0.00    -0.248 NA
ATOM     37  C   UNL A   1      45.027  24.068  28.276  1.00  0.00     0.031 C 
ATOM     38  C   UNL A   1      40.140  25.309  28.102  1.00  0.00     0.029 A 
ATOM     39  N   UNL A   1      41.589  26.854  28.817  1.00  0.00    -0.354 N 
ATOM     40  C   UNL A   1      45.776  25.970  29.292  1.00  0.00     0.074 A 
ATOM     41  C   UNL A   1      46.078  24.625  28.856  1.00  0.00     0.031 C 
ATOM     42  C   UNL A   1      39.441  26.426  28.362  1.00  0.00     0.029 A 
ATOM     43  C   UNL A   1      40.355  27.460  28.836  1.00  0.00     0.049 A 
ATOM     44  H   UNL A   1      42.415  27.304  29.108  1.00  0.00     0.167 HD
ATOM     45  C   UNL A   1      46.703  26.834  29.771  1.00  0.00     0.037 A 
ATOM     46  C   UNL A   1      40.001  28.711  29.190  1.00  0.00     0.037 A 
ATOM     47  C   UNL A   1      46.427  28.199  30.133  1.00  0.00     0.049 A 
ATOM     48  C   UNL A   1      41.055  29.674  29.661  1.00  0.00     0.074 A 
ATOM     49  C   UNL A   1      47.310  29.176  30.556  1.00  0.00     0.029 A 
ATOM     50  N   UNL A   1      45.171  28.783  30.094  1.00  0.00    -0.354 N 
ATOM     51  N   UNL A   1      42.345  29.484  29.805  1.00  0.00    -0.248 NA
ATOM     52  C   UNL A   1      40.605  31.029  30.016  1.00  0.00     0.031 C 
ATOM     53  C   UNL A   1      46.585  30.349  30.792  1.00  0.00     0.029 A 
ATOM     54  C   UNL A   1      45.256  30.108  30.485  1.00  0.00     0.049 A 
ATOM     55  H   UNL A   1      44.341  28.322  29.828  1.00  0.00     0.167 HD
ATOM     56  C   UNL A   1      42.861  30.698  30.240  1.00  0.00     0.074 A 
ATOM     57  C   UNL A   1      41.749  31.621  30.325  1.00  0.00     0.031 C 
ATOM     58  C   UNL A   1      44.142  31.018  30.543  1.00  0.00     0.037 A 
BRANCH  45  59
ATOM     59  C   UNL A   1      48.113  26.331  29.905  1.00  0.00     0.057 A 
ATOM     60  C   UNL A   1      48.562  25.769  31.107  1.00  0.00     0.134 A 
ATOM     61  C   UNL A   1      49.031  26.411  28.848  1.00  0.00     0.134 A 
ATOM     62  F   UNL A   1      47.740  25.669  32.163  1.00  0.00    -0.206 F 
ATOM     63  C   UNL A   1      49.868  25.297  31.248  1.00  0.00     0.040 A 
ATOM     64  C   UNL A   1      50.330  25.916  28.969  1.00  0.00     0.040 A 
ATOM     65  F   UNL A   1      48.662  26.928  27.666  1.00  0.00    -0.206 F 
ATOM     66  C   UNL A   1      50.754  25.359  30.174  1.00  0.00     0.006 A 
ENDBRANCH  45  59
BRANCH  46  67
ATOM     67  C   UNL A   1      38.587  29.146  29.069  1.00  0.00     0.057 A 
ATOM     68  C   UNL A   1      37.711  29.110  30.159  1.00  0.00     0.134 A 
ATOM     69  C   UNL A   1      38.085  29.623  27.852  1.00  0.00     0.134 A 
ATOM     70  F   UNL A   1      38.130  28.660  31.350  1.00  0.00    -0.206 F 
ATOM     71  C   UNL A   1      36.383  29.526  30.042  1.00  0.00     0.040 A 
ATOM     72  C   UNL A   1      36.767  30.062  27.726  1.00  0.00     0.040 A 
ATOM     73  F   UNL A   1      38.884  29.699  26.777  1.00  0.00    -0.206 F 
ATOM     74  C   UNL A   1      35.911  30.012  28.824  1.00  0.00     0.006 A 
ENDBRANCH  46  67
BRANCH  58  75
ATOM     75  C   UNL A   1      44.417  32.433  30.951  1.00  0.00     0.057 A 
ATOM     76  C   UNL A   1      44.338  32.812  32.297  1.00  0.00     0.134 A 
ATOM     77  C   UNL A   1      44.722  33.426  30.013  1.00  0.00     0.134 A 
ATOM     78  F   UNL A   1      44.043  31.908  33.244  1.00  0.00    -0.206 F 
ATOM     79  C   UNL A   1      44.547  34.133  32.694  1.00  0.00     0.040 A 
ATOM     80  C   UNL A   1      44.954  34.746  30.401  1.00  0.00     0.040 A 
ATOM     81  F   UNL A   1      44.825  33.121  28.710  1.00  0.00    -0.206 F 
ATOM     82  C   UNL A   1      44.860  35.103  31.745  1.00  0.00     0.006 A 
ENDBRANCH  58  75
ENDBRANCH  32  33
ENDBRANCH  25  27
ENDBRANCH  24  25
ENDBRANCH  23  24
ENDBRANCH   1  23
TORSDOF 14
ENDMDL
MODEL 3
REMARK VINA RESULT:     -11.6      1.425      2.252
REMARK SMILES CCCc1cc2c(cc1Cl)C=C(C(=O)OCCOC(=O)c1ccc(-c3c4nc(c(-c5c(F)cccc5F)c5ccc([nH]5)c(-c5c(F)cccc5F)c5nc(c(-c6c(F)cccc6F)c6ccc3[nH]6)C=C5)C=C4)cc1)[C@H](C(F)(F)F)O2
REMARK SMILES IDX 16 1 15 2 13 3 14 4 12 5 4 6 5 7 9 8 6 9 8 10 10 11 7 12
REMARK SMILES IDX 80 13 11 14 75 15 3 16 2 17 1 18 76 19 77 20 78 21 79 22
REMARK SMILES IDX 17 23 18 24 19 25 20 26 21 27 22 28 74 29 23 30 73 31 24 32
REMARK SMILES IDX 25 33 26 34 67 35 27 36 72 37 66 38 68 39 28 40 71 41 65 42
REMARK SMILES IDX 64 43 29 45 55 46 38 47 54 48 39 49 42 50 53 51 69 52 40 53
REMARK SMILES IDX 41 54 52 56 70 57 43 58 30 59 31 60 36 61 32 62 33 63 35 64
REMARK SMILES IDX 37 65 34 66 56 67 57 68 62 69 58 70 59 71 61 72 63 73 60 74
REMARK SMILES IDX 44 75 45 76 50 77 46 78 47 79 49 80 51 81 48 82
REMARK H PARENT 68 44 42 55
REMARK Flexibility Score: inf
ROOT
ATOM      1  C   UNL A   1      36.002  20.895  25.261  1.00  0.00     0.275 C 
ENDROOT
BRANCH   1   2
ATOM      2  O   UNL A   1      35.362  22.175  25.458  1.00  0.00    -0.459 OA
BRANCH   2   3
ATOM      3  C   UNL A   1      34.368  22.200  26.375  1.00  0.00     0.338 C 
ATOM      4  O   UNL A   1      34.222  21.425  27.307  1.00  0.00    -0.246 OA
BRANCH   3   5
ATOM      5  C   UNL A   1      33.522  23.391  26.178  1.00  0.00     0.087 C 
ATOM      6  C   UNL A   1      31.885  28.029  25.148  1.00  0.00    -0.026 A 
ATOM      7  C   UNL A   1      31.441  27.000  26.012  1.00  0.00     0.052 A 
ATOM      8  C   UNL A   1      32.981  27.771  24.309  1.00  0.00     0.045 A 
ATOM      9  C   UNL A   1      32.110  25.780  26.071  1.00  0.00     0.128 A 
ATOM     10  C   UNL A   1      33.702  26.587  24.439  1.00  0.00     0.032 A 
ATOM     11  Cl  UNL A   1      33.494  28.867  23.076  1.00  0.00    -0.084 Cl
ATOM     12  C   UNL A   1      33.285  25.614  25.348  1.00  0.00     0.019 A 
ATOM     13  O   UNL A   1      31.617  24.800  26.895  1.00  0.00    -0.475 OA
ATOM     14  C   UNL A   1      34.102  24.449  25.600  1.00  0.00     0.027 C 
ATOM     15  C   UNL A   1      32.093  23.434  26.641  1.00  0.00     0.316 C 
BRANCH   6  16
ATOM     16  C   UNL A   1      31.190  29.372  25.193  1.00  0.00     0.037 C 
BRANCH  16  17
ATOM     17  C   UNL A   1      31.985  30.455  25.941  1.00  0.00     0.001 C 
ATOM     18  C   UNL A   1      32.615  29.993  27.249  1.00  0.00     0.004 C 
ENDBRANCH  16  17
ENDBRANCH   6  16
BRANCH  15  19
ATOM     19  C   UNL A   1      31.112  22.648  25.743  1.00  0.00     0.430 C 
ATOM     20  F   UNL A   1      30.880  23.255  24.558  1.00  0.00    -0.167 F 
ATOM     21  F   UNL A   1      31.604  21.412  25.474  1.00  0.00    -0.167 F 
ATOM     22  F   UNL A   1      29.909  22.466  26.337  1.00  0.00    -0.167 F 
ENDBRANCH  15  19
ENDBRANCH   3   5
ENDBRANCH   2   3
ENDBRANCH   1   2
BRANCH   1  23
ATOM     23  C   UNL A   1      37.516  21.065  25.124  1.00  0.00     0.275 C 
BRANCH  23  24
ATOM     24  O   UNL A   1      37.979  22.067  26.050  1.00  0.00    -0.458 OA
BRANCH  24  25
ATOM     25  C   UNL A   1      39.280  21.998  26.408  1.00  0.00     0.338 C 
ATOM     26  O   UNL A   1      40.026  21.033  26.338  1.00  0.00    -0.246 OA
BRANCH  25  27
ATOM     27  C   UNL A   1      39.713  23.311  26.912  1.00  0.00     0.060 A 
ATOM     28  C   UNL A   1      40.636  23.408  27.949  1.00  0.00     0.016 A 
ATOM     29  C   UNL A   1      39.251  24.463  26.285  1.00  0.00     0.016 A 
ATOM     30  C   UNL A   1      41.060  24.673  28.376  1.00  0.00     0.010 A 
ATOM     31  C   UNL A   1      39.777  25.710  26.615  1.00  0.00     0.010 A 
ATOM     32  C   UNL A   1      40.652  25.841  27.701  1.00  0.00    -0.014 A 
BRANCH  32  33
ATOM     33  C   UNL A   1      41.074  27.200  28.153  1.00  0.00     0.031 A 
ATOM     34  C   UNL A   1      42.518  27.632  28.020  1.00  0.00     0.074 A 
ATOM     35  C   UNL A   1      40.184  28.039  28.721  1.00  0.00     0.049 A 
ATOM     36  N   UNL A   1      43.096  28.739  28.422  1.00  0.00    -0.248 NA
ATOM     37  C   UNL A   1      43.444  26.678  27.389  1.00  0.00     0.031 C 
ATOM     38  C   UNL A   1      38.774  27.739  28.975  1.00  0.00     0.029 A 
ATOM     39  N   UNL A   1      40.337  29.324  29.184  1.00  0.00    -0.354 N 
ATOM     40  C   UNL A   1      44.448  28.588  28.135  1.00  0.00     0.074 A 
ATOM     41  C   UNL A   1      44.616  27.263  27.581  1.00  0.00     0.031 C 
ATOM     42  C   UNL A   1      38.180  28.825  29.496  1.00  0.00     0.029 A 
ATOM     43  C   UNL A   1      39.173  29.884  29.652  1.00  0.00     0.049 A 
ATOM     44  H   UNL A   1      41.199  29.799  29.180  1.00  0.00     0.167 HD
ATOM     45  C   UNL A   1      45.460  29.477  28.285  1.00  0.00     0.037 A 
ATOM     46  C   UNL A   1      38.930  31.114  30.145  1.00  0.00     0.037 A 
ATOM     47  C   UNL A   1      45.289  30.824  28.762  1.00  0.00     0.049 A 
ATOM     48  C   UNL A   1      40.054  32.106  30.246  1.00  0.00     0.074 A 
ATOM     49  C   UNL A   1      46.237  31.826  28.879  1.00  0.00     0.029 A 
ATOM     50  N   UNL A   1      44.084  31.361  29.183  1.00  0.00    -0.354 N 
ATOM     51  N   UNL A   1      41.317  31.962  29.923  1.00  0.00    -0.248 NA
ATOM     52  C   UNL A   1      39.718  33.437  30.777  1.00  0.00     0.031 C 
ATOM     53  C   UNL A   1      45.607  32.965  29.389  1.00  0.00     0.029 A 
ATOM     54  C   UNL A   1      44.262  32.681  29.559  1.00  0.00     0.049 A 
ATOM     55  H   UNL A   1      43.227  30.875  29.211  1.00  0.00     0.167 HD
ATOM     56  C   UNL A   1      41.918  33.186  30.186  1.00  0.00     0.074 A 
ATOM     57  C   UNL A   1      40.881  34.066  30.683  1.00  0.00     0.031 C 
ATOM     58  C   UNL A   1      43.215  33.548  30.031  1.00  0.00     0.037 A 
BRANCH  45  59
ATOM     59  C   UNL A   1      46.840  29.024  27.902  1.00  0.00     0.057 A 
ATOM     60  C   UNL A   1      47.280  29.108  26.575  1.00  0.00     0.134 A 
ATOM     61  C   UNL A   1      47.733  28.494  28.845  1.00  0.00     0.134 A 
ATOM     62  F   UNL A   1      46.475  29.596  25.619  1.00  0.00    -0.206 F 
ATOM     63  C   UNL A   1      48.560  28.692  26.202  1.00  0.00     0.040 A 
ATOM     64  C   UNL A   1      49.024  28.101  28.489  1.00  0.00     0.040 A 
ATOM     65  F   UNL A   1      47.379  28.395  30.135  1.00  0.00    -0.206 F 
ATOM     66  C   UNL A   1      49.440  28.196  27.162  1.00  0.00     0.006 A 
ENDBRANCH  45  59
BRANCH  46  67
ATOM     67  C   UNL A   1      37.551  31.498  30.541  1.00  0.00     0.057 A 
ATOM     68  C   UNL A   1      37.103  31.376  31.860  1.00  0.00     0.134 A 
ATOM     69  C   UNL A   1      36.652  32.011  29.598  1.00  0.00     0.134 A 
ATOM     70  F   UNL A   1      37.915  30.887  32.808  1.00  0.00    -0.206 F 
ATOM     71  C   UNL A   1      35.808  31.745  32.228  1.00  0.00     0.040 A 
ATOM     72  C   UNL A   1      35.362  32.405  29.956  1.00  0.00     0.040 A 
ATOM     73  F   UNL A   1      37.031  32.170  28.321  1.00  0.00    -0.206 F 
ATOM     74  C   UNL A   1      34.936  32.268  31.275  1.00  0.00     0.006 A 
ENDBRANCH  46  67
BRANCH  58  75
ATOM     75  C   UNL A   1      43.575  34.964  30.359  1.00  0.00     0.057 A 
ATOM     76  C   UNL A   1      43.959  35.317  31.660  1.00  0.00     0.134 A 
ATOM     77  C   UNL A   1      43.506  35.984  29.403  1.00  0.00     0.134 A 
ATOM     78  F   UNL A   1      44.038  34.386  32.623  1.00  0.00    -0.206 F 
ATOM     79  C   UNL A   1      44.256  36.637  31.998  1.00  0.00     0.040 A 
ATOM     80  C   UNL A   1      43.822  37.305  29.725  1.00  0.00     0.040 A 
ATOM     81  F   UNL A   1      43.158  35.707  28.138  1.00  0.00    -0.206 F 
ATOM     82  C   UNL A   1      44.192  37.635  31.028  1.00  0.00     0.006 A 
ENDBRANCH  58  75
ENDBRANCH  32  33
ENDBRANCH  25  27
ENDBRANCH  24  25
ENDBRANCH  23  24
ENDBRANCH   1  23
TORSDOF 14
ENDMDL
