MODEL 1
REMARK VINA RESULT:     -11.1      0.000      0.000
REMARK SMILES O=C(CC[C@@H]1CN(c2ccncc2)CC[C@@H]1[NH+]1CCOCC1)OCCOC(=O)c1ccc(-c2c3nc(c(-c4c(F)cccc4F)c4ccc([nH]4)c(-c4c(F)cccc4F)c4nc(c(-c5c(F)cccc5F)c5ccc2[nH]5)C=C4)C=C3)cc1
REMARK SMILES IDX 24 1 23 2 2 3 1 4 3 5 4 6 5 7 6 8 16 9 7 10 15 11 14 12
REMARK SMILES IDX 17 13 18 14 22 15 19 17 21 18 20 19 8 20 9 21 13 22 10 23
REMARK SMILES IDX 12 24 11 25 25 26 26 27 27 28 28 29 29 30 30 31 82 32 31 33
REMARK SMILES IDX 81 34 32 35 33 36 34 37 75 38 35 39 80 40 74 41 76 42 36 43
REMARK SMILES IDX 79 44 73 45 72 46 37 48 63 49 46 50 62 51 47 52 50 53 61 54
REMARK SMILES IDX 77 55 48 56 49 57 60 59 78 60 51 61 38 62 39 63 44 64 40 65
REMARK SMILES IDX 41 66 43 67 45 68 42 69 64 70 65 71 70 72 66 73 67 74 69 75
REMARK SMILES IDX 71 76 68 77 52 78 53 79 58 80 54 81 55 82 57 83 59 84 56 85
REMARK H PARENT 17 16 76 47 50 58
REMARK Flexibility Score: inf
ROOT
ATOM      1  C   UNL A   1      32.046  31.642  26.873  1.00  0.00     0.274 C 
ENDROOT
BRANCH   1   2
ATOM      2  O   UNL A   1      33.367  31.085  26.723  1.00  0.00    -0.462 OA
BRANCH   2   3
ATOM      3  C   UNL A   1      33.717  29.871  27.217  1.00  0.00     0.305 C 
ATOM      4  O   UNL A   1      34.854  29.675  27.641  1.00  0.00    -0.252 OA
BRANCH   3   5
ATOM      5  C   UNL A   1      32.720  28.732  27.105  1.00  0.00     0.123 C 
BRANCH   5   6
ATOM      6  C   UNL A   1      33.314  27.477  26.457  1.00  0.00     0.023 C 
BRANCH   6   7
ATOM      7  C   UNL A   1      32.505  27.045  25.225  1.00  0.00     0.067 C 
ATOM      8  C   UNL A   1      31.025  27.404  25.313  1.00  0.00     0.126 C 
ATOM      9  C   UNL A   1      32.773  25.574  24.739  1.00  0.00     0.190 C 
ATOM     10  N   UNL A   1      30.433  27.109  24.014  1.00  0.00    -0.371 N 
ATOM     11  C   UNL A   1      31.971  25.308  23.453  1.00  0.00     0.087 C 
ATOM     12  C   UNL A   1      30.511  25.749  23.508  1.00  0.00     0.122 C 
BRANCH   9  13
ATOM     13  N   UNL A   1      32.776  24.537  25.787  1.00  0.00    -0.328 N 
ATOM     14  C   UNL A   1      33.532  23.308  25.451  1.00  0.00     0.291 C 
ATOM     15  C   UNL A   1      31.526  24.174  26.465  1.00  0.00     0.291 C 
ATOM     16  H   UNL A   1      33.279  25.085  26.483  1.00  0.00     0.348 HD
ATOM     17  C   UNL A   1      32.702  22.153  24.860  1.00  0.00     0.221 C 
ATOM     18  C   UNL A   1      30.745  23.009  25.830  1.00  0.00     0.221 C 
ATOM     19  O   UNL A   1      31.568  21.851  25.677  1.00  0.00    -0.370 OA
ENDBRANCH   9  13
BRANCH  10  20
ATOM     20  C   UNL A   1      29.714  28.063  23.327  1.00  0.00     0.040 A 
ATOM     21  C   UNL A   1      30.357  29.103  22.659  1.00  0.00     0.046 A 
ATOM     22  C   UNL A   1      28.318  28.039  23.303  1.00  0.00     0.046 A 
ATOM     23  C   UNL A   1      29.596  30.057  22.005  1.00  0.00     0.113 A 
ATOM     24  C   UNL A   1      27.639  29.051  22.641  1.00  0.00     0.113 A 
ATOM     25  N   UNL A   1      28.247  30.062  21.988  1.00  0.00    -0.265 NA
ENDBRANCH  10  20
ENDBRANCH   6   7
ENDBRANCH   5   6
ENDBRANCH   3   5
ENDBRANCH   2   3
ENDBRANCH   1   2
BRANCH   1  26
ATOM     26  C   UNL A   1      32.033  33.166  26.946  1.00  0.00     0.275 C 
BRANCH  26  27
ATOM     27  O   UNL A   1      32.158  33.595  28.307  1.00  0.00    -0.458 OA
BRANCH  27  28
ATOM     28  C   UNL A   1      33.175  34.473  28.507  1.00  0.00     0.338 C 
ATOM     29  O   UNL A   1      33.107  35.686  28.506  1.00  0.00    -0.246 OA
BRANCH  28  30
ATOM     30  C   UNL A   1      34.384  33.727  28.905  1.00  0.00     0.060 A 
ATOM     31  C   UNL A   1      34.215  32.610  29.732  1.00  0.00     0.016 A 
ATOM     32  C   UNL A   1      35.658  34.117  28.483  1.00  0.00     0.016 A 
ATOM     33  C   UNL A   1      35.329  31.910  30.193  1.00  0.00     0.010 A 
ATOM     34  C   UNL A   1      36.772  33.422  28.950  1.00  0.00     0.010 A 
ATOM     35  C   UNL A   1      36.611  32.345  29.838  1.00  0.00    -0.014 A 
BRANCH  35  36
ATOM     36  C   UNL A   1      37.796  31.821  30.550  1.00  0.00     0.031 A 
ATOM     37  C   UNL A   1      38.608  30.751  29.879  1.00  0.00     0.074 A 
ATOM     38  C   UNL A   1      38.114  32.249  31.781  1.00  0.00     0.049 A 
ATOM     39  N   UNL A   1      39.619  30.063  30.339  1.00  0.00    -0.248 NA
ATOM     40  C   UNL A   1      38.212  30.402  28.504  1.00  0.00     0.031 C 
ATOM     41  C   UNL A   1      37.410  33.291  32.524  1.00  0.00     0.029 A 
ATOM     42  N   UNL A   1      39.103  31.830  32.634  1.00  0.00    -0.354 N 
ATOM     43  C   UNL A   1      39.974  29.194  29.317  1.00  0.00     0.074 A 
ATOM     44  C   UNL A   1      39.053  29.420  28.223  1.00  0.00     0.031 C 
ATOM     45  C   UNL A   1      37.972  33.409  33.739  1.00  0.00     0.029 A 
ATOM     46  C   UNL A   1      39.053  32.433  33.864  1.00  0.00     0.049 A 
ATOM     47  H   UNL A   1      39.782  31.162  32.386  1.00  0.00     0.167 HD
ATOM     48  C   UNL A   1      40.978  28.287  29.291  1.00  0.00     0.037 A 
ATOM     49  C   UNL A   1      39.781  32.198  34.973  1.00  0.00     0.037 A 
ATOM     50  C   UNL A   1      41.883  28.057  30.383  1.00  0.00     0.049 A 
ATOM     51  C   UNL A   1      40.862  31.151  34.943  1.00  0.00     0.074 A 
ATOM     52  C   UNL A   1      42.956  27.187  30.446  1.00  0.00     0.029 A 
ATOM     53  N   UNL A   1      41.809  28.694  31.612  1.00  0.00    -0.354 N 
ATOM     54  N   UNL A   1      41.224  30.365  33.958  1.00  0.00    -0.248 NA
ATOM     55  C   UNL A   1      41.636  30.959  36.178  1.00  0.00     0.031 C 
ATOM     56  C   UNL A   1      43.502  27.263  31.733  1.00  0.00     0.029 A 
ATOM     57  C   UNL A   1      42.798  28.216  32.453  1.00  0.00     0.049 A 
ATOM     58  H   UNL A   1      41.149  29.385  31.852  1.00  0.00     0.167 HD
ATOM     59  C   UNL A   1      42.284  29.607  34.443  1.00  0.00     0.074 A 
ATOM     60  C   UNL A   1      42.506  30.028  35.811  1.00  0.00     0.031 C 
ATOM     61  C   UNL A   1      43.010  28.652  33.810  1.00  0.00     0.037 A 
BRANCH  48  62
ATOM     62  C   UNL A   1      41.113  27.459  28.049  1.00  0.00     0.057 A 
ATOM     63  C   UNL A   1      41.916  27.860  26.974  1.00  0.00     0.134 A 
ATOM     64  C   UNL A   1      40.413  26.252  27.920  1.00  0.00     0.134 A 
ATOM     65  F   UNL A   1      42.596  29.016  27.027  1.00  0.00    -0.206 F 
ATOM     66  C   UNL A   1      41.993  27.108  25.801  1.00  0.00     0.040 A 
ATOM     67  C   UNL A   1      40.502  25.479  26.763  1.00  0.00     0.040 A 
ATOM     68  F   UNL A   1      39.626  25.812  28.912  1.00  0.00    -0.206 F 
ATOM     69  C   UNL A   1      41.287  25.912  25.695  1.00  0.00     0.006 A 
ENDBRANCH  48  62
BRANCH  49  70
ATOM     70  C   UNL A   1      39.497  32.966  36.209  1.00  0.00     0.057 A 
ATOM     71  C   UNL A   1      38.563  32.513  37.145  1.00  0.00     0.134 A 
ATOM     72  C   UNL A   1      40.166  34.165  36.488  1.00  0.00     0.134 A 
ATOM     73  F   UNL A   1      37.878  31.383  36.921  1.00  0.00    -0.206 F 
ATOM     74  C   UNL A   1      38.298  33.227  38.316  1.00  0.00     0.040 A 
ATOM     75  C   UNL A   1      39.925  34.878  37.663  1.00  0.00     0.040 A 
ATOM     76  F   UNL A   1      41.074  34.650  35.630  1.00  0.00    -0.206 F 
ATOM     77  C   UNL A   1      38.985  34.410  38.580  1.00  0.00     0.006 A 
ENDBRANCH  49  70
BRANCH  61  78
ATOM     78  C   UNL A   1      44.138  28.020  34.569  1.00  0.00     0.057 A 
ATOM     79  C   UNL A   1      43.976  26.819  35.270  1.00  0.00     0.134 A 
ATOM     80  C   UNL A   1      45.422  28.580  34.532  1.00  0.00     0.134 A 
ATOM     81  F   UNL A   1      42.769  26.237  35.352  1.00  0.00    -0.206 F 
ATOM     82  C   UNL A   1      45.049  26.203  35.916  1.00  0.00     0.040 A 
ATOM     83  C   UNL A   1      46.507  27.961  35.153  1.00  0.00     0.040 A 
ATOM     84  F   UNL A   1      45.645  29.724  33.868  1.00  0.00    -0.206 F 
ATOM     85  C   UNL A   1      46.321  26.769  35.850  1.00  0.00     0.006 A 
ENDBRANCH  61  78
ENDBRANCH  35  36
ENDBRANCH  28  30
ENDBRANCH  27  28
ENDBRANCH  26  27
ENDBRANCH   1  26
TORSDOF 15
ENDMDL
MODEL 2
REMARK VINA RESULT:     -11.1      0.577      6.187
REMARK SMILES O=C(CC[C@@H]1CN(c2ccncc2)CC[C@@H]1[NH+]1CCOCC1)OCCOC(=O)c1ccc(-c2c3nc(c(-c4c(F)cccc4F)c4ccc([nH]4)c(-c4c(F)cccc4F)c4nc(c(-c5c(F)cccc5F)c5ccc2[nH]5)C=C4)C=C3)cc1
REMARK SMILES IDX 24 1 23 2 2 3 1 4 3 5 4 6 5 7 6 8 16 9 7 10 15 11 14 12
REMARK SMILES IDX 17 13 18 14 22 15 19 17 21 18 20 19 8 20 9 21 13 22 10 23
REMARK SMILES IDX 12 24 11 25 25 26 26 27 27 28 28 29 29 30 30 31 82 32 31 33
REMARK SMILES IDX 81 34 32 35 33 36 34 37 75 38 35 39 80 40 74 41 76 42 36 43
REMARK SMILES IDX 79 44 73 45 72 46 37 48 63 49 46 50 62 51 47 52 50 53 61 54
REMARK SMILES IDX 77 55 48 56 49 57 60 59 78 60 51 61 38 62 39 63 44 64 40 65
REMARK SMILES IDX 41 66 43 67 45 68 42 69 64 70 65 71 70 72 66 73 67 74 69 75
REMARK SMILES IDX 71 76 68 77 52 78 53 79 58 80 54 81 55 82 57 83 59 84 56 85
REMARK H PARENT 17 16 76 47 50 58
REMARK Flexibility Score: inf
ROOT
ATOM      1  C   UNL A   1      31.858  31.467  26.502  1.00  0.00     0.274 C 
ENDROOT
BRANCH   1   2
ATOM      2  O   UNL A   1      32.501  30.412  27.245  1.00  0.00    -0.462 OA
BRANCH   2   3
ATOM      3  C   UNL A   1      33.794  30.052  27.048  1.00  0.00     0.305 C 
ATOM      4  O   UNL A   1      34.706  30.706  27.549  1.00  0.00    -0.252 OA
BRANCH   3   5
ATOM      5  C   UNL A   1      34.087  28.914  26.087  1.00  0.00     0.123 C 
BRANCH   5   6
ATOM      6  C   UNL A   1      33.338  27.625  26.441  1.00  0.00     0.023 C 
BRANCH   6   7
ATOM      7  C   UNL A   1      32.470  27.140  25.270  1.00  0.00     0.067 C 
ATOM      8  C   UNL A   1      31.038  27.661  25.319  1.00  0.00     0.126 C 
ATOM      9  C   UNL A   1      32.576  25.603  24.960  1.00  0.00     0.190 C 
ATOM     10  N   UNL A   1      30.399  27.282  24.065  1.00  0.00    -0.371 N 
ATOM     11  C   UNL A   1      31.731  25.275  23.715  1.00  0.00     0.087 C 
ATOM     12  C   UNL A   1      30.326  25.872  23.722  1.00  0.00     0.122 C 
BRANCH   9  13
ATOM     13  N   UNL A   1      32.485  24.700  26.122  1.00  0.00    -0.328 N 
ATOM     14  C   UNL A   1      33.657  23.816  26.323  1.00  0.00     0.291 C 
ATOM     15  C   UNL A   1      31.252  23.944  26.370  1.00  0.00     0.291 C 
ATOM     16  H   UNL A   1      32.466  25.433  26.829  1.00  0.00     0.348 HD
ATOM     17  C   UNL A   1      33.542  22.405  25.714  1.00  0.00     0.221 C 
ATOM     18  C   UNL A   1      31.200  22.540  25.741  1.00  0.00     0.221 C 
ATOM     19  O   UNL A   1      32.334  21.757  26.119  1.00  0.00    -0.370 OA
ENDBRANCH   9  13
BRANCH  10  20
ATOM     20  C   UNL A   1      29.774  28.220  23.273  1.00  0.00     0.040 A 
ATOM     21  C   UNL A   1      28.384  28.288  23.204  1.00  0.00     0.046 A 
ATOM     22  C   UNL A   1      30.508  29.112  22.489  1.00  0.00     0.046 A 
ATOM     23  C   UNL A   1      27.794  29.227  22.374  1.00  0.00     0.113 A 
ATOM     24  C   UNL A   1      29.831  30.002  21.670  1.00  0.00     0.113 A 
ATOM     25  N   UNL A   1      28.488  30.083  21.595  1.00  0.00    -0.265 NA
ENDBRANCH  10  20
ENDBRANCH   6   7
ENDBRANCH   5   6
ENDBRANCH   3   5
ENDBRANCH   2   3
ENDBRANCH   1   2
BRANCH   1  26
ATOM     26  C   UNL A   1      31.754  32.779  27.275  1.00  0.00     0.275 C 
BRANCH  26  27
ATOM     27  O   UNL A   1      33.000  33.483  27.221  1.00  0.00    -0.458 OA
BRANCH  27  28
ATOM     28  C   UNL A   1      33.210  34.296  28.289  1.00  0.00     0.338 C 
ATOM     29  O   UNL A   1      32.535  35.247  28.629  1.00  0.00    -0.246 OA
BRANCH  28  30
ATOM     30  C   UNL A   1      34.311  33.748  29.103  1.00  0.00     0.060 A 
ATOM     31  C   UNL A   1      35.620  34.083  28.735  1.00  0.00     0.016 A 
ATOM     32  C   UNL A   1      34.069  32.916  30.200  1.00  0.00     0.016 A 
ATOM     33  C   UNL A   1      36.699  33.538  29.428  1.00  0.00     0.010 A 
ATOM     34  C   UNL A   1      35.147  32.364  30.887  1.00  0.00     0.010 A 
ATOM     35  C   UNL A   1      36.463  32.640  30.476  1.00  0.00    -0.014 A 
BRANCH  35  36
ATOM     36  C   UNL A   1      37.568  31.821  31.015  1.00  0.00     0.031 A 
ATOM     37  C   UNL A   1      38.090  32.151  32.384  1.00  0.00     0.074 A 
ATOM     38  C   UNL A   1      38.127  30.841  30.289  1.00  0.00     0.049 A 
ATOM     39  N   UNL A   1      39.113  31.652  33.026  1.00  0.00    -0.248 NA
ATOM     40  C   UNL A   1      37.364  33.199  33.121  1.00  0.00     0.031 C 
ATOM     41  C   UNL A   1      37.696  30.422  28.958  1.00  0.00     0.029 A 
ATOM     42  N   UNL A   1      39.204  30.039  30.568  1.00  0.00    -0.354 N 
ATOM     43  C   UNL A   1      39.160  32.332  34.236  1.00  0.00     0.074 A 
ATOM     44  C   UNL A   1      38.081  33.296  34.228  1.00  0.00     0.031 C 
ATOM     45  C   UNL A   1      38.524  29.458  28.520  1.00  0.00     0.029 A 
ATOM     46  C   UNL A   1      39.554  29.216  29.529  1.00  0.00     0.049 A 
ATOM     47  H   UNL A   1      39.679  30.054  31.430  1.00  0.00     0.167 HD
ATOM     48  C   UNL A   1      40.025  32.166  35.264  1.00  0.00     0.037 A 
ATOM     49  C   UNL A   1      40.606  28.385  29.400  1.00  0.00     0.037 A 
ATOM     50  C   UNL A   1      41.101  31.215  35.264  1.00  0.00     0.049 A 
ATOM     51  C   UNL A   1      41.587  28.249  30.533  1.00  0.00     0.074 A 
ATOM     52  C   UNL A   1      42.013  30.942  36.268  1.00  0.00     0.029 A 
ATOM     53  N   UNL A   1      41.420  30.389  34.197  1.00  0.00    -0.354 N 
ATOM     54  N   UNL A   1      41.600  28.859  31.694  1.00  0.00    -0.248 NA
ATOM     55  C   UNL A   1      42.701  27.308  30.340  1.00  0.00     0.031 C 
ATOM     56  C   UNL A   1      42.914  29.985  35.789  1.00  0.00     0.029 A 
ATOM     57  C   UNL A   1      42.533  29.627  34.505  1.00  0.00     0.049 A 
ATOM     58  H   UNL A   1      40.927  30.350  33.345  1.00  0.00     0.167 HD
ATOM     59  C   UNL A   1      42.700  28.357  32.379  1.00  0.00     0.074 A 
ATOM     60  C   UNL A   1      43.332  27.391  31.503  1.00  0.00     0.031 C 
ATOM     61  C   UNL A   1      43.143  28.664  33.623  1.00  0.00     0.037 A 
BRANCH  48  62
ATOM     62  C   UNL A   1      39.850  33.065  36.450  1.00  0.00     0.057 A 
ATOM     63  C   UNL A   1      40.583  34.250  36.597  1.00  0.00     0.134 A 
ATOM     64  C   UNL A   1      38.948  32.731  37.469  1.00  0.00     0.134 A 
ATOM     65  F   UNL A   1      41.478  34.615  35.666  1.00  0.00    -0.206 F 
ATOM     66  C   UNL A   1      40.450  35.053  37.731  1.00  0.00     0.040 A 
ATOM     67  C   UNL A   1      38.788  33.539  38.595  1.00  0.00     0.040 A 
ATOM     68  F   UNL A   1      38.216  31.610  37.390  1.00  0.00    -0.206 F 
ATOM     69  C   UNL A   1      39.549  34.699  38.732  1.00  0.00     0.006 A 
ENDBRANCH  48  62
BRANCH  49  70
ATOM     70  C   UNL A   1      40.788  27.627  28.139  1.00  0.00     0.057 A 
ATOM     71  C   UNL A   1      41.524  28.157  27.075  1.00  0.00     0.134 A 
ATOM     72  C   UNL A   1      40.240  26.348  27.976  1.00  0.00     0.134 A 
ATOM     73  F   UNL A   1      42.054  29.385  27.167  1.00  0.00    -0.206 F 
ATOM     74  C   UNL A   1      41.706  27.445  25.888  1.00  0.00     0.040 A 
ATOM     75  C   UNL A   1      40.432  25.617  26.803  1.00  0.00     0.040 A 
ATOM     76  F   UNL A   1      39.526  25.786  28.961  1.00  0.00    -0.206 F 
ATOM     77  C   UNL A   1      41.164  26.168  25.752  1.00  0.00     0.006 A 
ENDBRANCH  49  70
BRANCH  61  78
ATOM     78  C   UNL A   1      44.346  27.928  34.134  1.00  0.00     0.057 A 
ATOM     79  C   UNL A   1      44.238  26.687  34.772  1.00  0.00     0.134 A 
ATOM     80  C   UNL A   1      45.635  28.432  33.913  1.00  0.00     0.134 A 
ATOM     81  F   UNL A   1      43.031  26.154  35.022  1.00  0.00    -0.206 F 
ATOM     82  C   UNL A   1      45.368  25.977  35.181  1.00  0.00     0.040 A 
ATOM     83  C   UNL A   1      46.773  27.722  34.296  1.00  0.00     0.040 A 
ATOM     84  F   UNL A   1      45.807  29.612  33.298  1.00  0.00    -0.206 F 
ATOM     85  C   UNL A   1      46.641  26.491  34.934  1.00  0.00     0.006 A 
ENDBRANCH  61  78
ENDBRANCH  35  36
ENDBRANCH  28  30
ENDBRANCH  27  28
ENDBRANCH  26  27
ENDBRANCH   1  26
TORSDOF 15
ENDMDL
MODEL 3
REMARK VINA RESULT:     -11.0      3.266      8.728
REMARK SMILES O=C(CC[C@@H]1CN(c2ccncc2)CC[C@@H]1[NH+]1CCOCC1)OCCOC(=O)c1ccc(-c2c3nc(c(-c4c(F)cccc4F)c4ccc([nH]4)c(-c4c(F)cccc4F)c4nc(c(-c5c(F)cccc5F)c5ccc2[nH]5)C=C4)C=C3)cc1
REMARK SMILES IDX 24 1 23 2 2 3 1 4 3 5 4 6 5 7 6 8 16 9 7 10 15 11 14 12
REMARK SMILES IDX 17 13 18 14 22 15 19 17 21 18 20 19 8 20 9 21 13 22 10 23
REMARK SMILES IDX 12 24 11 25 25 26 26 27 27 28 28 29 29 30 30 31 82 32 31 33
REMARK SMILES IDX 81 34 32 35 33 36 34 37 75 38 35 39 80 40 74 41 76 42 36 43
REMARK SMILES IDX 79 44 73 45 72 46 37 48 63 49 46 50 62 51 47 52 50 53 61 54
REMARK SMILES IDX 77 55 48 56 49 57 60 59 78 60 51 61 38 62 39 63 44 64 40 65
REMARK SMILES IDX 41 66 43 67 45 68 42 69 64 70 65 71 70 72 66 73 67 74 69 75
REMARK SMILES IDX 71 76 68 77 52 78 53 79 58 80 54 81 55 82 57 83 59 84 56 85
REMARK H PARENT 17 16 76 47 50 58
REMARK Flexibility Score: inf
ROOT
ATOM      1  C   UNL A   1      40.770  20.756  26.618  1.00  0.00     0.274 C 
ENDROOT
BRANCH   1   2
ATOM      2  O   UNL A   1      39.675  20.810  25.681  1.00  0.00    -0.462 OA
BRANCH   2   3
ATOM      3  C   UNL A   1      38.675  21.723  25.766  1.00  0.00     0.305 C 
ATOM      4  O   UNL A   1      38.867  22.811  26.305  1.00  0.00    -0.252 OA
BRANCH   3   5
ATOM      5  C   UNL A   1      37.287  21.315  25.307  1.00  0.00     0.123 C 
BRANCH   5   6
ATOM      6  C   UNL A   1      36.169  22.065  26.040  1.00  0.00     0.023 C 
BRANCH   6   7
ATOM      7  C   UNL A   1      34.808  21.384  25.834  1.00  0.00     0.067 C 
ATOM      8  C   UNL A   1      34.794  20.388  24.679  1.00  0.00     0.126 C 
ATOM      9  C   UNL A   1      33.573  22.357  25.847  1.00  0.00     0.190 C 
ATOM     10  N   UNL A   1      33.514  19.693  24.726  1.00  0.00    -0.371 N 
ATOM     11  C   UNL A   1      32.276  21.537  25.723  1.00  0.00     0.087 C 
ATOM     12  C   UNL A   1      32.295  20.477  24.624  1.00  0.00     0.122 C 
BRANCH   9  13
ATOM     13  N   UNL A   1      33.704  23.581  25.035  1.00  0.00    -0.328 N 
ATOM     14  C   UNL A   1      33.383  24.842  25.744  1.00  0.00     0.291 C 
ATOM     15  C   UNL A   1      33.148  23.626  23.678  1.00  0.00     0.291 C 
ATOM     16  H   UNL A   1      34.709  23.504  24.883  1.00  0.00     0.348 HD
ATOM     17  C   UNL A   1      31.940  25.355  25.574  1.00  0.00     0.221 C 
ATOM     18  C   UNL A   1      31.706  24.153  23.573  1.00  0.00     0.221 C 
ATOM     19  O   UNL A   1      31.571  25.433  24.195  1.00  0.00    -0.370 OA
ENDBRANCH   9  13
BRANCH  10  20
ATOM     20  C   UNL A   1      33.452  18.317  24.748  1.00  0.00     0.040 A 
ATOM     21  C   UNL A   1      34.139  17.553  23.807  1.00  0.00     0.046 A 
ATOM     22  C   UNL A   1      32.677  17.642  25.692  1.00  0.00     0.046 A 
ATOM     23  C   UNL A   1      34.028  16.173  23.846  1.00  0.00     0.113 A 
ATOM     24  C   UNL A   1      32.607  16.258  25.640  1.00  0.00     0.113 A 
ATOM     25  N   UNL A   1      33.267  15.505  24.737  1.00  0.00    -0.265 NA
ENDBRANCH  10  20
ENDBRANCH   6   7
ENDBRANCH   5   6
ENDBRANCH   3   5
ENDBRANCH   2   3
ENDBRANCH   1   2
BRANCH   1  26
ATOM     26  C   UNL A   1      42.114  21.139  26.005  1.00  0.00     0.275 C 
BRANCH  26  27
ATOM     27  O   UNL A   1      42.135  22.537  25.694  1.00  0.00    -0.458 OA
BRANCH  27  28
ATOM     28  C   UNL A   1      43.165  23.206  26.274  1.00  0.00     0.338 C 
ATOM     29  O   UNL A   1      44.352  22.988  26.134  1.00  0.00    -0.246 OA
BRANCH  28  30
ATOM     30  C   UNL A   1      42.634  24.380  26.992  1.00  0.00     0.060 A 
ATOM     31  C   UNL A   1      43.345  25.583  26.885  1.00  0.00     0.016 A 
ATOM     32  C   UNL A   1      41.469  24.306  27.759  1.00  0.00     0.016 A 
ATOM     33  C   UNL A   1      42.925  26.704  27.597  1.00  0.00     0.010 A 
ATOM     34  C   UNL A   1      41.054  25.425  28.477  1.00  0.00     0.010 A 
ATOM     35  C   UNL A   1      41.804  26.612  28.431  1.00  0.00    -0.014 A 
BRANCH  35  36
ATOM     36  C   UNL A   1      41.525  27.675  29.419  1.00  0.00     0.031 A 
ATOM     37  C   UNL A   1      42.326  27.688  30.689  1.00  0.00     0.074 A 
ATOM     38  C   UNL A   1      40.552  28.577  29.216  1.00  0.00     0.049 A 
ATOM     39  N   UNL A   1      42.198  28.446  31.745  1.00  0.00    -0.248 NA
ATOM     40  C   UNL A   1      43.411  26.697  30.782  1.00  0.00     0.031 C 
ATOM     41  C   UNL A   1      39.722  28.672  28.018  1.00  0.00     0.029 A 
ATOM     42  N   UNL A   1      40.083  29.570  30.037  1.00  0.00    -0.354 N 
ATOM     43  C   UNL A   1      43.177  28.018  32.631  1.00  0.00     0.074 A 
ATOM     44  C   UNL A   1      43.872  26.916  32.002  1.00  0.00     0.031 C 
ATOM     45  C   UNL A   1      38.820  29.652  28.196  1.00  0.00     0.029 A 
ATOM     46  C   UNL A   1      38.995  30.231  29.527  1.00  0.00     0.049 A 
ATOM     47  H   UNL A   1      40.489  29.788  30.907  1.00  0.00     0.167 HD
ATOM     48  C   UNL A   1      43.471  28.501  33.861  1.00  0.00     0.037 A 
ATOM     49  C   UNL A   1      38.214  31.173  30.088  1.00  0.00     0.037 A 
ATOM     50  C   UNL A   1      42.771  29.587  34.487  1.00  0.00     0.049 A 
ATOM     51  C   UNL A   1      38.524  31.664  31.477  1.00  0.00     0.074 A 
ATOM     52  C   UNL A   1      43.012  30.176  35.716  1.00  0.00     0.029 A 
ATOM     53  N   UNL A   1      41.679  30.240  33.936  1.00  0.00    -0.354 N 
ATOM     54  N   UNL A   1      39.481  31.289  32.292  1.00  0.00    -0.248 NA
ATOM     55  C   UNL A   1      37.648  32.710  32.024  1.00  0.00     0.031 C 
ATOM     56  C   UNL A   1      42.034  31.153  35.929  1.00  0.00     0.029 A 
ATOM     57  C   UNL A   1      41.214  31.206  34.812  1.00  0.00     0.049 A 
ATOM     58  H   UNL A   1      41.290  30.044  33.053  1.00  0.00     0.167 HD
ATOM     59  C   UNL A   1      39.340  32.070  33.433  1.00  0.00     0.074 A 
ATOM     60  C   UNL A   1      38.205  32.941  33.205  1.00  0.00     0.031 C 
ATOM     61  C   UNL A   1      40.087  32.069  34.564  1.00  0.00     0.037 A 
BRANCH  48  62
ATOM     62  C   UNL A   1      44.577  27.820  34.611  1.00  0.00     0.057 A 
ATOM     63  C   UNL A   1      44.340  26.720  35.445  1.00  0.00     0.134 A 
ATOM     64  C   UNL A   1      45.894  28.286  34.510  1.00  0.00     0.134 A 
ATOM     65  F   UNL A   1      43.097  26.239  35.598  1.00  0.00    -0.206 F 
ATOM     66  C   UNL A   1      45.369  26.127  36.178  1.00  0.00     0.040 A 
ATOM     67  C   UNL A   1      46.935  27.686  35.220  1.00  0.00     0.040 A 
ATOM     68  F   UNL A   1      46.188  29.337  33.730  1.00  0.00    -0.206 F 
ATOM     69  C   UNL A   1      46.671  26.609  36.064  1.00  0.00     0.006 A 
ENDBRANCH  48  62
BRANCH  49  70
ATOM     70  C   UNL A   1      37.052  31.702  29.334  1.00  0.00     0.057 A 
ATOM     71  C   UNL A   1      35.848  30.996  29.268  1.00  0.00     0.134 A 
ATOM     72  C   UNL A   1      37.117  32.936  28.674  1.00  0.00     0.134 A 
ATOM     73  F   UNL A   1      35.734  29.800  29.864  1.00  0.00    -0.206 F 
ATOM     74  C   UNL A   1      34.747  31.493  28.567  1.00  0.00     0.040 A 
ATOM     75  C   UNL A   1      36.019  33.455  27.987  1.00  0.00     0.040 A 
ATOM     76  F   UNL A   1      38.244  33.661  28.703  1.00  0.00    -0.206 F 
ATOM     77  C   UNL A   1      34.830  32.729  27.929  1.00  0.00     0.006 A 
ENDBRANCH  49  70
BRANCH  61  78
ATOM     78  C   UNL A   1      39.732  33.061  35.632  1.00  0.00     0.057 A 
ATOM     79  C   UNL A   1      38.864  32.738  36.682  1.00  0.00     0.134 A 
ATOM     80  C   UNL A   1      40.329  34.328  35.652  1.00  0.00     0.134 A 
ATOM     81  F   UNL A   1      38.252  31.544  36.715  1.00  0.00    -0.206 F 
ATOM     82  C   UNL A   1      38.594  33.645  37.708  1.00  0.00     0.040 A 
ATOM     83  C   UNL A   1      40.086  35.234  36.684  1.00  0.00     0.040 A 
ATOM     84  F   UNL A   1      41.179  34.695  34.680  1.00  0.00    -0.206 F 
ATOM     85  C   UNL A   1      39.214  34.894  37.716  1.00  0.00     0.006 A 
ENDBRANCH  61  78
ENDBRANCH  35  36
ENDBRANCH  28  30
ENDBRANCH  27  28
ENDBRANCH  26  27
ENDBRANCH   1  26
TORSDOF 15
ENDMDL
