MODEL 1
REMARK VINA RESULT:     -12.6      0.000      0.000
REMARK SMILES O=C(OCCOC(=O)c1ccc2nc(-c3c[nH]nc3-c3ccc(F)cc3F)[nH]c2c1)c1ccc(-c2c3nc(c(-c4c(F)cccc4F)c4ccc([nH]4)c(-c4c(F)cccc4F)c4nc(c(-c5c(F)cccc5F)c5ccc2[nH]5)C=C4)C=C3)cc1
REMARK SMILES IDX 4 1 3 2 2 3 1 4 31 5 32 6 84 7 33 8 83 9 34 10 35 11 36 12
REMARK SMILES IDX 77 13 37 14 82 15 76 16 78 17 38 18 81 19 75 20 74 21 39 23
REMARK SMILES IDX 65 24 48 25 64 26 49 27 52 28 63 29 79 30 50 31 51 32 62 34
REMARK SMILES IDX 80 35 53 36 40 37 41 38 46 39 42 40 43 41 45 42 47 43 44 44
REMARK SMILES IDX 66 45 67 46 72 47 68 48 69 49 71 50 73 51 70 52 54 53 55 54
REMARK SMILES IDX 60 55 56 56 57 57 59 58 61 59 58 60 5 61 6 62 7 63 8 64 9 65
REMARK SMILES IDX 10 66 30 67 11 68 29 69 12 70 28 71 13 72 14 73 15 75 16 76
REMARK SMILES IDX 19 77 17 78 18 79 20 81 21 82 26 83 22 84 25 85 27 86 23 87
REMARK SMILES IDX 24 88
REMARK H PARENT 78 22 52 33 28 74 17 80
REMARK Flexibility Score: inf
ROOT
ATOM      1  C   UNL A   1      42.889  21.408  25.745  1.00  0.00     0.275 C 
ENDROOT
BRANCH   1   2
ATOM      2  O   UNL A   1      42.413  22.703  25.336  1.00  0.00    -0.458 OA
BRANCH   2   3
ATOM      3  C   UNL A   1      43.019  23.910  25.376  1.00  0.00     0.338 C 
ATOM      4  O   UNL A   1      43.970  24.126  24.624  1.00  0.00    -0.246 OA
BRANCH   3   5
ATOM      5  C   UNL A   1      42.704  24.964  26.387  1.00  0.00     0.060 A 
ATOM      6  C   UNL A   1      43.334  26.203  26.508  1.00  0.00     0.016 A 
ATOM      7  C   UNL A   1      41.706  24.638  27.325  1.00  0.00     0.016 A 
ATOM      8  C   UNL A   1      42.937  27.117  27.489  1.00  0.00     0.010 A 
ATOM      9  C   UNL A   1      41.288  25.555  28.292  1.00  0.00     0.010 A 
ATOM     10  C   UNL A   1      41.914  26.798  28.387  1.00  0.00    -0.014 A 
BRANCH  10  11
ATOM     11  C   UNL A   1      41.637  27.701  29.524  1.00  0.00     0.031 A 
ATOM     12  C   UNL A   1      40.515  28.687  29.394  1.00  0.00     0.074 A 
ATOM     13  C   UNL A   1      42.331  27.596  30.671  1.00  0.00     0.049 A 
ATOM     14  N   UNL A   1      40.016  29.496  30.292  1.00  0.00    -0.248 NA
ATOM     15  C   UNL A   1      39.853  28.762  28.081  1.00  0.00     0.031 C 
ATOM     16  C   UNL A   1      43.426  26.658  30.910  1.00  0.00     0.029 A 
ATOM     17  N   UNL A   1      42.212  28.279  31.853  1.00  0.00    -0.354 N 
ATOM     18  C   UNL A   1      38.959  30.140  29.664  1.00  0.00     0.074 A 
ATOM     19  C   UNL A   1      38.940  29.696  28.289  1.00  0.00     0.031 C 
ATOM     20  C   UNL A   1      43.891  26.834  32.158  1.00  0.00     0.029 A 
ATOM     21  C   UNL A   1      43.121  27.890  32.807  1.00  0.00     0.049 A 
ATOM     22  H   UNL A   1      41.541  28.983  32.004  1.00  0.00     0.167 HD
ATOM     23  C   UNL A   1      38.056  30.992  30.199  1.00  0.00     0.037 A 
ATOM     24  C   UNL A   1      43.294  28.331  34.067  1.00  0.00     0.037 A 
ATOM     25  C   UNL A   1      38.095  31.446  31.561  1.00  0.00     0.049 A 
ATOM     26  C   UNL A   1      42.340  29.357  34.615  1.00  0.00     0.074 A 
ATOM     27  C   UNL A   1      37.242  32.322  32.205  1.00  0.00     0.029 A 
ATOM     28  N   UNL A   1      39.056  31.060  32.485  1.00  0.00    -0.354 N 
ATOM     29  N   UNL A   1      41.308  29.917  34.030  1.00  0.00    -0.248 NA
ATOM     30  C   UNL A   1      42.552  29.789  36.003  1.00  0.00     0.031 C 
ATOM     31  C   UNL A   1      37.706  32.490  33.515  1.00  0.00     0.029 A 
ATOM     32  C   UNL A   1      38.825  31.690  33.694  1.00  0.00     0.049 A 
ATOM     33  H   UNL A   1      39.792  30.431  32.308  1.00  0.00     0.167 HD
ATOM     34  C   UNL A   1      40.724  30.736  34.987  1.00  0.00     0.074 A 
ATOM     35  C   UNL A   1      41.519  30.601  36.192  1.00  0.00     0.031 C 
ATOM     36  C   UNL A   1      39.623  31.520  34.883  1.00  0.00     0.037 A 
BRANCH  23  37
ATOM     37  C   UNL A   1      36.961  31.462  29.293  1.00  0.00     0.057 A 
ATOM     38  C   UNL A   1      35.869  30.643  28.992  1.00  0.00     0.134 A 
ATOM     39  C   UNL A   1      36.971  32.755  28.749  1.00  0.00     0.134 A 
ATOM     40  F   UNL A   1      35.794  29.398  29.488  1.00  0.00    -0.206 F 
ATOM     41  C   UNL A   1      34.819  31.094  28.190  1.00  0.00     0.040 A 
ATOM     42  C   UNL A   1      35.918  33.226  27.964  1.00  0.00     0.040 A 
ATOM     43  F   UNL A   1      37.978  33.599  29.023  1.00  0.00    -0.206 F 
ATOM     44  C   UNL A   1      34.839  32.392  27.681  1.00  0.00     0.006 A 
ENDBRANCH  23  37
BRANCH  24  45
ATOM     45  C   UNL A   1      44.380  27.764  34.907  1.00  0.00     0.057 A 
ATOM     46  C   UNL A   1      45.650  28.352  34.947  1.00  0.00     0.134 A 
ATOM     47  C   UNL A   1      44.178  26.615  35.679  1.00  0.00     0.134 A 
ATOM     48  F   UNL A   1      45.908  29.453  34.228  1.00  0.00    -0.206 F 
ATOM     49  C   UNL A   1      46.683  27.813  35.717  1.00  0.00     0.040 A 
ATOM     50  C   UNL A   1      45.196  26.075  36.467  1.00  0.00     0.040 A 
ATOM     51  F   UNL A   1      42.979  26.014  35.694  1.00  0.00    -0.206 F 
ATOM     52  C   UNL A   1      46.455  26.671  36.483  1.00  0.00     0.006 A 
ENDBRANCH  24  45
BRANCH  36  53
ATOM     53  C   UNL A   1      39.186  32.258  36.112  1.00  0.00     0.057 A 
ATOM     54  C   UNL A   1      38.249  31.688  36.983  1.00  0.00     0.134 A 
ATOM     55  C   UNL A   1      39.630  33.555  36.390  1.00  0.00     0.134 A 
ATOM     56  F   UNL A   1      37.778  30.451  36.764  1.00  0.00    -0.206 F 
ATOM     57  C   UNL A   1      37.759  32.390  38.084  1.00  0.00     0.040 A 
ATOM     58  C   UNL A   1      39.164  34.259  37.500  1.00  0.00     0.040 A 
ATOM     59  F   UNL A   1      40.534  34.149  35.596  1.00  0.00    -0.206 F 
ATOM     60  C   UNL A   1      38.218  33.679  38.345  1.00  0.00     0.006 A 
ENDBRANCH  36  53
ENDBRANCH  10  11
ENDBRANCH   3   5
ENDBRANCH   2   3
ENDBRANCH   1   2
BRANCH   1  61
ATOM     61  C   UNL A   1      42.052  20.728  26.827  1.00  0.00     0.275 C 
BRANCH  61  62
ATOM     62  O   UNL A   1      40.705  21.212  26.900  1.00  0.00    -0.458 OA
BRANCH  62  63
ATOM     63  C   UNL A   1      39.829  20.576  26.081  1.00  0.00     0.338 C 
ATOM     64  O   UNL A   1      39.846  19.403  25.750  1.00  0.00    -0.246 OA
BRANCH  63  65
ATOM     65  C   UNL A   1      38.733  21.497  25.732  1.00  0.00     0.062 A 
ATOM     66  C   UNL A   1      38.772  22.840  26.124  1.00  0.00     0.018 A 
ATOM     67  C   UNL A   1      37.650  20.965  25.013  1.00  0.00     0.044 A 
ATOM     68  C   UNL A   1      37.716  23.701  25.789  1.00  0.00     0.031 A 
ATOM     69  C   UNL A   1      36.570  21.821  24.803  1.00  0.00     0.067 A 
ATOM     70  C   UNL A   1      36.597  23.172  25.128  1.00  0.00     0.089 A 
ATOM     71  N   UNL A   1      35.300  21.615  24.322  1.00  0.00    -0.338 N 
ATOM     72  N   UNL A   1      35.452  23.790  24.711  1.00  0.00    -0.228 NA
ATOM     73  C   UNL A   1      34.669  22.830  24.267  1.00  0.00     0.142 A 
ATOM     74  H   UNL A   1      34.911  20.749  24.063  1.00  0.00     0.168 HD
BRANCH  73  75
ATOM     75  C   UNL A   1      33.321  23.059  23.705  1.00  0.00     0.063 A 
ATOM     76  C   UNL A   1      32.574  22.183  22.958  1.00  0.00     0.117 A 
ATOM     77  C   UNL A   1      32.545  24.247  23.808  1.00  0.00     0.106 A 
ATOM     78  N   UNL A   1      31.383  22.821  22.750  1.00  0.00    -0.284 N 
ATOM     79  N   UNL A   1      31.364  24.089  23.188  1.00  0.00    -0.175 NA
ATOM     80  H   UNL A   1      30.611  22.389  22.320  1.00  0.00     0.189 HD
BRANCH  77  81
ATOM     81  C   UNL A   1      32.985  25.538  24.323  1.00  0.00     0.039 A 
ATOM     82  C   UNL A   1      32.751  25.851  25.676  1.00  0.00     0.016 A 
ATOM     83  C   UNL A   1      33.620  26.481  23.513  1.00  0.00     0.135 A 
ATOM     84  C   UNL A   1      33.125  27.091  26.192  1.00  0.00     0.040 A 
ATOM     85  C   UNL A   1      34.003  27.719  24.027  1.00  0.00     0.079 A 
ATOM     86  F   UNL A   1      33.858  26.231  22.217  1.00  0.00    -0.206 F 
ATOM     87  C   UNL A   1      33.747  28.012  25.361  1.00  0.00     0.126 A 
ATOM     88  F   UNL A   1      34.102  29.204  25.856  1.00  0.00    -0.207 F 
ENDBRANCH  77  81
ENDBRANCH  73  75
ENDBRANCH  63  65
ENDBRANCH  62  63
ENDBRANCH  61  62
ENDBRANCH   1  61
TORSDOF 13
ENDMDL
MODEL 2
REMARK VINA RESULT:     -12.6      0.657      6.176
REMARK SMILES O=C(OCCOC(=O)c1ccc2nc(-c3c[nH]nc3-c3ccc(F)cc3F)[nH]c2c1)c1ccc(-c2c3nc(c(-c4c(F)cccc4F)c4ccc([nH]4)c(-c4c(F)cccc4F)c4nc(c(-c5c(F)cccc5F)c5ccc2[nH]5)C=C4)C=C3)cc1
REMARK SMILES IDX 4 1 3 2 2 3 1 4 31 5 32 6 84 7 33 8 83 9 34 10 35 11 36 12
REMARK SMILES IDX 77 13 37 14 82 15 76 16 78 17 38 18 81 19 75 20 74 21 39 23
REMARK SMILES IDX 65 24 48 25 64 26 49 27 52 28 63 29 79 30 50 31 51 32 62 34
REMARK SMILES IDX 80 35 53 36 40 37 41 38 46 39 42 40 43 41 45 42 47 43 44 44
REMARK SMILES IDX 66 45 67 46 72 47 68 48 69 49 71 50 73 51 70 52 54 53 55 54
REMARK SMILES IDX 60 55 56 56 57 57 59 58 61 59 58 60 5 61 6 62 7 63 8 64 9 65
REMARK SMILES IDX 10 66 30 67 11 68 29 69 12 70 28 71 13 72 14 73 15 75 16 76
REMARK SMILES IDX 19 77 17 78 18 79 20 81 21 82 26 83 22 84 25 85 27 86 23 87
REMARK SMILES IDX 24 88
REMARK H PARENT 78 22 52 33 28 74 17 80
REMARK Flexibility Score: inf
ROOT
ATOM      1  C   UNL A   1      43.971  21.989  25.078  1.00  0.00     0.275 C 
ENDROOT
BRANCH   1   2
ATOM      2  O   UNL A   1      43.626  23.330  24.684  1.00  0.00    -0.458 OA
BRANCH   2   3
ATOM      3  C   UNL A   1      44.162  24.514  25.054  1.00  0.00     0.338 C 
ATOM      4  O   UNL A   1      45.272  24.829  24.624  1.00  0.00    -0.246 OA
BRANCH   3   5
ATOM      5  C   UNL A   1      43.556  25.415  26.080  1.00  0.00     0.060 A 
ATOM      6  C   UNL A   1      43.940  26.728  26.353  1.00  0.00     0.016 A 
ATOM      7  C   UNL A   1      42.532  24.851  26.866  1.00  0.00     0.016 A 
ATOM      8  C   UNL A   1      43.281  27.480  27.331  1.00  0.00     0.010 A 
ATOM      9  C   UNL A   1      41.854  25.603  27.828  1.00  0.00     0.010 A 
ATOM     10  C   UNL A   1      42.237  26.922  28.074  1.00  0.00    -0.014 A 
BRANCH  10  11
ATOM     11  C   UNL A   1      41.679  27.670  29.222  1.00  0.00     0.031 A 
ATOM     12  C   UNL A   1      42.377  27.568  30.545  1.00  0.00     0.074 A 
ATOM     13  C   UNL A   1      40.612  28.472  29.067  1.00  0.00     0.049 A 
ATOM     14  N   UNL A   1      42.142  28.215  31.656  1.00  0.00    -0.248 NA
ATOM     15  C   UNL A   1      43.501  26.620  30.626  1.00  0.00     0.031 C 
ATOM     16  C   UNL A   1      39.873  28.660  27.820  1.00  0.00     0.029 A 
ATOM     17  N   UNL A   1      39.969  29.287  29.962  1.00  0.00    -0.354 N 
ATOM     18  C   UNL A   1      43.113  27.785  32.549  1.00  0.00     0.074 A 
ATOM     19  C   UNL A   1      43.887  26.762  31.883  1.00  0.00     0.031 C 
ATOM     20  C   UNL A   1      38.866  29.524  28.031  1.00  0.00     0.029 A 
ATOM     21  C   UNL A   1      38.895  29.955  29.425  1.00  0.00     0.049 A 
ATOM     22  H   UNL A   1      40.248  29.382  30.901  1.00  0.00     0.167 HD
ATOM     23  C   UNL A   1      43.368  28.237  33.797  1.00  0.00     0.037 A 
ATOM     24  C   UNL A   1      38.046  30.829  29.998  1.00  0.00     0.037 A 
ATOM     25  C   UNL A   1      42.582  29.238  34.460  1.00  0.00     0.049 A 
ATOM     26  C   UNL A   1      38.284  31.245  31.423  1.00  0.00     0.074 A 
ATOM     27  C   UNL A   1      42.738  29.760  35.730  1.00  0.00     0.029 A 
ATOM     28  N   UNL A   1      41.477  29.863  33.898  1.00  0.00    -0.354 N 
ATOM     29  N   UNL A   1      39.242  30.874  32.240  1.00  0.00    -0.248 NA
ATOM     30  C   UNL A   1      37.348  32.220  31.998  1.00  0.00     0.031 C 
ATOM     31  C   UNL A   1      41.706  30.680  35.948  1.00  0.00     0.029 A 
ATOM     32  C   UNL A   1      40.932  30.758  34.800  1.00  0.00     0.049 A 
ATOM     33  H   UNL A   1      41.133  29.695  32.991  1.00  0.00     0.167 HD
ATOM     34  C   UNL A   1      39.049  31.599  33.409  1.00  0.00     0.074 A 
ATOM     35  C   UNL A   1      37.879  32.429  33.196  1.00  0.00     0.031 C 
ATOM     36  C   UNL A   1      39.778  31.586  34.551  1.00  0.00     0.037 A 
BRANCH  23  37
ATOM     37  C   UNL A   1      44.551  27.642  34.496  1.00  0.00     0.057 A 
ATOM     38  C   UNL A   1      45.808  28.253  34.439  1.00  0.00     0.134 A 
ATOM     39  C   UNL A   1      44.431  26.476  35.266  1.00  0.00     0.134 A 
ATOM     40  F   UNL A   1      45.988  29.376  33.726  1.00  0.00    -0.206 F 
ATOM     41  C   UNL A   1      46.902  27.732  35.130  1.00  0.00     0.040 A 
ATOM     42  C   UNL A   1      45.512  25.957  35.980  1.00  0.00     0.040 A 
ATOM     43  F   UNL A   1      43.246  25.859  35.383  1.00  0.00    -0.206 F 
ATOM     44  C   UNL A   1      46.754  26.586  35.910  1.00  0.00     0.006 A 
ENDBRANCH  23  37
BRANCH  24  45
ATOM     45  C   UNL A   1      36.931  31.405  29.205  1.00  0.00     0.057 A 
ATOM     46  C   UNL A   1      36.972  32.726  28.745  1.00  0.00     0.134 A 
ATOM     47  C   UNL A   1      35.790  30.653  28.901  1.00  0.00     0.134 A 
ATOM     48  F   UNL A   1      38.035  33.500  29.006  1.00  0.00    -0.206 F 
ATOM     49  C   UNL A   1      35.918  33.282  28.017  1.00  0.00     0.040 A 
ATOM     50  C   UNL A   1      34.736  31.190  28.160  1.00  0.00     0.040 A 
ATOM     51  F   UNL A   1      35.696  29.376  29.301  1.00  0.00    -0.206 F 
ATOM     52  C   UNL A   1      34.796  32.511  27.720  1.00  0.00     0.006 A 
ENDBRANCH  24  45
BRANCH  36  53
ATOM     53  C   UNL A   1      39.364  32.526  35.642  1.00  0.00     0.057 A 
ATOM     54  C   UNL A   1      39.900  33.820  35.702  1.00  0.00     0.134 A 
ATOM     55  C   UNL A   1      38.501  32.130  36.669  1.00  0.00     0.134 A 
ATOM     56  F   UNL A   1      40.741  34.254  34.751  1.00  0.00    -0.206 F 
ATOM     57  C   UNL A   1      39.600  34.682  36.756  1.00  0.00     0.040 A 
ATOM     58  C   UNL A   1      38.176  32.992  37.717  1.00  0.00     0.040 A 
ATOM     59  F   UNL A   1      37.951  30.906  36.660  1.00  0.00    -0.206 F 
ATOM     60  C   UNL A   1      38.734  34.269  37.766  1.00  0.00     0.006 A 
ENDBRANCH  36  53
ENDBRANCH  10  11
ENDBRANCH   3   5
ENDBRANCH   2   3
ENDBRANCH   1   2
BRANCH   1  61
ATOM     61  C   UNL A   1      42.879  21.246  25.847  1.00  0.00     0.275 C 
BRANCH  61  62
ATOM     62  O   UNL A   1      41.556  21.723  25.571  1.00  0.00    -0.458 OA
BRANCH  62  63
ATOM     63  C   UNL A   1      40.645  21.464  26.545  1.00  0.00     0.338 C 
ATOM     64  O   UNL A   1      40.822  20.831  27.570  1.00  0.00    -0.246 OA
BRANCH  63  65
ATOM     65  C   UNL A   1      39.397  22.190  26.248  1.00  0.00     0.062 A 
ATOM     66  C   UNL A   1      39.175  23.474  26.758  1.00  0.00     0.018 A 
ATOM     67  C   UNL A   1      38.445  21.531  25.454  1.00  0.00     0.044 A 
ATOM     68  C   UNL A   1      37.978  24.147  26.470  1.00  0.00     0.031 A 
ATOM     69  C   UNL A   1      37.223  22.183  25.290  1.00  0.00     0.067 A 
ATOM     70  C   UNL A   1      36.988  23.478  25.734  1.00  0.00     0.089 A 
ATOM     71  N   UNL A   1      36.021  21.785  24.757  1.00  0.00    -0.338 N 
ATOM     72  N   UNL A   1      35.751  23.904  25.340  1.00  0.00    -0.228 NA
ATOM     73  C   UNL A   1      35.170  22.858  24.791  1.00  0.00     0.142 A 
ATOM     74  H   UNL A   1      35.808  20.888  24.412  1.00  0.00     0.168 HD
BRANCH  73  75
ATOM     75  C   UNL A   1      33.809  22.879  24.214  1.00  0.00     0.063 A 
ATOM     76  C   UNL A   1      33.161  21.847  23.584  1.00  0.00     0.117 A 
ATOM     77  C   UNL A   1      32.916  23.985  24.177  1.00  0.00     0.106 A 
ATOM     78  N   UNL A   1      31.912  22.330  23.307  1.00  0.00    -0.284 N 
ATOM     79  N   UNL A   1      31.761  23.634  23.588  1.00  0.00    -0.175 NA
ATOM     80  H   UNL A   1      31.191  21.772  22.937  1.00  0.00     0.189 HD
BRANCH  77  81
ATOM     81  C   UNL A   1      33.219  25.367  24.528  1.00  0.00     0.039 A 
ATOM     82  C   UNL A   1      33.104  25.772  25.872  1.00  0.00     0.016 A 
ATOM     83  C   UNL A   1      33.606  26.307  23.570  1.00  0.00     0.135 A 
ATOM     84  C   UNL A   1      33.349  27.095  26.237  1.00  0.00     0.040 A 
ATOM     85  C   UNL A   1      33.861  27.629  23.933  1.00  0.00     0.079 A 
ATOM     86  F   UNL A   1      33.721  25.970  22.278  1.00  0.00    -0.206 F 
ATOM     87  C   UNL A   1      33.724  28.009  25.262  1.00  0.00     0.126 A 
ATOM     88  F   UNL A   1      33.956  29.281  25.613  1.00  0.00    -0.207 F 
ENDBRANCH  77  81
ENDBRANCH  73  75
ENDBRANCH  63  65
ENDBRANCH  62  63
ENDBRANCH  61  62
ENDBRANCH   1  61
TORSDOF 13
ENDMDL
MODEL 3
REMARK VINA RESULT:     -12.6      1.608      2.677
REMARK SMILES O=C(OCCOC(=O)c1ccc2nc(-c3c[nH]nc3-c3ccc(F)cc3F)[nH]c2c1)c1ccc(-c2c3nc(c(-c4c(F)cccc4F)c4ccc([nH]4)c(-c4c(F)cccc4F)c4nc(c(-c5c(F)cccc5F)c5ccc2[nH]5)C=C4)C=C3)cc1
REMARK SMILES IDX 4 1 3 2 2 3 1 4 31 5 32 6 84 7 33 8 83 9 34 10 35 11 36 12
REMARK SMILES IDX 77 13 37 14 82 15 76 16 78 17 38 18 81 19 75 20 74 21 39 23
REMARK SMILES IDX 65 24 48 25 64 26 49 27 52 28 63 29 79 30 50 31 51 32 62 34
REMARK SMILES IDX 80 35 53 36 40 37 41 38 46 39 42 40 43 41 45 42 47 43 44 44
REMARK SMILES IDX 66 45 67 46 72 47 68 48 69 49 71 50 73 51 70 52 54 53 55 54
REMARK SMILES IDX 60 55 56 56 57 57 59 58 61 59 58 60 5 61 6 62 7 63 8 64 9 65
REMARK SMILES IDX 10 66 30 67 11 68 29 69 12 70 28 71 13 72 14 73 15 75 16 76
REMARK SMILES IDX 19 77 17 78 18 79 20 81 21 82 26 83 22 84 25 85 27 86 23 87
REMARK SMILES IDX 24 88
REMARK H PARENT 78 22 52 33 28 74 17 80
REMARK Flexibility Score: inf
ROOT
ATOM      1  C   UNL A   1      43.050  21.474  25.750  1.00  0.00     0.275 C 
ENDROOT
BRANCH   1   2
ATOM      2  O   UNL A   1      42.508  22.749  25.360  1.00  0.00    -0.458 OA
BRANCH   2   3
ATOM      3  C   UNL A   1      43.071  23.977  25.369  1.00  0.00     0.338 C 
ATOM      4  O   UNL A   1      43.992  24.218  24.589  1.00  0.00    -0.246 OA
BRANCH   3   5
ATOM      5  C   UNL A   1      42.744  25.033  26.375  1.00  0.00     0.060 A 
ATOM      6  C   UNL A   1      43.316  26.303  26.451  1.00  0.00     0.016 A 
ATOM      7  C   UNL A   1      41.802  24.675  27.358  1.00  0.00     0.016 A 
ATOM      8  C   UNL A   1      42.913  27.214  27.433  1.00  0.00     0.010 A 
ATOM      9  C   UNL A   1      41.378  25.587  28.328  1.00  0.00     0.010 A 
ATOM     10  C   UNL A   1      41.945  26.861  28.377  1.00  0.00    -0.014 A 
BRANCH  10  11
ATOM     11  C   UNL A   1      41.668  27.769  29.511  1.00  0.00     0.031 A 
ATOM     12  C   UNL A   1      40.535  28.742  29.384  1.00  0.00     0.074 A 
ATOM     13  C   UNL A   1      42.374  27.679  30.652  1.00  0.00     0.049 A 
ATOM     14  N   UNL A   1      40.036  29.552  30.280  1.00  0.00    -0.248 NA
ATOM     15  C   UNL A   1      39.861  28.802  28.076  1.00  0.00     0.031 C 
ATOM     16  C   UNL A   1      43.480  26.754  30.887  1.00  0.00     0.029 A 
ATOM     17  N   UNL A   1      42.258  28.369  31.830  1.00  0.00    -0.354 N 
ATOM     18  C   UNL A   1      38.968  30.182  29.658  1.00  0.00     0.074 A 
ATOM     19  C   UNL A   1      38.940  29.728  28.286  1.00  0.00     0.031 C 
ATOM     20  C   UNL A   1      43.955  26.943  32.130  1.00  0.00     0.029 A 
ATOM     21  C   UNL A   1      43.179  27.996  32.779  1.00  0.00     0.049 A 
ATOM     22  H   UNL A   1      41.581  29.067  31.982  1.00  0.00     0.167 HD
ATOM     23  C   UNL A   1      38.061  31.028  30.195  1.00  0.00     0.037 A 
ATOM     24  C   UNL A   1      43.360  28.447  34.034  1.00  0.00     0.037 A 
ATOM     25  C   UNL A   1      38.107  31.492  31.553  1.00  0.00     0.049 A 
ATOM     26  C   UNL A   1      42.400  29.467  34.583  1.00  0.00     0.074 A 
ATOM     27  C   UNL A   1      37.251  32.364  32.199  1.00  0.00     0.029 A 
ATOM     28  N   UNL A   1      39.080  31.123  32.472  1.00  0.00    -0.354 N 
ATOM     29  N   UNL A   1      41.357  30.013  34.004  1.00  0.00    -0.248 NA
ATOM     30  C   UNL A   1      42.620  29.911  35.966  1.00  0.00     0.031 C 
ATOM     31  C   UNL A   1      37.725  32.546  33.503  1.00  0.00     0.029 A 
ATOM     32  C   UNL A   1      38.854  31.758  33.678  1.00  0.00     0.049 A 
ATOM     33  H   UNL A   1      39.821  30.500  32.292  1.00  0.00     0.167 HD
ATOM     34  C   UNL A   1      40.774  30.832  34.961  1.00  0.00     0.074 A 
ATOM     35  C   UNL A   1      41.582  30.714  36.159  1.00  0.00     0.031 C 
ATOM     36  C   UNL A   1      39.665  31.605  34.861  1.00  0.00     0.037 A 
BRANCH  23  37
ATOM     37  C   UNL A   1      36.953  31.481  29.296  1.00  0.00     0.057 A 
ATOM     38  C   UNL A   1      35.871  30.645  29.002  1.00  0.00     0.134 A 
ATOM     39  C   UNL A   1      36.940  32.774  28.751  1.00  0.00     0.134 A 
ATOM     40  F   UNL A   1      35.819  29.399  29.499  1.00  0.00    -0.206 F 
ATOM     41  C   UNL A   1      34.810  31.080  28.207  1.00  0.00     0.040 A 
ATOM     42  C   UNL A   1      35.875  33.228  27.972  1.00  0.00     0.040 A 
ATOM     43  F   UNL A   1      37.935  33.633  29.018  1.00  0.00    -0.206 F 
ATOM     44  C   UNL A   1      34.806  32.377  27.697  1.00  0.00     0.006 A 
ENDBRANCH  23  37
BRANCH  24  45
ATOM     45  C   UNL A   1      44.458  27.897  34.868  1.00  0.00     0.057 A 
ATOM     46  C   UNL A   1      45.732  28.477  34.866  1.00  0.00     0.134 A 
ATOM     47  C   UNL A   1      44.266  26.771  35.675  1.00  0.00     0.134 A 
ATOM     48  F   UNL A   1      45.983  29.557  34.112  1.00  0.00    -0.206 F 
ATOM     49  C   UNL A   1      46.777  27.954  35.631  1.00  0.00     0.040 A 
ATOM     50  C   UNL A   1      45.296  26.247  36.458  1.00  0.00     0.040 A 
ATOM     51  F   UNL A   1      43.064  26.178  35.731  1.00  0.00    -0.206 F 
ATOM     52  C   UNL A   1      46.559  26.836  36.433  1.00  0.00     0.006 A 
ENDBRANCH  24  45
BRANCH  36  53
ATOM     53  C   UNL A   1      39.230  32.347  36.088  1.00  0.00     0.057 A 
ATOM     54  C   UNL A   1      38.313  31.771  36.976  1.00  0.00     0.134 A 
ATOM     55  C   UNL A   1      39.659  33.653  36.350  1.00  0.00     0.134 A 
ATOM     56  F   UNL A   1      37.858  30.525  36.773  1.00  0.00    -0.206 F 
ATOM     57  C   UNL A   1      37.826  32.475  38.076  1.00  0.00     0.040 A 
ATOM     58  C   UNL A   1      39.195  34.359  37.460  1.00  0.00     0.040 A 
ATOM     59  F   UNL A   1      40.544  34.253  35.540  1.00  0.00    -0.206 F 
ATOM     60  C   UNL A   1      38.269  33.773  38.321  1.00  0.00     0.006 A 
ENDBRANCH  36  53
ENDBRANCH  10  11
ENDBRANCH   3   5
ENDBRANCH   2   3
ENDBRANCH   1   2
BRANCH   1  61
ATOM     61  C   UNL A   1      42.260  20.746  26.836  1.00  0.00     0.275 C 
BRANCH  61  62
ATOM     62  O   UNL A   1      40.901  21.185  26.950  1.00  0.00    -0.458 OA
BRANCH  62  63
ATOM     63  C   UNL A   1      40.030  20.559  26.116  1.00  0.00     0.338 C 
ATOM     64  O   UNL A   1      40.063  19.397  25.753  1.00  0.00    -0.246 OA
BRANCH  63  65
ATOM     65  C   UNL A   1      38.920  21.475  25.797  1.00  0.00     0.062 A 
ATOM     66  C   UNL A   1      38.915  22.790  26.274  1.00  0.00     0.018 A 
ATOM     67  C   UNL A   1      37.871  20.963  25.016  1.00  0.00     0.044 A 
ATOM     68  C   UNL A   1      37.847  23.646  25.966  1.00  0.00     0.031 A 
ATOM     69  C   UNL A   1      36.774  21.805  24.832  1.00  0.00     0.067 A 
ATOM     70  C   UNL A   1      36.759  23.133  25.242  1.00  0.00     0.089 A 
ATOM     71  N   UNL A   1      35.523  21.600  24.305  1.00  0.00    -0.338 N 
ATOM     72  N   UNL A   1      35.609  23.748  24.834  1.00  0.00    -0.228 NA
ATOM     73  C   UNL A   1      34.863  22.800  24.309  1.00  0.00     0.142 A 
ATOM     74  H   UNL A   1      35.163  20.743  23.981  1.00  0.00     0.168 HD
BRANCH  73  75
ATOM     75  C   UNL A   1      33.524  23.033  23.727  1.00  0.00     0.063 A 
ATOM     76  C   UNL A   1      32.977  24.237  23.360  1.00  0.00     0.117 A 
ATOM     77  C   UNL A   1      32.528  22.053  23.459  1.00  0.00     0.106 A 
ATOM     78  N   UNL A   1      31.769  23.923  22.805  1.00  0.00    -0.284 N 
ATOM     79  N   UNL A   1      31.442  22.626  22.916  1.00  0.00    -0.175 NA
ATOM     80  H   UNL A   1      31.191  24.587  22.364  1.00  0.00     0.189 HD
BRANCH  77  81
ATOM     81  C   UNL A   1      32.545  20.653  23.868  1.00  0.00     0.039 A 
ATOM     82  C   UNL A   1      32.504  19.651  22.880  1.00  0.00     0.016 A 
ATOM     83  C   UNL A   1      32.586  20.275  25.212  1.00  0.00     0.135 A 
ATOM     84  C   UNL A   1      32.481  18.304  23.237  1.00  0.00     0.040 A 
ATOM     85  C   UNL A   1      32.571  18.929  25.573  1.00  0.00     0.079 A 
ATOM     86  F   UNL A   1      32.618  21.194  26.188  1.00  0.00    -0.206 F 
ATOM     87  C   UNL A   1      32.513  17.958  24.581  1.00  0.00     0.126 A 
ATOM     88  F   UNL A   1      32.487  16.663  24.924  1.00  0.00    -0.207 F 
ENDBRANCH  77  81
ENDBRANCH  73  75
ENDBRANCH  63  65
ENDBRANCH  62  63
ENDBRANCH  61  62
ENDBRANCH   1  61
TORSDOF 13
ENDMDL
