MODEL 1
REMARK VINA RESULT:     -11.5      0.000      0.000
REMARK SMILES O=C(OCCOC(=O)c1cccnc1Nc1cccc(C(F)(F)F)c1)c1ccc(-c2c3nc(c(-c4c(F)cccc4F)c4ccc([nH]4)c(-c4c(F)cccc4F)c4nc(c(-c5c(F)cccc5F)c5ccc2[nH]5)C=C4)C=C3)cc1
REMARK SMILES IDX 5 1 4 2 3 3 2 4 1 5 26 6 27 7 79 8 28 9 78 10 29 11 30 12
REMARK SMILES IDX 31 13 72 14 32 15 77 16 71 17 73 18 33 19 76 20 70 21 69 22
REMARK SMILES IDX 34 24 60 25 43 26 59 27 44 28 47 29 58 30 74 31 45 32 46 33
REMARK SMILES IDX 57 35 75 36 48 37 35 38 36 39 41 40 37 41 38 42 40 43 42 44
REMARK SMILES IDX 39 45 61 46 62 47 67 48 63 49 64 50 66 51 68 52 65 53 49 54
REMARK SMILES IDX 50 55 55 56 51 57 52 58 54 59 56 60 53 61 6 62 7 63 8 64
REMARK SMILES IDX 9 65 10 66 14 67 11 68 13 69 12 70 15 71 16 73 17 74 25 75
REMARK SMILES IDX 18 76 20 77 19 78 21 79 22 80 23 81 24 82
REMARK H PARENT 73 23 47 34 15 72
REMARK Flexibility Score: inf
ROOT
ATOM      1  C   UNL A   1      45.896  22.384  25.463  1.00  0.00     0.275 C 
ENDROOT
BRANCH   1   2
ATOM      2  C   UNL A   1      46.386  23.631  24.726  1.00  0.00     0.275 C 
BRANCH   2   3
ATOM      3  O   UNL A   1      45.423  24.695  24.616  1.00  0.00    -0.458 OA
BRANCH   3   4
ATOM      4  C   UNL A   1      45.528  25.991  24.996  1.00  0.00     0.338 C 
ATOM      5  O   UNL A   1      46.502  26.652  24.643  1.00  0.00    -0.246 OA
BRANCH   4   6
ATOM      6  C   UNL A   1      44.585  26.613  25.968  1.00  0.00     0.060 A 
ATOM      7  C   UNL A   1      44.570  27.960  26.324  1.00  0.00     0.016 A 
ATOM      8  C   UNL A   1      43.693  25.743  26.619  1.00  0.00     0.016 A 
ATOM      9  C   UNL A   1      43.657  28.433  27.269  1.00  0.00     0.010 A 
ATOM     10  C   UNL A   1      42.761  26.210  27.545  1.00  0.00     0.010 A 
ATOM     11  C   UNL A   1      42.768  27.557  27.901  1.00  0.00    -0.014 A 
BRANCH  11  12
ATOM     12  C   UNL A   1      42.030  28.034  29.087  1.00  0.00     0.031 A 
ATOM     13  C   UNL A   1      42.656  27.828  30.435  1.00  0.00     0.074 A 
ATOM     14  C   UNL A   1      40.887  28.729  28.948  1.00  0.00     0.049 A 
ATOM     15  N   UNL A   1      42.321  28.343  31.588  1.00  0.00    -0.248 NA
ATOM     16  C   UNL A   1      43.835  26.946  30.488  1.00  0.00     0.031 C 
ATOM     17  C   UNL A   1      40.216  29.003  27.680  1.00  0.00     0.029 A 
ATOM     18  N   UNL A   1      40.103  29.350  29.884  1.00  0.00    -0.354 N 
ATOM     19  C   UNL A   1      43.269  27.878  32.490  1.00  0.00     0.074 A 
ATOM     20  C   UNL A   1      44.149  26.986  31.772  1.00  0.00     0.031 C 
ATOM     21  C   UNL A   1      39.116  29.738  27.914  1.00  0.00     0.029 A 
ATOM     22  C   UNL A   1      39.018  29.999  29.347  1.00  0.00     0.049 A 
ATOM     23  H   UNL A   1      40.298  29.334  30.848  1.00  0.00     0.167 HD
ATOM     24  C   UNL A   1      43.414  28.196  33.797  1.00  0.00     0.037 A 
ATOM     25  C   UNL A   1      38.073  30.744  29.950  1.00  0.00     0.037 A 
ATOM     26  C   UNL A   1      42.513  29.061  34.507  1.00  0.00     0.049 A 
ATOM     27  C   UNL A   1      38.210  31.021  31.424  1.00  0.00     0.074 A 
ATOM     28  C   UNL A   1      42.548  29.449  35.832  1.00  0.00     0.029 A 
ATOM     29  N   UNL A   1      41.395  29.657  33.938  1.00  0.00    -0.354 N 
ATOM     30  N   UNL A   1      39.154  30.642  32.252  1.00  0.00    -0.248 NA
ATOM     31  C   UNL A   1      37.169  31.854  32.040  1.00  0.00     0.031 C 
ATOM     32  C   UNL A   1      41.425  30.248  36.077  1.00  0.00     0.029 A 
ATOM     33  C   UNL A   1      40.717  30.394  34.892  1.00  0.00     0.049 A 
ATOM     34  H   UNL A   1      41.125  29.567  32.996  1.00  0.00     0.167 HD
ATOM     35  C   UNL A   1      38.848  31.226  33.474  1.00  0.00     0.074 A 
ATOM     36  C   UNL A   1      37.630  31.987  33.275  1.00  0.00     0.031 C 
ATOM     37  C   UNL A   1      39.515  31.151  34.653  1.00  0.00     0.037 A 
BRANCH  24  38
ATOM     38  C   UNL A   1      44.576  27.582  34.517  1.00  0.00     0.057 A 
ATOM     39  C   UNL A   1      44.463  26.351  35.180  1.00  0.00     0.134 A 
ATOM     40  C   UNL A   1      45.806  28.245  34.589  1.00  0.00     0.134 A 
ATOM     41  F   UNL A   1      43.302  25.678  35.171  1.00  0.00    -0.206 F 
ATOM     42  C   UNL A   1      45.523  25.819  35.917  1.00  0.00     0.040 A 
ATOM     43  C   UNL A   1      46.880  27.711  35.303  1.00  0.00     0.040 A 
ATOM     44  F   UNL A   1      45.978  29.428  33.981  1.00  0.00    -0.206 F 
ATOM     45  C   UNL A   1      46.737  26.500  35.978  1.00  0.00     0.006 A 
ENDBRANCH  24  38
BRANCH  25  46
ATOM     46  C   UNL A   1      36.958  31.325  29.160  1.00  0.00     0.057 A 
ATOM     47  C   UNL A   1      36.988  32.651  28.717  1.00  0.00     0.134 A 
ATOM     48  C   UNL A   1      35.826  30.565  28.839  1.00  0.00     0.134 A 
ATOM     49  F   UNL A   1      38.040  33.433  28.999  1.00  0.00    -0.206 F 
ATOM     50  C   UNL A   1      35.923  33.211  28.006  1.00  0.00     0.040 A 
ATOM     51  C   UNL A   1      34.763  31.106  28.112  1.00  0.00     0.040 A 
ATOM     52  F   UNL A   1      35.738  29.283  29.223  1.00  0.00    -0.206 F 
ATOM     53  C   UNL A   1      34.807  32.436  27.700  1.00  0.00     0.006 A 
ENDBRANCH  25  46
BRANCH  37  54
ATOM     54  C   UNL A   1      38.964  31.946  35.798  1.00  0.00     0.057 A 
ATOM     55  C   UNL A   1      38.145  31.368  36.774  1.00  0.00     0.134 A 
ATOM     56  C   UNL A   1      39.299  33.298  35.946  1.00  0.00     0.134 A 
ATOM     57  F   UNL A   1      37.779  30.080  36.680  1.00  0.00    -0.206 F 
ATOM     58  C   UNL A   1      37.657  32.114  37.846  1.00  0.00     0.040 A 
ATOM     59  C   UNL A   1      38.840  34.047  37.028  1.00  0.00     0.040 A 
ATOM     60  F   UNL A   1      40.089  33.908  35.049  1.00  0.00    -0.206 F 
ATOM     61  C   UNL A   1      38.011  33.455  37.980  1.00  0.00     0.006 A 
ENDBRANCH  37  54
ENDBRANCH  11  12
ENDBRANCH   4   6
ENDBRANCH   3   4
ENDBRANCH   2   3
ENDBRANCH   1   2
BRANCH   1  62
ATOM     62  O   UNL A   1      44.628  22.548  26.115  1.00  0.00    -0.458 OA
BRANCH  62  63
ATOM     63  C   UNL A   1      43.571  22.050  25.423  1.00  0.00     0.342 C 
ATOM     64  O   UNL A   1      43.032  22.569  24.458  1.00  0.00    -0.246 OA
BRANCH  63  65
ATOM     65  C   UNL A   1      43.186  20.724  25.933  1.00  0.00     0.102 A 
ATOM     66  C   UNL A   1      43.732  19.560  25.377  1.00  0.00     0.021 A 
ATOM     67  C   UNL A   1      42.280  20.628  26.999  1.00  0.00     0.144 A 
ATOM     68  C   UNL A   1      43.347  18.324  25.880  1.00  0.00     0.021 A 
ATOM     69  N   UNL A   1      41.905  19.412  27.475  1.00  0.00    -0.238 NA
ATOM     70  C   UNL A   1      42.433  18.300  26.916  1.00  0.00     0.113 A 
BRANCH  67  71
ATOM     71  N   UNL A   1      41.606  21.770  27.482  1.00  0.00    -0.340 N 
ATOM     72  H   UNL A   1      42.003  22.211  28.268  1.00  0.00     0.168 HD
BRANCH  71  73
ATOM     73  C   UNL A   1      40.436  22.351  26.968  1.00  0.00     0.040 A 
ATOM     74  C   UNL A   1      40.079  23.653  27.335  1.00  0.00     0.026 A 
ATOM     75  C   UNL A   1      39.546  21.601  26.195  1.00  0.00     0.039 A 
ATOM     76  C   UNL A   1      38.898  24.227  26.864  1.00  0.00     0.003 A 
ATOM     77  C   UNL A   1      38.329  22.146  25.757  1.00  0.00     0.058 A 
ATOM     78  C   UNL A   1      38.025  23.477  26.080  1.00  0.00     0.013 A 
BRANCH  77  79
ATOM     79  C   UNL A   1      37.345  21.307  24.990  1.00  0.00     0.416 C 
ATOM     80  F   UNL A   1      36.896  21.937  23.868  1.00  0.00    -0.166 F 
ATOM     81  F   UNL A   1      37.875  20.126  24.566  1.00  0.00    -0.166 F 
ATOM     82  F   UNL A   1      36.227  20.980  25.698  1.00  0.00    -0.166 F 
ENDBRANCH  77  79
ENDBRANCH  71  73
ENDBRANCH  67  71
ENDBRANCH  63  65
ENDBRANCH  62  63
ENDBRANCH   1  62
TORSDOF 14
ENDMDL
MODEL 2
REMARK VINA RESULT:     -11.4      5.120      9.820
REMARK SMILES O=C(OCCOC(=O)c1cccnc1Nc1cccc(C(F)(F)F)c1)c1ccc(-c2c3nc(c(-c4c(F)cccc4F)c4ccc([nH]4)c(-c4c(F)cccc4F)c4nc(c(-c5c(F)cccc5F)c5ccc2[nH]5)C=C4)C=C3)cc1
REMARK SMILES IDX 5 1 4 2 3 3 2 4 1 5 26 6 27 7 79 8 28 9 78 10 29 11 30 12
REMARK SMILES IDX 31 13 72 14 32 15 77 16 71 17 73 18 33 19 76 20 70 21 69 22
REMARK SMILES IDX 34 24 60 25 43 26 59 27 44 28 47 29 58 30 74 31 45 32 46 33
REMARK SMILES IDX 57 35 75 36 48 37 35 38 36 39 41 40 37 41 38 42 40 43 42 44
REMARK SMILES IDX 39 45 61 46 62 47 67 48 63 49 64 50 66 51 68 52 65 53 49 54
REMARK SMILES IDX 50 55 55 56 51 57 52 58 54 59 56 60 53 61 6 62 7 63 8 64
REMARK SMILES IDX 9 65 10 66 14 67 11 68 13 69 12 70 15 71 16 73 17 74 25 75
REMARK SMILES IDX 18 76 20 77 19 78 21 79 22 80 23 81 24 82
REMARK H PARENT 73 23 47 34 15 72
REMARK Flexibility Score: inf
ROOT
ATOM      1  C   UNL A   1      31.836  29.608  27.057  1.00  0.00     0.275 C 
ENDROOT
BRANCH   1   2
ATOM      2  C   UNL A   1      32.150  31.001  26.510  1.00  0.00     0.275 C 
BRANCH   2   3
ATOM      3  O   UNL A   1      32.345  32.021  27.506  1.00  0.00    -0.458 OA
BRANCH   3   4
ATOM      4  C   UNL A   1      33.451  32.750  27.785  1.00  0.00     0.338 C 
ATOM      5  O   UNL A   1      33.443  33.966  27.598  1.00  0.00    -0.246 OA
BRANCH   4   6
ATOM      6  C   UNL A   1      34.747  32.118  28.162  1.00  0.00     0.060 A 
ATOM      7  C   UNL A   1      34.924  30.773  28.479  1.00  0.00     0.016 A 
ATOM      8  C   UNL A   1      35.854  32.978  28.271  1.00  0.00     0.016 A 
ATOM      9  C   UNL A   1      36.182  30.291  28.848  1.00  0.00     0.010 A 
ATOM     10  C   UNL A   1      37.119  32.502  28.612  1.00  0.00     0.010 A 
ATOM     11  C   UNL A   1      37.277  31.157  28.940  1.00  0.00    -0.014 A 
BRANCH  11  12
ATOM     12  C   UNL A   1      38.504  30.674  29.604  1.00  0.00     0.031 A 
ATOM     13  C   UNL A   1      38.753  31.106  31.020  1.00  0.00     0.074 A 
ATOM     14  C   UNL A   1      39.310  29.790  28.992  1.00  0.00     0.049 A 
ATOM     15  N   UNL A   1      39.626  30.651  31.879  1.00  0.00    -0.248 NA
ATOM     16  C   UNL A   1      37.887  32.173  31.548  1.00  0.00     0.031 C 
ATOM     17  C   UNL A   1      39.135  29.292  27.630  1.00  0.00     0.029 A 
ATOM     18  N   UNL A   1      40.423  29.135  29.449  1.00  0.00    -0.354 N 
ATOM     19  C   UNL A   1      39.385  31.348  33.055  1.00  0.00     0.074 A 
ATOM     20  C   UNL A   1      38.337  32.304  32.784  1.00  0.00     0.031 C 
ATOM     21  C   UNL A   1      40.110  28.408  27.356  1.00  0.00     0.029 A 
ATOM     22  C   UNL A   1      40.964  28.267  28.532  1.00  0.00     0.049 A 
ATOM     23  H   UNL A   1      40.800  29.272  30.348  1.00  0.00     0.167 HD
ATOM     24  C   UNL A   1      39.963  31.180  34.267  1.00  0.00     0.037 A 
ATOM     25  C   UNL A   1      42.015  27.434  28.649  1.00  0.00     0.037 A 
ATOM     26  C   UNL A   1      41.025  30.247  34.515  1.00  0.00     0.049 A 
ATOM     27  C   UNL A   1      42.697  27.320  29.986  1.00  0.00     0.074 A 
ATOM     28  C   UNL A   1      41.699  29.993  35.694  1.00  0.00     0.029 A 
ATOM     29  N   UNL A   1      41.581  29.423  33.545  1.00  0.00    -0.354 N 
ATOM     30  N   UNL A   1      42.409  27.926  31.114  1.00  0.00    -0.248 NA
ATOM     31  C   UNL A   1      43.826  26.386  30.076  1.00  0.00     0.031 C 
ATOM     32  C   UNL A   1      42.693  29.044  35.428  1.00  0.00     0.029 A 
ATOM     33  C   UNL A   1      42.606  28.674  34.094  1.00  0.00     0.049 A 
ATOM     34  H   UNL A   1      41.288  29.379  32.607  1.00  0.00     0.167 HD
ATOM     35  C   UNL A   1      43.290  27.415  32.058  1.00  0.00     0.074 A 
ATOM     36  C   UNL A   1      44.119  26.446  31.367  1.00  0.00     0.031 C 
ATOM     37  C   UNL A   1      43.400  27.708  33.377  1.00  0.00     0.037 A 
BRANCH  24  38
ATOM     38  C   UNL A   1      39.456  32.043  35.382  1.00  0.00     0.057 A 
ATOM     39  C   UNL A   1      39.962  33.333  35.603  1.00  0.00     0.134 A 
ATOM     40  C   UNL A   1      38.488  31.568  36.273  1.00  0.00     0.134 A 
ATOM     41  F   UNL A   1      40.911  33.837  34.799  1.00  0.00    -0.206 F 
ATOM     42  C   UNL A   1      39.547  34.104  36.690  1.00  0.00     0.040 A 
ATOM     43  C   UNL A   1      38.048  32.340  37.350  1.00  0.00     0.040 A 
ATOM     44  F   UNL A   1      37.968  30.341  36.122  1.00  0.00    -0.206 F 
ATOM     45  C   UNL A   1      38.585  33.607  37.566  1.00  0.00     0.006 A 
ENDBRANCH  24  38
BRANCH  25  46
ATOM     46  C   UNL A   1      42.446  26.605  27.494  1.00  0.00     0.057 A 
ATOM     47  C   UNL A   1      43.335  27.098  26.532  1.00  0.00     0.134 A 
ATOM     48  C   UNL A   1      41.967  25.301  27.318  1.00  0.00     0.134 A 
ATOM     49  F   UNL A   1      43.822  28.343  26.637  1.00  0.00    -0.206 F 
ATOM     50  C   UNL A   1      43.713  26.335  25.424  1.00  0.00     0.040 A 
ATOM     51  C   UNL A   1      42.352  24.520  26.227  1.00  0.00     0.040 A 
ATOM     52  F   UNL A   1      41.122  24.764  28.211  1.00  0.00    -0.206 F 
ATOM     53  C   UNL A   1      43.222  25.040  25.271  1.00  0.00     0.006 A 
ENDBRANCH  25  46
BRANCH  37  54
ATOM     54  C   UNL A   1      44.422  26.941  34.162  1.00  0.00     0.057 A 
ATOM     55  C   UNL A   1      45.729  27.411  34.334  1.00  0.00     0.134 A 
ATOM     56  C   UNL A   1      44.074  25.738  34.789  1.00  0.00     0.134 A 
ATOM     57  F   UNL A   1      46.125  28.551  33.746  1.00  0.00    -0.206 F 
ATOM     58  C   UNL A   1      46.663  26.698  35.084  1.00  0.00     0.040 A 
ATOM     59  C   UNL A   1      44.992  25.030  35.565  1.00  0.00     0.040 A 
ATOM     60  F   UNL A   1      42.834  25.240  34.671  1.00  0.00    -0.206 F 
ATOM     61  C   UNL A   1      46.293  25.509  35.709  1.00  0.00     0.006 A 
ENDBRANCH  37  54
ENDBRANCH  11  12
ENDBRANCH   4   6
ENDBRANCH   3   4
ENDBRANCH   2   3
ENDBRANCH   1   2
BRANCH   1  62
ATOM     62  O   UNL A   1      32.742  28.587  26.615  1.00  0.00    -0.458 OA
BRANCH  62  63
ATOM     63  C   UNL A   1      32.171  27.370  26.430  1.00  0.00     0.342 C 
ATOM     64  O   UNL A   1      31.258  26.893  27.087  1.00  0.00    -0.246 OA
BRANCH  63  65
ATOM     65  C   UNL A   1      32.738  26.696  25.250  1.00  0.00     0.102 A 
ATOM     66  C   UNL A   1      33.520  25.543  25.394  1.00  0.00     0.021 A 
ATOM     67  C   UNL A   1      32.474  27.203  23.969  1.00  0.00     0.144 A 
ATOM     68  C   UNL A   1      34.041  24.932  24.261  1.00  0.00     0.021 A 
ATOM     69  N   UNL A   1      32.998  26.600  22.870  1.00  0.00    -0.238 NA
ATOM     70  C   UNL A   1      33.761  25.496  23.032  1.00  0.00     0.113 A 
BRANCH  67  71
ATOM     71  N   UNL A   1      31.813  28.439  23.801  1.00  0.00    -0.340 N 
ATOM     72  H   UNL A   1      32.382  29.243  23.818  1.00  0.00     0.168 HD
BRANCH  71  73
ATOM     73  C   UNL A   1      30.439  28.653  23.613  1.00  0.00     0.040 A 
ATOM     74  C   UNL A   1      29.586  27.570  23.377  1.00  0.00     0.026 A 
ATOM     75  C   UNL A   1      29.923  29.949  23.524  1.00  0.00     0.039 A 
ATOM     76  C   UNL A   1      28.225  27.772  23.147  1.00  0.00     0.003 A 
ATOM     77  C   UNL A   1      28.567  30.170  23.241  1.00  0.00     0.058 A 
ATOM     78  C   UNL A   1      27.717  29.066  23.077  1.00  0.00     0.013 A 
BRANCH  77  79
ATOM     79  C   UNL A   1      28.038  31.568  23.073  1.00  0.00     0.416 C 
ATOM     80  F   UNL A   1      27.001  31.831  23.918  1.00  0.00    -0.166 F 
ATOM     81  F   UNL A   1      28.976  32.522  23.328  1.00  0.00    -0.166 F 
ATOM     82  F   UNL A   1      27.566  31.834  21.822  1.00  0.00    -0.166 F 
ENDBRANCH  77  79
ENDBRANCH  71  73
ENDBRANCH  67  71
ENDBRANCH  63  65
ENDBRANCH  62  63
ENDBRANCH   1  62
TORSDOF 14
ENDMDL
MODEL 3
REMARK VINA RESULT:     -11.4      5.183      9.849
REMARK SMILES O=C(OCCOC(=O)c1cccnc1Nc1cccc(C(F)(F)F)c1)c1ccc(-c2c3nc(c(-c4c(F)cccc4F)c4ccc([nH]4)c(-c4c(F)cccc4F)c4nc(c(-c5c(F)cccc5F)c5ccc2[nH]5)C=C4)C=C3)cc1
REMARK SMILES IDX 5 1 4 2 3 3 2 4 1 5 26 6 27 7 79 8 28 9 78 10 29 11 30 12
REMARK SMILES IDX 31 13 72 14 32 15 77 16 71 17 73 18 33 19 76 20 70 21 69 22
REMARK SMILES IDX 34 24 60 25 43 26 59 27 44 28 47 29 58 30 74 31 45 32 46 33
REMARK SMILES IDX 57 35 75 36 48 37 35 38 36 39 41 40 37 41 38 42 40 43 42 44
REMARK SMILES IDX 39 45 61 46 62 47 67 48 63 49 64 50 66 51 68 52 65 53 49 54
REMARK SMILES IDX 50 55 55 56 51 57 52 58 54 59 56 60 53 61 6 62 7 63 8 64
REMARK SMILES IDX 9 65 10 66 14 67 11 68 13 69 12 70 15 71 16 73 17 74 25 75
REMARK SMILES IDX 18 76 20 77 19 78 21 79 22 80 23 81 24 82
REMARK H PARENT 73 23 47 34 15 72
REMARK Flexibility Score: inf
ROOT
ATOM      1  C   UNL A   1      31.983  30.082  26.940  1.00  0.00     0.275 C 
ENDROOT
BRANCH   1   2
ATOM      2  C   UNL A   1      32.742  31.360  26.580  1.00  0.00     0.275 C 
BRANCH   2   3
ATOM      3  O   UNL A   1      32.255  32.560  27.209  1.00  0.00    -0.458 OA
BRANCH   3   4
ATOM      4  C   UNL A   1      32.931  33.487  27.928  1.00  0.00     0.338 C 
ATOM      5  O   UNL A   1      32.528  34.649  27.955  1.00  0.00    -0.246 OA
BRANCH   4   6
ATOM      6  C   UNL A   1      34.245  33.197  28.568  1.00  0.00     0.060 A 
ATOM      7  C   UNL A   1      35.486  33.589  28.072  1.00  0.00     0.016 A 
ATOM      8  C   UNL A   1      34.213  32.401  29.727  1.00  0.00     0.016 A 
ATOM      9  C   UNL A   1      36.660  33.237  28.740  1.00  0.00     0.010 A 
ATOM     10  C   UNL A   1      35.378  32.067  30.416  1.00  0.00     0.010 A 
ATOM     11  C   UNL A   1      36.612  32.454  29.899  1.00  0.00    -0.014 A 
BRANCH  11  12
ATOM     12  C   UNL A   1      37.868  31.867  30.406  1.00  0.00     0.031 A 
ATOM     13  C   UNL A   1      38.323  32.259  31.782  1.00  0.00     0.074 A 
ATOM     14  C   UNL A   1      38.520  30.929  29.697  1.00  0.00     0.049 A 
ATOM     15  N   UNL A   1      39.254  31.725  32.526  1.00  0.00    -0.248 NA
ATOM     16  C   UNL A   1      37.616  33.385  32.416  1.00  0.00     0.031 C 
ATOM     17  C   UNL A   1      38.141  30.464  28.365  1.00  0.00     0.029 A 
ATOM     18  N   UNL A   1      39.624  30.181  30.012  1.00  0.00    -0.354 N 
ATOM     19  C   UNL A   1      39.216  32.424  33.725  1.00  0.00     0.074 A 
ATOM     20  C   UNL A   1      38.223  33.464  33.588  1.00  0.00     0.031 C 
ATOM     21  C   UNL A   1      39.001  29.509  27.971  1.00  0.00     0.029 A 
ATOM     22  C   UNL A   1      39.978  29.286  29.033  1.00  0.00     0.049 A 
ATOM     23  H   UNL A   1      40.118  30.277  30.858  1.00  0.00     0.167 HD
ATOM     24  C   UNL A   1      39.922  32.195  34.856  1.00  0.00     0.037 A 
ATOM     25  C   UNL A   1      40.964  28.370  29.017  1.00  0.00     0.037 A 
ATOM     26  C   UNL A   1      40.929  31.177  34.969  1.00  0.00     0.049 A 
ATOM     27  C   UNL A   1      41.793  28.185  30.260  1.00  0.00     0.074 A 
ATOM     28  C   UNL A   1      41.718  30.856  36.056  1.00  0.00     0.029 A 
ATOM     29  N   UNL A   1      41.293  30.324  33.936  1.00  0.00    -0.354 N 
ATOM     30  N   UNL A   1      41.695  28.797  31.416  1.00  0.00    -0.248 NA
ATOM     31  C   UNL A   1      42.846  27.163  30.208  1.00  0.00     0.031 C 
ATOM     32  C   UNL A   1      42.593  29.834  35.667  1.00  0.00     0.029 A 
ATOM     33  C   UNL A   1      42.314  29.489  34.352  1.00  0.00     0.049 A 
ATOM     34  H   UNL A   1      40.886  30.315  33.040  1.00  0.00     0.167 HD
ATOM     35  C   UNL A   1      42.640  28.206  32.244  1.00  0.00     0.074 A 
ATOM     36  C   UNL A   1      43.298  27.183  31.453  1.00  0.00     0.031 C 
ATOM     37  C   UNL A   1      42.934  28.472  33.541  1.00  0.00     0.037 A 
BRANCH  24  38
ATOM     38  C   UNL A   1      39.627  33.081  36.028  1.00  0.00     0.057 A 
ATOM     39  C   UNL A   1      40.358  34.254  36.265  1.00  0.00     0.134 A 
ATOM     40  C   UNL A   1      38.636  32.738  36.954  1.00  0.00     0.134 A 
ATOM     41  F   UNL A   1      41.339  34.625  35.428  1.00  0.00    -0.206 F 
ATOM     42  C   UNL A   1      40.135  35.036  37.400  1.00  0.00     0.040 A 
ATOM     43  C   UNL A   1      38.388  33.525  38.080  1.00  0.00     0.040 A 
ATOM     44  F   UNL A   1      37.905  31.626  36.788  1.00  0.00    -0.206 F 
ATOM     45  C   UNL A   1      39.146  34.672  38.310  1.00  0.00     0.006 A 
ENDBRANCH  24  38
BRANCH  25  46
ATOM     46  C   UNL A   1      41.183  27.524  27.815  1.00  0.00     0.057 A 
ATOM     47  C   UNL A   1      40.589  26.264  27.689  1.00  0.00     0.134 A 
ATOM     48  C   UNL A   1      42.007  27.955  26.768  1.00  0.00     0.134 A 
ATOM     49  F   UNL A   1      39.797  25.791  28.662  1.00  0.00    -0.206 F 
ATOM     50  C   UNL A   1      40.824  25.451  26.577  1.00  0.00     0.040 A 
ATOM     51  C   UNL A   1      42.234  27.161  25.641  1.00  0.00     0.040 A 
ATOM     52  F   UNL A   1      42.598  29.158  26.820  1.00  0.00    -0.206 F 
ATOM     53  C   UNL A   1      41.648  25.900  25.548  1.00  0.00     0.006 A 
ENDBRANCH  25  46
BRANCH  37  54
ATOM     54  C   UNL A   1      43.979  27.616  34.191  1.00  0.00     0.057 A 
ATOM     55  C   UNL A   1      45.329  27.985  34.214  1.00  0.00     0.134 A 
ATOM     56  C   UNL A   1      43.617  26.430  34.842  1.00  0.00     0.134 A 
ATOM     57  F   UNL A   1      45.739  29.103  33.597  1.00  0.00    -0.206 F 
ATOM     58  C   UNL A   1      46.288  27.190  34.842  1.00  0.00     0.040 A 
ATOM     59  C   UNL A   1      44.562  25.641  35.497  1.00  0.00     0.040 A 
ATOM     60  F   UNL A   1      42.337  26.028  34.865  1.00  0.00    -0.206 F 
ATOM     61  C   UNL A   1      45.903  26.019  35.493  1.00  0.00     0.006 A 
ENDBRANCH  37  54
ENDBRANCH  11  12
ENDBRANCH   4   6
ENDBRANCH   3   4
ENDBRANCH   2   3
ENDBRANCH   1   2
BRANCH   1  62
ATOM     62  O   UNL A   1      32.783  28.892  26.890  1.00  0.00    -0.458 OA
BRANCH  62  63
ATOM     63  C   UNL A   1      32.076  27.747  26.710  1.00  0.00     0.342 C 
ATOM     64  O   UNL A   1      31.046  27.436  27.288  1.00  0.00    -0.246 OA
BRANCH  63  65
ATOM     65  C   UNL A   1      32.665  26.928  25.637  1.00  0.00     0.102 A 
ATOM     66  C   UNL A   1      33.425  25.793  25.942  1.00  0.00     0.021 A 
ATOM     67  C   UNL A   1      32.444  27.280  24.297  1.00  0.00     0.144 A 
ATOM     68  C   UNL A   1      33.967  25.042  24.907  1.00  0.00     0.021 A 
ATOM     69  N   UNL A   1      32.988  26.542  23.295  1.00  0.00    -0.238 NA
ATOM     70  C   UNL A   1      33.730  25.457  23.610  1.00  0.00     0.113 A 
BRANCH  67  71
ATOM     71  N   UNL A   1      31.807  28.494  23.963  1.00  0.00    -0.340 N 
ATOM     72  H   UNL A   1      32.388  29.286  23.892  1.00  0.00     0.168 HD
BRANCH  71  73
ATOM     73  C   UNL A   1      30.441  28.702  23.717  1.00  0.00     0.040 A 
ATOM     74  C   UNL A   1      29.605  27.615  23.441  1.00  0.00     0.026 A 
ATOM     75  C   UNL A   1      29.922  29.995  23.612  1.00  0.00     0.039 A 
ATOM     76  C   UNL A   1      28.253  27.811  23.155  1.00  0.00     0.003 A 
ATOM     77  C   UNL A   1      28.578  30.211  23.273  1.00  0.00     0.058 A 
ATOM     78  C   UNL A   1      27.741  29.103  23.070  1.00  0.00     0.013 A 
BRANCH  77  79
ATOM     79  C   UNL A   1      28.048  31.607  23.089  1.00  0.00     0.416 C 
ATOM     80  F   UNL A   1      27.695  31.856  21.795  1.00  0.00    -0.166 F 
ATOM     81  F   UNL A   1      26.933  31.851  23.831  1.00  0.00    -0.166 F 
ATOM     82  F   UNL A   1      28.939  32.584  23.420  1.00  0.00    -0.166 F 
ENDBRANCH  77  79
ENDBRANCH  71  73
ENDBRANCH  67  71
ENDBRANCH  63  65
ENDBRANCH  62  63
ENDBRANCH   1  62
TORSDOF 14
ENDMDL
