MODEL 1
REMARK VINA RESULT:     -12.0      0.000      0.000
REMARK SMILES CCC(=O)Nc1cc(NC(=O)/C=C/C(=O)OCCOC(=O)c2ccc(-c3c4nc(c(-c5c(F)cccc5F)c5ccc([nH]5)c(-c5c(F)cccc5F)c5nc(c(-c6c(F)cccc6F)c6ccc3[nH]6)C=C5)C=C4)cc2)ccc1C
REMARK SMILES IDX 17 1 16 2 14 3 15 4 13 5 12 6 10 7 9 8 11 10 8 11 6 12 7 13
REMARK SMILES IDX 78 14 77 15 79 16 76 17 5 18 3 19 4 20 2 22 1 23 18 24 19 25
REMARK SMILES IDX 20 26 21 27 22 28 23 29 75 30 24 31 74 32 25 33 26 34 27 35
REMARK SMILES IDX 68 36 28 37 73 38 67 39 69 40 29 41 72 42 66 43 65 44 30 46
REMARK SMILES IDX 56 47 39 48 55 49 40 50 43 51 54 52 70 53 41 54 42 55 53 57
REMARK SMILES IDX 71 58 44 59 31 60 32 61 37 62 33 63 34 64 36 65 38 66 35 67
REMARK SMILES IDX 57 68 58 69 63 70 59 71 60 72 62 73 64 74 61 75 45 76 46 77
REMARK SMILES IDX 51 78 47 79 48 80 50 81 52 82 49 83
REMARK H PARENT 9 9 5 21 69 45 43 56
REMARK Flexibility Score: inf
ROOT
ATOM      1  C   UNL A   1      42.647  18.395  26.516  1.00  0.00     0.275 C 
ENDROOT
BRANCH   1   2
ATOM      2  O   UNL A   1      42.036  19.685  26.646  1.00  0.00    -0.459 OA
BRANCH   2   3
ATOM      3  C   UNL A   1      40.791  19.774  26.129  1.00  0.00     0.331 C 
ATOM      4  O   UNL A   1      40.201  18.894  25.505  1.00  0.00    -0.247 OA
BRANCH   3   5
ATOM      5  C   UNL A   1      40.211  21.078  26.501  1.00  0.00     0.099 C 
ATOM      6  C   UNL A   1      38.954  21.342  26.121  1.00  0.00     0.079 C 
BRANCH   6   7
ATOM      7  C   UNL A   1      38.360  22.685  26.146  1.00  0.00     0.248 C 
ATOM      8  N   UNL A   1      37.127  23.027  25.710  1.00  0.00    -0.322 N 
ATOM      9  H   UNL A   1      37.025  24.007  25.720  1.00  0.00     0.170 HD
ATOM     10  O   UNL A   1      39.106  23.606  26.498  1.00  0.00    -0.270 OA
BRANCH   8  11
ATOM     11  C   UNL A   1      35.944  22.424  25.248  1.00  0.00     0.043 A 
ATOM     12  C   UNL A   1      33.989  20.966  25.316  1.00  0.00     0.046 A 
ATOM     13  C   UNL A   1      35.155  21.495  25.917  1.00  0.00     0.052 A 
ATOM     14  C   UNL A   1      33.473  21.570  24.162  1.00  0.00    -0.027 A 
ATOM     15  C   UNL A   1      34.275  22.476  23.470  1.00  0.00     0.008 A 
ATOM     16  C   UNL A   1      31.999  21.528  23.834  1.00  0.00     0.046 C 
ATOM     17  C   UNL A   1      35.510  22.863  23.989  1.00  0.00     0.026 A 
BRANCH  12  18
ATOM     18  N   UNL A   1      33.307  19.887  25.912  1.00  0.00    -0.326 N 
ATOM     19  C   UNL A   1      33.096  18.641  25.349  1.00  0.00     0.224 C 
ATOM     20  O   UNL A   1      32.151  17.945  25.727  1.00  0.00    -0.275 OA
ATOM     21  H   UNL A   1      32.944  20.034  26.816  1.00  0.00     0.169 HD
BRANCH  19  22
ATOM     22  C   UNL A   1      34.165  18.060  24.407  1.00  0.00     0.097 C 
ATOM     23  C   UNL A   1      33.738  17.305  23.169  1.00  0.00     0.014 C 
ENDBRANCH  19  22
ENDBRANCH  12  18
ENDBRANCH   8  11
ENDBRANCH   6   7
ENDBRANCH   3   5
ENDBRANCH   2   3
ENDBRANCH   1   2
BRANCH   1  24
ATOM     24  C   UNL A   1      43.854  18.464  25.570  1.00  0.00     0.275 C 
BRANCH  24  25
ATOM     25  O   UNL A   1      44.642  19.695  25.530  1.00  0.00    -0.458 OA
BRANCH  25  26
ATOM     26  C   UNL A   1      44.535  20.730  24.666  1.00  0.00     0.338 C 
ATOM     27  O   UNL A   1      44.522  20.589  23.448  1.00  0.00    -0.246 OA
BRANCH  26  28
ATOM     28  C   UNL A   1      44.402  22.076  25.233  1.00  0.00     0.060 A 
ATOM     29  C   UNL A   1      44.669  23.175  24.403  1.00  0.00     0.016 A 
ATOM     30  C   UNL A   1      43.976  22.258  26.536  1.00  0.00     0.016 A 
ATOM     31  C   UNL A   1      44.429  24.467  24.814  1.00  0.00     0.010 A 
ATOM     32  C   UNL A   1      43.649  23.525  26.930  1.00  0.00     0.010 A 
ATOM     33  C   UNL A   1      43.944  24.617  26.096  1.00  0.00    -0.014 A 
BRANCH  33  34
ATOM     34  C   UNL A   1      43.838  25.898  26.746  1.00  0.00     0.031 A 
ATOM     35  C   UNL A   1      42.559  26.627  26.681  1.00  0.00     0.074 A 
ATOM     36  C   UNL A   1      44.904  26.140  27.543  1.00  0.00     0.049 A 
ATOM     37  N   UNL A   1      42.421  27.886  26.907  1.00  0.00    -0.248 NA
ATOM     38  C   UNL A   1      41.299  25.998  26.270  1.00  0.00     0.031 C 
ATOM     39  C   UNL A   1      45.006  26.958  28.730  1.00  0.00     0.029 A 
ATOM     40  N   UNL A   1      46.205  25.625  27.427  1.00  0.00    -0.354 N 
ATOM     41  C   UNL A   1      41.074  28.075  27.165  1.00  0.00     0.074 A 
ATOM     42  C   UNL A   1      40.413  26.968  26.525  1.00  0.00     0.031 C 
ATOM     43  C   UNL A   1      46.311  27.149  29.011  1.00  0.00     0.029 A 
ATOM     44  C   UNL A   1      47.076  26.605  27.900  1.00  0.00     0.049 A 
ATOM     45  H   UNL A   1      46.455  24.739  27.078  1.00  0.00     0.167 HD
ATOM     46  C   UNL A   1      40.725  28.966  28.139  1.00  0.00     0.037 A 
ATOM     47  C   UNL A   1      47.891  27.341  27.074  1.00  0.00     0.037 A 
ATOM     48  C   UNL A   1      41.939  29.594  28.670  1.00  0.00     0.049 A 
ATOM     49  C   UNL A   1      47.457  28.784  27.062  1.00  0.00     0.074 A 
ATOM     50  C   UNL A   1      42.693  29.314  29.798  1.00  0.00     0.029 A 
ATOM     51  N   UNL A   1      42.749  30.352  27.833  1.00  0.00    -0.354 N 
ATOM     52  N   UNL A   1      46.227  29.166  27.262  1.00  0.00    -0.248 NA
ATOM     53  C   UNL A   1      48.380  29.896  26.880  1.00  0.00     0.031 C 
ATOM     54  C   UNL A   1      43.984  29.868  29.609  1.00  0.00     0.029 A 
ATOM     55  C   UNL A   1      44.022  30.466  28.360  1.00  0.00     0.049 A 
ATOM     56  H   UNL A   1      42.458  30.752  26.981  1.00  0.00     0.167 HD
ATOM     57  C   UNL A   1      46.190  30.529  27.345  1.00  0.00     0.074 A 
ATOM     58  C   UNL A   1      47.559  30.940  27.078  1.00  0.00     0.031 C 
ATOM     59  C   UNL A   1      45.053  31.216  27.661  1.00  0.00     0.037 A 
BRANCH  46  60
ATOM     60  C   UNL A   1      39.396  29.005  28.878  1.00  0.00     0.057 A 
ATOM     61  C   UNL A   1      38.252  29.557  28.257  1.00  0.00     0.134 A 
ATOM     62  C   UNL A   1      39.163  28.551  30.188  1.00  0.00     0.134 A 
ATOM     63  F   UNL A   1      38.264  29.960  26.979  1.00  0.00    -0.206 F 
ATOM     64  C   UNL A   1      37.019  29.718  28.904  1.00  0.00     0.040 A 
ATOM     65  C   UNL A   1      37.938  28.728  30.858  1.00  0.00     0.040 A 
ATOM     66  F   UNL A   1      40.082  27.862  30.872  1.00  0.00    -0.206 F 
ATOM     67  C   UNL A   1      36.861  29.321  30.219  1.00  0.00     0.006 A 
ENDBRANCH  46  60
BRANCH  47  68
ATOM     68  C   UNL A   1      48.347  26.605  25.857  1.00  0.00     0.057 A 
ATOM     69  C   UNL A   1      47.713  26.948  24.651  1.00  0.00     0.134 A 
ATOM     70  C   UNL A   1      49.687  26.218  25.798  1.00  0.00     0.134 A 
ATOM     71  F   UNL A   1      46.396  27.202  24.630  1.00  0.00    -0.206 F 
ATOM     72  C   UNL A   1      48.454  27.229  23.506  1.00  0.00     0.040 A 
ATOM     73  C   UNL A   1      50.440  26.543  24.677  1.00  0.00     0.040 A 
ATOM     74  F   UNL A   1      50.323  25.741  26.875  1.00  0.00    -0.206 F 
ATOM     75  C   UNL A   1      49.836  27.123  23.559  1.00  0.00     0.006 A 
ENDBRANCH  47  68
BRANCH  59  76
ATOM     76  C   UNL A   1      44.859  32.694  27.461  1.00  0.00     0.057 A 
ATOM     77  C   UNL A   1      44.312  33.256  26.301  1.00  0.00     0.134 A 
ATOM     78  C   UNL A   1      45.088  33.603  28.520  1.00  0.00     0.134 A 
ATOM     79  F   UNL A   1      43.891  32.500  25.279  1.00  0.00    -0.206 F 
ATOM     80  C   UNL A   1      44.114  34.633  26.160  1.00  0.00     0.040 A 
ATOM     81  C   UNL A   1      44.818  34.966  28.418  1.00  0.00     0.040 A 
ATOM     82  F   UNL A   1      45.557  33.209  29.713  1.00  0.00    -0.206 F 
ATOM     83  C   UNL A   1      44.359  35.491  27.222  1.00  0.00     0.006 A 
ENDBRANCH  59  76
ENDBRANCH  33  34
ENDBRANCH  26  28
ENDBRANCH  25  26
ENDBRANCH  24  25
ENDBRANCH   1  24
TORSDOF 15
ENDMDL
MODEL 2
REMARK VINA RESULT:     -11.9      6.570     11.799
REMARK SMILES CCC(=O)Nc1cc(NC(=O)/C=C/C(=O)OCCOC(=O)c2ccc(-c3c4nc(c(-c5c(F)cccc5F)c5ccc([nH]5)c(-c5c(F)cccc5F)c5nc(c(-c6c(F)cccc6F)c6ccc3[nH]6)C=C5)C=C4)cc2)ccc1C
REMARK SMILES IDX 17 1 16 2 14 3 15 4 13 5 12 6 10 7 9 8 11 10 8 11 6 12 7 13
REMARK SMILES IDX 78 14 77 15 79 16 76 17 5 18 3 19 4 20 2 22 1 23 18 24 19 25
REMARK SMILES IDX 20 26 21 27 22 28 23 29 75 30 24 31 74 32 25 33 26 34 27 35
REMARK SMILES IDX 68 36 28 37 73 38 67 39 69 40 29 41 72 42 66 43 65 44 30 46
REMARK SMILES IDX 56 47 39 48 55 49 40 50 43 51 54 52 70 53 41 54 42 55 53 57
REMARK SMILES IDX 71 58 44 59 31 60 32 61 37 62 33 63 34 64 36 65 38 66 35 67
REMARK SMILES IDX 57 68 58 69 63 70 59 71 60 72 62 73 64 74 61 75 45 76 46 77
REMARK SMILES IDX 51 78 47 79 48 80 50 81 52 82 49 83
REMARK H PARENT 9 9 5 21 69 45 43 56
REMARK Flexibility Score: inf
ROOT
ATOM      1  C   UNL A   1      33.343  36.034  28.818  1.00  0.00     0.275 C 
ENDROOT
BRANCH   1   2
ATOM      2  O   UNL A   1      34.052  34.810  28.584  1.00  0.00    -0.459 OA
BRANCH   2   3
ATOM      3  C   UNL A   1      33.313  33.827  28.024  1.00  0.00     0.331 C 
ATOM      4  O   UNL A   1      32.153  33.930  27.627  1.00  0.00    -0.247 OA
BRANCH   3   5
ATOM      5  C   UNL A   1      34.146  32.619  27.891  1.00  0.00     0.099 C 
ATOM      6  C   UNL A   1      33.630  31.561  27.251  1.00  0.00     0.079 C 
BRANCH   6   7
ATOM      7  C   UNL A   1      34.206  30.212  27.307  1.00  0.00     0.248 C 
ATOM      8  N   UNL A   1      33.690  29.093  26.751  1.00  0.00    -0.322 N 
ATOM      9  H   UNL A   1      34.201  28.304  27.045  1.00  0.00     0.170 HD
ATOM     10  O   UNL A   1      35.201  30.073  28.028  1.00  0.00    -0.270 OA
BRANCH   8  11
ATOM     11  C   UNL A   1      32.654  28.702  25.885  1.00  0.00     0.043 A 
ATOM     12  C   UNL A   1      31.308  28.692  23.850  1.00  0.00     0.046 A 
ATOM     13  C   UNL A   1      32.402  29.178  24.603  1.00  0.00     0.052 A 
ATOM     14  C   UNL A   1      30.634  27.542  24.277  1.00  0.00    -0.027 A 
ATOM     15  C   UNL A   1      30.858  27.082  25.574  1.00  0.00     0.008 A 
ATOM     16  C   UNL A   1      29.944  26.616  23.302  1.00  0.00     0.046 C 
ATOM     17  C   UNL A   1      31.826  27.682  26.377  1.00  0.00     0.026 A 
BRANCH  12  18
ATOM     18  N   UNL A   1      30.944  29.315  22.640  1.00  0.00    -0.326 N 
ATOM     19  C   UNL A   1      29.781  30.024  22.402  1.00  0.00     0.224 C 
ATOM     20  O   UNL A   1      29.353  30.141  21.252  1.00  0.00    -0.275 OA
ATOM     21  H   UNL A   1      31.579  29.237  21.890  1.00  0.00     0.169 HD
BRANCH  19  22
ATOM     22  C   UNL A   1      29.151  30.828  23.554  1.00  0.00     0.097 C 
ATOM     23  C   UNL A   1      27.684  31.188  23.498  1.00  0.00     0.014 C 
ENDBRANCH  19  22
ENDBRANCH  12  18
ENDBRANCH   8  11
ENDBRANCH   6   7
ENDBRANCH   3   5
ENDBRANCH   2   3
ENDBRANCH   1   2
BRANCH   1  24
ATOM     24  C   UNL A   1      32.805  36.077  30.254  1.00  0.00     0.275 C 
BRANCH  24  25
ATOM     25  O   UNL A   1      33.724  35.797  31.356  1.00  0.00    -0.458 OA
BRANCH  25  26
ATOM     26  C   UNL A   1      33.763  34.708  32.157  1.00  0.00     0.338 C 
ATOM     27  O   UNL A   1      32.829  34.370  32.876  1.00  0.00    -0.246 OA
BRANCH  26  28
ATOM     28  C   UNL A   1      34.981  33.891  32.132  1.00  0.00     0.060 A 
ATOM     29  C   UNL A   1      35.959  34.188  31.171  1.00  0.00     0.016 A 
ATOM     30  C   UNL A   1      35.182  32.887  33.062  1.00  0.00     0.016 A 
ATOM     31  C   UNL A   1      37.188  33.565  31.172  1.00  0.00     0.010 A 
ATOM     32  C   UNL A   1      36.424  32.322  33.133  1.00  0.00     0.010 A 
ATOM     33  C   UNL A   1      37.385  32.614  32.150  1.00  0.00    -0.014 A 
BRANCH  33  34
ATOM     34  C   UNL A   1      38.524  31.733  32.163  1.00  0.00     0.031 A 
ATOM     35  C   UNL A   1      38.430  30.436  31.470  1.00  0.00     0.074 A 
ATOM     36  C   UNL A   1      39.628  32.355  32.635  1.00  0.00     0.049 A 
ATOM     37  N   UNL A   1      39.211  29.435  31.679  1.00  0.00    -0.248 NA
ATOM     38  C   UNL A   1      37.371  30.117  30.508  1.00  0.00     0.031 C 
ATOM     39  C   UNL A   1      41.024  32.103  32.357  1.00  0.00     0.029 A 
ATOM     40  N   UNL A   1      39.697  33.446  33.517  1.00  0.00    -0.354 N 
ATOM     41  C   UNL A   1      39.074  28.615  30.573  1.00  0.00     0.074 A 
ATOM     42  C   UNL A   1      37.782  28.938  30.027  1.00  0.00     0.031 C 
ATOM     43  C   UNL A   1      41.771  32.754  33.272  1.00  0.00     0.029 A 
ATOM     44  C   UNL A   1      40.859  33.292  34.270  1.00  0.00     0.049 A 
ATOM     45  H   UNL A   1      39.045  34.181  33.589  1.00  0.00     0.167 HD
ATOM     46  C   UNL A   1      40.192  27.996  30.088  1.00  0.00     0.037 A 
ATOM     47  C   UNL A   1      40.847  32.932  35.596  1.00  0.00     0.037 A 
ATOM     48  C   UNL A   1      41.331  28.324  30.951  1.00  0.00     0.049 A 
ATOM     49  C   UNL A   1      41.437  31.557  35.771  1.00  0.00     0.074 A 
ATOM     50  C   UNL A   1      42.329  29.276  30.823  1.00  0.00     0.029 A 
ATOM     51  N   UNL A   1      41.320  27.941  32.287  1.00  0.00    -0.354 N 
ATOM     52  N   UNL A   1      41.391  30.633  34.851  1.00  0.00    -0.248 NA
ATOM     53  C   UNL A   1      42.164  31.143  36.963  1.00  0.00     0.031 C 
ATOM     54  C   UNL A   1      42.884  29.502  32.109  1.00  0.00     0.029 A 
ATOM     55  C   UNL A   1      42.212  28.703  33.019  1.00  0.00     0.049 A 
ATOM     56  H   UNL A   1      40.754  27.227  32.662  1.00  0.00     0.167 HD
ATOM     57  C   UNL A   1      42.145  29.566  35.252  1.00  0.00     0.074 A 
ATOM     58  C   UNL A   1      42.591  29.926  36.589  1.00  0.00     0.031 C 
ATOM     59  C   UNL A   1      42.378  28.489  34.447  1.00  0.00     0.037 A 
BRANCH  46  60
ATOM     60  C   UNL A   1      40.365  27.439  28.684  1.00  0.00     0.057 A 
ATOM     61  C   UNL A   1      39.838  26.169  28.352  1.00  0.00     0.134 A 
ATOM     62  C   UNL A   1      41.043  28.063  27.623  1.00  0.00     0.134 A 
ATOM     63  F   UNL A   1      39.087  25.467  29.210  1.00  0.00    -0.206 F 
ATOM     64  C   UNL A   1      40.040  25.545  27.113  1.00  0.00     0.040 A 
ATOM     65  C   UNL A   1      41.274  27.439  26.383  1.00  0.00     0.040 A 
ATOM     66  F   UNL A   1      41.471  29.327  27.703  1.00  0.00    -0.206 F 
ATOM     67  C   UNL A   1      40.778  26.171  26.126  1.00  0.00     0.006 A 
ENDBRANCH  46  60
BRANCH  47  68
ATOM     68  C   UNL A   1      39.652  33.420  36.347  1.00  0.00     0.057 A 
ATOM     69  C   UNL A   1      38.664  32.461  36.631  1.00  0.00     0.134 A 
ATOM     70  C   UNL A   1      39.843  34.447  37.272  1.00  0.00     0.134 A 
ATOM     71  F   UNL A   1      38.348  31.528  35.720  1.00  0.00    -0.206 F 
ATOM     72  C   UNL A   1      38.142  32.329  37.915  1.00  0.00     0.040 A 
ATOM     73  C   UNL A   1      39.366  34.294  38.568  1.00  0.00     0.040 A 
ATOM     74  F   UNL A   1      40.660  35.476  37.014  1.00  0.00    -0.206 F 
ATOM     75  C   UNL A   1      38.579  33.190  38.909  1.00  0.00     0.006 A 
ENDBRANCH  47  68
BRANCH  59  76
ATOM     76  C   UNL A   1      42.916  27.165  34.919  1.00  0.00     0.057 A 
ATOM     77  C   UNL A   1      42.108  26.061  35.222  1.00  0.00     0.134 A 
ATOM     78  C   UNL A   1      44.308  26.916  34.940  1.00  0.00     0.134 A 
ATOM     79  F   UNL A   1      40.776  26.101  35.083  1.00  0.00    -0.206 F 
ATOM     80  C   UNL A   1      42.642  24.835  35.626  1.00  0.00     0.040 A 
ATOM     81  C   UNL A   1      44.848  25.673  35.263  1.00  0.00     0.040 A 
ATOM     82  F   UNL A   1      45.208  27.856  34.620  1.00  0.00    -0.206 F 
ATOM     83  C   UNL A   1      44.015  24.634  35.641  1.00  0.00     0.006 A 
ENDBRANCH  59  76
ENDBRANCH  33  34
ENDBRANCH  26  28
ENDBRANCH  25  26
ENDBRANCH  24  25
ENDBRANCH   1  24
TORSDOF 15
ENDMDL
MODEL 3
REMARK VINA RESULT:     -11.9      1.452      2.113
REMARK SMILES CCC(=O)Nc1cc(NC(=O)/C=C/C(=O)OCCOC(=O)c2ccc(-c3c4nc(c(-c5c(F)cccc5F)c5ccc([nH]5)c(-c5c(F)cccc5F)c5nc(c(-c6c(F)cccc6F)c6ccc3[nH]6)C=C5)C=C4)cc2)ccc1C
REMARK SMILES IDX 17 1 16 2 14 3 15 4 13 5 12 6 10 7 9 8 11 10 8 11 6 12 7 13
REMARK SMILES IDX 78 14 77 15 79 16 76 17 5 18 3 19 4 20 2 22 1 23 18 24 19 25
REMARK SMILES IDX 20 26 21 27 22 28 23 29 75 30 24 31 74 32 25 33 26 34 27 35
REMARK SMILES IDX 68 36 28 37 73 38 67 39 69 40 29 41 72 42 66 43 65 44 30 46
REMARK SMILES IDX 56 47 39 48 55 49 40 50 43 51 54 52 70 53 41 54 42 55 53 57
REMARK SMILES IDX 71 58 44 59 31 60 32 61 37 62 33 63 34 64 36 65 38 66 35 67
REMARK SMILES IDX 57 68 58 69 63 70 59 71 60 72 62 73 64 74 61 75 45 76 46 77
REMARK SMILES IDX 51 78 47 79 48 80 50 81 52 82 49 83
REMARK H PARENT 9 9 5 21 69 45 43 56
REMARK Flexibility Score: inf
ROOT
ATOM      1  C   UNL A   1      42.954  18.226  26.224  1.00  0.00     0.275 C 
ENDROOT
BRANCH   1   2
ATOM      2  O   UNL A   1      42.409  19.468  26.690  1.00  0.00    -0.459 OA
BRANCH   2   3
ATOM      3  C   UNL A   1      41.157  19.733  26.257  1.00  0.00     0.331 C 
ATOM      4  O   UNL A   1      40.516  19.069  25.444  1.00  0.00    -0.247 OA
BRANCH   3   5
ATOM      5  C   UNL A   1      40.641  20.911  26.978  1.00  0.00     0.099 C 
ATOM      6  C   UNL A   1      39.613  21.581  26.441  1.00  0.00     0.079 C 
BRANCH   6   7
ATOM      7  C   UNL A   1      39.200  22.923  26.871  1.00  0.00     0.248 C 
ATOM      8  N   UNL A   1      38.091  23.588  26.476  1.00  0.00    -0.322 N 
ATOM      9  H   UNL A   1      38.116  24.514  26.810  1.00  0.00     0.170 HD
ATOM     10  O   UNL A   1      40.005  23.542  27.575  1.00  0.00    -0.270 OA
BRANCH   8  11
ATOM     11  C   UNL A   1      36.912  23.372  25.741  1.00  0.00     0.043 A 
ATOM     12  C   UNL A   1      34.510  23.238  25.332  1.00  0.00     0.046 A 
ATOM     13  C   UNL A   1      35.602  23.499  26.192  1.00  0.00     0.052 A 
ATOM     14  C   UNL A   1      34.731  23.113  23.955  1.00  0.00    -0.027 A 
ATOM     15  C   UNL A   1      36.040  22.950  23.503  1.00  0.00     0.008 A 
ATOM     16  C   UNL A   1      33.667  23.469  22.943  1.00  0.00     0.046 C 
ATOM     17  C   UNL A   1      37.109  23.038  24.393  1.00  0.00     0.026 A 
BRANCH  12  18
ATOM     18  N   UNL A   1      33.199  23.178  25.844  1.00  0.00    -0.326 N 
ATOM     19  C   UNL A   1      32.521  24.201  26.481  1.00  0.00     0.224 C 
ATOM     20  O   UNL A   1      31.601  23.943  27.260  1.00  0.00    -0.275 OA
ATOM     21  H   UNL A   1      32.719  22.324  25.740  1.00  0.00     0.169 HD
BRANCH  19  22
ATOM     22  C   UNL A   1      32.793  25.654  26.050  1.00  0.00     0.097 C 
ATOM     23  C   UNL A   1      31.744  26.714  26.298  1.00  0.00     0.014 C 
ENDBRANCH  19  22
ENDBRANCH  12  18
ENDBRANCH   8  11
ENDBRANCH   6   7
ENDBRANCH   3   5
ENDBRANCH   2   3
ENDBRANCH   1   2
BRANCH   1  24
ATOM     24  C   UNL A   1      44.236  18.470  25.418  1.00  0.00     0.275 C 
BRANCH  24  25
ATOM     25  O   UNL A   1      44.841  19.801  25.448  1.00  0.00    -0.458 OA
BRANCH  25  26
ATOM     26  C   UNL A   1      44.621  20.840  24.611  1.00  0.00     0.338 C 
ATOM     27  O   UNL A   1      44.517  20.712  23.396  1.00  0.00    -0.246 OA
BRANCH  26  28
ATOM     28  C   UNL A   1      44.477  22.173  25.206  1.00  0.00     0.060 A 
ATOM     29  C   UNL A   1      44.634  23.291  24.374  1.00  0.00     0.016 A 
ATOM     30  C   UNL A   1      44.145  22.322  26.540  1.00  0.00     0.016 A 
ATOM     31  C   UNL A   1      44.375  24.568  24.821  1.00  0.00     0.010 A 
ATOM     32  C   UNL A   1      43.798  23.569  26.976  1.00  0.00     0.010 A 
ATOM     33  C   UNL A   1      43.983  24.682  26.138  1.00  0.00    -0.014 A 
BRANCH  33  34
ATOM     34  C   UNL A   1      43.875  25.950  26.813  1.00  0.00     0.031 A 
ATOM     35  C   UNL A   1      42.592  26.674  26.770  1.00  0.00     0.074 A 
ATOM     36  C   UNL A   1      44.945  26.183  27.607  1.00  0.00     0.049 A 
ATOM     37  N   UNL A   1      42.449  27.927  27.021  1.00  0.00    -0.248 NA
ATOM     38  C   UNL A   1      41.333  26.047  26.355  1.00  0.00     0.031 C 
ATOM     39  C   UNL A   1      45.050  26.979  28.809  1.00  0.00     0.029 A 
ATOM     40  N   UNL A   1      46.248  25.677  27.473  1.00  0.00    -0.354 N 
ATOM     41  C   UNL A   1      41.103  28.105  27.290  1.00  0.00     0.074 A 
ATOM     42  C   UNL A   1      40.444  27.007  26.634  1.00  0.00     0.031 C 
ATOM     43  C   UNL A   1      46.356  27.171  29.085  1.00  0.00     0.029 A 
ATOM     44  C   UNL A   1      47.117  26.652  27.960  1.00  0.00     0.049 A 
ATOM     45  H   UNL A   1      46.499  24.798  27.106  1.00  0.00     0.167 HD
ATOM     46  C   UNL A   1      40.756  28.976  28.284  1.00  0.00     0.037 A 
ATOM     47  C   UNL A   1      47.923  27.407  27.143  1.00  0.00     0.037 A 
ATOM     48  C   UNL A   1      41.970  29.599  28.818  1.00  0.00     0.049 A 
ATOM     49  C   UNL A   1      47.482  28.848  27.160  1.00  0.00     0.074 A 
ATOM     50  C   UNL A   1      42.732  29.303  29.937  1.00  0.00     0.029 A 
ATOM     51  N   UNL A   1      42.771  30.377  27.990  1.00  0.00    -0.354 N 
ATOM     52  N   UNL A   1      46.251  29.220  27.376  1.00  0.00    -0.248 NA
ATOM     53  C   UNL A   1      48.398  29.968  26.993  1.00  0.00     0.031 C 
ATOM     54  C   UNL A   1      44.020  29.867  29.749  1.00  0.00     0.029 A 
ATOM     55  C   UNL A   1      44.047  30.488  28.512  1.00  0.00     0.049 A 
ATOM     56  H   UNL A   1      42.472  30.792  27.149  1.00  0.00     0.167 HD
ATOM     57  C   UNL A   1      46.208  30.581  27.484  1.00  0.00     0.074 A 
ATOM     58  C   UNL A   1      47.573  31.004  27.216  1.00  0.00     0.031 C 
ATOM     59  C   UNL A   1      45.070  31.256  27.820  1.00  0.00     0.037 A 
BRANCH  46  60
ATOM     60  C   UNL A   1      39.431  28.994  29.031  1.00  0.00     0.057 A 
ATOM     61  C   UNL A   1      38.277  29.539  28.422  1.00  0.00     0.134 A 
ATOM     62  C   UNL A   1      39.212  28.526  30.339  1.00  0.00     0.134 A 
ATOM     63  F   UNL A   1      38.277  29.953  27.149  1.00  0.00    -0.206 F 
ATOM     64  C   UNL A   1      37.047  29.681  29.079  1.00  0.00     0.040 A 
ATOM     65  C   UNL A   1      37.990  28.684  31.018  1.00  0.00     0.040 A 
ATOM     66  F   UNL A   1      40.143  27.841  31.011  1.00  0.00    -0.206 F 
ATOM     67  C   UNL A   1      36.903  29.271  30.392  1.00  0.00     0.006 A 
ENDBRANCH  46  60
BRANCH  47  68
ATOM     68  C   UNL A   1      48.375  26.697  25.909  1.00  0.00     0.057 A 
ATOM     69  C   UNL A   1      47.721  27.050  24.716  1.00  0.00     0.134 A 
ATOM     70  C   UNL A   1      49.719  26.331  25.828  1.00  0.00     0.134 A 
ATOM     71  F   UNL A   1      46.400  27.284  24.714  1.00  0.00    -0.206 F 
ATOM     72  C   UNL A   1      48.445  27.358  23.567  1.00  0.00     0.040 A 
ATOM     73  C   UNL A   1      50.454  26.683  24.703  1.00  0.00     0.040 A 
ATOM     74  F   UNL A   1      50.375  25.846  26.890  1.00  0.00    -0.206 F 
ATOM     75  C   UNL A   1      49.828  27.272  23.601  1.00  0.00     0.006 A 
ENDBRANCH  47  68
BRANCH  59  76
ATOM     76  C   UNL A   1      44.867  32.736  27.650  1.00  0.00     0.057 A 
ATOM     77  C   UNL A   1      45.292  33.692  28.582  1.00  0.00     0.134 A 
ATOM     78  C   UNL A   1      44.354  33.262  26.441  1.00  0.00     0.134 A 
ATOM     79  F   UNL A   1      45.947  33.347  29.699  1.00  0.00    -0.206 F 
ATOM     80  C   UNL A   1      45.117  35.063  28.378  1.00  0.00     0.040 A 
ATOM     81  C   UNL A   1      44.250  34.629  26.196  1.00  0.00     0.040 A 
ATOM     82  F   UNL A   1      43.957  32.476  25.430  1.00  0.00    -0.206 F 
ATOM     83  C   UNL A   1      44.602  35.537  27.180  1.00  0.00     0.006 A 
ENDBRANCH  59  76
ENDBRANCH  33  34
ENDBRANCH  26  28
ENDBRANCH  25  26
ENDBRANCH  24  25
ENDBRANCH   1  24
TORSDOF 15
ENDMDL
