MODEL 1
REMARK VINA RESULT:     -12.9      0.000      0.000
REMARK SMILES Cc1c(NC(=O)[C@@H]2CC=CC[C@@H]2C(=O)OCCOC(=O)c2ccc(-c3c4nc(c(-c5c(F)cccc5F)c5ccc([nH]5)c(-c5c(F)cccc5F)c5nc(c(-c6c(F)cccc6F)c6ccc3[nH]6)C=C5)C=C4)cc2)cccc1C(=O)N1CCOCC1
REMARK SMILES IDX 16 1 15 2 13 3 14 4 12 5 7 6 8 7 9 8 11 9 10 10 5 11 4 12
REMARK SMILES IDX 6 14 3 15 1 16 2 17 78 18 75 19 77 20 76 21 79 22 80 23
REMARK SMILES IDX 81 24 82 25 86 26 83 27 85 28 84 29 17 30 18 31 19 32 20 33
REMARK SMILES IDX 21 34 22 35 74 36 23 37 73 38 24 39 25 40 26 41 67 42 27 43
REMARK SMILES IDX 72 44 66 45 68 46 28 47 71 48 65 49 64 50 29 52 55 53 38 54
REMARK SMILES IDX 54 55 39 56 42 57 53 58 69 59 40 60 41 61 52 63 70 64 43 65
REMARK SMILES IDX 30 66 31 67 36 68 32 69 33 70 35 71 37 72 34 73 56 74 57 75
REMARK SMILES IDX 62 76 58 77 59 78 61 79 63 80 60 81 44 82 45 83 50 84 46 85
REMARK SMILES IDX 47 86 49 87 51 88 48 89
REMARK H PARENT 4 13 68 51 42 62
REMARK Flexibility Score: inf
ROOT
ATOM      1  C   UNL A   1      31.854  30.059  26.546  1.00  0.00     0.274 C 
ENDROOT
BRANCH   1   2
ATOM      2  O   UNL A   1      31.477  29.012  25.660  1.00  0.00    -0.462 OA
BRANCH   2   3
ATOM      3  C   UNL A   1      31.227  27.818  26.228  1.00  0.00     0.310 C 
ATOM      4  O   UNL A   1      31.193  27.624  27.445  1.00  0.00    -0.252 OA
BRANCH   3   5
ATOM      5  C   UNL A   1      31.094  26.695  25.228  1.00  0.00     0.116 C 
ATOM      6  C   UNL A   1      32.481  26.441  24.648  1.00  0.00     0.097 C 
ATOM      7  C   UNL A   1      33.008  27.649  23.875  1.00  0.00     0.041 C 
ATOM      8  C   UNL A   1      31.965  28.133  22.897  1.00  0.00    -0.030 C 
ATOM      9  C   UNL A   1      30.108  26.934  24.079  1.00  0.00     0.043 C 
ATOM     10  C   UNL A   1      30.670  27.782  22.972  1.00  0.00    -0.030 C 
BRANCH   6  11
ATOM     11  C   UNL A   1      33.387  25.991  25.766  1.00  0.00     0.228 C 
ATOM     12  N   UNL A   1      33.151  24.717  26.244  1.00  0.00    -0.326 N 
ATOM     13  H   UNL A   1      32.645  24.559  27.073  1.00  0.00     0.169 HD
ATOM     14  O   UNL A   1      34.204  26.724  26.318  1.00  0.00    -0.274 OA
BRANCH  12  15
ATOM     15  C   UNL A   1      33.680  23.648  25.474  1.00  0.00     0.044 A 
ATOM     16  C   UNL A   1      31.304  22.976  25.059  1.00  0.00     0.047 C 
ATOM     17  C   UNL A   1      32.778  22.761  24.842  1.00  0.00    -0.015 A 
ATOM     18  C   UNL A   1      33.311  21.672  24.118  1.00  0.00     0.045 A 
ATOM     19  C   UNL A   1      35.059  23.418  25.448  1.00  0.00     0.026 A 
ATOM     20  C   UNL A   1      34.698  21.418  24.184  1.00  0.00     0.014 A 
ATOM     21  C   UNL A   1      35.563  22.272  24.858  1.00  0.00     0.003 A 
BRANCH  18  22
ATOM     22  C   UNL A   1      32.510  20.611  23.430  1.00  0.00     0.254 C 
ATOM     23  O   UNL A   1      31.883  20.923  22.417  1.00  0.00    -0.269 OA
ATOM     24  N   UNL A   1      32.574  19.293  23.849  1.00  0.00    -0.334 N 
ATOM     25  C   UNL A   1      32.339  18.814  25.216  1.00  0.00     0.148 C 
ATOM     26  C   UNL A   1      32.479  18.264  22.823  1.00  0.00     0.148 C 
ATOM     27  C   UNL A   1      33.111  17.511  25.510  1.00  0.00     0.181 C 
ATOM     28  C   UNL A   1      33.385  17.092  23.193  1.00  0.00     0.181 C 
ATOM     29  O   UNL A   1      32.984  16.540  24.458  1.00  0.00    -0.378 OA
ENDBRANCH  18  22
ENDBRANCH  12  15
ENDBRANCH   6  11
ENDBRANCH   3   5
ENDBRANCH   2   3
ENDBRANCH   1   2
BRANCH   1  30
ATOM     30  C   UNL A   1      33.376  30.206  26.528  1.00  0.00     0.275 C 
BRANCH  30  31
ATOM     31  O   UNL A   1      34.112  30.038  27.793  1.00  0.00    -0.458 OA
BRANCH  31  32
ATOM     32  C   UNL A   1      35.071  30.785  28.408  1.00  0.00     0.338 C 
ATOM     33  O   UNL A   1      34.853  31.925  28.804  1.00  0.00    -0.246 OA
BRANCH  32  34
ATOM     34  C   UNL A   1      36.393  30.183  28.640  1.00  0.00     0.060 A 
ATOM     35  C   UNL A   1      36.663  29.402  29.786  1.00  0.00     0.016 A 
ATOM     36  C   UNL A   1      37.333  30.311  27.640  1.00  0.00     0.016 A 
ATOM     37  C   UNL A   1      37.839  28.654  29.859  1.00  0.00     0.010 A 
ATOM     38  C   UNL A   1      38.349  29.399  27.595  1.00  0.00     0.010 A 
ATOM     39  C   UNL A   1      38.658  28.634  28.732  1.00  0.00    -0.014 A 
BRANCH  39  40
ATOM     40  C   UNL A   1      40.029  28.151  28.704  1.00  0.00     0.031 A 
ATOM     41  C   UNL A   1      40.394  26.786  28.287  1.00  0.00     0.074 A 
ATOM     42  C   UNL A   1      40.886  29.163  28.991  1.00  0.00     0.049 A 
ATOM     43  N   UNL A   1      41.428  26.167  28.738  1.00  0.00    -0.248 NA
ATOM     44  C   UNL A   1      39.640  25.968  27.336  1.00  0.00     0.031 C 
ATOM     45  C   UNL A   1      42.320  29.311  28.889  1.00  0.00     0.029 A 
ATOM     46  N   UNL A   1      40.490  30.369  29.605  1.00  0.00    -0.354 N 
ATOM     47  C   UNL A   1      41.681  25.115  27.876  1.00  0.00     0.074 A 
ATOM     48  C   UNL A   1      40.463  24.928  27.133  1.00  0.00     0.031 C 
ATOM     49  C   UNL A   1      42.699  30.308  29.721  1.00  0.00     0.029 A 
ATOM     50  C   UNL A   1      41.514  30.756  30.452  1.00  0.00     0.049 A 
ATOM     51  H   UNL A   1      39.642  30.848  29.458  1.00  0.00     0.167 HD
ATOM     52  C   UNL A   1      42.968  24.688  27.727  1.00  0.00     0.037 A 
ATOM     53  C   UNL A   1      41.262  30.651  31.789  1.00  0.00     0.037 A 
ATOM     54  C   UNL A   1      43.840  25.495  28.575  1.00  0.00     0.049 A 
ATOM     55  C   UNL A   1      42.138  29.570  32.364  1.00  0.00     0.074 A 
ATOM     56  C   UNL A   1      44.569  26.640  28.300  1.00  0.00     0.029 A 
ATOM     57  N   UNL A   1      43.685  25.444  29.954  1.00  0.00    -0.354 N 
ATOM     58  N   UNL A   1      42.495  28.491  31.721  1.00  0.00    -0.248 NA
ATOM     59  C   UNL A   1      42.774  29.701  33.667  1.00  0.00     0.031 C 
ATOM     60  C   UNL A   1      44.799  27.314  29.525  1.00  0.00     0.029 A 
ATOM     61  C   UNL A   1      44.195  26.588  30.537  1.00  0.00     0.049 A 
ATOM     62  H   UNL A   1      43.270  24.699  30.446  1.00  0.00     0.167 HD
ATOM     63  C   UNL A   1      43.468  27.849  32.442  1.00  0.00     0.074 A 
ATOM     64  C   UNL A   1      43.585  28.631  33.660  1.00  0.00     0.031 C 
ATOM     65  C   UNL A   1      44.157  26.763  31.979  1.00  0.00     0.037 A 
BRANCH  52  66
ATOM     66  C   UNL A   1      43.482  23.814  26.606  1.00  0.00     0.057 A 
ATOM     67  C   UNL A   1      43.401  22.406  26.693  1.00  0.00     0.134 A 
ATOM     68  C   UNL A   1      44.046  24.290  25.411  1.00  0.00     0.134 A 
ATOM     69  F   UNL A   1      42.859  21.791  27.752  1.00  0.00    -0.206 F 
ATOM     70  C   UNL A   1      43.879  21.542  25.701  1.00  0.00     0.040 A 
ATOM     71  C   UNL A   1      44.549  23.432  24.414  1.00  0.00     0.040 A 
ATOM     72  F   UNL A   1      44.104  25.603  25.143  1.00  0.00    -0.206 F 
ATOM     73  C   UNL A   1      44.469  22.052  24.558  1.00  0.00     0.006 A 
ENDBRANCH  52  66
BRANCH  53  74
ATOM     74  C   UNL A   1      39.833  30.946  32.178  1.00  0.00     0.057 A 
ATOM     75  C   UNL A   1      39.047  29.916  32.748  1.00  0.00     0.134 A 
ATOM     76  C   UNL A   1      39.289  32.233  32.254  1.00  0.00     0.134 A 
ATOM     77  F   UNL A   1      39.480  28.643  32.720  1.00  0.00    -0.206 F 
ATOM     78  C   UNL A   1      37.855  30.160  33.443  1.00  0.00     0.040 A 
ATOM     79  C   UNL A   1      38.076  32.487  32.924  1.00  0.00     0.040 A 
ATOM     80  F   UNL A   1      39.945  33.286  31.748  1.00  0.00    -0.206 F 
ATOM     81  C   UNL A   1      37.372  31.456  33.547  1.00  0.00     0.006 A 
ENDBRANCH  53  74
BRANCH  65  82
ATOM     82  C   UNL A   1      44.974  25.819  32.823  1.00  0.00     0.057 A 
ATOM     83  C   UNL A   1      46.370  25.731  32.761  1.00  0.00     0.134 A 
ATOM     84  C   UNL A   1      44.374  25.073  33.867  1.00  0.00     0.134 A 
ATOM     85  F   UNL A   1      47.091  26.490  31.927  1.00  0.00    -0.206 F 
ATOM     86  C   UNL A   1      47.106  24.898  33.609  1.00  0.00     0.040 A 
ATOM     87  C   UNL A   1      45.108  24.306  34.771  1.00  0.00     0.040 A 
ATOM     88  F   UNL A   1      43.051  25.079  34.086  1.00  0.00    -0.206 F 
ATOM     89  C   UNL A   1      46.479  24.194  34.626  1.00  0.00     0.006 A 
ENDBRANCH  65  82
ENDBRANCH  39  40
ENDBRANCH  32  34
ENDBRANCH  31  32
ENDBRANCH  30  31
ENDBRANCH   1  30
TORSDOF 14
ENDMDL
MODEL 2
REMARK VINA RESULT:     -12.7      1.382      2.090
REMARK SMILES Cc1c(NC(=O)[C@@H]2CC=CC[C@@H]2C(=O)OCCOC(=O)c2ccc(-c3c4nc(c(-c5c(F)cccc5F)c5ccc([nH]5)c(-c5c(F)cccc5F)c5nc(c(-c6c(F)cccc6F)c6ccc3[nH]6)C=C5)C=C4)cc2)cccc1C(=O)N1CCOCC1
REMARK SMILES IDX 16 1 15 2 13 3 14 4 12 5 7 6 8 7 9 8 11 9 10 10 5 11 4 12
REMARK SMILES IDX 6 14 3 15 1 16 2 17 78 18 75 19 77 20 76 21 79 22 80 23
REMARK SMILES IDX 81 24 82 25 86 26 83 27 85 28 84 29 17 30 18 31 19 32 20 33
REMARK SMILES IDX 21 34 22 35 74 36 23 37 73 38 24 39 25 40 26 41 67 42 27 43
REMARK SMILES IDX 72 44 66 45 68 46 28 47 71 48 65 49 64 50 29 52 55 53 38 54
REMARK SMILES IDX 54 55 39 56 42 57 53 58 69 59 40 60 41 61 52 63 70 64 43 65
REMARK SMILES IDX 30 66 31 67 36 68 32 69 33 70 35 71 37 72 34 73 56 74 57 75
REMARK SMILES IDX 62 76 58 77 59 78 61 79 63 80 60 81 44 82 45 83 50 84 46 85
REMARK SMILES IDX 47 86 49 87 51 88 48 89
REMARK H PARENT 4 13 68 51 42 62
REMARK Flexibility Score: inf
ROOT
ATOM      1  C   UNL A   1      33.316  30.091  26.459  1.00  0.00     0.274 C 
ENDROOT
BRANCH   1   2
ATOM      2  O   UNL A   1      32.336  29.097  26.180  1.00  0.00    -0.462 OA
BRANCH   2   3
ATOM      3  C   UNL A   1      32.400  28.530  24.962  1.00  0.00     0.310 C 
ATOM      4  O   UNL A   1      33.088  28.959  24.033  1.00  0.00    -0.252 OA
BRANCH   3   5
ATOM      5  C   UNL A   1      31.456  27.363  24.795  1.00  0.00     0.116 C 
ATOM      6  C   UNL A   1      32.303  26.147  24.434  1.00  0.00     0.097 C 
ATOM      7  C   UNL A   1      33.014  26.322  23.094  1.00  0.00     0.041 C 
ATOM      8  C   UNL A   1      32.032  26.776  22.042  1.00  0.00    -0.030 C 
ATOM      9  C   UNL A   1      30.356  27.536  23.743  1.00  0.00     0.043 C 
ATOM     10  C   UNL A   1      30.825  27.289  22.336  1.00  0.00    -0.030 C 
BRANCH   6  11
ATOM     11  C   UNL A   1      33.233  25.858  25.585  1.00  0.00     0.228 C 
ATOM     12  N   UNL A   1      33.055  24.635  26.200  1.00  0.00    -0.326 N 
ATOM     13  H   UNL A   1      32.560  24.547  27.046  1.00  0.00     0.169 HD
ATOM     14  O   UNL A   1      34.022  26.680  26.046  1.00  0.00    -0.274 OA
BRANCH  12  15
ATOM     15  C   UNL A   1      33.624  23.511  25.544  1.00  0.00     0.044 A 
ATOM     16  C   UNL A   1      31.283  22.888  24.913  1.00  0.00     0.047 C 
ATOM     17  C   UNL A   1      32.763  22.618  24.866  1.00  0.00    -0.015 A 
ATOM     18  C   UNL A   1      33.331  21.478  24.257  1.00  0.00     0.045 A 
ATOM     19  C   UNL A   1      34.989  23.240  25.676  1.00  0.00     0.026 A 
ATOM     20  C   UNL A   1      34.694  21.188  24.483  1.00  0.00     0.014 A 
ATOM     21  C   UNL A   1      35.513  22.050  25.201  1.00  0.00     0.003 A 
BRANCH  18  22
ATOM     22  C   UNL A   1      32.570  20.405  23.542  1.00  0.00     0.254 C 
ATOM     23  O   UNL A   1      31.957  20.713  22.519  1.00  0.00    -0.269 OA
ATOM     24  N   UNL A   1      32.657  19.085  23.948  1.00  0.00    -0.334 N 
ATOM     25  C   UNL A   1      32.406  18.586  25.305  1.00  0.00     0.148 C 
ATOM     26  C   UNL A   1      32.608  18.065  22.910  1.00  0.00     0.148 C 
ATOM     27  C   UNL A   1      33.203  17.298  25.602  1.00  0.00     0.181 C 
ATOM     28  C   UNL A   1      33.535  16.912  23.286  1.00  0.00     0.181 C 
ATOM     29  O   UNL A   1      33.122  16.336  24.537  1.00  0.00    -0.378 OA
ENDBRANCH  18  22
ENDBRANCH  12  15
ENDBRANCH   6  11
ENDBRANCH   3   5
ENDBRANCH   2   3
ENDBRANCH   1   2
BRANCH   1  30
ATOM     30  C   UNL A   1      34.217  29.602  27.594  1.00  0.00     0.275 C 
BRANCH  30  31
ATOM     31  O   UNL A   1      35.463  30.339  27.867  1.00  0.00    -0.458 OA
BRANCH  31  32
ATOM     32  C   UNL A   1      36.376  30.262  28.875  1.00  0.00     0.338 C 
ATOM     33  O   UNL A   1      36.213  30.834  29.947  1.00  0.00    -0.246 OA
BRANCH  32  34
ATOM     34  C   UNL A   1      37.572  29.428  28.679  1.00  0.00     0.060 A 
ATOM     35  C   UNL A   1      38.421  29.595  27.562  1.00  0.00     0.016 A 
ATOM     36  C   UNL A   1      37.903  28.548  29.687  1.00  0.00     0.016 A 
ATOM     37  C   UNL A   1      39.663  28.961  27.529  1.00  0.00     0.010 A 
ATOM     38  C   UNL A   1      39.201  28.133  29.775  1.00  0.00     0.010 A 
ATOM     39  C   UNL A   1      40.056  28.259  28.667  1.00  0.00    -0.014 A 
BRANCH  39  40
ATOM     40  C   UNL A   1      41.166  27.322  28.729  1.00  0.00     0.031 A 
ATOM     41  C   UNL A   1      41.016  25.877  28.484  1.00  0.00     0.074 A 
ATOM     42  C   UNL A   1      42.331  27.991  28.915  1.00  0.00     0.049 A 
ATOM     43  N   UNL A   1      41.771  24.989  29.028  1.00  0.00    -0.248 NA
ATOM     44  C   UNL A   1      40.001  25.272  27.617  1.00  0.00     0.031 C 
ATOM     45  C   UNL A   1      43.722  27.608  28.829  1.00  0.00     0.029 A 
ATOM     46  N   UNL A   1      42.400  29.322  29.373  1.00  0.00    -0.354 N 
ATOM     47  C   UNL A   1      41.618  23.823  28.301  1.00  0.00     0.074 A 
ATOM     48  C   UNL A   1      40.399  23.992  27.557  1.00  0.00     0.031 C 
ATOM     49  C   UNL A   1      44.447  28.497  29.548  1.00  0.00     0.029 A 
ATOM     50  C   UNL A   1      43.512  29.418  30.193  1.00  0.00     0.049 A 
ATOM     51  H   UNL A   1      41.774  30.049  29.151  1.00  0.00     0.167 HD
ATOM     52  C   UNL A   1      42.668  22.953  28.234  1.00  0.00     0.037 A 
ATOM     53  C   UNL A   1      43.265  29.568  31.526  1.00  0.00     0.037 A 
ATOM     54  C   UNL A   1      43.785  23.493  29.002  1.00  0.00     0.049 A 
ATOM     55  C   UNL A   1      43.712  28.324  32.245  1.00  0.00     0.074 A 
ATOM     56  C   UNL A   1      44.867  24.265  28.612  1.00  0.00     0.029 A 
ATOM     57  N   UNL A   1      43.649  23.664  30.373  1.00  0.00    -0.354 N 
ATOM     58  N   UNL A   1      43.652  27.120  31.742  1.00  0.00    -0.248 NA
ATOM     59  C   UNL A   1      44.379  28.374  33.538  1.00  0.00     0.031 C 
ATOM     60  C   UNL A   1      45.345  24.953  29.754  1.00  0.00     0.029 A 
ATOM     61  C   UNL A   1      44.543  24.614  30.830  1.00  0.00     0.049 A 
ATOM     62  H   UNL A   1      43.008  23.178  30.940  1.00  0.00     0.167 HD
ATOM     63  C   UNL A   1      44.348  26.265  32.556  1.00  0.00     0.074 A 
ATOM     64  C   UNL A   1      44.759  27.093  33.677  1.00  0.00     0.031 C 
ATOM     65  C   UNL A   1      44.598  24.959  32.240  1.00  0.00     0.037 A 
BRANCH  52  66
ATOM     66  C   UNL A   1      42.816  21.827  27.236  1.00  0.00     0.057 A 
ATOM     67  C   UNL A   1      41.985  20.687  27.305  1.00  0.00     0.134 A 
ATOM     68  C   UNL A   1      43.737  21.811  26.176  1.00  0.00     0.134 A 
ATOM     69  F   UNL A   1      41.031  20.560  28.236  1.00  0.00    -0.206 F 
ATOM     70  C   UNL A   1      42.088  19.601  26.427  1.00  0.00     0.040 A 
ATOM     71  C   UNL A   1      43.865  20.717  25.298  1.00  0.00     0.040 A 
ATOM     72  F   UNL A   1      44.530  22.864  25.925  1.00  0.00    -0.206 F 
ATOM     73  C   UNL A   1      43.040  19.607  25.423  1.00  0.00     0.006 A 
ENDBRANCH  52  66
BRANCH  53  74
ATOM     74  C   UNL A   1      42.041  30.395  31.844  1.00  0.00     0.057 A 
ATOM     75  C   UNL A   1      42.003  31.752  31.443  1.00  0.00     0.134 A 
ATOM     76  C   UNL A   1      40.826  29.862  32.286  1.00  0.00     0.134 A 
ATOM     77  F   UNL A   1      43.122  32.359  31.007  1.00  0.00    -0.206 F 
ATOM     78  C   UNL A   1      40.818  32.497  31.381  1.00  0.00     0.040 A 
ATOM     79  C   UNL A   1      39.633  30.611  32.257  1.00  0.00     0.040 A 
ATOM     80  F   UNL A   1      40.743  28.587  32.691  1.00  0.00    -0.206 F 
ATOM     81  C   UNL A   1      39.621  31.920  31.774  1.00  0.00     0.006 A 
ENDBRANCH  53  74
BRANCH  65  82
ATOM     82  C   UNL A   1      45.044  23.894  33.208  1.00  0.00     0.057 A 
ATOM     83  C   UNL A   1      46.334  23.825  33.748  1.00  0.00     0.134 A 
ATOM     84  C   UNL A   1      44.114  22.983  33.765  1.00  0.00     0.134 A 
ATOM     85  F   UNL A   1      47.282  24.716  33.432  1.00  0.00    -0.206 F 
ATOM     86  C   UNL A   1      46.697  22.868  34.701  1.00  0.00     0.040 A 
ATOM     87  C   UNL A   1      44.445  22.082  34.776  1.00  0.00     0.040 A 
ATOM     88  F   UNL A   1      42.828  22.945  33.385  1.00  0.00    -0.206 F 
ATOM     89  C   UNL A   1      45.750  22.003  35.229  1.00  0.00     0.006 A 
ENDBRANCH  65  82
ENDBRANCH  39  40
ENDBRANCH  32  34
ENDBRANCH  31  32
ENDBRANCH  30  31
ENDBRANCH   1  30
TORSDOF 14
ENDMDL
MODEL 3
REMARK VINA RESULT:     -12.7      1.918      2.948
REMARK SMILES Cc1c(NC(=O)[C@@H]2CC=CC[C@@H]2C(=O)OCCOC(=O)c2ccc(-c3c4nc(c(-c5c(F)cccc5F)c5ccc([nH]5)c(-c5c(F)cccc5F)c5nc(c(-c6c(F)cccc6F)c6ccc3[nH]6)C=C5)C=C4)cc2)cccc1C(=O)N1CCOCC1
REMARK SMILES IDX 16 1 15 2 13 3 14 4 12 5 7 6 8 7 9 8 11 9 10 10 5 11 4 12
REMARK SMILES IDX 6 14 3 15 1 16 2 17 78 18 75 19 77 20 76 21 79 22 80 23
REMARK SMILES IDX 81 24 82 25 86 26 83 27 85 28 84 29 17 30 18 31 19 32 20 33
REMARK SMILES IDX 21 34 22 35 74 36 23 37 73 38 24 39 25 40 26 41 67 42 27 43
REMARK SMILES IDX 72 44 66 45 68 46 28 47 71 48 65 49 64 50 29 52 55 53 38 54
REMARK SMILES IDX 54 55 39 56 42 57 53 58 69 59 40 60 41 61 52 63 70 64 43 65
REMARK SMILES IDX 30 66 31 67 36 68 32 69 33 70 35 71 37 72 34 73 56 74 57 75
REMARK SMILES IDX 62 76 58 77 59 78 61 79 63 80 60 81 44 82 45 83 50 84 46 85
REMARK SMILES IDX 47 86 49 87 51 88 48 89
REMARK H PARENT 4 13 68 51 42 62
REMARK Flexibility Score: inf
ROOT
ATOM      1  C   UNL A   1      32.838  29.418  26.823  1.00  0.00     0.274 C 
ENDROOT
BRANCH   1   2
ATOM      2  O   UNL A   1      32.292  28.438  25.946  1.00  0.00    -0.462 OA
BRANCH   2   3
ATOM      3  C   UNL A   1      31.411  28.887  25.033  1.00  0.00     0.310 C 
ATOM      4  O   UNL A   1      30.996  30.047  24.984  1.00  0.00    -0.252 OA
BRANCH   3   5
ATOM      5  C   UNL A   1      30.885  27.802  24.125  1.00  0.00     0.116 C 
ATOM      6  C   UNL A   1      31.506  28.024  22.750  1.00  0.00     0.097 C 
ATOM      7  C   UNL A   1      31.070  29.352  22.134  1.00  0.00     0.041 C 
ATOM      8  C   UNL A   1      29.570  29.490  22.208  1.00  0.00    -0.030 C 
ATOM      9  C   UNL A   1      29.361  27.730  23.981  1.00  0.00     0.043 C 
ATOM     10  C   UNL A   1      28.802  28.736  23.013  1.00  0.00    -0.030 C 
BRANCH   6  11
ATOM     11  C   UNL A   1      33.001  27.871  22.875  1.00  0.00     0.228 C 
ATOM     12  N   UNL A   1      33.426  26.945  23.807  1.00  0.00    -0.326 N 
ATOM     13  H   UNL A   1      33.740  27.214  24.700  1.00  0.00     0.169 HD
ATOM     14  O   UNL A   1      33.810  28.589  22.293  1.00  0.00    -0.274 OA
BRANCH  12  15
ATOM     15  C   UNL A   1      33.386  25.583  23.407  1.00  0.00     0.044 A 
ATOM     16  C   UNL A   1      34.068  25.034  25.752  1.00  0.00     0.047 C 
ATOM     17  C   UNL A   1      33.683  24.589  24.367  1.00  0.00    -0.015 A 
ATOM     18  C   UNL A   1      33.688  23.240  23.949  1.00  0.00     0.045 A 
ATOM     19  C   UNL A   1      33.175  25.253  22.065  1.00  0.00     0.026 A 
ATOM     20  C   UNL A   1      33.558  22.948  22.575  1.00  0.00     0.014 A 
ATOM     21  C   UNL A   1      33.323  23.945  21.637  1.00  0.00     0.003 A 
BRANCH  18  22
ATOM     22  C   UNL A   1      34.026  22.065  24.813  1.00  0.00     0.254 C 
ATOM     23  O   UNL A   1      33.106  21.331  25.180  1.00  0.00    -0.269 OA
ATOM     24  N   UNL A   1      35.343  21.743  25.086  1.00  0.00    -0.334 N 
ATOM     25  C   UNL A   1      36.351  22.651  25.646  1.00  0.00     0.148 C 
ATOM     26  C   UNL A   1      35.672  20.329  25.203  1.00  0.00     0.148 C 
ATOM     27  C   UNL A   1      37.780  22.264  25.211  1.00  0.00     0.181 C 
ATOM     28  C   UNL A   1      37.064  20.081  24.626  1.00  0.00     0.181 C 
ATOM     29  O   UNL A   1      38.039  20.856  25.342  1.00  0.00    -0.378 OA
ENDBRANCH  18  22
ENDBRANCH  12  15
ENDBRANCH   6  11
ENDBRANCH   3   5
ENDBRANCH   2   3
ENDBRANCH   1   2
BRANCH   1  30
ATOM     30  C   UNL A   1      34.364  29.328  26.785  1.00  0.00     0.275 C 
BRANCH  30  31
ATOM     31  O   UNL A   1      35.109  29.510  28.044  1.00  0.00    -0.458 OA
BRANCH  31  32
ATOM     32  C   UNL A   1      36.299  30.106  28.332  1.00  0.00     0.338 C 
ATOM     33  O   UNL A   1      36.369  31.266  28.721  1.00  0.00    -0.246 OA
BRANCH  32  34
ATOM     34  C   UNL A   1      37.532  29.312  28.212  1.00  0.00     0.060 A 
ATOM     35  C   UNL A   1      38.476  29.555  27.190  1.00  0.00     0.016 A 
ATOM     36  C   UNL A   1      37.792  28.391  29.204  1.00  0.00     0.016 A 
ATOM     37  C   UNL A   1      39.734  28.954  27.245  1.00  0.00     0.010 A 
ATOM     38  C   UNL A   1      39.088  28.004  29.395  1.00  0.00     0.010 A 
ATOM     39  C   UNL A   1      40.039  28.206  28.381  1.00  0.00    -0.014 A 
BRANCH  39  40
ATOM     40  C   UNL A   1      41.164  27.294  28.503  1.00  0.00     0.031 A 
ATOM     41  C   UNL A   1      41.057  25.844  28.268  1.00  0.00     0.074 A 
ATOM     42  C   UNL A   1      42.305  27.991  28.734  1.00  0.00     0.049 A 
ATOM     43  N   UNL A   1      41.806  24.979  28.856  1.00  0.00    -0.248 NA
ATOM     44  C   UNL A   1      40.096  25.208  27.364  1.00  0.00     0.031 C 
ATOM     45  C   UNL A   1      43.707  27.638  28.716  1.00  0.00     0.029 A 
ATOM     46  N   UNL A   1      42.325  29.328  29.180  1.00  0.00    -0.354 N 
ATOM     47  C   UNL A   1      41.711  23.802  28.137  1.00  0.00     0.074 A 
ATOM     48  C   UNL A   1      40.524  23.936  27.337  1.00  0.00     0.031 C 
ATOM     49  C   UNL A   1      44.379  28.551  29.456  1.00  0.00     0.029 A 
ATOM     50  C   UNL A   1      43.396  29.458  30.047  1.00  0.00     0.049 A 
ATOM     51  H   UNL A   1      41.694  30.039  28.921  1.00  0.00     0.167 HD
ATOM     52  C   UNL A   1      42.781  22.955  28.128  1.00  0.00     0.037 A 
ATOM     53  C   UNL A   1      43.086  29.616  31.367  1.00  0.00     0.037 A 
ATOM     54  C   UNL A   1      43.851  23.528  28.939  1.00  0.00     0.049 A 
ATOM     55  C   UNL A   1      43.527  28.390  32.120  1.00  0.00     0.074 A 
ATOM     56  C   UNL A   1      44.932  24.319  28.589  1.00  0.00     0.029 A 
ATOM     57  N   UNL A   1      43.649  23.710  30.300  1.00  0.00    -0.354 N 
ATOM     58  N   UNL A   1      43.515  27.180  31.628  1.00  0.00    -0.248 NA
ATOM     59  C   UNL A   1      44.133  28.468  33.440  1.00  0.00     0.031 C 
ATOM     60  C   UNL A   1      45.343  25.030  29.744  1.00  0.00     0.029 A 
ATOM     61  C   UNL A   1      44.501  24.684  30.786  1.00  0.00     0.049 A 
ATOM     62  H   UNL A   1      42.993  23.216  30.843  1.00  0.00     0.167 HD
ATOM     63  C   UNL A   1      44.192  26.349  32.482  1.00  0.00     0.074 A 
ATOM     64  C   UNL A   1      44.533  27.198  33.611  1.00  0.00     0.031 C 
ATOM     65  C   UNL A   1      44.484  25.046  32.193  1.00  0.00     0.037 A 
BRANCH  52  66
ATOM     66  C   UNL A   1      42.999  21.822  27.151  1.00  0.00     0.057 A 
ATOM     67  C   UNL A   1      42.208  20.653  27.212  1.00  0.00     0.134 A 
ATOM     68  C   UNL A   1      43.951  21.825  26.117  1.00  0.00     0.134 A 
ATOM     69  F   UNL A   1      41.233  20.504  28.117  1.00  0.00    -0.206 F 
ATOM     70  C   UNL A   1      42.376  19.561  26.353  1.00  0.00     0.040 A 
ATOM     71  C   UNL A   1      44.143  20.726  25.259  1.00  0.00     0.040 A 
ATOM     72  F   UNL A   1      44.711  22.904  25.874  1.00  0.00    -0.206 F 
ATOM     73  C   UNL A   1      43.355  19.587  25.376  1.00  0.00     0.006 A 
ENDBRANCH  52  66
BRANCH  53  74
ATOM     74  C   UNL A   1      41.831  30.419  31.620  1.00  0.00     0.057 A 
ATOM     75  C   UNL A   1      41.804  31.787  31.257  1.00  0.00     0.134 A 
ATOM     76  C   UNL A   1      40.594  29.859  31.956  1.00  0.00     0.134 A 
ATOM     77  F   UNL A   1      42.943  32.420  30.923  1.00  0.00    -0.206 F 
ATOM     78  C   UNL A   1      40.617  32.521  31.132  1.00  0.00     0.040 A 
ATOM     79  C   UNL A   1      39.397  30.595  31.862  1.00  0.00     0.040 A 
ATOM     80  F   UNL A   1      40.499  28.572  32.315  1.00  0.00    -0.206 F 
ATOM     81  C   UNL A   1      39.401  31.918  31.420  1.00  0.00     0.006 A 
ENDBRANCH  53  74
BRANCH  65  82
ATOM     82  C   UNL A   1      44.909  24.000  33.193  1.00  0.00     0.057 A 
ATOM     83  C   UNL A   1      44.082  22.955  33.622  1.00  0.00     0.134 A 
ATOM     84  C   UNL A   1      46.252  23.919  33.633  1.00  0.00     0.134 A 
ATOM     85  F   UNL A   1      42.830  22.812  33.172  1.00  0.00    -0.206 F 
ATOM     86  C   UNL A   1      44.529  21.958  34.495  1.00  0.00     0.040 A 
ATOM     87  C   UNL A   1      46.728  22.882  34.434  1.00  0.00     0.040 A 
ATOM     88  F   UNL A   1      47.180  24.821  33.279  1.00  0.00    -0.206 F 
ATOM     89  C   UNL A   1      45.857  21.910  34.892  1.00  0.00     0.006 A 
ENDBRANCH  65  82
ENDBRANCH  39  40
ENDBRANCH  32  34
ENDBRANCH  31  32
ENDBRANCH  30  31
ENDBRANCH   1  30
TORSDOF 14
ENDMDL
