MODEL 1
REMARK VINA RESULT:     -11.0      0.000      0.000
REMARK SMILES CCCc1cc(OC(F)(F)F)cc2c1O[C@@H](C(F)(F)F)C(C(=O)OCCOC(=O)c1ccc(-c3c4nc(c(-c5c(F)cccc5F)c5ccc([nH]5)c(-c5c(F)cccc5F)c5nc(c(-c6c(F)cccc6F)c6ccc3[nH]6)C=C5)C=C4)cc1)=C2
REMARK SMILES IDX 25 1 24 2 22 3 23 4 21 5 4 6 5 7 14 8 6 9 13 10 15 11 12 12
REMARK SMILES IDX 84 13 16 14 3 15 2 16 1 17 7 18 8 19 9 20 10 21 11 22 17 23
REMARK SMILES IDX 18 24 19 25 20 26 26 27 27 28 28 29 29 30 30 31 31 32 83 33
REMARK SMILES IDX 32 34 82 35 33 36 34 37 35 38 76 39 36 40 81 41 75 42 77 43
REMARK SMILES IDX 37 44 80 45 74 46 73 47 38 49 64 50 47 51 63 52 48 53 51 54
REMARK SMILES IDX 62 55 78 56 49 57 50 58 61 60 79 61 52 62 39 63 40 64 45 65
REMARK SMILES IDX 41 66 42 67 44 68 46 69 43 70 65 71 66 72 71 73 67 74 68 75
REMARK SMILES IDX 70 76 72 77 69 78 53 79 54 80 59 81 55 82 56 83 58 84 60 85
REMARK SMILES IDX 57 86
REMARK H PARENT 77 48 51 59
REMARK Flexibility Score: inf
ROOT
ATOM      1  C   UNL A   1      34.387  33.571  30.135  1.00  0.00     0.275 C 
ENDROOT
BRANCH   1   2
ATOM      2  O   UNL A   1      34.427  32.253  29.551  1.00  0.00    -0.459 OA
BRANCH   2   3
ATOM      3  C   UNL A   1      34.781  32.203  28.246  1.00  0.00     0.338 C 
ATOM      4  O   UNL A   1      35.465  33.009  27.639  1.00  0.00    -0.246 OA
BRANCH   3   5
ATOM      5  C   UNL A   1      34.267  30.975  27.621  1.00  0.00     0.087 C 
ATOM      6  C   UNL A   1      33.248  27.481  25.559  1.00  0.00    -0.002 A 
ATOM      7  C   UNL A   1      32.095  27.481  24.750  1.00  0.00     0.054 A 
ATOM      8  C   UNL A   1      33.596  28.664  26.226  1.00  0.00     0.131 A 
ATOM      9  C   UNL A   1      31.305  28.626  24.622  1.00  0.00     0.130 A 
ATOM     10  C   UNL A   1      32.815  29.821  26.107  1.00  0.00     0.021 A 
ATOM     11  O   UNL A   1      34.750  28.646  26.955  1.00  0.00    -0.475 OA
ATOM     12  C   UNL A   1      31.665  29.790  25.313  1.00  0.00     0.058 A 
ATOM     13  C   UNL A   1      33.239  31.056  26.764  1.00  0.00     0.027 C 
ATOM     14  C   UNL A   1      34.934  29.670  27.956  1.00  0.00     0.316 C 
BRANCH   6  15
ATOM     15  C   UNL A   1      34.022  26.191  25.749  1.00  0.00     0.039 C 
BRANCH  15  16
ATOM     16  C   UNL A   1      33.315  24.892  25.340  1.00  0.00     0.001 C 
ATOM     17  C   UNL A   1      33.855  24.247  24.071  1.00  0.00     0.004 C 
ENDBRANCH  15  16
ENDBRANCH   6  15
BRANCH   9  18
ATOM     18  O   UNL A   1      30.165  28.745  23.877  1.00  0.00    -0.406 OA
BRANCH  18  19
ATOM     19  C   UNL A   1      30.290  28.721  22.465  1.00  0.00     0.573 C 
ATOM     20  F   UNL A   1      30.357  27.456  22.001  1.00  0.00    -0.132 F 
ATOM     21  F   UNL A   1      29.262  29.366  21.874  1.00  0.00    -0.132 F 
ATOM     22  F   UNL A   1      31.435  29.354  22.122  1.00  0.00    -0.132 F 
ENDBRANCH  18  19
ENDBRANCH   9  18
BRANCH  14  23
ATOM     23  C   UNL A   1      36.430  29.726  28.312  1.00  0.00     0.430 C 
ATOM     24  F   UNL A   1      36.619  29.806  29.650  1.00  0.00    -0.167 F 
ATOM     25  F   UNL A   1      37.056  28.586  27.916  1.00  0.00    -0.167 F 
ATOM     26  F   UNL A   1      37.072  30.756  27.724  1.00  0.00    -0.167 F 
ENDBRANCH  14  23
ENDBRANCH   3   5
ENDBRANCH   2   3
ENDBRANCH   1   2
BRANCH   1  27
ATOM     27  C   UNL A   1      34.699  33.507  31.632  1.00  0.00     0.275 C 
BRANCH  27  28
ATOM     28  O   UNL A   1      35.231  32.214  31.987  1.00  0.00    -0.458 OA
BRANCH  28  29
ATOM     29  C   UNL A   1      36.251  32.251  32.877  1.00  0.00     0.338 C 
ATOM     30  O   UNL A   1      36.169  32.476  34.074  1.00  0.00    -0.246 OA
BRANCH  29  31
ATOM     31  C   UNL A   1      37.511  31.810  32.245  1.00  0.00     0.060 A 
ATOM     32  C   UNL A   1      37.737  32.245  30.935  1.00  0.00     0.016 A 
ATOM     33  C   UNL A   1      38.433  30.966  32.871  1.00  0.00     0.016 A 
ATOM     34  C   UNL A   1      38.900  31.891  30.262  1.00  0.00     0.010 A 
ATOM     35  C   UNL A   1      39.574  30.550  32.166  1.00  0.00     0.010 A 
ATOM     36  C   UNL A   1      39.806  31.007  30.858  1.00  0.00    -0.014 A 
BRANCH  36  37
ATOM     37  C   UNL A   1      40.876  30.437  30.006  1.00  0.00     0.031 A 
ATOM     38  C   UNL A   1      42.082  31.284  29.712  1.00  0.00     0.074 A 
ATOM     39  C   UNL A   1      40.831  29.159  29.590  1.00  0.00     0.049 A 
ATOM     40  N   UNL A   1      43.177  30.977  29.066  1.00  0.00    -0.248 NA
ATOM     41  C   UNL A   1      42.059  32.657  30.245  1.00  0.00     0.031 C 
ATOM     42  C   UNL A   1      39.760  28.209  29.883  1.00  0.00     0.029 A 
ATOM     43  N   UNL A   1      41.729  28.439  28.843  1.00  0.00    -0.354 N 
ATOM     44  C   UNL A   1      43.982  32.107  29.134  1.00  0.00     0.074 A 
ATOM     45  C   UNL A   1      43.243  33.113  29.865  1.00  0.00     0.031 C 
ATOM     46  C   UNL A   1      40.059  27.029  29.310  1.00  0.00     0.029 A 
ATOM     47  C   UNL A   1      41.331  27.148  28.597  1.00  0.00     0.049 A 
ATOM     48  H   UNL A   1      42.579  28.811  28.515  1.00  0.00     0.167 HD
ATOM     49  C   UNL A   1      45.226  32.291  28.634  1.00  0.00     0.037 A 
ATOM     50  C   UNL A   1      41.923  26.180  27.870  1.00  0.00     0.037 A 
ATOM     51  C   UNL A   1      45.944  31.313  27.864  1.00  0.00     0.049 A 
ATOM     52  C   UNL A   1      43.255  26.452  27.219  1.00  0.00     0.074 A 
ATOM     53  C   UNL A   1      47.187  31.427  27.267  1.00  0.00     0.029 A 
ATOM     54  N   UNL A   1      45.475  30.042  27.575  1.00  0.00    -0.354 N 
ATOM     55  N   UNL A   1      44.009  27.523  27.289  1.00  0.00    -0.248 NA
ATOM     56  C   UNL A   1      43.821  25.377  26.390  1.00  0.00     0.031 C 
ATOM     57  C   UNL A   1      47.451  30.238  26.579  1.00  0.00     0.029 A 
ATOM     58  C   UNL A   1      46.393  29.367  26.789  1.00  0.00     0.049 A 
ATOM     59  H   UNL A   1      44.615  29.672  27.882  1.00  0.00     0.167 HD
ATOM     60  C   UNL A   1      45.149  27.237  26.545  1.00  0.00     0.074 A 
ATOM     61  C   UNL A   1      44.991  25.891  26.037  1.00  0.00     0.031 C 
ATOM     62  C   UNL A   1      46.230  28.020  26.307  1.00  0.00     0.037 A 
BRANCH  49  63
ATOM     63  C   UNL A   1      45.858  33.629  28.868  1.00  0.00     0.057 A 
ATOM     64  C   UNL A   1      46.701  33.864  29.962  1.00  0.00     0.134 A 
ATOM     65  C   UNL A   1      45.619  34.693  27.992  1.00  0.00     0.134 A 
ATOM     66  F   UNL A   1      46.950  32.889  30.850  1.00  0.00    -0.206 F 
ATOM     67  C   UNL A   1      47.268  35.118  30.187  1.00  0.00     0.040 A 
ATOM     68  C   UNL A   1      46.197  35.947  28.195  1.00  0.00     0.040 A 
ATOM     69  F   UNL A   1      44.818  34.533  26.927  1.00  0.00    -0.206 F 
ATOM     70  C   UNL A   1      47.020  36.164  29.299  1.00  0.00     0.006 A 
ENDBRANCH  49  63
BRANCH  50  71
ATOM     71  C   UNL A   1      41.259  24.864  27.692  1.00  0.00     0.057 A 
ATOM     72  C   UNL A   1      41.696  23.725  28.377  1.00  0.00     0.134 A 
ATOM     73  C   UNL A   1      40.203  24.705  26.786  1.00  0.00     0.134 A 
ATOM     74  F   UNL A   1      42.723  23.807  29.236  1.00  0.00    -0.206 F 
ATOM     75  C   UNL A   1      41.121  22.473  28.155  1.00  0.00     0.040 A 
ATOM     76  C   UNL A   1      39.602  23.464  26.572  1.00  0.00     0.040 A 
ATOM     77  F   UNL A   1      39.743  25.756  26.090  1.00  0.00    -0.206 F 
ATOM     78  C   UNL A   1      40.069  22.340  27.252  1.00  0.00     0.006 A 
ENDBRANCH  50  71
BRANCH  62  79
ATOM     79  C   UNL A   1      47.350  27.425  25.505  1.00  0.00     0.057 A 
ATOM     80  C   UNL A   1      47.426  27.568  24.114  1.00  0.00     0.134 A 
ATOM     81  C   UNL A   1      48.395  26.742  26.142  1.00  0.00     0.134 A 
ATOM     82  F   UNL A   1      46.453  28.203  23.442  1.00  0.00    -0.206 F 
ATOM     83  C   UNL A   1      48.488  27.034  23.382  1.00  0.00     0.040 A 
ATOM     84  C   UNL A   1      49.474  26.226  25.425  1.00  0.00     0.040 A 
ATOM     85  F   UNL A   1      48.390  26.579  27.474  1.00  0.00    -0.206 F 
ATOM     86  C   UNL A   1      49.521  26.367  24.040  1.00  0.00     0.006 A 
ENDBRANCH  62  79
ENDBRANCH  36  37
ENDBRANCH  29  31
ENDBRANCH  28  29
ENDBRANCH  27  28
ENDBRANCH   1  27
TORSDOF 16
ENDMDL
MODEL 2
REMARK VINA RESULT:     -11.0      2.654      7.960
REMARK SMILES CCCc1cc(OC(F)(F)F)cc2c1O[C@@H](C(F)(F)F)C(C(=O)OCCOC(=O)c1ccc(-c3c4nc(c(-c5c(F)cccc5F)c5ccc([nH]5)c(-c5c(F)cccc5F)c5nc(c(-c6c(F)cccc6F)c6ccc3[nH]6)C=C5)C=C4)cc1)=C2
REMARK SMILES IDX 25 1 24 2 22 3 23 4 21 5 4 6 5 7 14 8 6 9 13 10 15 11 12 12
REMARK SMILES IDX 84 13 16 14 3 15 2 16 1 17 7 18 8 19 9 20 10 21 11 22 17 23
REMARK SMILES IDX 18 24 19 25 20 26 26 27 27 28 28 29 29 30 30 31 31 32 83 33
REMARK SMILES IDX 32 34 82 35 33 36 34 37 35 38 76 39 36 40 81 41 75 42 77 43
REMARK SMILES IDX 37 44 80 45 74 46 73 47 38 49 64 50 47 51 63 52 48 53 51 54
REMARK SMILES IDX 62 55 78 56 49 57 50 58 61 60 79 61 52 62 39 63 40 64 45 65
REMARK SMILES IDX 41 66 42 67 44 68 46 69 43 70 65 71 66 72 71 73 67 74 68 75
REMARK SMILES IDX 70 76 72 77 69 78 53 79 54 80 59 81 55 82 56 83 58 84 60 85
REMARK SMILES IDX 57 86
REMARK H PARENT 77 48 51 59
REMARK Flexibility Score: inf
ROOT
ATOM      1  C   UNL A   1      35.966  20.677  24.869  1.00  0.00     0.275 C 
ENDROOT
BRANCH   1   2
ATOM      2  O   UNL A   1      35.876  22.057  25.280  1.00  0.00    -0.459 OA
BRANCH   2   3
ATOM      3  C   UNL A   1      35.519  22.931  24.312  1.00  0.00     0.338 C 
ATOM      4  O   UNL A   1      35.973  23.004  23.183  1.00  0.00    -0.246 OA
BRANCH   3   5
ATOM      5  C   UNL A   1      34.426  23.797  24.781  1.00  0.00     0.087 C 
ATOM      6  C   UNL A   1      31.212  26.344  25.604  1.00  0.00    -0.002 A 
ATOM      7  C   UNL A   1      31.455  27.543  26.301  1.00  0.00     0.054 A 
ATOM      8  C   UNL A   1      32.299  25.509  25.310  1.00  0.00     0.131 A 
ATOM      9  C   UNL A   1      32.747  27.892  26.705  1.00  0.00     0.130 A 
ATOM     10  C   UNL A   1      33.599  25.845  25.707  1.00  0.00     0.021 A 
ATOM     11  O   UNL A   1      32.035  24.384  24.583  1.00  0.00    -0.475 OA
ATOM     12  C   UNL A   1      33.813  27.031  26.414  1.00  0.00     0.058 A 
ATOM     13  C   UNL A   1      34.720  24.985  25.330  1.00  0.00     0.027 C 
ATOM     14  C   UNL A   1      33.012  23.321  24.604  1.00  0.00     0.316 C 
BRANCH   6  15
ATOM     15  C   UNL A   1      29.784  25.955  25.271  1.00  0.00     0.039 C 
BRANCH  15  16
ATOM     16  C   UNL A   1      29.273  26.327  23.873  1.00  0.00     0.001 C 
ATOM     17  C   UNL A   1      29.636  27.734  23.417  1.00  0.00     0.004 C 
ENDBRANCH  15  16
ENDBRANCH   6  15
BRANCH   9  18
ATOM     18  O   UNL A   1      33.104  29.019  27.391  1.00  0.00    -0.406 OA
BRANCH  18  19
ATOM     19  C   UNL A   1      33.005  30.263  26.719  1.00  0.00     0.573 C 
ATOM     20  F   UNL A   1      31.763  30.778  26.823  1.00  0.00    -0.132 F 
ATOM     21  F   UNL A   1      33.904  31.149  27.200  1.00  0.00    -0.132 F 
ATOM     22  F   UNL A   1      33.271  30.068  25.408  1.00  0.00    -0.132 F 
ENDBRANCH  18  19
ENDBRANCH   9  18
BRANCH  14  23
ATOM     23  C   UNL A   1      32.735  22.395  23.407  1.00  0.00     0.430 C 
ATOM     24  F   UNL A   1      33.159  21.132  23.648  1.00  0.00    -0.167 F 
ATOM     25  F   UNL A   1      31.398  22.301  23.178  1.00  0.00    -0.167 F 
ATOM     26  F   UNL A   1      33.304  22.830  22.264  1.00  0.00    -0.167 F 
ENDBRANCH  14  23
ENDBRANCH   3   5
ENDBRANCH   2   3
ENDBRANCH   1   2
BRANCH   1  27
ATOM     27  C   UNL A   1      37.404  20.168  25.001  1.00  0.00     0.275 C 
BRANCH  27  28
ATOM     28  O   UNL A   1      38.320  21.267  25.179  1.00  0.00    -0.458 OA
BRANCH  28  29
ATOM     29  C   UNL A   1      39.364  21.001  25.998  1.00  0.00     0.338 C 
ATOM     30  O   UNL A   1      39.934  19.930  26.132  1.00  0.00    -0.246 OA
BRANCH  29  31
ATOM     31  C   UNL A   1      39.868  22.242  26.620  1.00  0.00     0.060 A 
ATOM     32  C   UNL A   1      39.342  23.443  26.132  1.00  0.00     0.016 A 
ATOM     33  C   UNL A   1      40.851  22.263  27.614  1.00  0.00     0.016 A 
ATOM     34  C   UNL A   1      39.746  24.662  26.663  1.00  0.00     0.010 A 
ATOM     35  C   UNL A   1      41.312  23.496  28.101  1.00  0.00     0.010 A 
ATOM     36  C   UNL A   1      40.764  24.699  27.622  1.00  0.00    -0.014 A 
BRANCH  36  37
ATOM     37  C   UNL A   1      41.359  26.016  27.949  1.00  0.00     0.031 A 
ATOM     38  C   UNL A   1      42.756  26.306  27.474  1.00  0.00     0.074 A 
ATOM     39  C   UNL A   1      40.641  26.974  28.559  1.00  0.00     0.049 A 
ATOM     40  N   UNL A   1      43.452  27.408  27.564  1.00  0.00    -0.248 NA
ATOM     41  C   UNL A   1      43.448  25.207  26.778  1.00  0.00     0.031 C 
ATOM     42  C   UNL A   1      39.250  26.849  28.989  1.00  0.00     0.029 A 
ATOM     43  N   UNL A   1      40.989  28.257  28.904  1.00  0.00    -0.354 N 
ATOM     44  C   UNL A   1      44.654  27.146  26.918  1.00  0.00     0.074 A 
ATOM     45  C   UNL A   1      44.601  25.775  26.458  1.00  0.00     0.031 C 
ATOM     46  C   UNL A   1      38.865  28.007  29.553  1.00  0.00     0.029 A 
ATOM     47  C   UNL A   1      39.985  28.947  29.539  1.00  0.00     0.049 A 
ATOM     48  H   UNL A   1      41.873  28.646  28.714  1.00  0.00     0.167 HD
ATOM     49  C   UNL A   1      45.708  27.972  26.722  1.00  0.00     0.037 A 
ATOM     50  C   UNL A   1      39.981  30.191  30.057  1.00  0.00     0.037 A 
ATOM     51  C   UNL A   1      45.786  29.318  27.219  1.00  0.00     0.049 A 
ATOM     52  C   UNL A   1      41.214  31.050  29.933  1.00  0.00     0.074 A 
ATOM     53  C   UNL A   1      46.836  30.215  27.120  1.00  0.00     0.029 A 
ATOM     54  N   UNL A   1      44.777  29.957  27.921  1.00  0.00    -0.354 N 
ATOM     55  N   UNL A   1      42.346  30.794  29.320  1.00  0.00    -0.248 NA
ATOM     56  C   UNL A   1      41.167  32.375  30.572  1.00  0.00     0.031 C 
ATOM     57  C   UNL A   1      46.477  31.383  27.802  1.00  0.00     0.029 A 
ATOM     58  C   UNL A   1      45.186  31.230  28.282  1.00  0.00     0.049 A 
ATOM     59  H   UNL A   1      43.899  29.564  28.134  1.00  0.00     0.167 HD
ATOM     60  C   UNL A   1      43.127  31.935  29.469  1.00  0.00     0.074 A 
ATOM     61  C   UNL A   1      42.340  32.886  30.225  1.00  0.00     0.031 C 
ATOM     62  C   UNL A   1      44.383  32.172  29.017  1.00  0.00     0.037 A 
BRANCH  49  63
ATOM     63  C   UNL A   1      46.880  27.410  25.978  1.00  0.00     0.057 A 
ATOM     64  C   UNL A   1      47.912  26.728  26.636  1.00  0.00     0.134 A 
ATOM     65  C   UNL A   1      46.979  27.553  24.590  1.00  0.00     0.134 A 
ATOM     66  F   UNL A   1      47.885  26.577  27.970  1.00  0.00    -0.206 F 
ATOM     67  C   UNL A   1      49.012  26.227  25.940  1.00  0.00     0.040 A 
ATOM     68  C   UNL A   1      48.065  27.039  23.880  1.00  0.00     0.040 A 
ATOM     69  F   UNL A   1      46.025  28.200  23.902  1.00  0.00    -0.206 F 
ATOM     70  C   UNL A   1      49.088  26.378  24.557  1.00  0.00     0.006 A 
ENDBRANCH  49  63
BRANCH  50  71
ATOM     71  C   UNL A   1      38.781  30.704  30.765  1.00  0.00     0.057 A 
ATOM     72  C   UNL A   1      38.574  30.459  32.127  1.00  0.00     0.134 A 
ATOM     73  C   UNL A   1      37.785  31.409  30.078  1.00  0.00     0.134 A 
ATOM     74  F   UNL A   1      39.478  29.763  32.832  1.00  0.00    -0.206 F 
ATOM     75  C   UNL A   1      37.412  30.877  32.777  1.00  0.00     0.040 A 
ATOM     76  C   UNL A   1      36.629  31.855  30.721  1.00  0.00     0.040 A 
ATOM     77  F   UNL A   1      37.918  31.670  28.769  1.00  0.00    -0.206 F 
ATOM     78  C   UNL A   1      36.436  31.580  32.073  1.00  0.00     0.006 A 
ENDBRANCH  50  71
BRANCH  62  79
ATOM     79  C   UNL A   1      44.967  33.529  29.282  1.00  0.00     0.057 A 
ATOM     80  C   UNL A   1      45.751  33.794  30.411  1.00  0.00     0.134 A 
ATOM     81  C   UNL A   1      44.782  34.572  28.364  1.00  0.00     0.134 A 
ATOM     82  F   UNL A   1      45.959  32.841  31.334  1.00  0.00    -0.206 F 
ATOM     83  C   UNL A   1      46.312  35.053  30.631  1.00  0.00     0.040 A 
ATOM     84  C   UNL A   1      45.359  35.828  28.560  1.00  0.00     0.040 A 
ATOM     85  F   UNL A   1      44.051  34.383  27.256  1.00  0.00    -0.206 F 
ATOM     86  C   UNL A   1      46.122  36.073  29.699  1.00  0.00     0.006 A 
ENDBRANCH  62  79
ENDBRANCH  36  37
ENDBRANCH  29  31
ENDBRANCH  28  29
ENDBRANCH  27  28
ENDBRANCH   1  27
TORSDOF 16
ENDMDL
MODEL 3
REMARK VINA RESULT:     -10.9      4.026      7.276
REMARK SMILES CCCc1cc(OC(F)(F)F)cc2c1O[C@@H](C(F)(F)F)C(C(=O)OCCOC(=O)c1ccc(-c3c4nc(c(-c5c(F)cccc5F)c5ccc([nH]5)c(-c5c(F)cccc5F)c5nc(c(-c6c(F)cccc6F)c6ccc3[nH]6)C=C5)C=C4)cc1)=C2
REMARK SMILES IDX 25 1 24 2 22 3 23 4 21 5 4 6 5 7 14 8 6 9 13 10 15 11 12 12
REMARK SMILES IDX 84 13 16 14 3 15 2 16 1 17 7 18 8 19 9 20 10 21 11 22 17 23
REMARK SMILES IDX 18 24 19 25 20 26 26 27 27 28 28 29 29 30 30 31 31 32 83 33
REMARK SMILES IDX 32 34 82 35 33 36 34 37 35 38 76 39 36 40 81 41 75 42 77 43
REMARK SMILES IDX 37 44 80 45 74 46 73 47 38 49 64 50 47 51 63 52 48 53 51 54
REMARK SMILES IDX 62 55 78 56 49 57 50 58 61 60 79 61 52 62 39 63 40 64 45 65
REMARK SMILES IDX 41 66 42 67 44 68 46 69 43 70 65 71 66 72 71 73 67 74 68 75
REMARK SMILES IDX 70 76 72 77 69 78 53 79 54 80 59 81 55 82 56 83 58 84 60 85
REMARK SMILES IDX 57 86
REMARK H PARENT 77 48 51 59
REMARK Flexibility Score: inf
ROOT
ATOM      1  C   UNL A   1      32.524  29.686  25.025  1.00  0.00     0.275 C 
ENDROOT
BRANCH   1   2
ATOM      2  O   UNL A   1      32.391  28.321  25.472  1.00  0.00    -0.459 OA
BRANCH   2   3
ATOM      3  C   UNL A   1      32.089  27.419  24.511  1.00  0.00     0.338 C 
ATOM      4  O   UNL A   1      31.452  27.617  23.490  1.00  0.00    -0.246 OA
BRANCH   3   5
ATOM      5  C   UNL A   1      32.692  26.114  24.823  1.00  0.00     0.087 C 
ATOM      6  C   UNL A   1      34.245  22.484  26.206  1.00  0.00    -0.002 A 
ATOM      7  C   UNL A   1      35.633  22.264  26.127  1.00  0.00     0.054 A 
ATOM      8  C   UNL A   1      33.736  23.714  25.764  1.00  0.00     0.131 A 
ATOM      9  C   UNL A   1      36.488  23.241  25.608  1.00  0.00     0.130 A 
ATOM     10  C   UNL A   1      34.580  24.703  25.243  1.00  0.00     0.021 A 
ATOM     11  O   UNL A   1      32.394  23.915  25.908  1.00  0.00    -0.475 OA
ATOM     12  C   UNL A   1      35.953  24.453  25.157  1.00  0.00     0.058 A 
ATOM     13  C   UNL A   1      34.027  25.997  24.849  1.00  0.00     0.027 C 
ATOM     14  C   UNL A   1      31.778  24.959  25.123  1.00  0.00     0.316 C 
BRANCH   6  15
ATOM     15  C   UNL A   1      33.341  21.363  26.683  1.00  0.00     0.039 C 
BRANCH  15  16
ATOM     16  C   UNL A   1      33.167  20.165  25.739  1.00  0.00     0.001 C 
ATOM     17  C   UNL A   1      32.850  20.533  24.296  1.00  0.00     0.004 C 
ENDBRANCH  15  16
ENDBRANCH   6  15
BRANCH   9  18
ATOM     18  O   UNL A   1      37.845  23.140  25.474  1.00  0.00    -0.406 OA
BRANCH  18  19
ATOM     19  C   UNL A   1      38.655  23.686  26.502  1.00  0.00     0.573 C 
ATOM     20  F   UNL A   1      37.909  24.085  27.552  1.00  0.00    -0.132 F 
ATOM     21  F   UNL A   1      39.581  22.795  26.916  1.00  0.00    -0.132 F 
ATOM     22  F   UNL A   1      39.304  24.766  26.012  1.00  0.00    -0.132 F 
ENDBRANCH  18  19
ENDBRANCH   9  18
BRANCH  14  23
ATOM     23  C   UNL A   1      30.418  25.296  25.760  1.00  0.00     0.430 C 
ATOM     24  F   UNL A   1      29.937  24.255  26.480  1.00  0.00    -0.167 F 
ATOM     25  F   UNL A   1      30.546  26.327  26.637  1.00  0.00    -0.167 F 
ATOM     26  F   UNL A   1      29.489  25.659  24.852  1.00  0.00    -0.167 F 
ENDBRANCH  14  23
ENDBRANCH   3   5
ENDBRANCH   2   3
ENDBRANCH   1   2
BRANCH   1  27
ATOM     27  C   UNL A   1      31.803  30.639  25.981  1.00  0.00     0.275 C 
BRANCH  27  28
ATOM     28  O   UNL A   1      32.483  30.699  27.251  1.00  0.00    -0.458 OA
BRANCH  28  29
ATOM     29  C   UNL A   1      33.243  31.804  27.430  1.00  0.00     0.338 C 
ATOM     30  O   UNL A   1      32.872  32.966  27.365  1.00  0.00    -0.246 OA
BRANCH  29  31
ATOM     31  C   UNL A   1      34.596  31.437  27.894  1.00  0.00     0.060 A 
ATOM     32  C   UNL A   1      34.783  30.106  28.280  1.00  0.00     0.016 A 
ATOM     33  C   UNL A   1      35.650  32.350  28.001  1.00  0.00     0.016 A 
ATOM     34  C   UNL A   1      36.025  29.663  28.720  1.00  0.00     0.010 A 
ATOM     35  C   UNL A   1      36.884  31.921  28.513  1.00  0.00     0.010 A 
ATOM     36  C   UNL A   1      37.072  30.577  28.879  1.00  0.00    -0.014 A 
BRANCH  36  37
ATOM     37  C   UNL A   1      38.278  30.126  29.612  1.00  0.00     0.031 A 
ATOM     38  C   UNL A   1      38.488  30.624  31.015  1.00  0.00     0.074 A 
ATOM     39  C   UNL A   1      39.113  29.212  29.089  1.00  0.00     0.049 A 
ATOM     40  N   UNL A   1      39.415  30.308  31.880  1.00  0.00    -0.248 NA
ATOM     41  C   UNL A   1      37.498  31.592  31.517  1.00  0.00     0.031 C 
ATOM     42  C   UNL A   1      38.971  28.585  27.777  1.00  0.00     0.029 A 
ATOM     43  N   UNL A   1      40.242  28.638  29.619  1.00  0.00    -0.354 N 
ATOM     44  C   UNL A   1      39.109  31.017  33.035  1.00  0.00     0.074 A 
ATOM     45  C   UNL A   1      37.923  31.796  32.754  1.00  0.00     0.031 C 
ATOM     46  C   UNL A   1      39.984  27.720  27.597  1.00  0.00     0.029 A 
ATOM     47  C   UNL A   1      40.854  27.745  28.773  1.00  0.00     0.049 A 
ATOM     48  H   UNL A   1      40.582  28.847  30.518  1.00  0.00     0.167 HD
ATOM     49  C   UNL A   1      39.756  31.019  34.223  1.00  0.00     0.037 A 
ATOM     50  C   UNL A   1      41.991  27.040  28.931  1.00  0.00     0.037 A 
ATOM     51  C   UNL A   1      40.963  30.286  34.491  1.00  0.00     0.049 A 
ATOM     52  C   UNL A   1      42.762  27.155  30.222  1.00  0.00     0.074 A 
ATOM     53  C   UNL A   1      41.724  30.269  35.648  1.00  0.00     0.029 A 
ATOM     54  N   UNL A   1      41.592  29.449  33.584  1.00  0.00    -0.354 N 
ATOM     55  N   UNL A   1      42.465  27.828  31.308  1.00  0.00    -0.248 NA
ATOM     56  C   UNL A   1      44.026  26.408  30.310  1.00  0.00     0.031 C 
ATOM     57  C   UNL A   1      42.838  29.453  35.424  1.00  0.00     0.029 A 
ATOM     58  C   UNL A   1      42.744  28.926  34.146  1.00  0.00     0.049 A 
ATOM     59  H   UNL A   1      41.268  29.255  32.674  1.00  0.00     0.167 HD
ATOM     60  C   UNL A   1      43.483  27.556  32.216  1.00  0.00     0.074 A 
ATOM     61  C   UNL A   1      44.403  26.655  31.556  1.00  0.00     0.031 C 
ATOM     62  C   UNL A   1      43.639  28.013  33.483  1.00  0.00     0.037 A 
BRANCH  49  63
ATOM     63  C   UNL A   1      39.187  31.890  35.301  1.00  0.00     0.057 A 
ATOM     64  C   UNL A   1      38.323  31.380  36.279  1.00  0.00     0.134 A 
ATOM     65  C   UNL A   1      39.506  33.251  35.362  1.00  0.00     0.134 A 
ATOM     66  F   UNL A   1      37.962  30.087  36.261  1.00  0.00    -0.206 F 
ATOM     67  C   UNL A   1      37.778  32.201  37.267  1.00  0.00     0.040 A 
ATOM     68  C   UNL A   1      38.983  34.078  36.357  1.00  0.00     0.040 A 
ATOM     69  F   UNL A   1      40.326  33.799  34.452  1.00  0.00    -0.206 F 
ATOM     70  C   UNL A   1      38.112  33.554  37.311  1.00  0.00     0.006 A 
ENDBRANCH  49  63
BRANCH  50  71
ATOM     71  C   UNL A   1      42.496  26.175  27.834  1.00  0.00     0.057 A 
ATOM     72  C   UNL A   1      42.187  24.811  27.778  1.00  0.00     0.134 A 
ATOM     73  C   UNL A   1      43.345  26.686  26.845  1.00  0.00     0.134 A 
ATOM     74  F   UNL A   1      41.403  24.257  28.714  1.00  0.00    -0.206 F 
ATOM     75  C   UNL A   1      42.720  23.982  26.790  1.00  0.00     0.040 A 
ATOM     76  C   UNL A   1      43.866  25.873  25.837  1.00  0.00     0.040 A 
ATOM     77  F   UNL A   1      43.686  27.982  26.848  1.00  0.00    -0.206 F 
ATOM     78  C   UNL A   1      43.560  24.513  25.814  1.00  0.00     0.006 A 
ENDBRANCH  50  71
BRANCH  62  79
ATOM     79  C   UNL A   1      44.820  27.506  34.259  1.00  0.00     0.057 A 
ATOM     80  C   UNL A   1      46.041  28.190  34.286  1.00  0.00     0.134 A 
ATOM     81  C   UNL A   1      44.714  26.341  35.032  1.00  0.00     0.134 A 
ATOM     82  F   UNL A   1      46.211  29.306  33.560  1.00  0.00    -0.206 F 
ATOM     83  C   UNL A   1      47.122  27.723  35.035  1.00  0.00     0.040 A 
ATOM     84  C   UNL A   1      45.779  25.878  35.804  1.00  0.00     0.040 A 
ATOM     85  F   UNL A   1      43.568  25.644  35.059  1.00  0.00    -0.206 F 
ATOM     86  C   UNL A   1      46.990  26.566  35.803  1.00  0.00     0.006 A 
ENDBRANCH  62  79
ENDBRANCH  36  37
ENDBRANCH  29  31
ENDBRANCH  28  29
ENDBRANCH  27  28
ENDBRANCH   1  27
TORSDOF 16
ENDMDL
