MODEL 1
REMARK VINA RESULT:     -13.6      0.000      0.000
REMARK SMILES Cc1c(CC(=O)OCCOC(=O)c2ccc(-c3c4nc(c(-c5c(F)cccc5F)c5ccc([nH]5)c(-c5c(F)cccc5F)c5nc(c(-c6c(F)cccc6F)c6ccc3[nH]6)C=C5)C=C4)cc2)cc(-c2ccccc2)cc1-c1ccccc1
REMARK SMILES IDX 8 1 7 2 5 3 6 4 4 5 3 6 1 7 2 8 76 9 67 10 75 11 68 12 77 13
REMARK SMILES IDX 78 14 82 15 79 16 81 17 80 18 69 19 70 20 74 21 71 22 73 23
REMARK SMILES IDX 72 24 9 25 10 26 11 27 12 28 13 29 14 30 66 31 15 32 65 33
REMARK SMILES IDX 16 34 17 35 18 36 59 37 19 38 64 39 58 40 60 41 20 42 63 43
REMARK SMILES IDX 57 44 56 45 21 47 47 48 30 49 46 50 31 51 34 52 45 53 61 54
REMARK SMILES IDX 32 55 33 56 44 58 62 59 35 60 22 61 23 62 28 63 24 64 25 65
REMARK SMILES IDX 27 66 29 67 26 68 48 69 49 70 54 71 50 72 51 73 53 74 55 75
REMARK SMILES IDX 52 76 36 77 37 78 42 79 38 80 39 81 41 82 43 83 40 84
REMARK H PARENT 60 46 34 57
REMARK Flexibility Score: inf
ROOT
ATOM      1  C   UNL A   1      42.485  19.424  26.017  1.00  0.00     0.274 C 
ENDROOT
BRANCH   1   2
ATOM      2  O   UNL A   1      41.339  19.929  26.725  1.00  0.00    -0.462 OA
BRANCH   2   3
ATOM      3  C   UNL A   1      40.064  19.889  26.034  1.00  0.00     0.310 C 
ATOM      4  O   UNL A   1      40.016  18.714  25.554  1.00  0.00    -0.252 OA
BRANCH   3   5
ATOM      5  C   UNL A   1      38.629  21.519  25.983  1.00  0.00     0.158 C 
BRANCH   5   6
ATOM      6  C   UNL A   1      36.990  21.684  25.436  1.00  0.00    -0.033 A 
ATOM      7  C   UNL A   1      37.002  24.228  25.732  1.00  0.00     0.045 C 
ATOM      8  C   UNL A   1      36.286  22.925  25.474  1.00  0.00    -0.039 A 
ATOM      9  C   UNL A   1      34.886  22.929  25.218  1.00  0.00    -0.015 A 
ATOM     10  C   UNL A   1      36.336  20.593  24.840  1.00  0.00     0.013 A 
ATOM     11  C   UNL A   1      34.230  21.707  24.968  1.00  0.00     0.017 A 
ATOM     12  C   UNL A   1      34.946  20.531  24.778  1.00  0.00    -0.017 A 
BRANCH   9  13
ATOM     13  C   UNL A   1      34.070  24.155  25.207  1.00  0.00    -0.018 A 
ATOM     14  C   UNL A   1      33.254  24.490  26.296  1.00  0.00     0.009 A 
ATOM     15  C   UNL A   1      34.081  25.009  24.091  1.00  0.00     0.009 A 
ATOM     16  C   UNL A   1      32.491  25.660  26.281  1.00  0.00     0.001 A 
ATOM     17  C   UNL A   1      33.332  26.187  24.082  1.00  0.00     0.001 A 
ATOM     18  C   UNL A   1      32.539  26.511  25.179  1.00  0.00     0.000 A 
ENDBRANCH   9  13
BRANCH  12  19
ATOM     19  C   UNL A   1      34.301  19.224  24.624  1.00  0.00    -0.018 A 
ATOM     20  C   UNL A   1      35.095  18.072  24.463  1.00  0.00     0.009 A 
ATOM     21  C   UNL A   1      32.914  19.082  24.587  1.00  0.00     0.009 A 
ATOM     22  C   UNL A   1      34.524  16.824  24.218  1.00  0.00     0.001 A 
ATOM     23  C   UNL A   1      32.338  17.828  24.361  1.00  0.00     0.001 A 
ATOM     24  C   UNL A   1      33.141  16.704  24.166  1.00  0.00     0.000 A 
ENDBRANCH  12  19
ENDBRANCH   5   6
ENDBRANCH   3   5
ENDBRANCH   2   3
ENDBRANCH   1   2
BRANCH   1  25
ATOM     25  C   UNL A   1      43.326  20.606  25.519  1.00  0.00     0.275 C 
BRANCH  25  26
ATOM     26  O   UNL A   1      42.671  21.905  25.529  1.00  0.00    -0.458 OA
BRANCH  26  27
ATOM     27  C   UNL A   1      42.663  22.825  26.531  1.00  0.00     0.338 C 
ATOM     28  O   UNL A   1      43.252  22.652  27.587  1.00  0.00    -0.246 OA
BRANCH  27  29
ATOM     29  C   UNL A   1      41.604  23.858  26.479  1.00  0.00     0.060 A 
ATOM     30  C   UNL A   1      42.158  25.347  25.619  1.00  0.00     0.016 A 
ATOM     31  C   UNL A   1      40.370  23.964  27.791  1.00  0.00     0.016 A 
ATOM     32  C   UNL A   1      41.677  26.973  26.267  1.00  0.00     0.010 A 
ATOM     33  C   UNL A   1      39.857  25.585  28.395  1.00  0.00     0.010 A 
ATOM     34  C   UNL A   1      40.618  27.074  27.701  1.00  0.00    -0.014 A 
BRANCH  34  35
ATOM     35  C   UNL A   1      40.777  28.121  28.694  1.00  0.00     0.031 A 
ATOM     36  C   UNL A   1      39.787  29.189  28.686  1.00  0.00     0.074 A 
ATOM     37  C   UNL A   1      41.672  27.945  29.697  1.00  0.00     0.049 A 
ATOM     38  N   UNL A   1      39.955  30.311  29.279  1.00  0.00    -0.248 NA
ATOM     39  C   UNL A   1      38.554  29.145  27.905  1.00  0.00     0.031 C 
ATOM     40  C   UNL A   1      41.715  28.560  31.019  1.00  0.00     0.029 A 
ATOM     41  N   UNL A   1      42.837  27.198  29.684  1.00  0.00    -0.354 N 
ATOM     42  C   UNL A   1      38.728  30.925  29.298  1.00  0.00     0.074 A 
ATOM     43  C   UNL A   1      37.979  30.299  28.248  1.00  0.00     0.031 C 
ATOM     44  C   UNL A   1      42.929  28.353  31.570  1.00  0.00     0.029 A 
ATOM     45  C   UNL A   1      43.772  27.706  30.579  1.00  0.00     0.049 A 
ATOM     46  H   UNL A   1      42.984  26.409  29.115  1.00  0.00     0.167 HD
ATOM     47  C   UNL A   1      38.455  31.748  30.344  1.00  0.00     0.037 A 
ATOM     48  C   UNL A   1      44.943  28.205  30.076  1.00  0.00     0.037 A 
ATOM     49  C   UNL A   1      39.678  31.974  31.127  1.00  0.00     0.049 A 
ATOM     50  C   UNL A   1      44.911  29.726  30.008  1.00  0.00     0.074 A 
ATOM     51  C   UNL A   1      40.171  31.531  32.340  1.00  0.00     0.029 A 
ATOM     52  N   UNL A   1      40.775  32.480  30.450  1.00  0.00    -0.354 N 
ATOM     53  N   UNL A   1      43.913  30.453  30.441  1.00  0.00    -0.248 NA
ATOM     54  C   UNL A   1      45.959  30.552  29.414  1.00  0.00     0.031 C 
ATOM     55  C   UNL A   1      41.597  31.720  32.329  1.00  0.00     0.029 A 
ATOM     56  C   UNL A   1      41.960  32.323  31.134  1.00  0.00     0.049 A 
ATOM     57  H   UNL A   1      40.714  32.911  29.567  1.00  0.00     0.167 HD
ATOM     58  C   UNL A   1      44.113  31.771  30.153  1.00  0.00     0.074 A 
ATOM     59  C   UNL A   1      45.408  31.779  29.484  1.00  0.00     0.031 C 
ATOM     60  C   UNL A   1      43.196  32.742  30.466  1.00  0.00     0.037 A 
BRANCH  47  61
ATOM     61  C   UNL A   1      37.080  32.209  30.752  1.00  0.00     0.057 A 
ATOM     62  C   UNL A   1      36.463  33.243  30.026  1.00  0.00     0.134 A 
ATOM     63  C   UNL A   1      36.336  31.762  31.867  1.00  0.00     0.134 A 
ATOM     64  F   UNL A   1      37.049  33.780  28.947  1.00  0.00    -0.206 F 
ATOM     65  C   UNL A   1      35.222  33.788  30.381  1.00  0.00     0.040 A 
ATOM     66  C   UNL A   1      35.073  32.266  32.203  1.00  0.00     0.040 A 
ATOM     67  F   UNL A   1      36.797  30.855  32.733  1.00  0.00    -0.206 F 
ATOM     68  C   UNL A   1      34.515  33.293  31.466  1.00  0.00     0.006 A 
ENDBRANCH  47  61
BRANCH  48  69
ATOM     69  C   UNL A   1      45.546  27.254  29.084  1.00  0.00     0.057 A 
ATOM     70  C   UNL A   1      46.104  26.063  29.601  1.00  0.00     0.134 A 
ATOM     71  C   UNL A   1      45.187  27.236  27.734  1.00  0.00     0.134 A 
ATOM     72  F   UNL A   1      46.516  26.015  30.879  1.00  0.00    -0.206 F 
ATOM     73  C   UNL A   1      46.109  24.867  28.878  1.00  0.00     0.040 A 
ATOM     74  C   UNL A   1      45.233  26.049  26.984  1.00  0.00     0.040 A 
ATOM     75  F   UNL A   1      44.636  28.315  27.158  1.00  0.00    -0.206 F 
ATOM     76  C   UNL A   1      45.630  24.851  27.576  1.00  0.00     0.006 A 
ENDBRANCH  48  69
BRANCH  60  77
ATOM     77  C   UNL A   1      43.385  34.201  30.113  1.00  0.00     0.057 A 
ATOM     78  C   UNL A   1      43.397  34.654  28.790  1.00  0.00     0.134 A 
ATOM     79  C   UNL A   1      43.649  35.199  31.081  1.00  0.00     0.134 A 
ATOM     80  F   UNL A   1      43.309  33.799  27.761  1.00  0.00    -0.206 F 
ATOM     81  C   UNL A   1      43.532  36.010  28.462  1.00  0.00     0.040 A 
ATOM     82  C   UNL A   1      43.863  36.539  30.763  1.00  0.00     0.040 A 
ATOM     83  F   UNL A   1      43.682  34.946  32.395  1.00  0.00    -0.206 F 
ATOM     84  C   UNL A   1      43.768  36.957  29.450  1.00  0.00     0.006 A 
ENDBRANCH  60  77
ENDBRANCH  34  35
ENDBRANCH  27  29
ENDBRANCH  26  27
ENDBRANCH  25  26
ENDBRANCH   1  25
TORSDOF 14
ENDMDL
MODEL 2
REMARK VINA RESULT:     -13.5      4.357      9.913
REMARK SMILES Cc1c(CC(=O)OCCOC(=O)c2ccc(-c3c4nc(c(-c5c(F)cccc5F)c5ccc([nH]5)c(-c5c(F)cccc5F)c5nc(c(-c6c(F)cccc6F)c6ccc3[nH]6)C=C5)C=C4)cc2)cc(-c2ccccc2)cc1-c1ccccc1
REMARK SMILES IDX 8 1 7 2 5 3 6 4 4 5 3 6 1 7 2 8 76 9 67 10 75 11 68 12 77 13
REMARK SMILES IDX 78 14 82 15 79 16 81 17 80 18 69 19 70 20 74 21 71 22 73 23
REMARK SMILES IDX 72 24 9 25 10 26 11 27 12 28 13 29 14 30 66 31 15 32 65 33
REMARK SMILES IDX 16 34 17 35 18 36 59 37 19 38 64 39 58 40 60 41 20 42 63 43
REMARK SMILES IDX 57 44 56 45 21 47 47 48 30 49 46 50 31 51 34 52 45 53 61 54
REMARK SMILES IDX 32 55 33 56 44 58 62 59 35 60 22 61 23 62 28 63 24 64 25 65
REMARK SMILES IDX 27 66 29 67 26 68 48 69 49 70 54 71 50 72 51 73 53 74 55 75
REMARK SMILES IDX 52 76 36 77 37 78 42 79 38 80 39 81 41 82 43 83 40 84
REMARK H PARENT 60 46 34 57
REMARK Flexibility Score: inf
ROOT
ATOM      1  C   UNL A   1      33.916  35.124  28.915  1.00  0.00     0.274 C 
ENDROOT
BRANCH   1   2
ATOM      2  O   UNL A   1      34.130  34.182  27.849  1.00  0.00    -0.462 OA
BRANCH   2   3
ATOM      3  C   UNL A   1      33.079  33.212  27.602  1.00  0.00     0.310 C 
ATOM      4  O   UNL A   1      32.015  33.905  27.626  1.00  0.00    -0.252 OA
BRANCH   3   5
ATOM      5  C   UNL A   1      33.406  31.099  27.220  1.00  0.00     0.158 C 
BRANCH   5   6
ATOM      6  C   UNL A   1      32.653  29.913  26.201  1.00  0.00    -0.033 A 
ATOM      7  C   UNL A   1      34.321  28.085  26.862  1.00  0.00     0.045 C 
ATOM      8  C   UNL A   1      33.202  28.612  25.997  1.00  0.00    -0.039 A 
ATOM      9  C   UNL A   1      32.647  27.784  24.980  1.00  0.00    -0.015 A 
ATOM     10  C   UNL A   1      31.404  30.182  25.617  1.00  0.00     0.013 A 
ATOM     11  C   UNL A   1      31.596  28.283  24.185  1.00  0.00     0.017 A 
ATOM     12  C   UNL A   1      30.967  29.484  24.494  1.00  0.00    -0.017 A 
BRANCH   9  13
ATOM     13  C   UNL A   1      33.122  26.418  24.704  1.00  0.00    -0.018 A 
ATOM     14  C   UNL A   1      33.623  26.068  23.443  1.00  0.00     0.009 A 
ATOM     15  C   UNL A   1      33.064  25.427  25.699  1.00  0.00     0.009 A 
ATOM     16  C   UNL A   1      34.080  24.771  23.192  1.00  0.00     0.001 A 
ATOM     17  C   UNL A   1      33.536  24.136  25.455  1.00  0.00     0.001 A 
ATOM     18  C   UNL A   1      34.044  23.811  24.201  1.00  0.00     0.000 A 
ENDBRANCH   9  13
BRANCH  12  19
ATOM     19  C   UNL A   1      29.946  30.090  23.634  1.00  0.00    -0.018 A 
ATOM     20  C   UNL A   1      29.303  31.272  24.048  1.00  0.00     0.009 A 
ATOM     21  C   UNL A   1      29.553  29.509  22.429  1.00  0.00     0.009 A 
ATOM     22  C   UNL A   1      28.261  31.830  23.309  1.00  0.00     0.001 A 
ATOM     23  C   UNL A   1      28.522  30.077  21.675  1.00  0.00     0.001 A 
ATOM     24  C   UNL A   1      27.870  31.228  22.119  1.00  0.00     0.000 A 
ENDBRANCH  12  19
ENDBRANCH   5   6
ENDBRANCH   3   5
ENDBRANCH   2   3
ENDBRANCH   1   2
BRANCH   1  25
ATOM     25  C   UNL A   1      34.080  34.403  30.259  1.00  0.00     0.275 C 
BRANCH  25  26
ATOM     26  O   UNL A   1      34.602  33.045  30.196  1.00  0.00    -0.458 OA
BRANCH  26  27
ATOM     27  C   UNL A   1      35.905  32.656  30.157  1.00  0.00     0.338 C 
ATOM     28  O   UNL A   1      36.830  33.453  30.189  1.00  0.00    -0.246 OA
BRANCH  27  29
ATOM     29  C   UNL A   1      36.175  31.285  29.670  1.00  0.00     0.060 A 
ATOM     30  C   UNL A   1      36.323  30.104  31.030  1.00  0.00     0.016 A 
ATOM     31  C   UNL A   1      37.084  31.027  28.132  1.00  0.00     0.016 A 
ATOM     32  C   UNL A   1      37.596  28.814  30.948  1.00  0.00     0.010 A 
ATOM     33  C   UNL A   1      38.313  29.707  28.040  1.00  0.00     0.010 A 
ATOM     34  C   UNL A   1      38.639  28.693  29.503  1.00  0.00    -0.014 A 
BRANCH  34  35
ATOM     35  C   UNL A   1      40.035  28.306  29.601  1.00  0.00     0.031 A 
ATOM     36  C   UNL A   1      40.389  26.990  29.088  1.00  0.00     0.074 A 
ATOM     37  C   UNL A   1      40.954  29.243  29.940  1.00  0.00     0.049 A 
ATOM     38  N   UNL A   1      41.486  26.395  29.368  1.00  0.00    -0.248 NA
ATOM     39  C   UNL A   1      39.483  26.157  28.300  1.00  0.00     0.031 C 
ATOM     40  C   UNL A   1      42.387  29.274  29.674  1.00  0.00     0.029 A 
ATOM     41  N   UNL A   1      40.777  30.375  30.716  1.00  0.00    -0.354 N 
ATOM     42  C   UNL A   1      41.590  25.343  28.494  1.00  0.00     0.074 A 
ATOM     43  C   UNL A   1      40.251  25.098  28.041  1.00  0.00     0.031 C 
ATOM     44  C   UNL A   1      42.968  30.210  30.451  1.00  0.00     0.029 A 
ATOM     45  C   UNL A   1      41.958  30.741  31.351  1.00  0.00     0.049 A 
ATOM     46  H   UNL A   1      39.924  30.858  30.806  1.00  0.00     0.167 HD
ATOM     47  C   UNL A   1      42.838  24.956  28.125  1.00  0.00     0.037 A 
ATOM     48  C   UNL A   1      41.999  30.693  32.718  1.00  0.00     0.037 A 
ATOM     49  C   UNL A   1      43.836  25.638  28.962  1.00  0.00     0.049 A 
ATOM     50  C   UNL A   1      42.706  29.434  33.204  1.00  0.00     0.074 A 
ATOM     51  C   UNL A   1      44.724  26.683  28.787  1.00  0.00     0.029 A 
ATOM     52  N   UNL A   1      43.720  25.483  30.332  1.00  0.00    -0.354 N 
ATOM     53  N   UNL A   1      43.257  28.555  32.408  1.00  0.00    -0.248 NA
ATOM     54  C   UNL A   1      42.812  29.032  34.605  1.00  0.00     0.031 C 
ATOM     55  C   UNL A   1      45.069  27.187  30.089  1.00  0.00     0.029 A 
ATOM     56  C   UNL A   1      44.432  26.418  31.050  1.00  0.00     0.049 A 
ATOM     57  H   UNL A   1      43.182  24.775  30.753  1.00  0.00     0.167 HD
ATOM     58  C   UNL A   1      43.717  27.483  33.114  1.00  0.00     0.074 A 
ATOM     59  C   UNL A   1      43.392  27.822  34.494  1.00  0.00     0.031 C 
ATOM     60  C   UNL A   1      44.305  26.401  32.511  1.00  0.00     0.037 A 
BRANCH  47  61
ATOM     61  C   UNL A   1      43.166  24.105  26.925  1.00  0.00     0.057 A 
ATOM     62  C   UNL A   1      43.018  22.710  27.015  1.00  0.00     0.134 A 
ATOM     63  C   UNL A   1      43.698  24.551  25.694  1.00  0.00     0.134 A 
ATOM     64  F   UNL A   1      42.534  22.133  28.124  1.00  0.00    -0.206 F 
ATOM     65  C   UNL A   1      43.372  21.837  25.978  1.00  0.00     0.040 A 
ATOM     66  C   UNL A   1      44.011  23.692  24.633  1.00  0.00     0.040 A 
ATOM     67  F   UNL A   1      44.002  25.830  25.454  1.00  0.00    -0.206 F 
ATOM     68  C   UNL A   1      43.860  22.326  24.776  1.00  0.00     0.006 A 
ENDBRANCH  47  61
BRANCH  48  69
ATOM     69  C   UNL A   1      40.791  31.356  33.312  1.00  0.00     0.057 A 
ATOM     70  C   UNL A   1      40.701  32.759  33.172  1.00  0.00     0.134 A 
ATOM     71  C   UNL A   1      39.593  30.677  33.551  1.00  0.00     0.134 A 
ATOM     72  F   UNL A   1      41.814  33.487  32.985  1.00  0.00    -0.206 F 
ATOM     73  C   UNL A   1      39.475  33.420  33.067  1.00  0.00     0.040 A 
ATOM     74  C   UNL A   1      38.357  31.342  33.495  1.00  0.00     0.040 A 
ATOM     75  F   UNL A   1      39.577  29.343  33.684  1.00  0.00    -0.206 F 
ATOM     76  C   UNL A   1      38.294  32.700  33.186  1.00  0.00     0.006 A 
ENDBRANCH  48  69
BRANCH  60  77
ATOM     77  C   UNL A   1      44.780  25.185  33.278  1.00  0.00     0.057 A 
ATOM     78  C   UNL A   1      46.117  24.772  33.269  1.00  0.00     0.134 A 
ATOM     79  C   UNL A   1      43.903  24.332  33.987  1.00  0.00     0.134 A 
ATOM     80  F   UNL A   1      47.033  25.399  32.518  1.00  0.00    -0.206 F 
ATOM     81  C   UNL A   1      46.566  23.671  34.010  1.00  0.00     0.040 A 
ATOM     82  C   UNL A   1      44.325  23.188  34.664  1.00  0.00     0.040 A 
ATOM     83  F   UNL A   1      42.590  24.567  34.097  1.00  0.00    -0.206 F 
ATOM     84  C   UNL A   1      45.669  22.874  34.710  1.00  0.00     0.006 A 
ENDBRANCH  60  77
ENDBRANCH  34  35
ENDBRANCH  27  29
ENDBRANCH  26  27
ENDBRANCH  25  26
ENDBRANCH   1  25
TORSDOF 14
ENDMDL
MODEL 3
REMARK VINA RESULT:     -13.4      1.398      1.904
REMARK SMILES Cc1c(CC(=O)OCCOC(=O)c2ccc(-c3c4nc(c(-c5c(F)cccc5F)c5ccc([nH]5)c(-c5c(F)cccc5F)c5nc(c(-c6c(F)cccc6F)c6ccc3[nH]6)C=C5)C=C4)cc2)cc(-c2ccccc2)cc1-c1ccccc1
REMARK SMILES IDX 8 1 7 2 5 3 6 4 4 5 3 6 1 7 2 8 76 9 67 10 75 11 68 12 77 13
REMARK SMILES IDX 78 14 82 15 79 16 81 17 80 18 69 19 70 20 74 21 71 22 73 23
REMARK SMILES IDX 72 24 9 25 10 26 11 27 12 28 13 29 14 30 66 31 15 32 65 33
REMARK SMILES IDX 16 34 17 35 18 36 59 37 19 38 64 39 58 40 60 41 20 42 63 43
REMARK SMILES IDX 57 44 56 45 21 47 47 48 30 49 46 50 31 51 34 52 45 53 61 54
REMARK SMILES IDX 32 55 33 56 44 58 62 59 35 60 22 61 23 62 28 63 24 64 25 65
REMARK SMILES IDX 27 66 29 67 26 68 48 69 49 70 54 71 50 72 51 73 53 74 55 75
REMARK SMILES IDX 52 76 36 77 37 78 42 79 38 80 39 81 41 82 43 83 40 84
REMARK H PARENT 60 46 34 57
REMARK Flexibility Score: inf
ROOT
ATOM      1  C   UNL A   1      41.671  20.566  26.401  1.00  0.00     0.274 C 
ENDROOT
BRANCH   1   2
ATOM      2  O   UNL A   1      40.417  21.194  26.722  1.00  0.00    -0.462 OA
BRANCH   2   3
ATOM      3  C   UNL A   1      39.262  20.802  25.937  1.00  0.00     0.310 C 
ATOM      4  O   UNL A   1      39.543  19.625  25.549  1.00  0.00    -0.252 OA
BRANCH   3   5
ATOM      5  C   UNL A   1      37.491  22.024  25.641  1.00  0.00     0.158 C 
BRANCH   5   6
ATOM      6  C   UNL A   1      35.854  21.704  25.158  1.00  0.00    -0.033 A 
ATOM      7  C   UNL A   1      35.232  24.189  25.127  1.00  0.00     0.045 C 
ATOM      8  C   UNL A   1      34.862  22.726  25.072  1.00  0.00    -0.039 A 
ATOM      9  C   UNL A   1      33.502  22.349  24.887  1.00  0.00    -0.015 A 
ATOM     10  C   UNL A   1      35.486  20.415  24.739  1.00  0.00     0.013 A 
ATOM     11  C   UNL A   1      33.170  20.982  24.826  1.00  0.00     0.017 A 
ATOM     12  C   UNL A   1      34.156  20.004  24.753  1.00  0.00    -0.017 A 
BRANCH   9  13
ATOM     13  C   UNL A   1      32.405  23.323  24.759  1.00  0.00    -0.018 A 
ATOM     14  C   UNL A   1      31.703  23.772  25.886  1.00  0.00     0.009 A 
ATOM     15  C   UNL A   1      32.026  23.811  23.496  1.00  0.00     0.009 A 
ATOM     16  C   UNL A   1      30.669  24.703  25.757  1.00  0.00     0.001 A 
ATOM     17  C   UNL A   1      31.006  24.754  23.368  1.00  0.00     0.001 A 
ATOM     18  C   UNL A   1      30.329  25.200  24.500  1.00  0.00     0.000 A 
ENDBRANCH   9  13
BRANCH  12  19
ATOM     19  C   UNL A   1      33.857  18.570  24.798  1.00  0.00    -0.018 A 
ATOM     20  C   UNL A   1      32.672  18.126  25.415  1.00  0.00     0.009 A 
ATOM     21  C   UNL A   1      34.735  17.614  24.285  1.00  0.00     0.009 A 
ATOM     22  C   UNL A   1      32.394  16.768  25.565  1.00  0.00     0.001 A 
ATOM     23  C   UNL A   1      34.449  16.251  24.416  1.00  0.00     0.001 A 
ATOM     24  C   UNL A   1      33.288  15.829  25.064  1.00  0.00     0.000 A 
ENDBRANCH  12  19
ENDBRANCH   5   6
ENDBRANCH   3   5
ENDBRANCH   2   3
ENDBRANCH   1   2
BRANCH   1  25
ATOM     25  C   UNL A   1      42.631  21.623  25.842  1.00  0.00     0.275 C 
BRANCH  25  26
ATOM     26  O   UNL A   1      42.118  22.984  25.781  1.00  0.00    -0.458 OA
BRANCH  26  27
ATOM     27  C   UNL A   1      42.194  23.946  26.740  1.00  0.00     0.338 C 
ATOM     28  O   UNL A   1      42.943  23.857  27.701  1.00  0.00    -0.246 OA
BRANCH  27  29
ATOM     29  C   UNL A   1      41.071  24.906  26.811  1.00  0.00     0.060 A 
ATOM     30  C   UNL A   1      41.351  26.350  25.761  1.00  0.00     0.016 A 
ATOM     31  C   UNL A   1      40.087  25.047  28.317  1.00  0.00     0.016 A 
ATOM     32  C   UNL A   1      40.877  27.992  26.370  1.00  0.00     0.010 A 
ATOM     33  C   UNL A   1      39.573  26.681  28.890  1.00  0.00     0.010 A 
ATOM     34  C   UNL A   1      40.087  28.149  27.964  1.00  0.00    -0.014 A 
BRANCH  34  35
ATOM     35  C   UNL A   1      40.345  29.282  28.834  1.00  0.00     0.031 A 
ATOM     36  C   UNL A   1      39.273  30.259  28.975  1.00  0.00     0.074 A 
ATOM     37  C   UNL A   1      41.442  29.264  29.630  1.00  0.00     0.049 A 
ATOM     38  N   UNL A   1      39.448  31.434  29.449  1.00  0.00    -0.248 NA
ATOM     39  C   UNL A   1      37.915  30.048  28.481  1.00  0.00     0.031 C 
ATOM     40  C   UNL A   1      41.698  29.984  30.872  1.00  0.00     0.029 A 
ATOM     41  N   UNL A   1      42.647  28.619  29.412  1.00  0.00    -0.354 N 
ATOM     42  C   UNL A   1      38.197  31.942  29.693  1.00  0.00     0.074 A 
ATOM     43  C   UNL A   1      37.312  31.172  28.869  1.00  0.00     0.031 C 
ATOM     44  C   UNL A   1      43.014  29.925  31.160  1.00  0.00     0.029 A 
ATOM     45  C   UNL A   1      43.692  29.275  30.053  1.00  0.00     0.049 A 
ATOM     46  H   UNL A   1      42.750  27.802  28.874  1.00  0.00     0.167 HD
ATOM     47  C   UNL A   1      38.068  32.820  30.721  1.00  0.00     0.037 A 
ATOM     48  C   UNL A   1      44.677  29.828  29.281  1.00  0.00     0.037 A 
ATOM     49  C   UNL A   1      39.398  33.212  31.208  1.00  0.00     0.049 A 
ATOM     50  C   UNL A   1      44.480  31.331  29.129  1.00  0.00     0.074 A 
ATOM     51  C   UNL A   1      40.175  32.911  32.312  1.00  0.00     0.029 A 
ATOM     52  N   UNL A   1      40.274  33.752  30.282  1.00  0.00    -0.354 N 
ATOM     53  N   UNL A   1      43.527  32.003  29.722  1.00  0.00    -0.248 NA
ATOM     54  C   UNL A   1      45.294  32.192  28.274  1.00  0.00     0.031 C 
ATOM     55  C   UNL A   1      41.541  33.218  31.983  1.00  0.00     0.029 A 
ATOM     56  C   UNL A   1      41.585  33.751  30.703  1.00  0.00     0.049 A 
ATOM     57  H   UNL A   1      39.988  34.104  29.409  1.00  0.00     0.167 HD
ATOM     58  C   UNL A   1      43.530  33.306  29.318  1.00  0.00     0.074 A 
ATOM     59  C   UNL A   1      44.651  33.369  28.387  1.00  0.00     0.031 C 
ATOM     60  C   UNL A   1      42.606  34.218  29.762  1.00  0.00     0.037 A 
BRANCH  47  61
ATOM     61  C   UNL A   1      36.768  33.195  31.387  1.00  0.00     0.057 A 
ATOM     62  C   UNL A   1      36.488  32.692  32.669  1.00  0.00     0.134 A 
ATOM     63  C   UNL A   1      35.723  33.962  30.825  1.00  0.00     0.134 A 
ATOM     64  F   UNL A   1      37.378  31.938  33.330  1.00  0.00    -0.206 F 
ATOM     65  C   UNL A   1      35.275  32.924  33.331  1.00  0.00     0.040 A 
ATOM     66  C   UNL A   1      34.525  34.240  31.496  1.00  0.00     0.040 A 
ATOM     67  F   UNL A   1      35.762  34.443  29.580  1.00  0.00    -0.206 F 
ATOM     68  C   UNL A   1      34.291  33.710  32.751  1.00  0.00     0.006 A 
ENDBRANCH  47  61
BRANCH  48  69
ATOM     69  C   UNL A   1      45.152  28.855  28.241  1.00  0.00     0.057 A 
ATOM     70  C   UNL A   1      45.850  27.718  28.706  1.00  0.00     0.134 A 
ATOM     71  C   UNL A   1      44.571  28.753  26.975  1.00  0.00     0.134 A 
ATOM     72  F   UNL A   1      46.474  27.752  29.895  1.00  0.00    -0.206 F 
ATOM     73  C   UNL A   1      45.794  26.488  28.045  1.00  0.00     0.040 A 
ATOM     74  C   UNL A   1      44.551  27.532  26.280  1.00  0.00     0.040 A 
ATOM     75  F   UNL A   1      43.876  29.776  26.456  1.00  0.00    -0.206 F 
ATOM     76  C   UNL A   1      45.104  26.384  26.846  1.00  0.00     0.006 A 
ENDBRANCH  48  69
BRANCH  60  77
ATOM     77  C   UNL A   1      42.572  35.655  29.288  1.00  0.00     0.057 A 
ATOM     78  C   UNL A   1      41.826  36.057  28.175  1.00  0.00     0.134 A 
ATOM     79  C   UNL A   1      43.352  36.678  29.878  1.00  0.00     0.134 A 
ATOM     80  F   UNL A   1      41.156  35.168  27.429  1.00  0.00    -0.206 F 
ATOM     81  C   UNL A   1      41.760  37.394  27.760  1.00  0.00     0.040 A 
ATOM     82  C   UNL A   1      43.357  37.997  29.425  1.00  0.00     0.040 A 
ATOM     83  F   UNL A   1      44.131  36.474  30.946  1.00  0.00    -0.206 F 
ATOM     84  C   UNL A   1      42.529  38.368  28.384  1.00  0.00     0.006 A 
ENDBRANCH  60  77
ENDBRANCH  34  35
ENDBRANCH  27  29
ENDBRANCH  26  27
ENDBRANCH  25  26
ENDBRANCH   1  25
TORSDOF 14
ENDMDL
