MODEL 1
REMARK VINA RESULT:     -11.7      0.000      0.000
REMARK SMILES Cc1cccc(CS[C@@H]2CC[C@]([NH3+])(C(=O)OCCOC(=O)c3ccc(-c4c5nc(c(-c6c(F)cccc6F)c6ccc([nH]6)c(-c6c(F)cccc6F)c6nc(c(-c7c(F)cccc7F)c7ccc4[nH]7)C=C6)C=C5)cc3)C2)c1
REMARK SMILES IDX 17 1 16 2 14 3 15 4 12 5 9 6 10 7 76 8 11 9 8 10 7 11 6 12
REMARK SMILES IDX 1 13 2 14 3 15 77 16 4 17 5 18 13 19 18 23 19 24 20 25 21 26
REMARK SMILES IDX 22 27 23 28 75 29 24 30 74 31 25 32 26 33 27 34 68 35 28 36
REMARK SMILES IDX 73 37 67 38 69 39 29 40 72 41 66 42 65 43 30 45 56 46 39 47
REMARK SMILES IDX 55 48 40 49 43 50 54 51 70 52 41 53 42 54 53 56 71 57 44 58
REMARK SMILES IDX 31 59 32 60 37 61 33 62 34 63 36 64 38 65 35 66 57 67 58 68
REMARK SMILES IDX 63 69 59 70 60 71 62 72 64 73 61 74 45 75 46 76 51 77 47 78
REMARK SMILES IDX 48 79 50 80 52 81 49 82
REMARK H PARENT 13 20 13 21 13 22 69 44 43 55
REMARK Flexibility Score: inf
ROOT
ATOM      1  C   UNL A   1      44.785  18.860  25.037  1.00  0.00     0.274 C 
ENDROOT
BRANCH   1   2
ATOM      2  O   UNL A   1      43.982  19.300  26.142  1.00  0.00    -0.457 OA
BRANCH   2   3
ATOM      3  C   UNL A   1      42.691  18.906  26.127  1.00  0.00     0.368 C 
ATOM      4  O   UNL A   1      42.325  17.777  25.809  1.00  0.00    -0.245 OA
BRANCH   3   5
ATOM      5  C   UNL A   1      41.699  19.949  26.713  1.00  0.00     0.193 C 
ATOM      6  C   UNL A   1      39.957  21.569  26.613  1.00  0.00     0.054 C 
ATOM      7  C   UNL A   1      41.216  22.375  26.924  1.00  0.00     0.022 C 
ATOM      8  C   UNL A   1      40.515  20.380  25.814  1.00  0.00     0.095 C 
ATOM      9  C   UNL A   1      42.327  21.313  27.090  1.00  0.00     0.082 C 
BRANCH   6  10
ATOM     10  S   UNL A   1      38.423  22.390  26.074  1.00  0.00    -0.154 SA
BRANCH  10  11
ATOM     11  C   UNL A   1      37.545  21.156  25.095  1.00  0.00     0.105 C 
BRANCH  11  12
ATOM     12  C   UNL A   1      36.178  21.531  24.602  1.00  0.00    -0.038 A 
ATOM     13  C   UNL A   1      32.738  20.058  25.025  1.00  0.00     0.044 C 
ATOM     14  C   UNL A   1      33.826  20.951  24.542  1.00  0.00    -0.051 A 
ATOM     15  C   UNL A   1      33.558  22.064  23.742  1.00  0.00     0.003 A 
ATOM     16  C   UNL A   1      35.123  20.698  24.974  1.00  0.00     0.008 A 
ATOM     17  C   UNL A   1      34.590  22.936  23.408  1.00  0.00     0.001 A 
ATOM     18  C   UNL A   1      35.889  22.684  23.856  1.00  0.00     0.004 A 
ENDBRANCH  11  12
ENDBRANCH  10  11
ENDBRANCH   6  10
BRANCH   5  19
ATOM     19  N   UNL A   1      41.166  19.322  27.970  1.00  0.00    -0.343 N 
ATOM     20  H   UNL A   1      41.159  18.308  27.866  1.00  0.00     0.345 HD
ATOM     21  H   UNL A   1      40.216  19.654  28.138  1.00  0.00     0.345 HD
ATOM     22  H   UNL A   1      41.761  19.580  28.757  1.00  0.00     0.345 HD
ENDBRANCH   5  19
ENDBRANCH   3   5
ENDBRANCH   2   3
ENDBRANCH   1   2
BRANCH   1  23
ATOM     23  C   UNL A   1      46.149  19.528  24.748  1.00  0.00     0.275 C 
BRANCH  23  24
ATOM     24  O   UNL A   1      46.246  20.965  24.562  1.00  0.00    -0.458 OA
BRANCH  24  25
ATOM     25  C   UNL A   1      45.270  21.830  24.205  1.00  0.00     0.338 C 
ATOM     26  O   UNL A   1      44.632  21.742  23.162  1.00  0.00    -0.246 OA
BRANCH  25  27
ATOM     27  C   UNL A   1      44.908  22.828  25.208  1.00  0.00     0.060 A 
ATOM     28  C   UNL A   1      45.295  22.613  26.538  1.00  0.00     0.016 A 
ATOM     29  C   UNL A   1      44.335  24.024  24.798  1.00  0.00     0.016 A 
ATOM     30  C   UNL A   1      45.237  23.668  27.447  1.00  0.00     0.010 A 
ATOM     31  C   UNL A   1      44.341  25.087  25.676  1.00  0.00     0.010 A 
ATOM     32  C   UNL A   1      44.783  24.915  27.002  1.00  0.00    -0.014 A 
BRANCH  32  33
ATOM     33  C   UNL A   1      44.348  25.970  27.916  1.00  0.00     0.031 A 
ATOM     34  C   UNL A   1      42.961  26.469  28.065  1.00  0.00     0.074 A 
ATOM     35  C   UNL A   1      45.386  26.555  28.560  1.00  0.00     0.049 A 
ATOM     36  N   UNL A   1      42.674  27.552  28.710  1.00  0.00    -0.248 NA
ATOM     37  C   UNL A   1      41.783  25.851  27.455  1.00  0.00     0.031 C 
ATOM     38  C   UNL A   1      45.381  27.531  29.633  1.00  0.00     0.029 A 
ATOM     39  N   UNL A   1      46.725  26.514  28.145  1.00  0.00    -0.354 N 
ATOM     40  C   UNL A   1      41.320  27.774  28.639  1.00  0.00     0.074 A 
ATOM     41  C   UNL A   1      40.793  26.648  27.899  1.00  0.00     0.031 C 
ATOM     42  C   UNL A   1      46.540  28.208  29.584  1.00  0.00     0.029 A 
ATOM     43  C   UNL A   1      47.252  27.774  28.389  1.00  0.00     0.049 A 
ATOM     44  H   UNL A   1      47.197  25.742  27.755  1.00  0.00     0.167 HD
ATOM     45  C   UNL A   1      40.791  28.896  29.203  1.00  0.00     0.037 A 
ATOM     46  C   UNL A   1      47.751  28.572  27.406  1.00  0.00     0.037 A 
ATOM     47  C   UNL A   1      41.818  29.853  29.594  1.00  0.00     0.049 A 
ATOM     48  C   UNL A   1      47.086  29.925  27.414  1.00  0.00     0.074 A 
ATOM     49  C   UNL A   1      42.687  29.908  30.669  1.00  0.00     0.029 A 
ATOM     50  N   UNL A   1      42.287  30.771  28.664  1.00  0.00    -0.354 N 
ATOM     51  N   UNL A   1      45.892  30.151  27.895  1.00  0.00    -0.248 NA
ATOM     52  C   UNL A   1      47.716  31.121  26.870  1.00  0.00     0.031 C 
ATOM     53  C   UNL A   1      43.792  30.712  30.283  1.00  0.00     0.029 A 
ATOM     54  C   UNL A   1      43.565  31.189  29.001  1.00  0.00     0.049 A 
ATOM     55  H   UNL A   1      41.783  31.082  27.877  1.00  0.00     0.167 HD
ATOM     56  C   UNL A   1      45.587  31.477  27.737  1.00  0.00     0.074 A 
ATOM     57  C   UNL A   1      46.771  32.043  27.114  1.00  0.00     0.031 C 
ATOM     58  C   UNL A   1      44.373  32.000  28.092  1.00  0.00     0.037 A 
BRANCH  45  59
ATOM     59  C   UNL A   1      39.344  29.065  29.542  1.00  0.00     0.057 A 
ATOM     60  C   UNL A   1      38.450  29.483  28.537  1.00  0.00     0.134 A 
ATOM     61  C   UNL A   1      38.786  28.887  30.814  1.00  0.00     0.134 A 
ATOM     62  F   UNL A   1      38.867  29.684  27.278  1.00  0.00    -0.206 F 
ATOM     63  C   UNL A   1      37.099  29.746  28.788  1.00  0.00     0.040 A 
ATOM     64  C   UNL A   1      37.440  29.180  31.087  1.00  0.00     0.040 A 
ATOM     65  F   UNL A   1      39.519  28.407  31.829  1.00  0.00    -0.206 F 
ATOM     66  C   UNL A   1      36.593  29.615  30.073  1.00  0.00     0.006 A 
ENDBRANCH  45  59
BRANCH  46  67
ATOM     67  C   UNL A   1      48.272  27.883  26.185  1.00  0.00     0.057 A 
ATOM     68  C   UNL A   1      47.414  27.689  25.085  1.00  0.00     0.134 A 
ATOM     69  C   UNL A   1      49.633  27.641  25.961  1.00  0.00     0.134 A 
ATOM     70  F   UNL A   1      46.095  27.901  25.216  1.00  0.00    -0.206 F 
ATOM     71  C   UNL A   1      47.891  27.363  23.810  1.00  0.00     0.040 A 
ATOM     72  C   UNL A   1      50.121  27.293  24.691  1.00  0.00     0.040 A 
ATOM     73  F   UNL A   1      50.528  27.816  26.941  1.00  0.00    -0.206 F 
ATOM     74  C   UNL A   1      49.253  27.182  23.606  1.00  0.00     0.006 A 
ENDBRANCH  46  67
BRANCH  58  75
ATOM     75  C   UNL A   1      43.893  33.355  27.639  1.00  0.00     0.057 A 
ATOM     76  C   UNL A   1      43.697  33.706  26.292  1.00  0.00     0.134 A 
ATOM     77  C   UNL A   1      43.487  34.326  28.575  1.00  0.00     0.134 A 
ATOM     78  F   UNL A   1      43.885  32.823  25.302  1.00  0.00    -0.206 F 
ATOM     79  C   UNL A   1      43.245  34.970  25.900  1.00  0.00     0.040 A 
ATOM     80  C   UNL A   1      42.972  35.570  28.198  1.00  0.00     0.040 A 
ATOM     81  F   UNL A   1      43.546  34.096  29.895  1.00  0.00    -0.206 F 
ATOM     82  C   UNL A   1      42.878  35.908  26.855  1.00  0.00     0.006 A 
ENDBRANCH  58  75
ENDBRANCH  32  33
ENDBRANCH  25  27
ENDBRANCH  24  25
ENDBRANCH  23  24
ENDBRANCH   1  23
TORSDOF 15
ENDMDL
MODEL 2
REMARK VINA RESULT:     -11.6      4.974      9.835
REMARK SMILES Cc1cccc(CS[C@@H]2CC[C@]([NH3+])(C(=O)OCCOC(=O)c3ccc(-c4c5nc(c(-c6c(F)cccc6F)c6ccc([nH]6)c(-c6c(F)cccc6F)c6nc(c(-c7c(F)cccc7F)c7ccc4[nH]7)C=C6)C=C5)cc3)C2)c1
REMARK SMILES IDX 17 1 16 2 14 3 15 4 12 5 9 6 10 7 76 8 11 9 8 10 7 11 6 12
REMARK SMILES IDX 1 13 2 14 3 15 77 16 4 17 5 18 13 19 18 23 19 24 20 25 21 26
REMARK SMILES IDX 22 27 23 28 75 29 24 30 74 31 25 32 26 33 27 34 68 35 28 36
REMARK SMILES IDX 73 37 67 38 69 39 29 40 72 41 66 42 65 43 30 45 56 46 39 47
REMARK SMILES IDX 55 48 40 49 43 50 54 51 70 52 41 53 42 54 53 56 71 57 44 58
REMARK SMILES IDX 31 59 32 60 37 61 33 62 34 63 36 64 38 65 35 66 57 67 58 68
REMARK SMILES IDX 63 69 59 70 60 71 62 72 64 73 61 74 45 75 46 76 51 77 47 78
REMARK SMILES IDX 48 79 50 80 52 81 49 82
REMARK H PARENT 13 20 13 21 13 22 69 44 43 55
REMARK Flexibility Score: inf
ROOT
ATOM      1  C   UNL A   1      33.751  29.560  26.707  1.00  0.00     0.274 C 
ENDROOT
BRANCH   1   2
ATOM      2  O   UNL A   1      33.548  28.250  27.257  1.00  0.00    -0.457 OA
BRANCH   2   3
ATOM      3  C   UNL A   1      32.285  27.776  27.204  1.00  0.00     0.368 C 
ATOM      4  O   UNL A   1      31.420  28.045  28.035  1.00  0.00    -0.245 OA
BRANCH   3   5
ATOM      5  C   UNL A   1      31.951  26.992  25.905  1.00  0.00     0.193 C 
ATOM      6  C   UNL A   1      32.379  26.146  23.721  1.00  0.00     0.054 C 
ATOM      7  C   UNL A   1      31.316  27.223  23.517  1.00  0.00     0.022 C 
ATOM      8  C   UNL A   1      33.131  26.656  24.962  1.00  0.00     0.095 C 
ATOM      9  C   UNL A   1      30.965  27.699  24.945  1.00  0.00     0.082 C 
BRANCH   6  10
ATOM     10  S   UNL A   1      33.306  25.460  22.311  1.00  0.00    -0.154 SA
BRANCH  10  11
ATOM     11  C   UNL A   1      32.969  23.689  22.340  1.00  0.00     0.105 C 
BRANCH  11  12
ATOM     12  C   UNL A   1      33.855  22.845  23.208  1.00  0.00    -0.038 A 
ATOM     13  C   UNL A   1      33.316  19.760  25.300  1.00  0.00     0.044 C 
ATOM     14  C   UNL A   1      33.997  20.937  24.695  1.00  0.00    -0.051 A 
ATOM     15  C   UNL A   1      35.359  21.178  24.895  1.00  0.00     0.003 A 
ATOM     16  C   UNL A   1      33.261  21.759  23.850  1.00  0.00     0.008 A 
ATOM     17  C   UNL A   1      35.980  22.223  24.219  1.00  0.00     0.001 A 
ATOM     18  C   UNL A   1      35.237  23.038  23.360  1.00  0.00     0.004 A 
ENDBRANCH  11  12
ENDBRANCH  10  11
ENDBRANCH   6  10
BRANCH   5  19
ATOM     19  N   UNL A   1      31.309  25.716  26.371  1.00  0.00    -0.343 N 
ATOM     20  H   UNL A   1      30.371  25.914  26.716  1.00  0.00     0.345 HD
ATOM     21  H   UNL A   1      31.869  25.308  27.120  1.00  0.00     0.345 HD
ATOM     22  H   UNL A   1      31.254  25.060  25.592  1.00  0.00     0.345 HD
ENDBRANCH   5  19
ENDBRANCH   3   5
ENDBRANCH   2   3
ENDBRANCH   1   2
BRANCH   1  23
ATOM     23  C   UNL A   1      33.922  30.779  27.641  1.00  0.00     0.275 C 
BRANCH  23  24
ATOM     24  O   UNL A   1      35.245  31.225  28.044  1.00  0.00    -0.458 OA
BRANCH  24  25
ATOM     25  C   UNL A   1      35.868  31.029  29.228  1.00  0.00     0.338 C 
ATOM     26  O   UNL A   1      35.396  31.362  30.309  1.00  0.00    -0.246 OA
BRANCH  25  27
ATOM     27  C   UNL A   1      37.109  30.260  29.173  1.00  0.00     0.060 A 
ATOM     28  C   UNL A   1      37.348  29.301  30.167  1.00  0.00     0.016 A 
ATOM     29  C   UNL A   1      37.935  30.386  28.064  1.00  0.00     0.016 A 
ATOM     30  C   UNL A   1      38.354  28.356  29.977  1.00  0.00     0.010 A 
ATOM     31  C   UNL A   1      38.884  29.411  27.842  1.00  0.00     0.010 A 
ATOM     32  C   UNL A   1      39.104  28.398  28.796  1.00  0.00    -0.014 A 
BRANCH  32  33
ATOM     33  C   UNL A   1      40.384  27.708  28.646  1.00  0.00     0.031 A 
ATOM     34  C   UNL A   1      40.564  26.294  28.242  1.00  0.00     0.074 A 
ATOM     35  C   UNL A   1      41.431  28.473  29.036  1.00  0.00     0.049 A 
ATOM     36  N   UNL A   1      41.693  25.674  28.351  1.00  0.00    -0.248 NA
ATOM     37  C   UNL A   1      39.494  25.426  27.748  1.00  0.00     0.031 C 
ATOM     38  C   UNL A   1      42.856  28.224  28.922  1.00  0.00     0.029 A 
ATOM     39  N   UNL A   1      41.349  29.595  29.874  1.00  0.00    -0.354 N 
ATOM     40  C   UNL A   1      41.535  24.374  27.937  1.00  0.00     0.074 A 
ATOM     41  C   UNL A   1      40.158  24.281  27.506  1.00  0.00     0.031 C 
ATOM     42  C   UNL A   1      43.479  28.933  29.879  1.00  0.00     0.029 A 
ATOM     43  C   UNL A   1      42.452  29.541  30.714  1.00  0.00     0.049 A 
ATOM     44  H   UNL A   1      40.645  30.284  29.867  1.00  0.00     0.167 HD
ATOM     45  C   UNL A   1      42.587  23.510  28.018  1.00  0.00     0.037 A 
ATOM     46  C   UNL A   1      42.349  29.453  32.068  1.00  0.00     0.037 A 
ATOM     47  C   UNL A   1      43.691  24.055  28.796  1.00  0.00     0.049 A 
ATOM     48  C   UNL A   1      43.118  28.268  32.596  1.00  0.00     0.074 A 
ATOM     49  C   UNL A   1      44.674  24.984  28.504  1.00  0.00     0.029 A 
ATOM     50  N   UNL A   1      43.698  23.896  30.175  1.00  0.00    -0.354 N 
ATOM     51  N   UNL A   1      43.397  27.204  31.891  1.00  0.00    -0.248 NA
ATOM     52  C   UNL A   1      43.622  28.195  33.961  1.00  0.00     0.031 C 
ATOM     53  C   UNL A   1      45.124  25.529  29.736  1.00  0.00     0.029 A 
ATOM     54  C   UNL A   1      44.457  24.893  30.771  1.00  0.00     0.049 A 
ATOM     55  H   UNL A   1      43.234  23.177  30.661  1.00  0.00     0.167 HD
ATOM     56  C   UNL A   1      44.095  26.318  32.670  1.00  0.00     0.074 A 
ATOM     57  C   UNL A   1      44.230  26.998  33.947  1.00  0.00     0.031 C 
ATOM     58  C   UNL A   1      44.473  25.082  32.221  1.00  0.00     0.037 A 
BRANCH  45  59
ATOM     59  C   UNL A   1      42.677  22.223  27.260  1.00  0.00     0.057 A 
ATOM     60  C   UNL A   1      41.828  21.157  27.617  1.00  0.00     0.134 A 
ATOM     61  C   UNL A   1      43.586  21.954  26.230  1.00  0.00     0.134 A 
ATOM     62  F   UNL A   1      40.913  21.296  28.589  1.00  0.00    -0.206 F 
ATOM     63  C   UNL A   1      41.905  19.895  27.018  1.00  0.00     0.040 A 
ATOM     64  C   UNL A   1      43.697  20.684  25.644  1.00  0.00     0.040 A 
ATOM     65  F   UNL A   1      44.384  22.917  25.744  1.00  0.00    -0.206 F 
ATOM     66  C   UNL A   1      42.857  19.648  26.040  1.00  0.00     0.006 A 
ENDBRANCH  45  59
BRANCH  46  67
ATOM     67  C   UNL A   1      41.100  30.001  32.681  1.00  0.00     0.057 A 
ATOM     68  C   UNL A   1      40.875  31.392  32.656  1.00  0.00     0.134 A 
ATOM     69  C   UNL A   1      40.013  29.204  33.057  1.00  0.00     0.134 A 
ATOM     70  F   UNL A   1      41.864  32.227  32.305  1.00  0.00    -0.206 F 
ATOM     71  C   UNL A   1      39.615  31.952  32.901  1.00  0.00     0.040 A 
ATOM     72  C   UNL A   1      38.750  29.755  33.326  1.00  0.00     0.040 A 
ATOM     73  F   UNL A   1      40.126  27.870  33.094  1.00  0.00    -0.206 F 
ATOM     74  C   UNL A   1      38.542  31.130  33.220  1.00  0.00     0.006 A 
ENDBRANCH  46  67
BRANCH  58  75
ATOM     75  C   UNL A   1      44.942  23.979  33.134  1.00  0.00     0.057 A 
ATOM     76  C   UNL A   1      46.216  23.941  33.725  1.00  0.00     0.134 A 
ATOM     77  C   UNL A   1      44.059  22.963  33.549  1.00  0.00     0.134 A 
ATOM     78  F   UNL A   1      47.102  24.930  33.550  1.00  0.00    -0.206 F 
ATOM     79  C   UNL A   1      46.623  22.905  34.573  1.00  0.00     0.040 A 
ATOM     80  C   UNL A   1      44.433  21.958  34.448  1.00  0.00     0.040 A 
ATOM     81  F   UNL A   1      42.788  22.921  33.124  1.00  0.00    -0.206 F 
ATOM     82  C   UNL A   1      45.730  21.909  34.940  1.00  0.00     0.006 A 
ENDBRANCH  58  75
ENDBRANCH  32  33
ENDBRANCH  25  27
ENDBRANCH  24  25
ENDBRANCH  23  24
ENDBRANCH   1  23
TORSDOF 15
ENDMDL
MODEL 3
REMARK VINA RESULT:     -11.3      4.877      9.748
REMARK SMILES Cc1cccc(CS[C@@H]2CC[C@]([NH3+])(C(=O)OCCOC(=O)c3ccc(-c4c5nc(c(-c6c(F)cccc6F)c6ccc([nH]6)c(-c6c(F)cccc6F)c6nc(c(-c7c(F)cccc7F)c7ccc4[nH]7)C=C6)C=C5)cc3)C2)c1
REMARK SMILES IDX 17 1 16 2 14 3 15 4 12 5 9 6 10 7 76 8 11 9 8 10 7 11 6 12
REMARK SMILES IDX 1 13 2 14 3 15 77 16 4 17 5 18 13 19 18 23 19 24 20 25 21 26
REMARK SMILES IDX 22 27 23 28 75 29 24 30 74 31 25 32 26 33 27 34 68 35 28 36
REMARK SMILES IDX 73 37 67 38 69 39 29 40 72 41 66 42 65 43 30 45 56 46 39 47
REMARK SMILES IDX 55 48 40 49 43 50 54 51 70 52 41 53 42 54 53 56 71 57 44 58
REMARK SMILES IDX 31 59 32 60 37 61 33 62 34 63 36 64 38 65 35 66 57 67 58 68
REMARK SMILES IDX 63 69 59 70 60 71 62 72 64 73 61 74 45 75 46 76 51 77 47 78
REMARK SMILES IDX 48 79 50 80 52 81 49 82
REMARK H PARENT 13 20 13 21 13 22 69 44 43 55
REMARK Flexibility Score: inf
ROOT
ATOM      1  C   UNL A   1      33.481  29.488  26.052  1.00  0.00     0.274 C 
ENDROOT
BRANCH   1   2
ATOM      2  O   UNL A   1      32.982  28.269  25.483  1.00  0.00    -0.457 OA
BRANCH   2   3
ATOM      3  C   UNL A   1      32.033  27.629  26.199  1.00  0.00     0.368 C 
ATOM      4  O   UNL A   1      31.405  28.149  27.118  1.00  0.00    -0.245 OA
BRANCH   3   5
ATOM      5  C   UNL A   1      31.668  26.219  25.657  1.00  0.00     0.193 C 
ATOM      6  C   UNL A   1      31.923  24.308  24.261  1.00  0.00     0.054 C 
ATOM      7  C   UNL A   1      30.655  24.991  23.753  1.00  0.00     0.022 C 
ATOM      8  C   UNL A   1      32.738  25.490  24.809  1.00  0.00     0.095 C 
ATOM      9  C   UNL A   1      30.434  26.172  24.724  1.00  0.00     0.082 C 
BRANCH   6  10
ATOM     10  S   UNL A   1      32.746  23.007  23.286  1.00  0.00    -0.154 SA
BRANCH  10  11
ATOM     11  C   UNL A   1      33.497  21.908  24.502  1.00  0.00     0.105 C 
BRANCH  11  12
ATOM     12  C   UNL A   1      34.974  22.049  24.722  1.00  0.00    -0.038 A 
ATOM     13  C   UNL A   1      37.833  19.614  25.001  1.00  0.00     0.044 C 
ATOM     14  C   UNL A   1      37.090  20.903  25.009  1.00  0.00    -0.051 A 
ATOM     15  C   UNL A   1      37.747  22.126  25.159  1.00  0.00     0.003 A 
ATOM     16  C   UNL A   1      35.719  20.872  24.782  1.00  0.00     0.008 A 
ATOM     17  C   UNL A   1      37.029  23.312  25.046  1.00  0.00     0.001 A 
ATOM     18  C   UNL A   1      35.653  23.275  24.805  1.00  0.00     0.004 A 
ENDBRANCH  11  12
ENDBRANCH  10  11
ENDBRANCH   6  10
BRANCH   5  19
ATOM     19  N   UNL A   1      31.357  25.398  26.876  1.00  0.00    -0.343 N 
ATOM     20  H   UNL A   1      31.445  25.979  27.709  1.00  0.00     0.345 HD
ATOM     21  H   UNL A   1      32.011  24.617  26.936  1.00  0.00     0.345 HD
ATOM     22  H   UNL A   1      30.405  25.038  26.810  1.00  0.00     0.345 HD
ENDBRANCH   5  19
ENDBRANCH   3   5
ENDBRANCH   2   3
ENDBRANCH   1   2
BRANCH   1  23
ATOM     23  C   UNL A   1      34.597  29.452  27.120  1.00  0.00     0.275 C 
BRANCH  23  24
ATOM     24  O   UNL A   1      34.596  30.393  28.226  1.00  0.00    -0.458 OA
BRANCH  24  25
ATOM     25  C   UNL A   1      35.657  30.981  28.824  1.00  0.00     0.338 C 
ATOM     26  O   UNL A   1      35.588  32.031  29.453  1.00  0.00    -0.246 OA
BRANCH  25  27
ATOM     27  C   UNL A   1      36.904  30.219  28.797  1.00  0.00     0.060 A 
ATOM     28  C   UNL A   1      37.151  29.302  29.828  1.00  0.00     0.016 A 
ATOM     29  C   UNL A   1      37.727  30.306  27.682  1.00  0.00     0.016 A 
ATOM     30  C   UNL A   1      38.164  28.357  29.675  1.00  0.00     0.010 A 
ATOM     31  C   UNL A   1      38.682  29.329  27.498  1.00  0.00     0.010 A 
ATOM     32  C   UNL A   1      38.912  28.357  28.491  1.00  0.00    -0.014 A 
BRANCH  32  33
ATOM     33  C   UNL A   1      40.196  27.670  28.367  1.00  0.00     0.031 A 
ATOM     34  C   UNL A   1      40.385  26.241  28.024  1.00  0.00     0.074 A 
ATOM     35  C   UNL A   1      41.239  28.459  28.719  1.00  0.00     0.049 A 
ATOM     36  N   UNL A   1      41.519  25.635  28.156  1.00  0.00    -0.248 NA
ATOM     37  C   UNL A   1      39.319  25.345  27.573  1.00  0.00     0.031 C 
ATOM     38  C   UNL A   1      42.665  28.216  28.611  1.00  0.00     0.029 A 
ATOM     39  N   UNL A   1      41.151  29.616  29.507  1.00  0.00    -0.354 N 
ATOM     40  C   UNL A   1      41.369  24.317  27.801  1.00  0.00     0.074 A 
ATOM     41  C   UNL A   1      39.991  24.195  27.379  1.00  0.00     0.031 C 
ATOM     42  C   UNL A   1      43.286  28.971  29.532  1.00  0.00     0.029 A 
ATOM     43  C   UNL A   1      42.258  29.608  30.344  1.00  0.00     0.049 A 
ATOM     44  H   UNL A   1      40.442  30.300  29.473  1.00  0.00     0.167 HD
ATOM     45  C   UNL A   1      42.427  23.465  27.915  1.00  0.00     0.037 A 
ATOM     46  C   UNL A   1      42.160  29.578  31.701  1.00  0.00     0.037 A 
ATOM     47  C   UNL A   1      43.530  24.052  28.664  1.00  0.00     0.049 A 
ATOM     48  C   UNL A   1      42.940  28.424  32.278  1.00  0.00     0.074 A 
ATOM     49  C   UNL A   1      44.505  24.974  28.328  1.00  0.00     0.029 A 
ATOM     50  N   UNL A   1      43.544  23.954  30.049  1.00  0.00    -0.354 N 
ATOM     51  N   UNL A   1      43.224  27.331  31.619  1.00  0.00    -0.248 NA
ATOM     52  C   UNL A   1      43.449  28.415  33.643  1.00  0.00     0.031 C 
ATOM     53  C   UNL A   1      44.955  25.576  29.533  1.00  0.00     0.029 A 
ATOM     54  C   UNL A   1      44.297  24.981  30.598  1.00  0.00     0.049 A 
ATOM     55  H   UNL A   1      43.086  23.253  30.568  1.00  0.00     0.167 HD
ATOM     56  C   UNL A   1      43.932  26.486  32.433  1.00  0.00     0.074 A 
ATOM     57  C   UNL A   1      44.066  27.222  33.679  1.00  0.00     0.031 C 
ATOM     58  C   UNL A   1      44.317  25.234  32.038  1.00  0.00     0.037 A 
BRANCH  45  59
ATOM     59  C   UNL A   1      42.525  22.147  27.214  1.00  0.00     0.057 A 
ATOM     60  C   UNL A   1      41.688  21.090  27.624  1.00  0.00     0.134 A 
ATOM     61  C   UNL A   1      43.429  21.841  26.190  1.00  0.00     0.134 A 
ATOM     62  F   UNL A   1      40.778  21.263  28.595  1.00  0.00    -0.206 F 
ATOM     63  C   UNL A   1      41.772  19.804  27.081  1.00  0.00     0.040 A 
ATOM     64  C   UNL A   1      43.547  20.547  25.660  1.00  0.00     0.040 A 
ATOM     65  F   UNL A   1      44.215  22.788  25.657  1.00  0.00    -0.206 F 
ATOM     66  C   UNL A   1      42.720  19.522  26.108  1.00  0.00     0.006 A 
ENDBRANCH  45  59
BRANCH  46  67
ATOM     67  C   UNL A   1      40.910  30.144  32.295  1.00  0.00     0.057 A 
ATOM     68  C   UNL A   1      39.882  29.269  32.698  1.00  0.00     0.134 A 
ATOM     69  C   UNL A   1      40.791  31.475  32.713  1.00  0.00     0.134 A 
ATOM     70  F   UNL A   1      39.920  27.977  32.341  1.00  0.00    -0.206 F 
ATOM     71  C   UNL A   1      38.843  29.673  33.546  1.00  0.00     0.040 A 
ATOM     72  C   UNL A   1      39.743  31.897  33.547  1.00  0.00     0.040 A 
ATOM     73  F   UNL A   1      41.728  32.377  32.394  1.00  0.00    -0.206 F 
ATOM     74  C   UNL A   1      38.782  30.988  33.988  1.00  0.00     0.006 A 
ENDBRANCH  46  67
BRANCH  58  75
ATOM     75  C   UNL A   1      44.797  24.176  32.996  1.00  0.00     0.057 A 
ATOM     76  C   UNL A   1      44.060  23.024  33.324  1.00  0.00     0.134 A 
ATOM     77  C   UNL A   1      46.098  24.226  33.535  1.00  0.00     0.134 A 
ATOM     78  F   UNL A   1      42.874  22.764  32.756  1.00  0.00    -0.206 F 
ATOM     79  C   UNL A   1      44.532  22.054  34.214  1.00  0.00     0.040 A 
ATOM     80  C   UNL A   1      46.606  23.230  34.375  1.00  0.00     0.040 A 
ATOM     81  F   UNL A   1      46.939  25.229  33.245  1.00  0.00    -0.206 F 
ATOM     82  C   UNL A   1      45.811  22.153  34.742  1.00  0.00     0.006 A 
ENDBRANCH  58  75
ENDBRANCH  32  33
ENDBRANCH  25  27
ENDBRANCH  24  25
ENDBRANCH  23  24
ENDBRANCH   1  23
TORSDOF 15
ENDMDL
