MODEL 1
REMARK VINA RESULT:     -11.7      0.000      0.000
REMARK SMILES CCCNC(=O)N1[C@@H](C(=O)OCCOC(=O)c2ccc(-c3c4nc(c(-c5c(F)cccc5F)c5ccc([nH]5)c(-c5c(F)cccc5F)c5nc(c(-c6c(F)cccc6F)c6ccc3[nH]6)C=C5)C=C4)cc2)CC[C@H]2CCCC[C@@H]21
REMARK SMILES IDX 12 1 11 2 9 3 10 4 8 5 7 6 78 7 71 8 73 9 77 10 72 11 74 12
REMARK SMILES IDX 76 13 75 14 5 15 4 16 6 18 3 19 2 20 1 21 13 22 14 23 15 24
REMARK SMILES IDX 16 25 17 26 18 27 70 28 19 29 69 30 20 31 21 32 22 33 63 34
REMARK SMILES IDX 23 35 68 36 62 37 64 38 24 39 67 40 61 41 60 42 25 44 51 45
REMARK SMILES IDX 34 46 50 47 35 48 38 49 49 50 65 51 36 52 37 53 48 55 66 56
REMARK SMILES IDX 39 57 26 58 27 59 32 60 28 61 29 62 31 63 33 64 30 65 52 66
REMARK SMILES IDX 53 67 58 68 54 69 55 70 57 71 59 72 56 73 40 74 41 75 46 76
REMARK SMILES IDX 42 77 43 78 45 79 47 80 44 81
REMARK H PARENT 4 17 64 43 38 54
REMARK Flexibility Score: inf
ROOT
ATOM      1  C   UNL A   1      32.451  29.312  24.067  1.00  0.00     0.274 C 
ENDROOT
BRANCH   1   2
ATOM      2  O   UNL A   1      32.391  27.913  23.708  1.00  0.00    -0.461 OA
BRANCH   2   3
ATOM      3  C   UNL A   1      33.515  27.375  23.142  1.00  0.00     0.329 C 
ATOM      4  O   UNL A   1      34.013  27.752  22.087  1.00  0.00    -0.250 OA
BRANCH   3   5
ATOM      5  C   UNL A   1      34.019  26.166  23.984  1.00  0.00     0.197 C 
ATOM      6  N   UNL A   1      33.459  24.870  23.596  1.00  0.00    -0.308 N 
ATOM      7  C   UNL A   1      33.862  23.679  24.323  1.00  0.00     0.091 C 
ATOM      8  C   UNL A   1      33.615  26.426  25.454  1.00  0.00     0.038 C 
ATOM      9  C   UNL A   1      34.329  24.015  25.744  1.00  0.00     0.012 C 
ATOM     10  C   UNL A   1      34.940  22.819  23.651  1.00  0.00     0.025 C 
ATOM     11  C   UNL A   1      33.477  25.149  26.311  1.00  0.00     0.008 C 
ATOM     12  C   UNL A   1      34.298  22.718  26.554  1.00  0.00     0.006 C 
ATOM     13  C   UNL A   1      35.054  21.492  24.414  1.00  0.00     0.002 C 
ATOM     14  C   UNL A   1      35.239  21.677  25.928  1.00  0.00     0.000 C 
BRANCH   6  15
ATOM     15  C   UNL A   1      32.847  24.754  22.391  1.00  0.00     0.318 C 
ATOM     16  N   UNL A   1      31.489  24.709  22.411  1.00  0.00    -0.338 N 
ATOM     17  H   UNL A   1      31.055  24.855  21.539  1.00  0.00     0.165 HD
ATOM     18  O   UNL A   1      33.488  24.811  21.347  1.00  0.00    -0.249 OA
BRANCH  16  19
ATOM     19  C   UNL A   1      30.577  24.482  23.516  1.00  0.00     0.117 C 
BRANCH  19  20
ATOM     20  C   UNL A   1      29.908  25.738  24.072  1.00  0.00     0.018 C 
ATOM     21  C   UNL A   1      29.912  25.832  25.588  1.00  0.00     0.006 C 
ENDBRANCH  19  20
ENDBRANCH  16  19
ENDBRANCH   6  15
ENDBRANCH   3   5
ENDBRANCH   2   3
ENDBRANCH   1   2
BRANCH   1  22
ATOM     22  C   UNL A   1      31.369  29.659  25.093  1.00  0.00     0.275 C 
BRANCH  22  23
ATOM     23  O   UNL A   1      31.951  29.672  26.405  1.00  0.00    -0.458 OA
BRANCH  23  24
ATOM     24  C   UNL A   1      32.466  30.851  26.830  1.00  0.00     0.338 C 
ATOM     25  O   UNL A   1      31.864  31.918  26.887  1.00  0.00    -0.246 OA
BRANCH  24  26
ATOM     26  C   UNL A   1      33.881  30.676  27.261  1.00  0.00     0.060 A 
ATOM     27  C   UNL A   1      34.466  29.416  27.286  1.00  0.00     0.016 A 
ATOM     28  C   UNL A   1      34.615  31.762  27.752  1.00  0.00     0.016 A 
ATOM     29  C   UNL A   1      35.682  29.228  27.945  1.00  0.00     0.010 A 
ATOM     30  C   UNL A   1      35.884  31.569  28.336  1.00  0.00     0.010 A 
ATOM     31  C   UNL A   1      36.408  30.278  28.518  1.00  0.00    -0.014 A 
BRANCH  31  32
ATOM     32  C   UNL A   1      37.596  29.979  29.398  1.00  0.00     0.031 A 
ATOM     33  C   UNL A   1      38.858  29.378  28.810  1.00  0.00     0.074 A 
ATOM     34  C   UNL A   1      37.648  30.354  30.698  1.00  0.00     0.049 A 
ATOM     35  N   UNL A   1      39.882  28.843  29.433  1.00  0.00    -0.248 NA
ATOM     36  C   UNL A   1      38.983  29.353  27.345  1.00  0.00     0.031 C 
ATOM     37  C   UNL A   1      36.582  31.028  31.440  1.00  0.00     0.029 A 
ATOM     38  N   UNL A   1      38.678  30.295  31.612  1.00  0.00    -0.354 N 
ATOM     39  C   UNL A   1      40.684  28.287  28.443  1.00  0.00     0.074 A 
ATOM     40  C   UNL A   1      40.070  28.613  27.175  1.00  0.00     0.031 C 
ATOM     41  C   UNL A   1      37.068  31.478  32.606  1.00  0.00     0.029 A 
ATOM     42  C   UNL A   1      38.425  30.980  32.779  1.00  0.00     0.049 A 
ATOM     43  H   UNL A   1      39.517  29.808  31.445  1.00  0.00     0.167 HD
ATOM     44  C   UNL A   1      41.806  27.539  28.589  1.00  0.00     0.037 A 
ATOM     45  C   UNL A   1      39.178  31.158  33.883  1.00  0.00     0.037 A 
ATOM     46  C   UNL A   1      42.489  27.336  29.841  1.00  0.00     0.049 A 
ATOM     47  C   UNL A   1      40.465  30.393  34.017  1.00  0.00     0.074 A 
ATOM     48  C   UNL A   1      43.584  26.532  30.115  1.00  0.00     0.029 A 
ATOM     49  N   UNL A   1      42.181  28.001  31.016  1.00  0.00    -0.354 N 
ATOM     50  N   UNL A   1      41.087  29.656  33.131  1.00  0.00    -0.248 NA
ATOM     51  C   UNL A   1      41.113  30.420  35.338  1.00  0.00     0.031 C 
ATOM     52  C   UNL A   1      43.931  26.706  31.461  1.00  0.00     0.029 A 
ATOM     53  C   UNL A   1      43.070  27.639  32.014  1.00  0.00     0.049 A 
ATOM     54  H   UNL A   1      41.437  28.636  31.126  1.00  0.00     0.167 HD
ATOM     55  C   UNL A   1      42.169  29.096  33.797  1.00  0.00     0.074 A 
ATOM     56  C   UNL A   1      42.163  29.636  35.140  1.00  0.00     0.031 C 
ATOM     57  C   UNL A   1      43.058  28.178  33.349  1.00  0.00     0.037 A 
BRANCH  44  58
ATOM     58  C   UNL A   1      42.304  26.800  27.383  1.00  0.00     0.057 A 
ATOM     59  C   UNL A   1      41.860  25.522  27.030  1.00  0.00     0.134 A 
ATOM     60  C   UNL A   1      43.248  27.410  26.542  1.00  0.00     0.134 A 
ATOM     61  F   UNL A   1      40.971  24.875  27.797  1.00  0.00    -0.206 F 
ATOM     62  C   UNL A   1      42.352  24.868  25.896  1.00  0.00     0.040 A 
ATOM     63  C   UNL A   1      43.728  26.779  25.395  1.00  0.00     0.040 A 
ATOM     64  F   UNL A   1      43.710  28.640  26.818  1.00  0.00    -0.206 F 
ATOM     65  C   UNL A   1      43.285  25.499  25.073  1.00  0.00     0.006 A 
ENDBRANCH  44  58
BRANCH  45  66
ATOM     66  C   UNL A   1      38.723  32.045  34.988  1.00  0.00     0.057 A 
ATOM     67  C   UNL A   1      38.900  33.432  34.903  1.00  0.00     0.134 A 
ATOM     68  C   UNL A   1      38.135  31.546  36.157  1.00  0.00     0.134 A 
ATOM     69  F   UNL A   1      39.491  33.973  33.828  1.00  0.00    -0.206 F 
ATOM     70  C   UNL A   1      38.512  34.288  35.937  1.00  0.00     0.040 A 
ATOM     71  C   UNL A   1      37.708  32.392  37.183  1.00  0.00     0.040 A 
ATOM     72  F   UNL A   1      37.952  30.228  36.314  1.00  0.00    -0.206 F 
ATOM     73  C   UNL A   1      37.903  33.767  37.076  1.00  0.00     0.006 A 
ENDBRANCH  45  66
BRANCH  57  74
ATOM     74  C   UNL A   1      44.083  27.689  34.324  1.00  0.00     0.057 A 
ATOM     75  C   UNL A   1      45.311  28.347  34.480  1.00  0.00     0.134 A 
ATOM     76  C   UNL A   1      43.843  26.568  35.126  1.00  0.00     0.134 A 
ATOM     77  F   UNL A   1      45.607  29.420  33.730  1.00  0.00    -0.206 F 
ATOM     78  C   UNL A   1      46.273  27.893  35.383  1.00  0.00     0.040 A 
ATOM     79  C   UNL A   1      44.789  26.116  36.047  1.00  0.00     0.040 A 
ATOM     80  F   UNL A   1      42.686  25.895  35.027  1.00  0.00    -0.206 F 
ATOM     81  C   UNL A   1      46.010  26.776  36.173  1.00  0.00     0.006 A 
ENDBRANCH  57  74
ENDBRANCH  31  32
ENDBRANCH  24  26
ENDBRANCH  23  24
ENDBRANCH  22  23
ENDBRANCH   1  22
TORSDOF 14
ENDMDL
MODEL 2
REMARK VINA RESULT:     -11.7      3.691      8.564
REMARK SMILES CCCNC(=O)N1[C@@H](C(=O)OCCOC(=O)c2ccc(-c3c4nc(c(-c5c(F)cccc5F)c5ccc([nH]5)c(-c5c(F)cccc5F)c5nc(c(-c6c(F)cccc6F)c6ccc3[nH]6)C=C5)C=C4)cc2)CC[C@H]2CCCC[C@@H]21
REMARK SMILES IDX 12 1 11 2 9 3 10 4 8 5 7 6 78 7 71 8 73 9 77 10 72 11 74 12
REMARK SMILES IDX 76 13 75 14 5 15 4 16 6 18 3 19 2 20 1 21 13 22 14 23 15 24
REMARK SMILES IDX 16 25 17 26 18 27 70 28 19 29 69 30 20 31 21 32 22 33 63 34
REMARK SMILES IDX 23 35 68 36 62 37 64 38 24 39 67 40 61 41 60 42 25 44 51 45
REMARK SMILES IDX 34 46 50 47 35 48 38 49 49 50 65 51 36 52 37 53 48 55 66 56
REMARK SMILES IDX 39 57 26 58 27 59 32 60 28 61 29 62 31 63 33 64 30 65 52 66
REMARK SMILES IDX 53 67 58 68 54 69 55 70 57 71 59 72 56 73 40 74 41 75 46 76
REMARK SMILES IDX 42 77 43 78 45 79 47 80 44 81
REMARK H PARENT 4 17 64 43 38 54
REMARK Flexibility Score: inf
ROOT
ATOM      1  C   UNL A   1      34.496  21.471  26.227  1.00  0.00     0.274 C 
ENDROOT
BRANCH   1   2
ATOM      2  O   UNL A   1      34.516  22.910  26.092  1.00  0.00    -0.461 OA
BRANCH   2   3
ATOM      3  C   UNL A   1      33.542  23.468  25.309  1.00  0.00     0.329 C 
ATOM      4  O   UNL A   1      32.799  22.837  24.565  1.00  0.00    -0.250 OA
BRANCH   3   5
ATOM      5  C   UNL A   1      33.568  25.020  25.436  1.00  0.00     0.197 C 
ATOM      6  N   UNL A   1      32.265  25.638  25.691  1.00  0.00    -0.308 N 
ATOM      7  C   UNL A   1      32.180  27.081  25.822  1.00  0.00     0.091 C 
ATOM      8  C   UNL A   1      34.095  25.585  24.096  1.00  0.00     0.038 C 
ATOM      9  C   UNL A   1      33.326  27.784  25.085  1.00  0.00     0.012 C 
ATOM     10  C   UNL A   1      32.126  27.621  27.257  1.00  0.00     0.025 C 
ATOM     11  C   UNL A   1      33.647  27.032  23.795  1.00  0.00     0.008 C 
ATOM     12  C   UNL A   1      32.920  29.246  24.895  1.00  0.00     0.006 C 
ATOM     13  C   UNL A   1      31.781  29.116  27.206  1.00  0.00     0.002 C 
ATOM     14  C   UNL A   1      32.688  29.916  26.259  1.00  0.00     0.000 C 
BRANCH   6  15
ATOM     15  C   UNL A   1      31.242  24.857  26.121  1.00  0.00     0.318 C 
ATOM     16  N   UNL A   1      30.301  24.539  25.192  1.00  0.00    -0.338 N 
ATOM     17  H   UNL A   1      29.701  23.801  25.445  1.00  0.00     0.165 HD
ATOM     18  O   UNL A   1      31.243  24.374  27.247  1.00  0.00    -0.249 OA
BRANCH  16  19
ATOM     19  C   UNL A   1      30.045  25.116  23.886  1.00  0.00     0.117 C 
BRANCH  19  20
ATOM     20  C   UNL A   1      29.150  26.353  23.889  1.00  0.00     0.018 C 
ATOM     21  C   UNL A   1      29.747  27.561  23.188  1.00  0.00     0.006 C 
ENDBRANCH  19  20
ENDBRANCH  16  19
ENDBRANCH   6  15
ENDBRANCH   3   5
ENDBRANCH   2   3
ENDBRANCH   1   2
BRANCH   1  22
ATOM     22  C   UNL A   1      35.433  20.814  25.211  1.00  0.00     0.275 C 
BRANCH  22  23
ATOM     23  O   UNL A   1      36.494  21.725  24.889  1.00  0.00    -0.458 OA
BRANCH  23  24
ATOM     24  C   UNL A   1      37.744  21.360  25.265  1.00  0.00     0.338 C 
ATOM     25  O   UNL A   1      38.292  20.296  24.995  1.00  0.00    -0.246 OA
BRANCH  24  26
ATOM     26  C   UNL A   1      38.394  22.453  26.040  1.00  0.00     0.060 A 
ATOM     27  C   UNL A   1      37.834  23.724  26.083  1.00  0.00     0.016 A 
ATOM     28  C   UNL A   1      39.638  22.250  26.649  1.00  0.00     0.016 A 
ATOM     29  C   UNL A   1      38.584  24.796  26.572  1.00  0.00     0.010 A 
ATOM     30  C   UNL A   1      40.346  23.329  27.219  1.00  0.00     0.010 A 
ATOM     31  C   UNL A   1      39.864  24.644  27.118  1.00  0.00    -0.014 A 
BRANCH  31  32
ATOM     32  C   UNL A   1      40.699  25.862  27.424  1.00  0.00     0.031 A 
ATOM     33  C   UNL A   1      40.259  26.851  28.486  1.00  0.00     0.074 A 
ATOM     34  C   UNL A   1      41.925  26.055  26.883  1.00  0.00     0.049 A 
ATOM     35  N   UNL A   1      40.715  28.059  28.726  1.00  0.00    -0.248 NA
ATOM     36  C   UNL A   1      39.159  26.451  29.377  1.00  0.00     0.031 C 
ATOM     37  C   UNL A   1      42.582  25.181  25.911  1.00  0.00     0.029 A 
ATOM     38  N   UNL A   1      42.881  27.015  27.137  1.00  0.00    -0.354 N 
ATOM     39  C   UNL A   1      39.862  28.607  29.677  1.00  0.00     0.074 A 
ATOM     40  C   UNL A   1      38.908  27.578  30.027  1.00  0.00     0.031 C 
ATOM     41  C   UNL A   1      43.871  25.530  25.798  1.00  0.00     0.029 A 
ATOM     42  C   UNL A   1      44.099  26.757  26.549  1.00  0.00     0.049 A 
ATOM     43  H   UNL A   1      42.709  27.812  27.689  1.00  0.00     0.167 HD
ATOM     44  C   UNL A   1      39.859  29.867  30.177  1.00  0.00     0.037 A 
ATOM     45  C   UNL A   1      45.259  27.442  26.575  1.00  0.00     0.037 A 
ATOM     46  C   UNL A   1      40.891  30.842  29.933  1.00  0.00     0.049 A 
ATOM     47  C   UNL A   1      45.283  28.809  27.200  1.00  0.00     0.074 A 
ATOM     48  C   UNL A   1      40.946  32.170  30.322  1.00  0.00     0.029 A 
ATOM     49  N   UNL A   1      42.087  30.567  29.292  1.00  0.00    -0.354 N 
ATOM     50  N   UNL A   1      44.354  29.419  27.893  1.00  0.00    -0.248 NA
ATOM     51  C   UNL A   1      46.491  29.617  26.973  1.00  0.00     0.031 C 
ATOM     52  C   UNL A   1      42.173  32.701  29.905  1.00  0.00     0.029 A 
ATOM     53  C   UNL A   1      42.893  31.694  29.285  1.00  0.00     0.049 A 
ATOM     54  H   UNL A   1      42.329  29.699  28.896  1.00  0.00     0.167 HD
ATOM     55  C   UNL A   1      44.845  30.693  28.144  1.00  0.00     0.074 A 
ATOM     56  C   UNL A   1      46.183  30.745  27.595  1.00  0.00     0.031 C 
ATOM     57  C   UNL A   1      44.222  31.741  28.734  1.00  0.00     0.037 A 
BRANCH  44  58
ATOM     58  C   UNL A   1      38.649  30.299  30.953  1.00  0.00     0.057 A 
ATOM     59  C   UNL A   1      38.569  30.232  32.347  1.00  0.00     0.134 A 
ATOM     60  C   UNL A   1      37.539  30.816  30.267  1.00  0.00     0.134 A 
ATOM     61  F   UNL A   1      39.587  29.734  33.064  1.00  0.00    -0.206 F 
ATOM     62  C   UNL A   1      37.421  30.644  33.031  1.00  0.00     0.040 A 
ATOM     63  C   UNL A   1      36.398  31.253  30.938  1.00  0.00     0.040 A 
ATOM     64  F   UNL A   1      37.554  30.915  28.928  1.00  0.00    -0.206 F 
ATOM     65  C   UNL A   1      36.334  31.161  32.325  1.00  0.00     0.006 A 
ENDBRANCH  44  58
BRANCH  45  66
ATOM     66  C   UNL A   1      46.489  26.895  25.940  1.00  0.00     0.057 A 
ATOM     67  C   UNL A   1      47.358  26.073  26.670  1.00  0.00     0.134 A 
ATOM     68  C   UNL A   1      46.848  27.191  24.620  1.00  0.00     0.134 A 
ATOM     69  F   UNL A   1      47.094  25.780  27.951  1.00  0.00    -0.206 F 
ATOM     70  C   UNL A   1      48.536  25.570  26.112  1.00  0.00     0.040 A 
ATOM     71  C   UNL A   1      48.002  26.666  24.037  1.00  0.00     0.040 A 
ATOM     72  F   UNL A   1      46.072  27.986  23.869  1.00  0.00    -0.206 F 
ATOM     73  C   UNL A   1      48.854  25.858  24.787  1.00  0.00     0.006 A 
ENDBRANCH  45  66
BRANCH  57  74
ATOM     74  C   UNL A   1      44.975  33.034  28.798  1.00  0.00     0.057 A 
ATOM     75  C   UNL A   1      44.893  33.973  27.761  1.00  0.00     0.134 A 
ATOM     76  C   UNL A   1      45.771  33.354  29.902  1.00  0.00     0.134 A 
ATOM     77  F   UNL A   1      44.158  33.719  26.668  1.00  0.00    -0.206 F 
ATOM     78  C   UNL A   1      45.597  35.178  27.812  1.00  0.00     0.040 A 
ATOM     79  C   UNL A   1      46.463  34.564  29.973  1.00  0.00     0.040 A 
ATOM     80  F   UNL A   1      45.888  32.499  30.929  1.00  0.00    -0.206 F 
ATOM     81  C   UNL A   1      46.381  35.477  28.923  1.00  0.00     0.006 A 
ENDBRANCH  57  74
ENDBRANCH  31  32
ENDBRANCH  24  26
ENDBRANCH  23  24
ENDBRANCH  22  23
ENDBRANCH   1  22
TORSDOF 14
ENDMDL
MODEL 3
REMARK VINA RESULT:     -11.2      1.165      2.008
REMARK SMILES CCCNC(=O)N1[C@@H](C(=O)OCCOC(=O)c2ccc(-c3c4nc(c(-c5c(F)cccc5F)c5ccc([nH]5)c(-c5c(F)cccc5F)c5nc(c(-c6c(F)cccc6F)c6ccc3[nH]6)C=C5)C=C4)cc2)CC[C@H]2CCCC[C@@H]21
REMARK SMILES IDX 12 1 11 2 9 3 10 4 8 5 7 6 78 7 71 8 73 9 77 10 72 11 74 12
REMARK SMILES IDX 76 13 75 14 5 15 4 16 6 18 3 19 2 20 1 21 13 22 14 23 15 24
REMARK SMILES IDX 16 25 17 26 18 27 70 28 19 29 69 30 20 31 21 32 22 33 63 34
REMARK SMILES IDX 23 35 68 36 62 37 64 38 24 39 67 40 61 41 60 42 25 44 51 45
REMARK SMILES IDX 34 46 50 47 35 48 38 49 49 50 65 51 36 52 37 53 48 55 66 56
REMARK SMILES IDX 39 57 26 58 27 59 32 60 28 61 29 62 31 63 33 64 30 65 52 66
REMARK SMILES IDX 53 67 58 68 54 69 55 70 57 71 59 72 56 73 40 74 41 75 46 76
REMARK SMILES IDX 42 77 43 78 45 79 47 80 44 81
REMARK H PARENT 4 17 64 43 38 54
REMARK Flexibility Score: inf
ROOT
ATOM      1  C   UNL A   1      31.164  27.241  26.524  1.00  0.00     0.274 C 
ENDROOT
BRANCH   1   2
ATOM      2  O   UNL A   1      31.907  26.131  27.077  1.00  0.00    -0.461 OA
BRANCH   2   3
ATOM      3  C   UNL A   1      31.610  24.887  26.590  1.00  0.00     0.329 C 
ATOM      4  O   UNL A   1      30.476  24.477  26.372  1.00  0.00    -0.250 OA
BRANCH   3   5
ATOM      5  C   UNL A   1      32.909  24.044  26.431  1.00  0.00     0.197 C 
ATOM      6  N   UNL A   1      33.319  23.801  25.046  1.00  0.00    -0.308 N 
ATOM      7  C   UNL A   1      34.516  23.020  24.789  1.00  0.00     0.091 C 
ATOM      8  C   UNL A   1      32.650  22.667  27.087  1.00  0.00     0.038 C 
ATOM      9  C   UNL A   1      34.830  22.069  25.950  1.00  0.00     0.012 C 
ATOM     10  C   UNL A   1      35.782  23.824  24.466  1.00  0.00     0.025 C 
ATOM     11  C   UNL A   1      33.530  21.524  26.536  1.00  0.00     0.008 C 
ATOM     12  C   UNL A   1      35.795  21.007  25.422  1.00  0.00     0.006 C 
ATOM     13  C   UNL A   1      36.866  22.854  23.974  1.00  0.00     0.002 C 
ATOM     14  C   UNL A   1      37.090  21.665  24.921  1.00  0.00     0.000 C 
BRANCH   6  15
ATOM     15  C   UNL A   1      32.782  24.563  24.060  1.00  0.00     0.318 C 
ATOM     16  N   UNL A   1      31.714  24.031  23.408  1.00  0.00    -0.338 N 
ATOM     17  H   UNL A   1      31.198  24.670  22.865  1.00  0.00     0.165 HD
ATOM     18  O   UNL A   1      33.168  25.709  23.864  1.00  0.00    -0.249 OA
BRANCH  16  19
ATOM     19  C   UNL A   1      31.214  22.669  23.388  1.00  0.00     0.117 C 
BRANCH  19  20
ATOM     20  C   UNL A   1      32.035  21.690  22.551  1.00  0.00     0.018 C 
ATOM     21  C   UNL A   1      32.403  20.405  23.273  1.00  0.00     0.006 C 
ENDBRANCH  19  20
ENDBRANCH  16  19
ENDBRANCH   6  15
ENDBRANCH   3   5
ENDBRANCH   2   3
ENDBRANCH   1   2
BRANCH   1  22
ATOM     22  C   UNL A   1      31.512  28.545  27.245  1.00  0.00     0.275 C 
BRANCH  22  23
ATOM     23  O   UNL A   1      32.137  29.444  26.317  1.00  0.00    -0.458 OA
BRANCH  23  24
ATOM     24  C   UNL A   1      32.542  30.641  26.808  1.00  0.00     0.338 C 
ATOM     25  O   UNL A   1      31.853  31.652  26.892  1.00  0.00    -0.246 OA
BRANCH  24  26
ATOM     26  C   UNL A   1      33.954  30.560  27.276  1.00  0.00     0.060 A 
ATOM     27  C   UNL A   1      34.687  29.389  27.125  1.00  0.00     0.016 A 
ATOM     28  C   UNL A   1      34.534  31.626  27.973  1.00  0.00     0.016 A 
ATOM     29  C   UNL A   1      35.896  29.235  27.806  1.00  0.00     0.010 A 
ATOM     30  C   UNL A   1      35.799  31.485  28.582  1.00  0.00     0.010 A 
ATOM     31  C   UNL A   1      36.471  30.252  28.578  1.00  0.00    -0.014 A 
BRANCH  31  32
ATOM     32  C   UNL A   1      37.658  29.949  29.456  1.00  0.00     0.031 A 
ATOM     33  C   UNL A   1      38.919  29.347  28.867  1.00  0.00     0.074 A 
ATOM     34  C   UNL A   1      37.712  30.321  30.757  1.00  0.00     0.049 A 
ATOM     35  N   UNL A   1      39.943  28.808  29.488  1.00  0.00    -0.248 NA
ATOM     36  C   UNL A   1      39.043  29.324  27.401  1.00  0.00     0.031 C 
ATOM     37  C   UNL A   1      36.648  30.996  31.501  1.00  0.00     0.029 A 
ATOM     38  N   UNL A   1      38.743  30.258  31.670  1.00  0.00    -0.354 N 
ATOM     39  C   UNL A   1      40.742  28.252  28.496  1.00  0.00     0.074 A 
ATOM     40  C   UNL A   1      40.128  28.582  27.229  1.00  0.00     0.031 C 
ATOM     41  C   UNL A   1      37.135  31.442  32.667  1.00  0.00     0.029 A 
ATOM     42  C   UNL A   1      38.492  30.941  32.839  1.00  0.00     0.049 A 
ATOM     43  H   UNL A   1      39.580  29.770  31.502  1.00  0.00     0.167 HD
ATOM     44  C   UNL A   1      41.863  27.502  28.640  1.00  0.00     0.037 A 
ATOM     45  C   UNL A   1      39.246  31.116  33.943  1.00  0.00     0.037 A 
ATOM     46  C   UNL A   1      42.547  27.295  29.891  1.00  0.00     0.049 A 
ATOM     47  C   UNL A   1      40.531  30.348  34.075  1.00  0.00     0.074 A 
ATOM     48  C   UNL A   1      43.640  26.489  30.163  1.00  0.00     0.029 A 
ATOM     49  N   UNL A   1      42.241  27.958  31.067  1.00  0.00    -0.354 N 
ATOM     50  N   UNL A   1      41.151  29.611  33.186  1.00  0.00    -0.248 NA
ATOM     51  C   UNL A   1      41.180  30.371  35.395  1.00  0.00     0.031 C 
ATOM     52  C   UNL A   1      43.988  26.658  31.509  1.00  0.00     0.029 A 
ATOM     53  C   UNL A   1      43.130  27.593  32.064  1.00  0.00     0.049 A 
ATOM     54  H   UNL A   1      41.498  28.595  31.179  1.00  0.00     0.167 HD
ATOM     55  C   UNL A   1      42.232  29.048  33.851  1.00  0.00     0.074 A 
ATOM     56  C   UNL A   1      42.229  29.586  35.195  1.00  0.00     0.031 C 
ATOM     57  C   UNL A   1      43.119  28.129  33.400  1.00  0.00     0.037 A 
BRANCH  44  58
ATOM     58  C   UNL A   1      42.359  26.764  27.432  1.00  0.00     0.057 A 
ATOM     59  C   UNL A   1      43.300  27.293  26.544  1.00  0.00     0.134 A 
ATOM     60  C   UNL A   1      41.885  25.468  27.174  1.00  0.00     0.134 A 
ATOM     61  F   UNL A   1      43.783  28.532  26.722  1.00  0.00    -0.206 F 
ATOM     62  C   UNL A   1      43.735  26.571  25.428  1.00  0.00     0.040 A 
ATOM     63  C   UNL A   1      42.329  24.728  26.079  1.00  0.00     0.040 A 
ATOM     64  F   UNL A   1      40.987  24.898  27.992  1.00  0.00    -0.206 F 
ATOM     65  C   UNL A   1      43.252  25.282  25.197  1.00  0.00     0.006 A 
ENDBRANCH  44  58
BRANCH  45  66
ATOM     66  C   UNL A   1      38.793  32.001  35.050  1.00  0.00     0.057 A 
ATOM     67  C   UNL A   1      38.989  33.386  34.976  1.00  0.00     0.134 A 
ATOM     68  C   UNL A   1      38.189  31.503  36.210  1.00  0.00     0.134 A 
ATOM     69  F   UNL A   1      39.596  33.927  33.909  1.00  0.00    -0.206 F 
ATOM     70  C   UNL A   1      38.604  34.241  36.012  1.00  0.00     0.040 A 
ATOM     71  C   UNL A   1      37.765  32.347  37.238  1.00  0.00     0.040 A 
ATOM     72  F   UNL A   1      37.987  30.186  36.357  1.00  0.00    -0.206 F 
ATOM     73  C   UNL A   1      37.979  33.720  37.143  1.00  0.00     0.006 A 
ENDBRANCH  45  66
BRANCH  57  74
ATOM     74  C   UNL A   1      44.144  27.636  34.374  1.00  0.00     0.057 A 
ATOM     75  C   UNL A   1      45.375  28.288  34.526  1.00  0.00     0.134 A 
ATOM     76  C   UNL A   1      43.900  26.517  35.177  1.00  0.00     0.134 A 
ATOM     77  F   UNL A   1      45.675  29.359  33.775  1.00  0.00    -0.206 F 
ATOM     78  C   UNL A   1      46.337  27.830  35.428  1.00  0.00     0.040 A 
ATOM     79  C   UNL A   1      44.846  26.061  36.097  1.00  0.00     0.040 A 
ATOM     80  F   UNL A   1      42.740  25.850  35.082  1.00  0.00    -0.206 F 
ATOM     81  C   UNL A   1      46.071  26.716  36.220  1.00  0.00     0.006 A 
ENDBRANCH  57  74
ENDBRANCH  31  32
ENDBRANCH  24  26
ENDBRANCH  23  24
ENDBRANCH  22  23
ENDBRANCH   1  22
TORSDOF 14
ENDMDL
