MODEL 1
REMARK VINA RESULT:     -10.9      0.000      0.000
REMARK SMILES Cc1csc([C@H](C)Nc2cc(C)c(N)c(C(=O)OCCOC(=O)c3ccc(-c4c5nc(c(-c6c(F)cccc6F)c6ccc([nH]6)c(-c6c(F)cccc6F)c6nc(c(-c7c(F)cccc7F)c7ccc4[nH]7)C=C6)C=C5)cc3)c2)n1
REMARK SMILES IDX 19 1 18 2 16 3 17 4 15 5 9 6 10 7 78 8 11 9 12 10 13 11 8 12
REMARK SMILES IDX 6 14 7 15 5 16 1 17 2 18 3 19 79 20 4 21 14 22 20 25 21 26
REMARK SMILES IDX 22 27 23 28 24 29 25 30 77 31 26 32 76 33 27 34 28 35 29 36
REMARK SMILES IDX 70 37 30 38 75 39 69 40 71 41 31 42 74 43 68 44 67 45 32 47
REMARK SMILES IDX 58 48 41 49 57 50 42 51 45 52 56 53 72 54 43 55 44 56 55 58
REMARK SMILES IDX 73 59 46 60 33 61 34 62 39 63 35 64 36 65 38 66 40 67 37 68
REMARK SMILES IDX 59 69 60 70 65 71 61 72 62 73 64 74 66 75 63 76 47 77 48 78
REMARK SMILES IDX 53 79 49 80 50 81 52 82 54 83 51 84
REMARK H PARENT 8 13 14 23 14 24 71 46 45 57
REMARK Flexibility Score: inf
ROOT
ATOM      1  C   UNL A   1      33.341  35.691  28.724  1.00  0.00     0.275 C 
ENDROOT
BRANCH   1   2
ATOM      2  O   UNL A   1      33.402  34.284  29.048  1.00  0.00    -0.458 OA
BRANCH   2   3
ATOM      3  C   UNL A   1      34.644  33.744  29.185  1.00  0.00     0.340 C 
ATOM      4  O   UNL A   1      35.548  34.182  29.875  1.00  0.00    -0.246 OA
BRANCH   3   5
ATOM      5  C   UNL A   1      34.723  32.457  28.434  1.00  0.00     0.085 A 
ATOM      6  C   UNL A   1      33.560  30.645  27.278  1.00  0.00     0.036 A 
ATOM      7  C   UNL A   1      34.773  29.958  27.230  1.00  0.00     0.031 A 
ATOM      8  C   UNL A   1      33.545  31.878  27.936  1.00  0.00     0.043 A 
ATOM      9  C   UNL A   1      35.975  30.528  27.693  1.00  0.00    -0.025 A 
ATOM     10  C   UNL A   1      37.234  29.706  27.627  1.00  0.00     0.047 C 
ATOM     11  C   UNL A   1      35.971  31.834  28.217  1.00  0.00     0.049 A 
BRANCH   6  12
ATOM     12  N   UNL A   1      32.368  30.139  26.803  1.00  0.00    -0.376 N 
ATOM     13  H   UNL A   1      31.616  30.769  26.717  1.00  0.00     0.161 HD
BRANCH  12  14
ATOM     14  C   UNL A   1      32.120  28.745  26.410  1.00  0.00     0.135 C 
ATOM     15  C   UNL A   1      31.449  28.090  27.630  1.00  0.00     0.039 C 
BRANCH  14  16
ATOM     16  C   UNL A   1      31.326  28.538  25.117  1.00  0.00     0.115 A 
ATOM     17  C   UNL A   1      29.911  29.932  22.098  1.00  0.00     0.067 C 
ATOM     18  C   UNL A   1      30.343  28.993  23.164  1.00  0.00     0.049 A 
ATOM     19  C   UNL A   1      30.209  27.620  23.156  1.00  0.00     0.090 A 
ATOM     20  N   UNL A   1      30.964  29.505  24.291  1.00  0.00    -0.244 NA
ATOM     21  S   UNL A   1      30.925  26.951  24.555  1.00  0.00    -0.125 S 
ENDBRANCH  14  16
ENDBRANCH  12  14
ENDBRANCH   6  12
BRANCH  11  22
ATOM     22  N   UNL A   1      37.167  32.417  28.641  1.00  0.00    -0.398 N 
ATOM     23  H   UNL A   1      37.269  32.709  29.574  1.00  0.00     0.156 HD
ATOM     24  H   UNL A   1      37.910  32.536  28.004  1.00  0.00     0.156 HD
ENDBRANCH  11  22
ENDBRANCH   3   5
ENDBRANCH   2   3
ENDBRANCH   1   2
BRANCH   1  25
ATOM     25  C   UNL A   1      32.903  36.495  29.948  1.00  0.00     0.275 C 
BRANCH  25  26
ATOM     26  O   UNL A   1      32.396  35.586  30.938  1.00  0.00    -0.458 OA
BRANCH  26  27
ATOM     27  C   UNL A   1      32.593  35.936  32.230  1.00  0.00     0.338 C 
ATOM     28  O   UNL A   1      31.960  36.759  32.874  1.00  0.00    -0.246 OA
BRANCH  27  29
ATOM     29  C   UNL A   1      33.728  35.158  32.776  1.00  0.00     0.060 A 
ATOM     30  C   UNL A   1      34.994  35.734  32.865  1.00  0.00     0.016 A 
ATOM     31  C   UNL A   1      33.558  33.821  33.133  1.00  0.00     0.016 A 
ATOM     32  C   UNL A   1      36.097  34.971  33.255  1.00  0.00     0.010 A 
ATOM     33  C   UNL A   1      34.652  33.078  33.602  1.00  0.00     0.010 A 
ATOM     34  C   UNL A   1      35.945  33.635  33.642  1.00  0.00    -0.014 A 
BRANCH  34  35
ATOM     35  C   UNL A   1      37.133  32.802  34.003  1.00  0.00     0.031 A 
ATOM     36  C   UNL A   1      37.819  33.010  35.330  1.00  0.00     0.074 A 
ATOM     37  C   UNL A   1      37.597  31.834  33.185  1.00  0.00     0.049 A 
ATOM     38  N   UNL A   1      38.984  32.576  35.743  1.00  0.00    -0.248 NA
ATOM     39  C   UNL A   1      37.102  33.828  36.321  1.00  0.00     0.031 C 
ATOM     40  C   UNL A   1      37.013  31.447  31.900  1.00  0.00     0.029 A 
ATOM     41  N   UNL A   1      38.670  30.983  33.325  1.00  0.00    -0.354 N 
ATOM     42  C   UNL A   1      39.172  33.133  37.002  1.00  0.00     0.074 A 
ATOM     43  C   UNL A   1      37.997  33.926  37.293  1.00  0.00     0.031 C 
ATOM     44  C   UNL A   1      37.695  30.406  31.400  1.00  0.00     0.029 A 
ATOM     45  C   UNL A   1      38.827  30.112  32.273  1.00  0.00     0.049 A 
ATOM     46  H   UNL A   1      39.268  30.995  34.107  1.00  0.00     0.167 HD
ATOM     47  C   UNL A   1      40.231  32.999  37.838  1.00  0.00     0.037 A 
ATOM     48  C   UNL A   1      39.795  29.211  32.010  1.00  0.00     0.037 A 
ATOM     49  C   UNL A   1      41.365  32.148  37.590  1.00  0.00     0.049 A 
ATOM     50  C   UNL A   1      40.968  29.090  32.942  1.00  0.00     0.074 A 
ATOM     51  C   UNL A   1      42.494  31.962  38.371  1.00  0.00     0.029 A 
ATOM     52  N   UNL A   1      41.497  31.312  36.493  1.00  0.00    -0.354 N 
ATOM     53  N   UNL A   1      41.196  29.716  34.071  1.00  0.00    -0.248 NA
ATOM     54  C   UNL A   1      42.038  28.163  32.544  1.00  0.00     0.031 C 
ATOM     55  C   UNL A   1      43.317  31.024  37.737  1.00  0.00     0.029 A 
ATOM     56  C   UNL A   1      42.684  30.603  36.580  1.00  0.00     0.049 A 
ATOM     57  H   UNL A   1      40.843  31.233  35.761  1.00  0.00     0.167 HD
ATOM     58  C   UNL A   1      42.430  29.259  34.515  1.00  0.00     0.074 A 
ATOM     59  C   UNL A   1      42.891  28.283  33.552  1.00  0.00     0.031 C 
ATOM     60  C   UNL A   1      43.127  29.629  35.618  1.00  0.00     0.037 A 
BRANCH  47  61
ATOM     61  C   UNL A   1      40.230  33.825  39.092  1.00  0.00     0.057 A 
ATOM     62  C   UNL A   1      39.601  33.399  40.268  1.00  0.00     0.134 A 
ATOM     63  C   UNL A   1      40.903  35.055  39.126  1.00  0.00     0.134 A 
ATOM     64  F   UNL A   1      38.927  32.240  40.296  1.00  0.00    -0.206 F 
ATOM     65  C   UNL A   1      39.624  34.177  41.428  1.00  0.00     0.040 A 
ATOM     66  C   UNL A   1      40.953  35.828  40.286  1.00  0.00     0.040 A 
ATOM     67  F   UNL A   1      41.533  35.516  38.035  1.00  0.00    -0.206 F 
ATOM     68  C   UNL A   1      40.307  35.391  41.440  1.00  0.00     0.006 A 
ENDBRANCH  47  61
BRANCH  48  69
ATOM     69  C   UNL A   1      39.729  28.383  30.778  1.00  0.00     0.057 A 
ATOM     70  C   UNL A   1      40.424  28.753  29.621  1.00  0.00     0.134 A 
ATOM     71  C   UNL A   1      38.962  27.213  30.722  1.00  0.00     0.134 A 
ATOM     72  F   UNL A   1      41.150  29.881  29.600  1.00  0.00    -0.206 F 
ATOM     73  C   UNL A   1      40.354  27.993  28.451  1.00  0.00     0.040 A 
ATOM     74  C   UNL A   1      38.906  26.428  29.570  1.00  0.00     0.040 A 
ATOM     75  F   UNL A   1      38.267  26.807  31.795  1.00  0.00    -0.206 F 
ATOM     76  C   UNL A   1      39.601  26.822  28.427  1.00  0.00     0.006 A 
ENDBRANCH  48  69
BRANCH  60  77
ATOM     77  C   UNL A   1      44.444  28.953  35.851  1.00  0.00     0.057 A 
ATOM     78  C   UNL A   1      44.539  27.760  36.579  1.00  0.00     0.134 A 
ATOM     79  C   UNL A   1      45.625  29.487  35.322  1.00  0.00     0.134 A 
ATOM     80  F   UNL A   1      43.444  27.206  37.122  1.00  0.00    -0.206 F 
ATOM     81  C   UNL A   1      45.768  27.133  36.790  1.00  0.00     0.040 A 
ATOM     82  C   UNL A   1      46.857  28.858  35.510  1.00  0.00     0.040 A 
ATOM     83  F   UNL A   1      45.600  30.625  34.612  1.00  0.00    -0.206 F 
ATOM     84  C   UNL A   1      46.931  27.679  36.251  1.00  0.00     0.006 A 
ENDBRANCH  60  77
ENDBRANCH  34  35
ENDBRANCH  27  29
ENDBRANCH  26  27
ENDBRANCH  25  26
ENDBRANCH   1  25
TORSDOF 15
ENDMDL
MODEL 2
REMARK VINA RESULT:     -10.3      3.776      8.711
REMARK SMILES Cc1csc([C@H](C)Nc2cc(C)c(N)c(C(=O)OCCOC(=O)c3ccc(-c4c5nc(c(-c6c(F)cccc6F)c6ccc([nH]6)c(-c6c(F)cccc6F)c6nc(c(-c7c(F)cccc7F)c7ccc4[nH]7)C=C6)C=C5)cc3)c2)n1
REMARK SMILES IDX 19 1 18 2 16 3 17 4 15 5 9 6 10 7 78 8 11 9 12 10 13 11 8 12
REMARK SMILES IDX 6 14 7 15 5 16 1 17 2 18 3 19 79 20 4 21 14 22 20 25 21 26
REMARK SMILES IDX 22 27 23 28 24 29 25 30 77 31 26 32 76 33 27 34 28 35 29 36
REMARK SMILES IDX 70 37 30 38 75 39 69 40 71 41 31 42 74 43 68 44 67 45 32 47
REMARK SMILES IDX 58 48 41 49 57 50 42 51 45 52 56 53 72 54 43 55 44 56 55 58
REMARK SMILES IDX 73 59 46 60 33 61 34 62 39 63 35 64 36 65 38 66 40 67 37 68
REMARK SMILES IDX 59 69 60 70 65 71 61 72 62 73 64 74 66 75 63 76 47 77 48 78
REMARK SMILES IDX 53 79 49 80 50 81 52 82 54 83 51 84
REMARK H PARENT 8 13 14 23 14 24 71 46 45 57
REMARK Flexibility Score: inf
ROOT
ATOM      1  C   UNL A   1      31.571  28.962  23.745  1.00  0.00     0.275 C 
ENDROOT
BRANCH   1   2
ATOM      2  O   UNL A   1      32.510  27.874  23.603  1.00  0.00    -0.458 OA
BRANCH   2   3
ATOM      3  C   UNL A   1      31.998  26.673  23.218  1.00  0.00     0.340 C 
ATOM      4  O   UNL A   1      31.325  26.462  22.224  1.00  0.00    -0.246 OA
BRANCH   3   5
ATOM      5  C   UNL A   1      32.463  25.602  24.146  1.00  0.00     0.085 A 
ATOM      6  C   UNL A   1      34.320  24.310  25.072  1.00  0.00     0.036 A 
ATOM      7  C   UNL A   1      33.378  23.478  25.679  1.00  0.00     0.031 A 
ATOM      8  C   UNL A   1      33.838  25.341  24.262  1.00  0.00     0.043 A 
ATOM      9  C   UNL A   1      31.995  23.735  25.606  1.00  0.00    -0.025 A 
ATOM     10  C   UNL A   1      31.048  22.771  26.269  1.00  0.00     0.047 C 
ATOM     11  C   UNL A   1      31.532  24.866  24.910  1.00  0.00     0.049 A 
BRANCH   6  12
ATOM     12  N   UNL A   1      35.683  24.116  25.150  1.00  0.00    -0.376 N 
ATOM     13  H   UNL A   1      36.228  24.878  25.453  1.00  0.00     0.161 HD
BRANCH  12  14
ATOM     14  C   UNL A   1      36.396  22.873  24.822  1.00  0.00     0.135 C 
ATOM     15  C   UNL A   1      36.593  22.905  23.297  1.00  0.00     0.039 C 
BRANCH  14  16
ATOM     16  C   UNL A   1      37.702  22.623  25.581  1.00  0.00     0.115 A 
ATOM     17  C   UNL A   1      40.484  20.437  26.315  1.00  0.00     0.067 C 
ATOM     18  C   UNL A   1      39.566  21.602  26.268  1.00  0.00     0.049 A 
ATOM     19  C   UNL A   1      39.771  22.836  26.850  1.00  0.00     0.090 A 
ATOM     20  N   UNL A   1      38.379  21.487  25.564  1.00  0.00    -0.244 NA
ATOM     21  S   UNL A   1      38.486  23.891  26.461  1.00  0.00    -0.125 S 
ENDBRANCH  14  16
ENDBRANCH  12  14
ENDBRANCH   6  12
BRANCH  11  22
ATOM     22  N   UNL A   1      30.163  25.146  24.869  1.00  0.00    -0.398 N 
ATOM     23  H   UNL A   1      29.587  24.689  24.216  1.00  0.00     0.156 HD
ATOM     24  H   UNL A   1      29.776  25.801  25.494  1.00  0.00     0.156 HD
ENDBRANCH  11  22
ENDBRANCH   3   5
ENDBRANCH   2   3
ENDBRANCH   1   2
BRANCH   1  25
ATOM     25  C   UNL A   1      31.489  29.401  25.207  1.00  0.00     0.275 C 
BRANCH  25  26
ATOM     26  O   UNL A   1      32.706  30.083  25.551  1.00  0.00    -0.458 OA
BRANCH  26  27
ATOM     27  C   UNL A   1      32.626  30.977  26.564  1.00  0.00     0.338 C 
ATOM     28  O   UNL A   1      31.749  31.808  26.743  1.00  0.00    -0.246 OA
BRANCH  27  29
ATOM     29  C   UNL A   1      33.795  30.806  27.456  1.00  0.00     0.060 A 
ATOM     30  C   UNL A   1      34.386  31.916  28.057  1.00  0.00     0.016 A 
ATOM     31  C   UNL A   1      34.360  29.545  27.641  1.00  0.00     0.016 A 
ATOM     32  C   UNL A   1      35.564  31.782  28.794  1.00  0.00     0.010 A 
ATOM     33  C   UNL A   1      35.499  29.401  28.449  1.00  0.00     0.010 A 
ATOM     34  C   UNL A   1      36.135  30.523  29.014  1.00  0.00    -0.014 A 
BRANCH  34  35
ATOM     35  C   UNL A   1      37.428  30.386  29.753  1.00  0.00     0.031 A 
ATOM     36  C   UNL A   1      38.608  29.730  29.083  1.00  0.00     0.074 A 
ATOM     37  C   UNL A   1      37.584  30.866  31.005  1.00  0.00     0.049 A 
ATOM     38  N   UNL A   1      39.729  29.298  29.605  1.00  0.00    -0.248 NA
ATOM     39  C   UNL A   1      38.507  29.518  27.631  1.00  0.00     0.031 C 
ATOM     40  C   UNL A   1      36.574  31.592  31.775  1.00  0.00     0.029 A 
ATOM     41  N   UNL A   1      38.672  30.826  31.848  1.00  0.00    -0.354 N 
ATOM     42  C   UNL A   1      40.427  28.696  28.565  1.00  0.00     0.074 A 
ATOM     43  C   UNL A   1      39.609  28.828  27.378  1.00  0.00     0.031 C 
ATOM     44  C   UNL A   1      37.103  31.976  32.947  1.00  0.00     0.029 A 
ATOM     45  C   UNL A   1      38.455  31.438  33.060  1.00  0.00     0.049 A 
ATOM     46  H   UNL A   1      39.525  30.399  31.605  1.00  0.00     0.167 HD
ATOM     47  C   UNL A   1      41.636  28.084  28.597  1.00  0.00     0.037 A 
ATOM     48  C   UNL A   1      39.233  31.521  34.158  1.00  0.00     0.037 A 
ATOM     49  C   UNL A   1      42.488  28.021  29.756  1.00  0.00     0.049 A 
ATOM     50  C   UNL A   1      40.564  30.822  34.179  1.00  0.00     0.074 A 
ATOM     51  C   UNL A   1      43.723  27.408  29.888  1.00  0.00     0.029 A 
ATOM     52  N   UNL A   1      42.211  28.625  30.971  1.00  0.00    -0.354 N 
ATOM     53  N   UNL A   1      41.159  30.147  33.226  1.00  0.00    -0.248 NA
ATOM     54  C   UNL A   1      41.316  30.866  35.442  1.00  0.00     0.031 C 
ATOM     55  C   UNL A   1      44.185  27.627  31.191  1.00  0.00     0.029 A 
ATOM     56  C   UNL A   1      43.253  28.405  31.857  1.00  0.00     0.049 A 
ATOM     57  H   UNL A   1      41.394  29.137  31.175  1.00  0.00     0.167 HD
ATOM     58  C   UNL A   1      42.350  29.688  33.773  1.00  0.00     0.074 A 
ATOM     59  C   UNL A   1      42.410  30.184  35.131  1.00  0.00     0.031 C 
ATOM     60  C   UNL A   1      43.303  28.911  33.203  1.00  0.00     0.037 A 
BRANCH  47  61
ATOM     61  C   UNL A   1      42.096  27.397  27.344  1.00  0.00     0.057 A 
ATOM     62  C   UNL A   1      42.740  28.083  26.308  1.00  0.00     0.134 A 
ATOM     63  C   UNL A   1      41.919  26.014  27.194  1.00  0.00     0.134 A 
ATOM     64  F   UNL A   1      42.925  29.410  26.384  1.00  0.00    -0.206 F 
ATOM     65  C   UNL A   1      43.173  27.423  25.157  1.00  0.00     0.040 A 
ATOM     66  C   UNL A   1      42.370  25.340  26.059  1.00  0.00     0.040 A 
ATOM     67  F   UNL A   1      41.317  25.296  28.154  1.00  0.00    -0.206 F 
ATOM     68  C   UNL A   1      42.995  26.046  25.033  1.00  0.00     0.006 A 
ENDBRANCH  47  61
BRANCH  48  69
ATOM     69  C   UNL A   1      38.753  32.251  35.360  1.00  0.00     0.057 A 
ATOM     70  C   UNL A   1      38.164  31.571  36.431  1.00  0.00     0.134 A 
ATOM     71  C   UNL A   1      38.856  33.645  35.460  1.00  0.00     0.134 A 
ATOM     72  F   UNL A   1      38.006  30.240  36.382  1.00  0.00    -0.206 F 
ATOM     73  C   UNL A   1      37.691  32.249  37.558  1.00  0.00     0.040 A 
ATOM     74  C   UNL A   1      38.415  34.332  36.591  1.00  0.00     0.040 A 
ATOM     75  F   UNL A   1      39.404  34.356  34.464  1.00  0.00    -0.206 F 
ATOM     76  C   UNL A   1      37.825  33.633  37.642  1.00  0.00     0.006 A 
ENDBRANCH  48  69
BRANCH  60  77
ATOM     77  C   UNL A   1      44.500  28.576  34.040  1.00  0.00     0.057 A 
ATOM     78  C   UNL A   1      44.543  27.422  34.833  1.00  0.00     0.134 A 
ATOM     79  C   UNL A   1      45.631  29.402  34.033  1.00  0.00     0.134 A 
ATOM     80  F   UNL A   1      43.486  26.598  34.892  1.00  0.00    -0.206 F 
ATOM     81  C   UNL A   1      45.662  27.114  35.608  1.00  0.00     0.040 A 
ATOM     82  C   UNL A   1      46.763  29.093  34.788  1.00  0.00     0.040 A 
ATOM     83  F   UNL A   1      45.654  30.518  33.290  1.00  0.00    -0.206 F 
ATOM     84  C   UNL A   1      46.779  27.947  35.583  1.00  0.00     0.006 A 
ENDBRANCH  60  77
ENDBRANCH  34  35
ENDBRANCH  27  29
ENDBRANCH  26  27
ENDBRANCH  25  26
ENDBRANCH   1  25
TORSDOF 15
ENDMDL
MODEL 3
REMARK VINA RESULT:     -10.1      5.274      9.769
REMARK SMILES Cc1csc([C@H](C)Nc2cc(C)c(N)c(C(=O)OCCOC(=O)c3ccc(-c4c5nc(c(-c6c(F)cccc6F)c6ccc([nH]6)c(-c6c(F)cccc6F)c6nc(c(-c7c(F)cccc7F)c7ccc4[nH]7)C=C6)C=C5)cc3)c2)n1
REMARK SMILES IDX 19 1 18 2 16 3 17 4 15 5 9 6 10 7 78 8 11 9 12 10 13 11 8 12
REMARK SMILES IDX 6 14 7 15 5 16 1 17 2 18 3 19 79 20 4 21 14 22 20 25 21 26
REMARK SMILES IDX 22 27 23 28 24 29 25 30 77 31 26 32 76 33 27 34 28 35 29 36
REMARK SMILES IDX 70 37 30 38 75 39 69 40 71 41 31 42 74 43 68 44 67 45 32 47
REMARK SMILES IDX 58 48 41 49 57 50 42 51 45 52 56 53 72 54 43 55 44 56 55 58
REMARK SMILES IDX 73 59 46 60 33 61 34 62 39 63 35 64 36 65 38 66 40 67 37 68
REMARK SMILES IDX 59 69 60 70 65 71 61 72 62 73 64 74 66 75 63 76 47 77 48 78
REMARK SMILES IDX 53 79 49 80 50 81 52 82 54 83 51 84
REMARK H PARENT 8 13 14 23 14 24 71 46 45 57
REMARK Flexibility Score: inf
ROOT
ATOM      1  C   UNL A   1      43.740  21.250  25.756  1.00  0.00     0.275 C 
ENDROOT
BRANCH   1   2
ATOM      2  O   UNL A   1      42.534  20.510  25.463  1.00  0.00    -0.458 OA
BRANCH   2   3
ATOM      3  C   UNL A   1      41.720  20.231  26.519  1.00  0.00     0.340 C 
ATOM      4  O   UNL A   1      41.914  19.384  27.374  1.00  0.00    -0.246 OA
BRANCH   3   5
ATOM      5  C   UNL A   1      40.576  21.188  26.545  1.00  0.00     0.085 A 
ATOM      6  C   UNL A   1      38.444  21.912  25.594  1.00  0.00     0.036 A 
ATOM      7  C   UNL A   1      38.531  23.057  26.386  1.00  0.00     0.031 A 
ATOM      8  C   UNL A   1      39.509  21.009  25.650  1.00  0.00     0.043 A 
ATOM      9  C   UNL A   1      39.574  23.246  27.315  1.00  0.00    -0.025 A 
ATOM     10  C   UNL A   1      39.605  24.524  28.111  1.00  0.00     0.047 C 
ATOM     11  C   UNL A   1      40.560  22.255  27.468  1.00  0.00     0.049 A 
BRANCH   6  12
ATOM     12  N   UNL A   1      37.422  21.669  24.700  1.00  0.00    -0.376 N 
ATOM     13  H   UNL A   1      37.492  20.857  24.148  1.00  0.00     0.161 HD
BRANCH  12  14
ATOM     14  C   UNL A   1      36.237  22.514  24.498  1.00  0.00     0.135 C 
ATOM     15  C   UNL A   1      36.301  22.964  23.028  1.00  0.00     0.039 C 
BRANCH  14  16
ATOM     16  C   UNL A   1      34.889  21.886  24.864  1.00  0.00     0.115 A 
ATOM     17  C   UNL A   1      31.342  22.284  25.431  1.00  0.00     0.067 C 
ATOM     18  C   UNL A   1      32.699  21.705  25.265  1.00  0.00     0.049 A 
ATOM     19  C   UNL A   1      33.033  20.368  25.295  1.00  0.00     0.090 A 
ATOM     20  N   UNL A   1      33.764  22.561  25.036  1.00  0.00    -0.244 NA
ATOM     21  S   UNL A   1      34.699  20.170  24.973  1.00  0.00    -0.125 S 
ENDBRANCH  14  16
ENDBRANCH  12  14
ENDBRANCH   6  12
BRANCH  11  22
ATOM     22  N   UNL A   1      41.573  22.422  28.416  1.00  0.00    -0.398 N 
ATOM     23  H   UNL A   1      41.749  21.716  29.078  1.00  0.00     0.156 HD
ATOM     24  H   UNL A   1      42.111  23.247  28.421  1.00  0.00     0.156 HD
ENDBRANCH  11  22
ENDBRANCH   3   5
ENDBRANCH   2   3
ENDBRANCH   1   2
BRANCH   1  25
ATOM     25  C   UNL A   1      44.087  22.177  24.590  1.00  0.00     0.275 C 
BRANCH  25  26
ATOM     26  O   UNL A   1      43.438  23.441  24.799  1.00  0.00    -0.458 OA
BRANCH  26  27
ATOM     27  C   UNL A   1      44.247  24.494  25.061  1.00  0.00     0.338 C 
ATOM     28  O   UNL A   1      45.340  24.721  24.566  1.00  0.00    -0.246 OA
BRANCH  27  29
ATOM     29  C   UNL A   1      43.603  25.363  26.072  1.00  0.00     0.060 A 
ATOM     30  C   UNL A   1      43.408  26.717  25.809  1.00  0.00     0.016 A 
ATOM     31  C   UNL A   1      43.257  24.851  27.322  1.00  0.00     0.016 A 
ATOM     32  C   UNL A   1      42.922  27.571  26.801  1.00  0.00     0.010 A 
ATOM     33  C   UNL A   1      42.693  25.695  28.291  1.00  0.00     0.010 A 
ATOM     34  C   UNL A   1      42.544  27.076  28.055  1.00  0.00    -0.014 A 
BRANCH  34  35
ATOM     35  C   UNL A   1      42.079  27.998  29.136  1.00  0.00     0.031 A 
ATOM     36  C   UNL A   1      42.908  28.168  30.384  1.00  0.00     0.074 A 
ATOM     37  C   UNL A   1      40.943  28.718  29.015  1.00  0.00     0.049 A 
ATOM     38  N   UNL A   1      42.588  28.719  31.528  1.00  0.00    -0.248 NA
ATOM     39  C   UNL A   1      44.278  27.633  30.342  1.00  0.00     0.031 C 
ATOM     40  C   UNL A   1      40.060  28.733  27.849  1.00  0.00     0.029 A 
ATOM     41  N   UNL A   1      40.345  29.596  29.890  1.00  0.00    -0.354 N 
ATOM     42  C   UNL A   1      43.682  28.525  32.363  1.00  0.00     0.074 A 
ATOM     43  C   UNL A   1      44.681  27.817  31.591  1.00  0.00     0.031 C 
ATOM     44  C   UNL A   1      39.070  29.614  28.056  1.00  0.00     0.029 A 
ATOM     45  C   UNL A   1      39.185  30.154  29.407  1.00  0.00     0.049 A 
ATOM     46  H   UNL A   1      40.714  29.805  30.778  1.00  0.00     0.167 HD
ATOM     47  C   UNL A   1      43.838  28.898  33.656  1.00  0.00     0.037 A 
ATOM     48  C   UNL A   1      38.287  30.969  29.995  1.00  0.00     0.037 A 
ATOM     49  C   UNL A   1      42.881  29.673  34.403  1.00  0.00     0.049 A 
ATOM     50  C   UNL A   1      38.470  31.358  31.435  1.00  0.00     0.074 A 
ATOM     51  C   UNL A   1      42.945  30.084  35.725  1.00  0.00     0.029 A 
ATOM     52  N   UNL A   1      41.704  30.185  33.883  1.00  0.00    -0.354 N 
ATOM     53  N   UNL A   1      39.450  31.064  32.254  1.00  0.00    -0.248 NA
ATOM     54  C   UNL A   1      37.402  32.165  32.045  1.00  0.00     0.031 C 
ATOM     55  C   UNL A   1      41.796  30.832  36.008  1.00  0.00     0.029 A 
ATOM     56  C   UNL A   1      41.036  30.913  34.853  1.00  0.00     0.049 A 
ATOM     57  H   UNL A   1      41.390  30.052  32.959  1.00  0.00     0.167 HD
ATOM     58  C   UNL A   1      39.118  31.647  33.470  1.00  0.00     0.074 A 
ATOM     59  C   UNL A   1      37.861  32.337  33.277  1.00  0.00     0.031 C 
ATOM     60  C   UNL A   1      39.789  31.601  34.647  1.00  0.00     0.037 A 
BRANCH  47  61
ATOM     61  C   UNL A   1      45.081  28.441  34.362  1.00  0.00     0.057 A 
ATOM     62  C   UNL A   1      46.267  29.184  34.348  1.00  0.00     0.134 A 
ATOM     63  C   UNL A   1      45.073  27.248  35.099  1.00  0.00     0.134 A 
ATOM     64  F   UNL A   1      46.344  30.326  33.648  1.00  0.00    -0.206 F 
ATOM     65  C   UNL A   1      47.408  28.748  35.023  1.00  0.00     0.040 A 
ATOM     66  C   UNL A   1      46.200  26.814  35.799  1.00  0.00     0.040 A 
ATOM     67  F   UNL A   1      43.966  26.493  35.161  1.00  0.00    -0.206 F 
ATOM     68  C   UNL A   1      47.374  27.563  35.757  1.00  0.00     0.006 A 
ENDBRANCH  47  61
BRANCH  48  69
ATOM     69  C   UNL A   1      37.094  31.433  29.240  1.00  0.00     0.057 A 
ATOM     70  C   UNL A   1      35.978  30.606  29.072  1.00  0.00     0.134 A 
ATOM     71  C   UNL A   1      37.045  32.706  28.658  1.00  0.00     0.134 A 
ATOM     72  F   UNL A   1      35.976  29.363  29.577  1.00  0.00    -0.206 F 
ATOM     73  C   UNL A   1      34.859  31.024  28.348  1.00  0.00     0.040 A 
ATOM     74  C   UNL A   1      35.923  33.148  27.957  1.00  0.00     0.040 A 
ATOM     75  F   UNL A   1      38.085  33.545  28.777  1.00  0.00    -0.206 F 
ATOM     76  C   UNL A   1      34.827  32.303  27.797  1.00  0.00     0.006 A 
ENDBRANCH  48  69
BRANCH  60  77
ATOM     77  C   UNL A   1      39.189  32.340  35.804  1.00  0.00     0.057 A 
ATOM     78  C   UNL A   1      38.301  31.719  36.691  1.00  0.00     0.134 A 
ATOM     79  C   UNL A   1      39.520  33.678  36.046  1.00  0.00     0.134 A 
ATOM     80  F   UNL A   1      37.935  30.442  36.505  1.00  0.00    -0.206 F 
ATOM     81  C   UNL A   1      37.748  32.411  37.770  1.00  0.00     0.040 A 
ATOM     82  C   UNL A   1      38.989  34.375  37.133  1.00  0.00     0.040 A 
ATOM     83  F   UNL A   1      40.368  34.328  35.235  1.00  0.00    -0.206 F 
ATOM     84  C   UNL A   1      38.095  33.742  37.996  1.00  0.00     0.006 A 
ENDBRANCH  60  77
ENDBRANCH  34  35
ENDBRANCH  27  29
ENDBRANCH  26  27
ENDBRANCH  25  26
ENDBRANCH   1  25
TORSDOF 15
ENDMDL
