MODEL 1
REMARK VINA RESULT:     -11.7      0.000      0.000
REMARK SMILES C[C@H]1[C@H](C(=O)OCCOC(=O)c2ccc(-c3c4nc(c(-c5c(F)cccc5F)c5ccc([nH]5)c(-c5c(F)cccc5F)c5nc(c(-c6c(F)cccc6F)c6ccc3[nH]6)C=C5)C=C4)cc2)CCN1c1nc2c(cc1C(N)=O)CCC2
REMARK SMILES IDX 7 1 6 2 4 3 5 4 3 5 1 6 2 7 68 8 66 9 67 10 69 11 70 12
REMARK SMILES IDX 74 13 71 14 73 15 72 16 80 17 78 18 79 19 75 20 76 21 77 22
REMARK SMILES IDX 8 25 9 26 10 27 11 28 12 29 13 30 65 31 14 32 64 33 15 34
REMARK SMILES IDX 16 35 17 36 58 37 18 38 63 39 57 40 59 41 19 42 62 43 56 44
REMARK SMILES IDX 55 45 20 47 46 48 29 49 45 50 30 51 33 52 44 53 60 54 31 55
REMARK SMILES IDX 32 56 43 58 61 59 34 60 21 61 22 62 27 63 23 64 24 65 26 66
REMARK SMILES IDX 28 67 25 68 47 69 48 70 53 71 49 72 50 73 52 74 54 75 51 76
REMARK SMILES IDX 35 77 36 78 41 79 37 80 38 81 40 82 42 83 39 84
REMARK H PARENT 76 23 76 24 59 46 33 57
REMARK Flexibility Score: inf
ROOT
ATOM      1  C   UNL A   1      38.162  21.463  25.357  1.00  0.00     0.274 C 
ENDROOT
BRANCH   1   2
ATOM      2  O   UNL A   1      37.111  22.444  25.408  1.00  0.00    -0.462 OA
BRANCH   2   3
ATOM      3  C   UNL A   1      36.351  22.600  24.299  1.00  0.00     0.311 C 
ATOM      4  O   UNL A   1      36.782  22.578  23.151  1.00  0.00    -0.252 OA
BRANCH   3   5
ATOM      5  C   UNL A   1      34.882  22.813  24.592  1.00  0.00     0.123 C 
ATOM      6  C   UNL A   1      33.946  23.019  26.939  1.00  0.00     0.032 C 
ATOM      7  C   UNL A   1      34.563  23.776  25.756  1.00  0.00     0.095 C 
ATOM      8  N   UNL A   1      33.563  24.668  25.180  1.00  0.00    -0.352 N 
ATOM      9  C   UNL A   1      34.166  23.391  23.369  1.00  0.00     0.039 C 
ATOM     10  C   UNL A   1      32.986  24.150  23.963  1.00  0.00     0.119 C 
BRANCH   8  11
ATOM     11  C   UNL A   1      33.114  25.825  25.740  1.00  0.00     0.141 A 
ATOM     12  N   UNL A   1      34.028  26.831  25.804  1.00  0.00    -0.235 NA
ATOM     13  C   UNL A   1      31.792  25.999  26.210  1.00  0.00     0.082 A 
ATOM     14  C   UNL A   1      33.609  28.001  26.305  1.00  0.00     0.046 A 
ATOM     15  C   UNL A   1      31.393  27.243  26.727  1.00  0.00     0.023 A 
ATOM     16  C   UNL A   1      32.328  28.252  26.767  1.00  0.00    -0.025 A 
ATOM     17  C   UNL A   1      34.471  29.226  26.416  1.00  0.00     0.057 C 
ATOM     18  C   UNL A   1      32.195  29.657  27.251  1.00  0.00     0.038 C 
ATOM     19  C   UNL A   1      33.671  30.044  27.439  1.00  0.00     0.011 C 
BRANCH  13  20
ATOM     20  C   UNL A   1      30.842  24.861  26.317  1.00  0.00     0.252 C 
ATOM     21  N   UNL A   1      29.907  24.747  25.322  1.00  0.00    -0.365 N 
ATOM     22  O   UNL A   1      30.844  24.067  27.249  1.00  0.00    -0.269 OA
ATOM     23  H   UNL A   1      29.906  25.384  24.572  1.00  0.00     0.159 HD
ATOM     24  H   UNL A   1      29.236  24.027  25.357  1.00  0.00     0.159 HD
ENDBRANCH  13  20
ENDBRANCH   8  11
ENDBRANCH   3   5
ENDBRANCH   2   3
ENDBRANCH   1   2
BRANCH   1  25
ATOM     25  C   UNL A   1      39.303  21.839  26.305  1.00  0.00     0.275 C 
BRANCH  25  26
ATOM     26  O   UNL A   1      39.311  23.254  26.577  1.00  0.00    -0.458 OA
BRANCH  26  27
ATOM     27  C   UNL A   1      40.539  23.813  26.666  1.00  0.00     0.338 C 
ATOM     28  O   UNL A   1      41.565  23.454  26.115  1.00  0.00    -0.246 OA
BRANCH  27  29
ATOM     29  C   UNL A   1      40.453  25.035  27.474  1.00  0.00     0.060 A 
ATOM     30  C   UNL A   1      41.464  25.992  27.355  1.00  0.00     0.016 A 
ATOM     31  C   UNL A   1      39.426  25.195  28.403  1.00  0.00     0.016 A 
ATOM     32  C   UNL A   1      41.465  27.115  28.176  1.00  0.00     0.010 A 
ATOM     33  C   UNL A   1      39.419  26.328  29.217  1.00  0.00     0.010 A 
ATOM     34  C   UNL A   1      40.443  27.287  29.116  1.00  0.00    -0.014 A 
BRANCH  34  35
ATOM     35  C   UNL A   1      40.453  28.447  30.034  1.00  0.00     0.031 A 
ATOM     36  C   UNL A   1      41.421  28.471  31.177  1.00  0.00     0.074 A 
ATOM     37  C   UNL A   1      39.575  29.450  29.860  1.00  0.00     0.049 A 
ATOM     38  N   UNL A   1      41.454  29.262  32.217  1.00  0.00    -0.248 NA
ATOM     39  C   UNL A   1      42.490  27.460  31.150  1.00  0.00     0.031 C 
ATOM     40  C   UNL A   1      38.633  29.567  28.747  1.00  0.00     0.029 A 
ATOM     41  N   UNL A   1      39.316  30.549  30.639  1.00  0.00    -0.354 N 
ATOM     42  C   UNL A   1      42.524  28.825  32.987  1.00  0.00     0.074 A 
ATOM     43  C   UNL A   1      43.114  27.699  32.295  1.00  0.00     0.031 C 
ATOM     44  C   UNL A   1      37.882  30.666  28.926  1.00  0.00     0.029 A 
ATOM     45  C   UNL A   1      38.250  31.291  30.192  1.00  0.00     0.049 A 
ATOM     46  H   UNL A   1      39.841  30.783  31.437  1.00  0.00     0.167 HD
ATOM     47  C   UNL A   1      42.963  29.318  34.168  1.00  0.00     0.037 A 
ATOM     48  C   UNL A   1      37.612  32.327  30.769  1.00  0.00     0.037 A 
ATOM     49  C   UNL A   1      42.377  30.450  34.835  1.00  0.00     0.049 A 
ATOM     50  C   UNL A   1      38.073  32.816  32.112  1.00  0.00     0.074 A 
ATOM     51  C   UNL A   1      42.746  31.033  36.034  1.00  0.00     0.029 A 
ATOM     52  N   UNL A   1      41.295  31.173  34.353  1.00  0.00    -0.354 N 
ATOM     53  N   UNL A   1      39.063  32.379  32.854  1.00  0.00    -0.248 NA
ATOM     54  C   UNL A   1      37.324  33.930  32.708  1.00  0.00     0.031 C 
ATOM     55  C   UNL A   1      41.867  32.089  36.294  1.00  0.00     0.029 A 
ATOM     56  C   UNL A   1      40.975  32.188  35.238  1.00  0.00     0.049 A 
ATOM     57  H   UNL A   1      40.825  30.990  33.507  1.00  0.00     0.167 HD
ATOM     58  C   UNL A   1      39.073  33.181  33.987  1.00  0.00     0.074 A 
ATOM     59  C   UNL A   1      37.991  34.132  33.837  1.00  0.00     0.031 C 
ATOM     60  C   UNL A   1      39.906  33.136  35.055  1.00  0.00     0.037 A 
BRANCH  47  61
ATOM     61  C   UNL A   1      44.107  28.612  34.830  1.00  0.00     0.057 A 
ATOM     62  C   UNL A   1      43.910  27.540  35.708  1.00  0.00     0.134 A 
ATOM     63  C   UNL A   1      45.428  28.996  34.562  1.00  0.00     0.134 A 
ATOM     64  F   UNL A   1      42.669  27.135  36.017  1.00  0.00    -0.206 F 
ATOM     65  C   UNL A   1      44.985  26.885  36.309  1.00  0.00     0.040 A 
ATOM     66  C   UNL A   1      46.511  28.334  35.140  1.00  0.00     0.040 A 
ATOM     67  F   UNL A   1      45.685  30.014  33.728  1.00  0.00    -0.206 F 
ATOM     68  C   UNL A   1      46.292  27.277  36.021  1.00  0.00     0.006 A 
ENDBRANCH  47  61
BRANCH  48  69
ATOM     69  C   UNL A   1      36.441  32.940  30.094  1.00  0.00     0.057 A 
ATOM     70  C   UNL A   1      35.136  32.559  30.424  1.00  0.00     0.134 A 
ATOM     71  C   UNL A   1      36.598  33.925  29.111  1.00  0.00     0.134 A 
ATOM     72  F   UNL A   1      34.924  31.605  31.343  1.00  0.00    -0.206 F 
ATOM     73  C   UNL A   1      34.028  33.129  29.795  1.00  0.00     0.040 A 
ATOM     74  C   UNL A   1      35.500  34.520  28.490  1.00  0.00     0.040 A 
ATOM     75  F   UNL A   1      37.824  34.333  28.751  1.00  0.00    -0.206 F 
ATOM     76  C   UNL A   1      34.208  34.118  28.829  1.00  0.00     0.006 A 
ENDBRANCH  48  69
BRANCH  60  77
ATOM     77  C   UNL A   1      39.715  34.171  36.120  1.00  0.00     0.057 A 
ATOM     78  C   UNL A   1      39.020  33.894  37.302  1.00  0.00     0.134 A 
ATOM     79  C   UNL A   1      40.296  35.438  35.987  1.00  0.00     0.134 A 
ATOM     80  F   UNL A   1      38.432  32.702  37.482  1.00  0.00    -0.206 F 
ATOM     81  C   UNL A   1      38.903  34.847  38.316  1.00  0.00     0.040 A 
ATOM     82  C   UNL A   1      40.202  36.392  37.000  1.00  0.00     0.040 A 
ATOM     83  F   UNL A   1      40.980  35.761  34.879  1.00  0.00    -0.206 F 
ATOM     84  C   UNL A   1      39.503  36.097  38.169  1.00  0.00     0.006 A 
ENDBRANCH  60  77
ENDBRANCH  34  35
ENDBRANCH  27  29
ENDBRANCH  26  27
ENDBRANCH  25  26
ENDBRANCH   1  25
TORSDOF 13
ENDMDL
MODEL 2
REMARK VINA RESULT:     -11.7      4.165      7.753
REMARK SMILES C[C@H]1[C@H](C(=O)OCCOC(=O)c2ccc(-c3c4nc(c(-c5c(F)cccc5F)c5ccc([nH]5)c(-c5c(F)cccc5F)c5nc(c(-c6c(F)cccc6F)c6ccc3[nH]6)C=C5)C=C4)cc2)CCN1c1nc2c(cc1C(N)=O)CCC2
REMARK SMILES IDX 7 1 6 2 4 3 5 4 3 5 1 6 2 7 68 8 66 9 67 10 69 11 70 12
REMARK SMILES IDX 74 13 71 14 73 15 72 16 80 17 78 18 79 19 75 20 76 21 77 22
REMARK SMILES IDX 8 25 9 26 10 27 11 28 12 29 13 30 65 31 14 32 64 33 15 34
REMARK SMILES IDX 16 35 17 36 58 37 18 38 63 39 57 40 59 41 19 42 62 43 56 44
REMARK SMILES IDX 55 45 20 47 46 48 29 49 45 50 30 51 33 52 44 53 60 54 31 55
REMARK SMILES IDX 32 56 43 58 61 59 34 60 21 61 22 62 27 63 23 64 24 65 26 66
REMARK SMILES IDX 28 67 25 68 47 69 48 70 53 71 49 72 50 73 52 74 54 75 51 76
REMARK SMILES IDX 35 77 36 78 41 79 37 80 38 81 40 82 42 83 39 84
REMARK H PARENT 76 23 76 24 59 46 33 57
REMARK Flexibility Score: inf
ROOT
ATOM      1  C   UNL A   1      35.018  20.423  25.525  1.00  0.00     0.274 C 
ENDROOT
BRANCH   1   2
ATOM      2  O   UNL A   1      34.085  20.138  24.468  1.00  0.00    -0.462 OA
BRANCH   2   3
ATOM      3  C   UNL A   1      32.784  19.990  24.811  1.00  0.00     0.311 C 
ATOM      4  O   UNL A   1      32.321  19.004  25.376  1.00  0.00    -0.252 OA
BRANCH   3   5
ATOM      5  C   UNL A   1      31.914  21.168  24.431  1.00  0.00     0.123 C 
ATOM      6  C   UNL A   1      30.661  22.576  26.126  1.00  0.00     0.032 C 
ATOM      7  C   UNL A   1      31.986  22.386  25.377  1.00  0.00     0.095 C 
ATOM      8  N   UNL A   1      32.186  23.503  24.460  1.00  0.00    -0.352 N 
ATOM      9  C   UNL A   1      32.296  21.696  23.046  1.00  0.00     0.039 C 
ATOM     10  C   UNL A   1      31.885  23.162  23.090  1.00  0.00     0.119 C 
BRANCH   8  11
ATOM     11  C   UNL A   1      32.521  24.773  24.817  1.00  0.00     0.141 A 
ATOM     12  N   UNL A   1      31.540  25.700  24.648  1.00  0.00    -0.235 NA
ATOM     13  C   UNL A   1      33.783  25.124  25.347  1.00  0.00     0.082 A 
ATOM     14  C   UNL A   1      31.816  26.954  25.033  1.00  0.00     0.046 A 
ATOM     15  C   UNL A   1      34.032  26.450  25.741  1.00  0.00     0.023 A 
ATOM     16  C   UNL A   1      33.020  27.369  25.576  1.00  0.00    -0.025 A 
ATOM     17  C   UNL A   1      30.842  28.094  24.952  1.00  0.00     0.057 C 
ATOM     18  C   UNL A   1      32.993  28.824  25.901  1.00  0.00     0.038 C 
ATOM     19  C   UNL A   1      31.796  29.292  25.057  1.00  0.00     0.011 C 
BRANCH  13  20
ATOM     20  C   UNL A   1      34.919  24.166  25.366  1.00  0.00     0.252 C 
ATOM     21  N   UNL A   1      35.198  23.567  26.567  1.00  0.00    -0.365 N 
ATOM     22  O   UNL A   1      35.613  23.924  24.387  1.00  0.00    -0.269 OA
ATOM     23  H   UNL A   1      34.639  23.760  27.354  1.00  0.00     0.159 HD
ATOM     24  H   UNL A   1      35.956  22.944  26.643  1.00  0.00     0.159 HD
ENDBRANCH  13  20
ENDBRANCH   8  11
ENDBRANCH   3   5
ENDBRANCH   2   3
ENDBRANCH   1   2
BRANCH   1  25
ATOM     25  C   UNL A   1      36.457  20.391  25.002  1.00  0.00     0.275 C 
BRANCH  25  26
ATOM     26  O   UNL A   1      37.243  21.455  25.572  1.00  0.00    -0.458 OA
BRANCH  26  27
ATOM     27  C   UNL A   1      38.530  21.138  25.837  1.00  0.00     0.338 C 
ATOM     28  O   UNL A   1      39.108  20.094  25.590  1.00  0.00    -0.246 OA
BRANCH  27  29
ATOM     29  C   UNL A   1      39.208  22.311  26.400  1.00  0.00     0.060 A 
ATOM     30  C   UNL A   1      38.740  23.584  26.064  1.00  0.00     0.016 A 
ATOM     31  C   UNL A   1      40.349  22.156  27.187  1.00  0.00     0.016 A 
ATOM     32  C   UNL A   1      39.418  24.717  26.501  1.00  0.00     0.010 A 
ATOM     33  C   UNL A   1      41.021  23.294  27.637  1.00  0.00     0.010 A 
ATOM     34  C   UNL A   1      40.566  24.578  27.287  1.00  0.00    -0.014 A 
BRANCH  34  35
ATOM     35  C   UNL A   1      41.331  25.768  27.719  1.00  0.00     0.031 A 
ATOM     36  C   UNL A   1      40.645  26.834  28.516  1.00  0.00     0.074 A 
ATOM     37  C   UNL A   1      42.622  25.902  27.364  1.00  0.00     0.049 A 
ATOM     38  N   UNL A   1      41.050  28.043  28.804  1.00  0.00    -0.248 NA
ATOM     39  C   UNL A   1      39.318  26.495  29.055  1.00  0.00     0.031 C 
ATOM     40  C   UNL A   1      43.411  24.902  26.647  1.00  0.00     0.029 A 
ATOM     41  N   UNL A   1      43.486  26.953  27.537  1.00  0.00    -0.354 N 
ATOM     42  C   UNL A   1      40.017  28.623  29.526  1.00  0.00     0.074 A 
ATOM     43  C   UNL A   1      38.965  27.634  29.634  1.00  0.00     0.031 C 
ATOM     44  C   UNL A   1      44.639  25.395  26.422  1.00  0.00     0.029 A 
ATOM     45  C   UNL A   1      44.700  26.764  26.923  1.00  0.00     0.049 A 
ATOM     46  H   UNL A   1      43.259  27.762  28.051  1.00  0.00     0.167 HD
ATOM     47  C   UNL A   1      39.954  29.872  30.043  1.00  0.00     0.037 A 
ATOM     48  C   UNL A   1      45.723  27.620  26.742  1.00  0.00     0.037 A 
ATOM     49  C   UNL A   1      41.016  30.838  29.944  1.00  0.00     0.049 A 
ATOM     50  C   UNL A   1      45.605  29.024  27.266  1.00  0.00     0.074 A 
ATOM     51  C   UNL A   1      41.056  32.131  30.434  1.00  0.00     0.029 A 
ATOM     52  N   UNL A   1      42.229  30.611  29.309  1.00  0.00    -0.354 N 
ATOM     53  N   UNL A   1      44.613  29.581  27.919  1.00  0.00    -0.248 NA
ATOM     54  C   UNL A   1      46.740  29.924  27.017  1.00  0.00     0.031 C 
ATOM     55  C   UNL A   1      42.281  32.698  30.068  1.00  0.00     0.029 A 
ATOM     56  C   UNL A   1      43.019  31.745  29.384  1.00  0.00     0.049 A 
ATOM     57  H   UNL A   1      42.488  29.769  28.871  1.00  0.00     0.167 HD
ATOM     58  C   UNL A   1      45.014  30.884  28.183  1.00  0.00     0.074 A 
ATOM     59  C   UNL A   1      46.340  31.036  27.619  1.00  0.00     0.031 C 
ATOM     60  C   UNL A   1      44.345  31.865  28.834  1.00  0.00     0.037 A 
BRANCH  47  61
ATOM     61  C   UNL A   1      38.683  30.275  30.727  1.00  0.00     0.057 A 
ATOM     62  C   UNL A   1      37.637  30.903  30.041  1.00  0.00     0.134 A 
ATOM     63  C   UNL A   1      38.493  30.004  32.088  1.00  0.00     0.134 A 
ATOM     64  F   UNL A   1      37.763  31.204  28.739  1.00  0.00    -0.206 F 
ATOM     65  C   UNL A   1      36.455  31.263  30.688  1.00  0.00     0.040 A 
ATOM     66  C   UNL A   1      37.307  30.339  32.741  1.00  0.00     0.040 A 
ATOM     67  F   UNL A   1      39.456  29.402  32.804  1.00  0.00    -0.206 F 
ATOM     68  C   UNL A   1      36.284  30.976  32.041  1.00  0.00     0.006 A 
ENDBRANCH  47  61
BRANCH  48  69
ATOM     69  C   UNL A   1      46.928  27.182  25.996  1.00  0.00     0.057 A 
ATOM     70  C   UNL A   1      48.004  26.576  26.654  1.00  0.00     0.134 A 
ATOM     71  C   UNL A   1      47.030  27.352  24.610  1.00  0.00     0.134 A 
ATOM     72  F   UNL A   1      47.973  26.407  27.984  1.00  0.00    -0.206 F 
ATOM     73  C   UNL A   1      49.143  26.161  25.961  1.00  0.00     0.040 A 
ATOM     74  C   UNL A   1      48.152  26.921  23.901  1.00  0.00     0.040 A 
ATOM     75  F   UNL A   1      46.032  27.926  23.922  1.00  0.00    -0.206 F 
ATOM     76  C   UNL A   1      49.216  26.328  24.579  1.00  0.00     0.006 A 
ENDBRANCH  48  69
BRANCH  60  77
ATOM     77  C   UNL A   1      45.051  33.172  29.021  1.00  0.00     0.057 A 
ATOM     78  C   UNL A   1      44.896  34.229  28.118  1.00  0.00     0.134 A 
ATOM     79  C   UNL A   1      45.839  33.394  30.157  1.00  0.00     0.134 A 
ATOM     80  F   UNL A   1      44.163  34.073  27.006  1.00  0.00    -0.206 F 
ATOM     81  C   UNL A   1      45.509  35.465  28.335  1.00  0.00     0.040 A 
ATOM     82  C   UNL A   1      46.441  34.630  30.394  1.00  0.00     0.040 A 
ATOM     83  F   UNL A   1      46.020  32.421  31.062  1.00  0.00    -0.206 F 
ATOM     84  C   UNL A   1      46.277  35.669  29.481  1.00  0.00     0.006 A 
ENDBRANCH  60  77
ENDBRANCH  34  35
ENDBRANCH  27  29
ENDBRANCH  26  27
ENDBRANCH  25  26
ENDBRANCH   1  25
TORSDOF 13
ENDMDL
MODEL 3
REMARK VINA RESULT:     -11.6      4.092      7.587
REMARK SMILES C[C@H]1[C@H](C(=O)OCCOC(=O)c2ccc(-c3c4nc(c(-c5c(F)cccc5F)c5ccc([nH]5)c(-c5c(F)cccc5F)c5nc(c(-c6c(F)cccc6F)c6ccc3[nH]6)C=C5)C=C4)cc2)CCN1c1nc2c(cc1C(N)=O)CCC2
REMARK SMILES IDX 7 1 6 2 4 3 5 4 3 5 1 6 2 7 68 8 66 9 67 10 69 11 70 12
REMARK SMILES IDX 74 13 71 14 73 15 72 16 80 17 78 18 79 19 75 20 76 21 77 22
REMARK SMILES IDX 8 25 9 26 10 27 11 28 12 29 13 30 65 31 14 32 64 33 15 34
REMARK SMILES IDX 16 35 17 36 58 37 18 38 63 39 57 40 59 41 19 42 62 43 56 44
REMARK SMILES IDX 55 45 20 47 46 48 29 49 45 50 30 51 33 52 44 53 60 54 31 55
REMARK SMILES IDX 32 56 43 58 61 59 34 60 21 61 22 62 27 63 23 64 24 65 26 66
REMARK SMILES IDX 28 67 25 68 47 69 48 70 53 71 49 72 50 73 52 74 54 75 51 76
REMARK SMILES IDX 35 77 36 78 41 79 37 80 38 81 40 82 42 83 39 84
REMARK H PARENT 76 23 76 24 59 46 33 57
REMARK Flexibility Score: inf
ROOT
ATOM      1  C   UNL A   1      34.743  20.607  25.405  1.00  0.00     0.274 C 
ENDROOT
BRANCH   1   2
ATOM      2  O   UNL A   1      33.835  20.621  24.289  1.00  0.00    -0.462 OA
BRANCH   2   3
ATOM      3  C   UNL A   1      33.014  21.690  24.168  1.00  0.00     0.311 C 
ATOM      4  O   UNL A   1      32.289  21.906  23.202  1.00  0.00    -0.252 OA
BRANCH   3   5
ATOM      5  C   UNL A   1      33.060  22.632  25.352  1.00  0.00     0.123 C 
ATOM      6  C   UNL A   1      34.758  24.500  25.578  1.00  0.00     0.032 C 
ATOM      7  C   UNL A   1      33.384  24.105  25.024  1.00  0.00     0.095 C 
ATOM      8  N   UNL A   1      32.346  24.837  25.741  1.00  0.00    -0.352 N 
ATOM      9  C   UNL A   1      31.712  22.655  26.076  1.00  0.00     0.039 C 
ATOM     10  C   UNL A   1      31.676  24.029  26.732  1.00  0.00     0.119 C 
BRANCH   8  11
ATOM     11  C   UNL A   1      32.069  26.163  25.602  1.00  0.00     0.141 A 
ATOM     12  N   UNL A   1      32.647  26.976  26.526  1.00  0.00    -0.235 NA
ATOM     13  C   UNL A   1      31.258  26.683  24.568  1.00  0.00     0.082 A 
ATOM     14  C   UNL A   1      32.436  28.293  26.394  1.00  0.00     0.046 A 
ATOM     15  C   UNL A   1      31.063  28.070  24.463  1.00  0.00     0.023 A 
ATOM     16  C   UNL A   1      31.671  28.876  25.399  1.00  0.00    -0.025 A 
ATOM     17  C   UNL A   1      33.024  29.336  27.301  1.00  0.00     0.057 C 
ATOM     18  C   UNL A   1      31.648  30.361  25.536  1.00  0.00     0.038 C 
ATOM     19  C   UNL A   1      32.109  30.529  26.992  1.00  0.00     0.011 C 
BRANCH  13  20
ATOM     20  C   UNL A   1      30.475  25.797  23.666  1.00  0.00     0.252 C 
ATOM     21  N   UNL A   1      29.167  25.574  24.009  1.00  0.00    -0.365 N 
ATOM     22  O   UNL A   1      30.950  25.251  22.679  1.00  0.00    -0.269 OA
ATOM     23  H   UNL A   1      28.784  26.014  24.802  1.00  0.00     0.159 HD
ATOM     24  H   UNL A   1      28.609  24.974  23.462  1.00  0.00     0.159 HD
ENDBRANCH  13  20
ENDBRANCH   8  11
ENDBRANCH   3   5
ENDBRANCH   2   3
ENDBRANCH   1   2
BRANCH   1  25
ATOM     25  C   UNL A   1      36.195  20.661  24.925  1.00  0.00     0.275 C 
BRANCH  25  26
ATOM     26  O   UNL A   1      36.972  21.579  25.718  1.00  0.00    -0.458 OA
BRANCH  26  27
ATOM     27  C   UNL A   1      38.287  21.279  25.816  1.00  0.00     0.338 C 
ATOM     28  O   UNL A   1      38.855  20.275  25.424  1.00  0.00    -0.246 OA
BRANCH  27  29
ATOM     29  C   UNL A   1      38.999  22.424  26.396  1.00  0.00     0.060 A 
ATOM     30  C   UNL A   1      38.576  23.715  26.068  1.00  0.00     0.016 A 
ATOM     31  C   UNL A   1      40.128  22.224  27.190  1.00  0.00     0.016 A 
ATOM     32  C   UNL A   1      39.287  24.820  26.522  1.00  0.00     0.010 A 
ATOM     33  C   UNL A   1      40.834  23.334  27.656  1.00  0.00     0.010 A 
ATOM     34  C   UNL A   1      40.424  24.636  27.316  1.00  0.00    -0.014 A 
BRANCH  34  35
ATOM     35  C   UNL A   1      41.224  25.795  27.765  1.00  0.00     0.031 A 
ATOM     36  C   UNL A   1      40.573  26.866  28.586  1.00  0.00     0.074 A 
ATOM     37  C   UNL A   1      42.516  25.901  27.405  1.00  0.00     0.049 A 
ATOM     38  N   UNL A   1      41.013  28.057  28.893  1.00  0.00    -0.248 NA
ATOM     39  C   UNL A   1      39.239  26.554  29.126  1.00  0.00     0.031 C 
ATOM     40  C   UNL A   1      43.273  24.892  26.665  1.00  0.00     0.029 A 
ATOM     41  N   UNL A   1      43.410  26.924  27.593  1.00  0.00    -0.354 N 
ATOM     42  C   UNL A   1      40.000  28.652  29.633  1.00  0.00     0.074 A 
ATOM     43  C   UNL A   1      38.922  27.691  29.728  1.00  0.00     0.031 C 
ATOM     44  C   UNL A   1      44.514  25.356  26.442  1.00  0.00     0.029 A 
ATOM     45  C   UNL A   1      44.615  26.713  26.968  1.00  0.00     0.049 A 
ATOM     46  H   UNL A   1      43.209  27.728  28.122  1.00  0.00     0.167 HD
ATOM     47  C   UNL A   1      39.975  29.893  30.173  1.00  0.00     0.037 A 
ATOM     48  C   UNL A   1      45.661  27.543  26.798  1.00  0.00     0.037 A 
ATOM     49  C   UNL A   1      41.063  30.831  30.086  1.00  0.00     0.049 A 
ATOM     50  C   UNL A   1      45.585  28.939  27.347  1.00  0.00     0.074 A 
ATOM     51  C   UNL A   1      41.142  32.113  30.599  1.00  0.00     0.029 A 
ATOM     52  N   UNL A   1      42.266  30.581  29.440  1.00  0.00    -0.354 N 
ATOM     53  N   UNL A   1      44.613  29.511  28.017  1.00  0.00    -0.248 NA
ATOM     54  C   UNL A   1      46.743  29.812  27.108  1.00  0.00     0.031 C 
ATOM     55  C   UNL A   1      42.380  32.652  30.237  1.00  0.00     0.029 A 
ATOM     56  C   UNL A   1      43.088  31.691  29.532  1.00  0.00     0.049 A 
ATOM     57  H   UNL A   1      42.498  29.741  28.985  1.00  0.00     0.167 HD
ATOM     58  C   UNL A   1      45.051  30.797  28.302  1.00  0.00     0.074 A 
ATOM     59  C   UNL A   1      46.377  30.923  27.734  1.00  0.00     0.031 C 
ATOM     60  C   UNL A   1      44.413  31.785  28.976  1.00  0.00     0.037 A 
BRANCH  47  61
ATOM     61  C   UNL A   1      38.719  30.318  30.872  1.00  0.00     0.057 A 
ATOM     62  C   UNL A   1      38.528  30.115  32.244  1.00  0.00     0.134 A 
ATOM     63  C   UNL A   1      37.699  30.967  30.165  1.00  0.00     0.134 A 
ATOM     64  F   UNL A   1      39.462  29.486  32.974  1.00  0.00    -0.206 F 
ATOM     65  C   UNL A   1      37.359  30.527  32.885  1.00  0.00     0.040 A 
ATOM     66  C   UNL A   1      36.535  31.403  30.799  1.00  0.00     0.040 A 
ATOM     67  F   UNL A   1      37.821  31.195  28.849  1.00  0.00    -0.206 F 
ATOM     68  C   UNL A   1      36.360  31.179  32.163  1.00  0.00     0.006 A 
ENDBRANCH  47  61
BRANCH  48  69
ATOM     69  C   UNL A   1      46.850  27.086  26.036  1.00  0.00     0.057 A 
ATOM     70  C   UNL A   1      47.883  26.383  26.665  1.00  0.00     0.134 A 
ATOM     71  C   UNL A   1      46.977  27.333  24.664  1.00  0.00     0.134 A 
ATOM     72  F   UNL A   1      47.827  26.136  27.982  1.00  0.00    -0.206 F 
ATOM     73  C   UNL A   1      49.006  25.949  25.957  1.00  0.00     0.040 A 
ATOM     74  C   UNL A   1      48.082  26.885  23.940  1.00  0.00     0.040 A 
ATOM     75  F   UNL A   1      46.019  28.001  24.004  1.00  0.00    -0.206 F 
ATOM     76  C   UNL A   1      49.104  26.195  24.589  1.00  0.00     0.006 A 
ENDBRANCH  48  69
BRANCH  60  77
ATOM     77  C   UNL A   1      45.157  33.067  29.182  1.00  0.00     0.057 A 
ATOM     78  C   UNL A   1      46.019  33.254  30.268  1.00  0.00     0.134 A 
ATOM     79  C   UNL A   1      45.061  34.100  28.241  1.00  0.00     0.134 A 
ATOM     80  F   UNL A   1      46.145  32.305  31.208  1.00  0.00    -0.206 F 
ATOM     81  C   UNL A   1      46.756  34.430  30.416  1.00  0.00     0.040 A 
ATOM     82  C   UNL A   1      45.806  35.272  28.368  1.00  0.00     0.040 A 
ATOM     83  F   UNL A   1      44.256  33.977  27.175  1.00  0.00    -0.206 F 
ATOM     84  C   UNL A   1      46.657  35.439  29.459  1.00  0.00     0.006 A 
ENDBRANCH  60  77
ENDBRANCH  34  35
ENDBRANCH  27  29
ENDBRANCH  26  27
ENDBRANCH  25  26
ENDBRANCH   1  25
TORSDOF 13
ENDMDL
