MODEL 1
REMARK VINA RESULT:     -14.2      0.000      0.000
REMARK SMILES CCc1sc(NC(=O)[C@H]2CC(C)=C(C)C[C@H]2C(=O)OCCOC(=O)c2ccc(-c3c4nc(c(-c5c(F)cccc5F)c5ccc([nH]5)c(-c5c(F)cccc5F)c5nc(c(-c6c(F)cccc6F)c6ccc3[nH]6)C=C5)C=C4)cc2)nc1-c1ccccc1
REMARK SMILES IDX 20 1 19 2 17 3 18 4 16 5 9 6 10 7 11 8 15 9 12 10 13 11
REMARK SMILES IDX 14 12 7 13 6 14 8 16 5 17 3 18 4 19 80 20 79 21 2 22 1 23
REMARK SMILES IDX 81 24 82 25 86 26 83 27 85 28 84 29 21 30 22 31 23 32 24 33
REMARK SMILES IDX 25 34 26 35 78 36 27 37 77 38 28 39 29 40 30 41 71 42 31 43
REMARK SMILES IDX 76 44 70 45 72 46 32 47 75 48 69 49 68 50 33 52 59 53 42 54
REMARK SMILES IDX 58 55 43 56 46 57 57 58 73 59 44 60 45 61 56 63 74 64 47 65
REMARK SMILES IDX 34 66 35 67 40 68 36 69 37 70 39 71 41 72 38 73 60 74 61 75
REMARK SMILES IDX 66 76 62 77 63 78 65 79 67 80 64 81 48 82 49 83 54 84 50 85
REMARK SMILES IDX 51 86 53 87 55 88 52 89
REMARK H PARENT 6 15 72 51 46 62
REMARK Flexibility Score: inf
ROOT
ATOM      1  C   UNL A   1      32.100  30.691  26.144  1.00  0.00     0.274 C 
ENDROOT
BRANCH   1   2
ATOM      2  O   UNL A   1      31.449  29.389  25.980  1.00  0.00    -0.462 OA
BRANCH   2   3
ATOM      3  C   UNL A   1      32.175  28.471  25.305  1.00  0.00     0.310 C 
ATOM      4  O   UNL A   1      33.339  28.192  25.610  1.00  0.00    -0.252 OA
BRANCH   3   5
ATOM      5  C   UNL A   1      31.466  27.662  24.193  1.00  0.00     0.116 C 
ATOM      6  C   UNL A   1      30.483  26.460  24.350  1.00  0.00     0.097 C 
ATOM      7  C   UNL A   1      29.056  27.035  24.057  1.00  0.00     0.045 C 
ATOM      8  C   UNL A   1      28.905  28.235  23.126  1.00  0.00    -0.074 C 
ATOM      9  C   UNL A   1      31.322  28.543  22.952  1.00  0.00     0.046 C 
ATOM     10  C   UNL A   1      27.483  28.615  22.838  1.00  0.00     0.039 C 
ATOM     11  C   UNL A   1      29.941  28.924  22.618  1.00  0.00    -0.073 C 
ATOM     12  C   UNL A   1      29.881  30.100  21.683  1.00  0.00     0.039 C 
BRANCH   6  13
ATOM     13  C   UNL A   1      30.315  25.352  25.523  1.00  0.00     0.230 C 
ATOM     14  N   UNL A   1      30.522  23.990  25.569  1.00  0.00    -0.302 N 
ATOM     15  H   UNL A   1      29.907  23.511  26.170  1.00  0.00     0.172 HD
ATOM     16  O   UNL A   1      29.723  25.733  26.556  1.00  0.00    -0.274 OA
BRANCH  14  17
ATOM     17  C   UNL A   1      31.440  23.167  24.925  1.00  0.00     0.190 A 
ATOM     18  C   UNL A   1      34.509  21.949  24.628  1.00  0.00     0.034 A 
ATOM     19  S   UNL A   1      33.572  23.984  25.109  1.00  0.00    -0.101 S 
ATOM     20  C   UNL A   1      33.269  20.689  24.510  1.00  0.00     0.087 A 
ATOM     21  N   UNL A   1      31.516  21.448  24.775  1.00  0.00    -0.220 NA
BRANCH  18  22
ATOM     22  C   UNL A   1      36.011  22.029  24.610  1.00  0.00     0.046 C 
ATOM     23  C   UNL A   1      36.558  22.679  23.357  1.00  0.00     0.010 C 
ENDBRANCH  18  22
BRANCH  20  24
ATOM     24  C   UNL A   1      33.703  19.379  23.998  1.00  0.00     0.001 A 
ATOM     25  C   UNL A   1      32.833  18.695  23.131  1.00  0.00     0.010 A 
ATOM     26  C   UNL A   1      34.709  18.639  24.626  1.00  0.00     0.010 A 
ATOM     27  C   UNL A   1      32.908  17.305  22.975  1.00  0.00     0.001 A 
ATOM     28  C   UNL A   1      34.770  17.245  24.491  1.00  0.00     0.001 A 
ATOM     29  C   UNL A   1      33.858  16.577  23.681  1.00  0.00     0.000 A 
ENDBRANCH  20  24
ENDBRANCH  14  17
ENDBRANCH   6  13
ENDBRANCH   3   5
ENDBRANCH   2   3
ENDBRANCH   1   2
BRANCH   1  30
ATOM     30  C   UNL A   1      31.261  31.781  26.858  1.00  0.00     0.275 C 
BRANCH  30  31
ATOM     31  O   UNL A   1      31.787  33.143  26.679  1.00  0.00    -0.458 OA
BRANCH  31  32
ATOM     32  C   UNL A   1      32.810  33.543  27.686  1.00  0.00     0.338 C 
ATOM     33  O   UNL A   1      32.359  34.693  27.994  1.00  0.00    -0.246 OA
BRANCH  32  34
ATOM     34  C   UNL A   1      34.578  32.487  28.408  1.00  0.00     0.060 A 
ATOM     35  C   UNL A   1      35.896  32.984  28.966  1.00  0.00     0.016 A 
ATOM     36  C   UNL A   1      34.813  30.969  28.432  1.00  0.00     0.016 A 
ATOM     37  C   UNL A   1      37.087  32.311  29.133  1.00  0.00     0.010 A 
ATOM     38  C   UNL A   1      35.874  30.276  29.015  1.00  0.00     0.010 A 
ATOM     39  C   UNL A   1      37.001  30.974  29.381  1.00  0.00    -0.014 A 
BRANCH  39  40
ATOM     40  C   UNL A   1      38.102  30.367  30.111  1.00  0.00     0.031 A 
ATOM     41  C   UNL A   1      38.211  30.671  31.552  1.00  0.00     0.074 A 
ATOM     42  C   UNL A   1      38.939  29.574  29.412  1.00  0.00     0.049 A 
ATOM     43  N   UNL A   1      39.202  30.423  32.351  1.00  0.00    -0.248 NA
ATOM     44  C   UNL A   1      37.103  31.432  32.160  1.00  0.00     0.031 C 
ATOM     45  C   UNL A   1      38.833  29.279  27.972  1.00  0.00     0.029 A 
ATOM     46  N   UNL A   1      40.015  28.837  29.798  1.00  0.00    -0.354 N 
ATOM     47  C   UNL A   1      38.874  31.066  33.529  1.00  0.00     0.074 A 
ATOM     48  C   UNL A   1      37.633  31.771  33.322  1.00  0.00     0.031 C 
ATOM     49  C   UNL A   1      39.732  28.356  27.623  1.00  0.00     0.029 A 
ATOM     50  C   UNL A   1      40.578  28.115  28.772  1.00  0.00     0.049 A 
ATOM     51  H   UNL A   1      40.357  28.822  30.722  1.00  0.00     0.167 HD
ATOM     52  C   UNL A   1      39.574  31.033  34.680  1.00  0.00     0.037 A 
ATOM     53  C   UNL A   1      41.704  27.388  28.763  1.00  0.00     0.037 A 
ATOM     54  C   UNL A   1      40.778  30.256  34.795  1.00  0.00     0.049 A 
ATOM     55  C   UNL A   1      42.448  27.353  30.060  1.00  0.00     0.074 A 
ATOM     56  C   UNL A   1      41.596  30.079  35.888  1.00  0.00     0.029 A 
ATOM     57  N   UNL A   1      41.325  29.510  33.749  1.00  0.00    -0.354 N 
ATOM     58  N   UNL A   1      42.152  27.966  31.185  1.00  0.00    -0.248 NA
ATOM     59  C   UNL A   1      43.666  26.551  30.101  1.00  0.00     0.031 C 
ATOM     60  C   UNL A   1      42.666  29.270  35.487  1.00  0.00     0.029 A 
ATOM     61  C   UNL A   1      42.481  28.882  34.164  1.00  0.00     0.049 A 
ATOM     62  H   UNL A   1      40.940  29.441  32.845  1.00  0.00     0.167 HD
ATOM     63  C   UNL A   1      43.138  27.614  32.084  1.00  0.00     0.074 A 
ATOM     64  C   UNL A   1      44.029  26.712  31.366  1.00  0.00     0.031 C 
ATOM     65  C   UNL A   1      43.309  27.995  33.376  1.00  0.00     0.037 A 
BRANCH  52  66
ATOM     66  C   UNL A   1      39.068  31.888  35.801  1.00  0.00     0.057 A 
ATOM     67  C   UNL A   1      39.502  33.209  36.001  1.00  0.00     0.134 A 
ATOM     68  C   UNL A   1      38.217  31.342  36.770  1.00  0.00     0.134 A 
ATOM     69  F   UNL A   1      40.351  33.785  35.135  1.00  0.00    -0.206 F 
ATOM     70  C   UNL A   1      39.158  33.929  37.147  1.00  0.00     0.040 A 
ATOM     71  C   UNL A   1      37.834  32.067  37.899  1.00  0.00     0.040 A 
ATOM     72  F   UNL A   1      37.777  30.080  36.657  1.00  0.00    -0.206 F 
ATOM     73  C   UNL A   1      38.318  33.358  38.098  1.00  0.00     0.006 A 
ENDBRANCH  52  66
BRANCH  53  74
ATOM     74  C   UNL A   1      42.158  26.709  27.523  1.00  0.00     0.057 A 
ATOM     75  C   UNL A   1      42.969  27.364  26.593  1.00  0.00     0.134 A 
ATOM     76  C   UNL A   1      41.851  25.364  27.266  1.00  0.00     0.134 A 
ATOM     77  F   UNL A   1      43.312  28.646  26.782  1.00  0.00    -0.206 F 
ATOM     78  C   UNL A   1      43.440  26.720  25.444  1.00  0.00     0.040 A 
ATOM     79  C   UNL A   1      42.338  24.698  26.139  1.00  0.00     0.040 A 
ATOM     80  F   UNL A   1      41.105  24.659  28.131  1.00  0.00    -0.206 F 
ATOM     81  C   UNL A   1      43.128  25.380  25.217  1.00  0.00     0.006 A 
ENDBRANCH  53  74
BRANCH  65  82
ATOM     82  C   UNL A   1      44.481  27.390  34.073  1.00  0.00     0.057 A 
ATOM     83  C   UNL A   1      45.716  28.043  34.140  1.00  0.00     0.134 A 
ATOM     84  C   UNL A   1      44.345  26.160  34.727  1.00  0.00     0.134 A 
ATOM     85  F   UNL A   1      45.904  29.214  33.514  1.00  0.00    -0.206 F 
ATOM     86  C   UNL A   1      46.791  27.477  34.820  1.00  0.00     0.040 A 
ATOM     87  C   UNL A   1      45.400  25.606  35.443  1.00  0.00     0.040 A 
ATOM     88  F   UNL A   1      43.179  25.498  34.700  1.00  0.00    -0.206 F 
ATOM     89  C   UNL A   1      46.630  26.261  35.483  1.00  0.00     0.006 A 
ENDBRANCH  65  82
ENDBRANCH  39  40
ENDBRANCH  32  34
ENDBRANCH  31  32
ENDBRANCH  30  31
ENDBRANCH   1  30
TORSDOF 15
ENDMDL
MODEL 2
REMARK VINA RESULT:     -13.9      0.615      6.205
REMARK SMILES CCc1sc(NC(=O)[C@H]2CC(C)=C(C)C[C@H]2C(=O)OCCOC(=O)c2ccc(-c3c4nc(c(-c5c(F)cccc5F)c5ccc([nH]5)c(-c5c(F)cccc5F)c5nc(c(-c6c(F)cccc6F)c6ccc3[nH]6)C=C5)C=C4)cc2)nc1-c1ccccc1
REMARK SMILES IDX 20 1 19 2 17 3 18 4 16 5 9 6 10 7 11 8 15 9 12 10 13 11
REMARK SMILES IDX 14 12 7 13 6 14 8 16 5 17 3 18 4 19 80 20 79 21 2 22 1 23
REMARK SMILES IDX 81 24 82 25 86 26 83 27 85 28 84 29 21 30 22 31 23 32 24 33
REMARK SMILES IDX 25 34 26 35 78 36 27 37 77 38 28 39 29 40 30 41 71 42 31 43
REMARK SMILES IDX 76 44 70 45 72 46 32 47 75 48 69 49 68 50 33 52 59 53 42 54
REMARK SMILES IDX 58 55 43 56 46 57 57 58 73 59 44 60 45 61 56 63 74 64 47 65
REMARK SMILES IDX 34 66 35 67 40 68 36 69 37 70 39 71 41 72 38 73 60 74 61 75
REMARK SMILES IDX 66 76 62 77 63 78 65 79 67 80 64 81 48 82 49 83 54 84 50 85
REMARK SMILES IDX 51 86 53 87 55 88 52 89
REMARK H PARENT 6 15 72 51 46 62
REMARK Flexibility Score: inf
ROOT
ATOM      1  C   UNL A   1      31.789  29.653  26.091  1.00  0.00     0.274 C 
ENDROOT
BRANCH   1   2
ATOM      2  O   UNL A   1      32.685  29.022  25.118  1.00  0.00    -0.462 OA
BRANCH   2   3
ATOM      3  C   UNL A   1      32.631  27.672  25.086  1.00  0.00     0.310 C 
ATOM      4  O   UNL A   1      33.230  26.966  25.905  1.00  0.00    -0.252 OA
BRANCH   3   5
ATOM      5  C   UNL A   1      31.681  27.008  24.061  1.00  0.00     0.116 C 
ATOM      6  C   UNL A   1      30.557  25.957  24.325  1.00  0.00     0.097 C 
ATOM      7  C   UNL A   1      29.206  26.742  24.218  1.00  0.00     0.045 C 
ATOM      8  C   UNL A   1      29.123  27.979  23.327  1.00  0.00    -0.074 C 
ATOM      9  C   UNL A   1      31.520  27.937  22.858  1.00  0.00     0.046 C 
ATOM     10  C   UNL A   1      27.749  28.570  23.221  1.00  0.00     0.039 C 
ATOM     11  C   UNL A   1      30.181  28.525  22.703  1.00  0.00    -0.073 C 
ATOM     12  C   UNL A   1      30.182  29.724  21.796  1.00  0.00     0.039 C 
BRANCH   6  13
ATOM     13  C   UNL A   1      30.370  24.852  25.497  1.00  0.00     0.230 C 
ATOM     14  N   UNL A   1      30.587  23.491  25.552  1.00  0.00    -0.302 N 
ATOM     15  H   UNL A   1      29.961  23.009  26.139  1.00  0.00     0.172 HD
ATOM     16  O   UNL A   1      29.750  25.230  26.515  1.00  0.00    -0.274 OA
BRANCH  14  17
ATOM     17  C   UNL A   1      31.526  22.674  24.932  1.00  0.00     0.190 A 
ATOM     18  C   UNL A   1      34.648  21.609  24.597  1.00  0.00     0.034 A 
ATOM     19  S   UNL A   1      33.612  23.620  24.965  1.00  0.00    -0.101 S 
ATOM     20  C   UNL A   1      33.480  20.277  24.624  1.00  0.00     0.087 A 
ATOM     21  N   UNL A   1      31.698  20.956  24.906  1.00  0.00    -0.220 NA
BRANCH  18  22
ATOM     22  C   UNL A   1      36.141  21.771  24.509  1.00  0.00     0.046 C 
ATOM     23  C   UNL A   1      36.581  22.617  23.333  1.00  0.00     0.010 C 
ENDBRANCH  18  22
BRANCH  20  24
ATOM     24  C   UNL A   1      33.971  18.958  24.192  1.00  0.00     0.001 A 
ATOM     25  C   UNL A   1      33.132  18.186  23.369  1.00  0.00     0.010 A 
ATOM     26  C   UNL A   1      35.006  18.301  24.864  1.00  0.00     0.010 A 
ATOM     27  C   UNL A   1      33.267  16.793  23.297  1.00  0.00     0.001 A 
ATOM     28  C   UNL A   1      35.127  16.905  24.814  1.00  0.00     0.001 A 
ATOM     29  C   UNL A   1      34.246  16.151  24.046  1.00  0.00     0.000 A 
ENDBRANCH  20  24
ENDBRANCH  14  17
ENDBRANCH   6  13
ENDBRANCH   3   5
ENDBRANCH   2   3
ENDBRANCH   1   2
BRANCH   1  30
ATOM     30  C   UNL A   1      31.276  31.068  25.719  1.00  0.00     0.275 C 
BRANCH  30  31
ATOM     31  O   UNL A   1      31.084  31.950  26.880  1.00  0.00    -0.458 OA
BRANCH  31  32
ATOM     32  C   UNL A   1      32.307  32.695  27.294  1.00  0.00     0.338 C 
ATOM     33  O   UNL A   1      31.911  33.883  27.066  1.00  0.00    -0.246 OA
BRANCH  32  34
ATOM     34  C   UNL A   1      34.222  31.970  28.047  1.00  0.00     0.060 A 
ATOM     35  C   UNL A   1      35.474  32.698  28.493  1.00  0.00     0.016 A 
ATOM     36  C   UNL A   1      34.665  30.510  28.219  1.00  0.00     0.016 A 
ATOM     37  C   UNL A   1      36.751  32.213  28.679  1.00  0.00     0.010 A 
ATOM     38  C   UNL A   1      35.827  30.033  28.826  1.00  0.00     0.010 A 
ATOM     39  C   UNL A   1      36.857  30.912  29.069  1.00  0.00    -0.014 A 
BRANCH  39  40
ATOM     40  C   UNL A   1      38.052  30.542  29.811  1.00  0.00     0.031 A 
ATOM     41  C   UNL A   1      39.057  29.715  29.113  1.00  0.00     0.074 A 
ATOM     42  C   UNL A   1      38.146  30.984  31.081  1.00  0.00     0.049 A 
ATOM     43  N   UNL A   1      40.079  29.100  29.619  1.00  0.00    -0.248 NA
ATOM     44  C   UNL A   1      38.839  29.473  27.674  1.00  0.00     0.031 C 
ATOM     45  C   UNL A   1      37.137  31.801  31.779  1.00  0.00     0.029 A 
ATOM     46  N   UNL A   1      39.132  30.855  32.009  1.00  0.00    -0.354 N 
ATOM     47  C   UNL A   1      40.577  28.334  28.582  1.00  0.00     0.074 A 
ATOM     48  C   UNL A   1      39.709  28.506  27.443  1.00  0.00     0.031 C 
ATOM     49  C   UNL A   1      37.598  32.180  32.973  1.00  0.00     0.029 A 
ATOM     50  C   UNL A   1      38.857  31.503  33.191  1.00  0.00     0.049 A 
ATOM     51  H   UNL A   1      39.961  30.346  31.850  1.00  0.00     0.167 HD
ATOM     52  C   UNL A   1      41.687  27.570  28.613  1.00  0.00     0.037 A 
ATOM     53  C   UNL A   1      39.537  31.488  34.345  1.00  0.00     0.037 A 
ATOM     54  C   UNL A   1      42.513  27.507  29.789  1.00  0.00     0.049 A 
ATOM     55  C   UNL A   1      40.775  30.649  34.343  1.00  0.00     0.074 A 
ATOM     56  C   UNL A   1      43.686  26.815  29.989  1.00  0.00     0.029 A 
ATOM     57  N   UNL A   1      42.231  28.191  30.973  1.00  0.00    -0.354 N 
ATOM     58  N   UNL A   1      41.257  29.910  33.368  1.00  0.00    -0.248 NA
ATOM     59  C   UNL A   1      41.559  30.626  35.573  1.00  0.00     0.031 C 
ATOM     60  C   UNL A   1      44.084  27.038  31.312  1.00  0.00     0.029 A 
ATOM     61  C   UNL A   1      43.201  27.925  31.919  1.00  0.00     0.049 A 
ATOM     62  H   UNL A   1      41.454  28.778  31.114  1.00  0.00     0.167 HD
ATOM     63  C   UNL A   1      42.414  29.339  33.855  1.00  0.00     0.074 A 
ATOM     64  C   UNL A   1      42.568  29.844  35.213  1.00  0.00     0.031 C 
ATOM     65  C   UNL A   1      43.273  28.477  33.254  1.00  0.00     0.037 A 
BRANCH  52  66
ATOM     66  C   UNL A   1      41.978  26.754  27.391  1.00  0.00     0.057 A 
ATOM     67  C   UNL A   1      41.577  25.414  27.264  1.00  0.00     0.134 A 
ATOM     68  C   UNL A   1      42.776  27.282  26.370  1.00  0.00     0.134 A 
ATOM     69  F   UNL A   1      40.844  24.828  28.224  1.00  0.00    -0.206 F 
ATOM     70  C   UNL A   1      42.007  24.617  26.200  1.00  0.00     0.040 A 
ATOM     71  C   UNL A   1      43.179  26.506  25.281  1.00  0.00     0.040 A 
ATOM     72  F   UNL A   1      43.213  28.549  26.432  1.00  0.00    -0.206 F 
ATOM     73  C   UNL A   1      42.808  25.166  25.203  1.00  0.00     0.006 A 
ENDBRANCH  52  66
BRANCH  53  74
ATOM     74  C   UNL A   1      39.041  32.240  35.526  1.00  0.00     0.057 A 
ATOM     75  C   UNL A   1      38.260  31.620  36.505  1.00  0.00     0.134 A 
ATOM     76  C   UNL A   1      39.392  33.581  35.745  1.00  0.00     0.134 A 
ATOM     77  F   UNL A   1      37.899  30.336  36.367  1.00  0.00    -0.206 F 
ATOM     78  C   UNL A   1      37.827  32.306  37.644  1.00  0.00     0.040 A 
ATOM     79  C   UNL A   1      38.992  34.271  36.892  1.00  0.00     0.040 A 
ATOM     80  F   UNL A   1      40.169  34.233  34.866  1.00  0.00    -0.206 F 
ATOM     81  C   UNL A   1      38.197  33.636  37.842  1.00  0.00     0.006 A 
ENDBRANCH  53  74
BRANCH  65  82
ATOM     82  C   UNL A   1      44.459  28.080  34.070  1.00  0.00     0.057 A 
ATOM     83  C   UNL A   1      45.606  28.878  34.138  1.00  0.00     0.134 A 
ATOM     84  C   UNL A   1      44.420  26.909  34.834  1.00  0.00     0.134 A 
ATOM     85  F   UNL A   1      45.701  30.000  33.409  1.00  0.00    -0.206 F 
ATOM     86  C   UNL A   1      46.692  28.507  34.926  1.00  0.00     0.040 A 
ATOM     87  C   UNL A   1      45.482  26.551  35.657  1.00  0.00     0.040 A 
ATOM     88  F   UNL A   1      43.339  26.114  34.811  1.00  0.00    -0.206 F 
ATOM     89  C   UNL A   1      46.625  27.347  35.697  1.00  0.00     0.006 A 
ENDBRANCH  65  82
ENDBRANCH  39  40
ENDBRANCH  32  34
ENDBRANCH  31  32
ENDBRANCH  30  31
ENDBRANCH   1  30
TORSDOF 15
ENDMDL
MODEL 3
REMARK VINA RESULT:     -13.8      3.935      5.625
REMARK SMILES CCc1sc(NC(=O)[C@H]2CC(C)=C(C)C[C@H]2C(=O)OCCOC(=O)c2ccc(-c3c4nc(c(-c5c(F)cccc5F)c5ccc([nH]5)c(-c5c(F)cccc5F)c5nc(c(-c6c(F)cccc6F)c6ccc3[nH]6)C=C5)C=C4)cc2)nc1-c1ccccc1
REMARK SMILES IDX 20 1 19 2 17 3 18 4 16 5 9 6 10 7 11 8 15 9 12 10 13 11
REMARK SMILES IDX 14 12 7 13 6 14 8 16 5 17 3 18 4 19 80 20 79 21 2 22 1 23
REMARK SMILES IDX 81 24 82 25 86 26 83 27 85 28 84 29 21 30 22 31 23 32 24 33
REMARK SMILES IDX 25 34 26 35 78 36 27 37 77 38 28 39 29 40 30 41 71 42 31 43
REMARK SMILES IDX 76 44 70 45 72 46 32 47 75 48 69 49 68 50 33 52 59 53 42 54
REMARK SMILES IDX 58 55 43 56 46 57 57 58 73 59 44 60 45 61 56 63 74 64 47 65
REMARK SMILES IDX 34 66 35 67 40 68 36 69 37 70 39 71 41 72 38 73 60 74 61 75
REMARK SMILES IDX 66 76 62 77 63 78 65 79 67 80 64 81 48 82 49 83 54 84 50 85
REMARK SMILES IDX 51 86 53 87 55 88 52 89
REMARK H PARENT 6 15 72 51 46 62
REMARK Flexibility Score: inf
ROOT
ATOM      1  C   UNL A   1      32.298  30.457  26.838  1.00  0.00     0.274 C 
ENDROOT
BRANCH   1   2
ATOM      2  O   UNL A   1      32.071  29.746  25.577  1.00  0.00    -0.462 OA
BRANCH   2   3
ATOM      3  C   UNL A   1      31.910  28.410  25.698  1.00  0.00     0.310 C 
ATOM      4  O   UNL A   1      32.134  27.809  26.754  1.00  0.00    -0.252 OA
BRANCH   3   5
ATOM      5  C   UNL A   1      31.304  27.642  24.500  1.00  0.00     0.116 C 
ATOM      6  C   UNL A   1      30.347  26.408  24.528  1.00  0.00     0.097 C 
ATOM      7  C   UNL A   1      28.928  26.960  24.164  1.00  0.00     0.045 C 
ATOM      8  C   UNL A   1      28.806  28.202  23.286  1.00  0.00    -0.074 C 
ATOM      9  C   UNL A   1      31.219  28.582  23.298  1.00  0.00     0.046 C 
ATOM     10  C   UNL A   1      27.397  28.560  22.917  1.00  0.00     0.039 C 
ATOM     11  C   UNL A   1      29.854  28.944  22.887  1.00  0.00    -0.073 C 
ATOM     12  C   UNL A   1      29.823  30.165  22.010  1.00  0.00     0.039 C 
BRANCH   6  13
ATOM     13  C   UNL A   1      30.132  25.237  25.629  1.00  0.00     0.230 C 
ATOM     14  N   UNL A   1      30.336  23.874  25.607  1.00  0.00    -0.302 N 
ATOM     15  H   UNL A   1      29.697  23.363  26.155  1.00  0.00     0.172 HD
ATOM     16  O   UNL A   1      29.498  25.561  26.657  1.00  0.00    -0.274 OA
BRANCH  14  17
ATOM     17  C   UNL A   1      31.280  23.086  24.956  1.00  0.00     0.190 A 
ATOM     18  C   UNL A   1      34.385  21.964  24.649  1.00  0.00     0.034 A 
ATOM     19  S   UNL A   1      33.386  23.965  25.150  1.00  0.00    -0.101 S 
ATOM     20  C   UNL A   1      33.184  20.669  24.518  1.00  0.00     0.087 A 
ATOM     21  N   UNL A   1      31.408  21.372  24.789  1.00  0.00    -0.220 NA
BRANCH  18  22
ATOM     22  C   UNL A   1      35.883  22.091  24.633  1.00  0.00     0.046 C 
ATOM     23  C   UNL A   1      36.414  22.733  23.369  1.00  0.00     0.010 C 
ENDBRANCH  18  22
BRANCH  20  24
ATOM     24  C   UNL A   1      33.658  19.378  23.993  1.00  0.00     0.001 A 
ATOM     25  C   UNL A   1      32.824  18.692  23.092  1.00  0.00     0.010 A 
ATOM     26  C   UNL A   1      34.663  18.647  24.633  1.00  0.00     0.010 A 
ATOM     27  C   UNL A   1      32.932  17.307  22.912  1.00  0.00     0.001 A 
ATOM     28  C   UNL A   1      34.757  17.258  24.474  1.00  0.00     0.001 A 
ATOM     29  C   UNL A   1      33.880  16.586  23.629  1.00  0.00     0.000 A 
ENDBRANCH  20  24
ENDBRANCH  14  17
ENDBRANCH   6  13
ENDBRANCH   3   5
ENDBRANCH   2   3
ENDBRANCH   1   2
BRANCH   1  30
ATOM     30  C   UNL A   1      33.781  30.645  27.251  1.00  0.00     0.275 C 
BRANCH  30  31
ATOM     31  O   UNL A   1      34.001  31.781  28.159  1.00  0.00    -0.458 OA
BRANCH  31  32
ATOM     32  C   UNL A   1      35.097  31.573  29.147  1.00  0.00     0.338 C 
ATOM     33  O   UNL A   1      34.614  32.220  30.131  1.00  0.00    -0.246 OA
BRANCH  32  34
ATOM     34  C   UNL A   1      36.988  30.500  28.962  1.00  0.00     0.060 A 
ATOM     35  C   UNL A   1      37.908  30.266  27.781  1.00  0.00     0.016 A 
ATOM     36  C   UNL A   1      37.727  29.717  30.058  1.00  0.00     0.016 A 
ATOM     37  C   UNL A   1      38.926  29.350  27.631  1.00  0.00     0.010 A 
ATOM     38  C   UNL A   1      38.998  29.145  29.993  1.00  0.00     0.010 A 
ATOM     39  C   UNL A   1      39.593  28.990  28.762  1.00  0.00    -0.014 A 
BRANCH  39  40
ATOM     40  C   UNL A   1      40.963  28.528  28.602  1.00  0.00     0.031 A 
ATOM     41  C   UNL A   1      42.042  29.514  28.811  1.00  0.00     0.074 A 
ATOM     42  C   UNL A   1      41.139  27.232  28.273  1.00  0.00     0.049 A 
ATOM     43  N   UNL A   1      43.301  29.396  28.528  1.00  0.00    -0.248 NA
ATOM     44  C   UNL A   1      41.645  30.840  29.323  1.00  0.00     0.031 C 
ATOM     45  C   UNL A   1      40.060  26.252  28.056  1.00  0.00     0.029 A 
ATOM     46  N   UNL A   1      42.266  26.492  28.098  1.00  0.00    -0.354 N 
ATOM     47  C   UNL A   1      43.831  30.653  28.748  1.00  0.00     0.074 A 
ATOM     48  C   UNL A   1      42.751  31.534  29.119  1.00  0.00     0.031 C 
ATOM     49  C   UNL A   1      40.574  25.032  27.879  1.00  0.00     0.029 A 
ATOM     50  C   UNL A   1      42.012  25.171  27.809  1.00  0.00     0.049 A 
ATOM     51  H   UNL A   1      43.175  26.866  28.169  1.00  0.00     0.167 HD
ATOM     52  C   UNL A   1      45.129  31.003  28.653  1.00  0.00     0.037 A 
ATOM     53  C   UNL A   1      42.866  24.198  27.463  1.00  0.00     0.037 A 
ATOM     54  C   UNL A   1      46.137  30.032  28.322  1.00  0.00     0.049 A 
ATOM     55  C   UNL A   1      44.302  24.611  27.385  1.00  0.00     0.074 A 
ATOM     56  C   UNL A   1      47.499  30.198  28.214  1.00  0.00     0.029 A 
ATOM     57  N   UNL A   1      45.864  28.689  28.055  1.00  0.00    -0.354 N 
ATOM     58  N   UNL A   1      44.818  25.804  27.585  1.00  0.00    -0.248 NA
ATOM     59  C   UNL A   1      45.268  23.575  27.036  1.00  0.00     0.031 C 
ATOM     60  C   UNL A   1      48.043  28.968  27.828  1.00  0.00     0.029 A 
ATOM     61  C   UNL A   1      47.033  28.014  27.764  1.00  0.00     0.049 A 
ATOM     62  H   UNL A   1      44.968  28.281  28.072  1.00  0.00     0.167 HD
ATOM     63  C   UNL A   1      46.179  25.667  27.402  1.00  0.00     0.074 A 
ATOM     64  C   UNL A   1      46.402  24.260  27.096  1.00  0.00     0.031 C 
ATOM     65  C   UNL A   1      47.160  26.603  27.470  1.00  0.00     0.037 A 
BRANCH  52  66
ATOM     66  C   UNL A   1      45.453  32.452  28.848  1.00  0.00     0.057 A 
ATOM     67  C   UNL A   1      45.478  33.372  27.787  1.00  0.00     0.134 A 
ATOM     68  C   UNL A   1      45.862  32.915  30.105  1.00  0.00     0.134 A 
ATOM     69  F   UNL A   1      45.139  32.989  26.546  1.00  0.00    -0.206 F 
ATOM     70  C   UNL A   1      45.953  34.674  27.956  1.00  0.00     0.040 A 
ATOM     71  C   UNL A   1      46.299  34.227  30.294  1.00  0.00     0.040 A 
ATOM     72  F   UNL A   1      45.882  32.089  31.162  1.00  0.00    -0.206 F 
ATOM     73  C   UNL A   1      46.362  35.105  29.214  1.00  0.00     0.006 A 
ENDBRANCH  52  66
BRANCH  53  74
ATOM     74  C   UNL A   1      42.373  22.832  27.155  1.00  0.00     0.057 A 
ATOM     75  C   UNL A   1      42.311  22.362  25.840  1.00  0.00     0.134 A 
ATOM     76  C   UNL A   1      42.016  21.932  28.171  1.00  0.00     0.134 A 
ATOM     77  F   UNL A   1      42.650  23.164  24.821  1.00  0.00    -0.206 F 
ATOM     78  C   UNL A   1      41.892  21.062  25.543  1.00  0.00     0.040 A 
ATOM     79  C   UNL A   1      41.625  20.620  27.892  1.00  0.00     0.040 A 
ATOM     80  F   UNL A   1      42.084  22.300  29.460  1.00  0.00    -0.206 F 
ATOM     81  C   UNL A   1      41.552  20.184  26.572  1.00  0.00     0.006 A 
ENDBRANCH  53  74
BRANCH  65  82
ATOM     82  C   UNL A   1      48.546  26.097  27.247  1.00  0.00     0.057 A 
ATOM     83  C   UNL A   1      49.154  26.145  25.988  1.00  0.00     0.134 A 
ATOM     84  C   UNL A   1      49.290  25.604  28.325  1.00  0.00     0.134 A 
ATOM     85  F   UNL A   1      48.477  26.589  24.919  1.00  0.00    -0.206 F 
ATOM     86  C   UNL A   1      50.459  25.694  25.804  1.00  0.00     0.040 A 
ATOM     87  C   UNL A   1      50.608  25.190  28.160  1.00  0.00     0.040 A 
ATOM     88  F   UNL A   1      48.756  25.546  29.554  1.00  0.00    -0.206 F 
ATOM     89  C   UNL A   1      51.192  25.227  26.895  1.00  0.00     0.006 A 
ENDBRANCH  65  82
ENDBRANCH  39  40
ENDBRANCH  32  34
ENDBRANCH  31  32
ENDBRANCH  30  31
ENDBRANCH   1  30
TORSDOF 15
ENDMDL
