MODEL 1
REMARK VINA RESULT:     -11.6      0.000      0.000
REMARK SMILES COc1ccc(F)c(NC(=O)N[C@H]2CCC[C@H]2C(=O)OCCOC(=O)c2ccc(-c3c4nc(c(-c5c(F)cccc5F)c5ccc([nH]5)c(-c5c(F)cccc5F)c5nc(c(-c6c(F)cccc6F)c6ccc3[nH]6)C=C5)C=C4)cc2)c1
REMARK SMILES IDX 21 1 20 2 18 3 19 4 17 5 13 6 14 7 15 8 16 9 12 10 9 11
REMARK SMILES IDX 10 12 11 14 8 16 3 17 4 18 80 19 5 20 6 21 7 22 2 23 1 24
REMARK SMILES IDX 22 25 23 26 24 27 25 28 26 29 27 30 79 31 28 32 78 33 29 34
REMARK SMILES IDX 30 35 31 36 72 37 32 38 77 39 71 40 73 41 33 42 76 43 70 44
REMARK SMILES IDX 69 45 34 47 60 48 43 49 59 50 44 51 47 52 58 53 74 54 45 55
REMARK SMILES IDX 46 56 57 58 75 59 48 60 35 61 36 62 41 63 37 64 38 65 40 66
REMARK SMILES IDX 42 67 39 68 61 69 62 70 67 71 63 72 64 73 66 74 68 75 65 76
REMARK SMILES IDX 49 77 50 78 55 79 51 80 52 81 54 82 56 83 53 84
REMARK H PARENT 9 13 12 15 73 46 47 57
REMARK Flexibility Score: inf
ROOT
ATOM      1  C   UNL A   1      41.044  20.257  26.623  1.00  0.00     0.274 C 
ENDROOT
BRANCH   1   2
ATOM      2  O   UNL A   1      39.879  21.087  26.492  1.00  0.00    -0.462 OA
BRANCH   2   3
ATOM      3  C   UNL A   1      38.973  20.677  25.564  1.00  0.00     0.311 C 
ATOM      4  O   UNL A   1      38.640  19.515  25.376  1.00  0.00    -0.252 OA
BRANCH   3   5
ATOM      5  C   UNL A   1      38.201  21.870  25.084  1.00  0.00     0.121 C 
ATOM      6  C   UNL A   1      36.893  21.749  24.275  1.00  0.00     0.098 C 
ATOM      7  C   UNL A   1      36.690  23.231  24.070  1.00  0.00     0.026 C 
ATOM      8  C   UNL A   1      36.820  23.789  25.487  1.00  0.00     0.003 C 
ATOM      9  C   UNL A   1      37.928  22.954  26.126  1.00  0.00     0.017 C 
BRANCH   6  10
ATOM     10  N   UNL A   1      35.779  21.075  24.982  1.00  0.00    -0.334 N 
ATOM     11  N   UNL A   1      33.546  21.624  24.186  1.00  0.00    -0.305 N 
ATOM     12  C   UNL A   1      34.461  20.856  24.818  1.00  0.00     0.319 C 
ATOM     13  H   UNL A   1      32.879  21.119  23.666  1.00  0.00     0.171 HD
ATOM     14  O   UNL A   1      34.039  19.795  25.300  1.00  0.00    -0.248 OA
ATOM     15  H   UNL A   1      36.097  20.667  25.819  1.00  0.00     0.165 HD
BRANCH  11  16
ATOM     16  C   UNL A   1      33.380  23.027  24.141  1.00  0.00     0.082 A 
ATOM     17  C   UNL A   1      33.406  25.070  22.848  1.00  0.00     0.121 A 
ATOM     18  C   UNL A   1      33.274  25.832  24.007  1.00  0.00     0.049 A 
ATOM     19  C   UNL A   1      33.321  23.675  22.905  1.00  0.00     0.075 A 
ATOM     20  C   UNL A   1      33.102  25.184  25.232  1.00  0.00     0.045 A 
ATOM     21  C   UNL A   1      33.170  23.788  25.295  1.00  0.00     0.147 A 
ATOM     22  F   UNL A   1      33.053  23.192  26.490  1.00  0.00    -0.205 F 
BRANCH  17  23
ATOM     23  O   UNL A   1      33.653  25.637  21.626  1.00  0.00    -0.497 OA
ATOM     24  C   UNL A   1      32.464  25.736  20.834  1.00  0.00     0.278 C 
ENDBRANCH  17  23
ENDBRANCH  11  16
ENDBRANCH   6  10
ENDBRANCH   3   5
ENDBRANCH   2   3
ENDBRANCH   1   2
BRANCH   1  25
ATOM     25  C   UNL A   1      42.269  21.034  26.124  1.00  0.00     0.275 C 
BRANCH  25  26
ATOM     26  O   UNL A   1      41.915  22.225  25.378  1.00  0.00    -0.458 OA
BRANCH  26  27
ATOM     27  C   UNL A   1      42.804  23.245  25.450  1.00  0.00     0.338 C 
ATOM     28  O   UNL A   1      43.862  23.347  24.854  1.00  0.00    -0.246 OA
BRANCH  27  29
ATOM     29  C   UNL A   1      42.321  24.310  26.351  1.00  0.00     0.060 A 
ATOM     30  C   UNL A   1      42.971  25.545  26.345  1.00  0.00     0.016 A 
ATOM     31  C   UNL A   1      41.348  24.042  27.315  1.00  0.00     0.016 A 
ATOM     32  C   UNL A   1      42.693  26.499  27.321  1.00  0.00     0.010 A 
ATOM     33  C   UNL A   1      41.040  25.018  28.275  1.00  0.00     0.010 A 
ATOM     34  C   UNL A   1      41.722  26.249  28.297  1.00  0.00    -0.014 A 
BRANCH  34  35
ATOM     35  C   UNL A   1      41.436  27.264  29.343  1.00  0.00     0.031 A 
ATOM     36  C   UNL A   1      42.265  27.323  30.597  1.00  0.00     0.074 A 
ATOM     37  C   UNL A   1      40.442  28.157  29.166  1.00  0.00     0.049 A 
ATOM     38  N   UNL A   1      42.071  28.026  31.684  1.00  0.00    -0.248 NA
ATOM     39  C   UNL A   1      43.473  26.485  30.630  1.00  0.00     0.031 C 
ATOM     40  C   UNL A   1      39.606  28.264  27.969  1.00  0.00     0.029 A 
ATOM     41  N   UNL A   1      39.969  29.146  29.993  1.00  0.00    -0.354 N 
ATOM     42  C   UNL A   1      43.106  27.688  32.544  1.00  0.00     0.074 A 
ATOM     43  C   UNL A   1      43.931  26.719  31.853  1.00  0.00     0.031 C 
ATOM     44  C   UNL A   1      38.737  29.273  28.132  1.00  0.00     0.029 A 
ATOM     45  C   UNL A   1      38.901  29.834  29.469  1.00  0.00     0.049 A 
ATOM     46  H   UNL A   1      40.357  29.342  30.876  1.00  0.00     0.167 HD
ATOM     47  C   UNL A   1      43.344  28.144  33.797  1.00  0.00     0.037 A 
ATOM     48  C   UNL A   1      38.114  30.780  30.016  1.00  0.00     0.037 A 
ATOM     49  C   UNL A   1      42.544  29.133  34.472  1.00  0.00     0.049 A 
ATOM     50  C   UNL A   1      38.350  31.216  31.433  1.00  0.00     0.074 A 
ATOM     51  C   UNL A   1      42.712  29.652  35.746  1.00  0.00     0.029 A 
ATOM     52  N   UNL A   1      41.437  29.762  33.927  1.00  0.00    -0.354 N 
ATOM     53  N   UNL A   1      39.292  30.839  32.264  1.00  0.00    -0.248 NA
ATOM     54  C   UNL A   1      37.402  32.186  32.000  1.00  0.00     0.031 C 
ATOM     55  C   UNL A   1      41.683  30.568  35.984  1.00  0.00     0.029 A 
ATOM     56  C   UNL A   1      40.900  30.651  34.844  1.00  0.00     0.049 A 
ATOM     57  H   UNL A   1      41.083  29.601  33.023  1.00  0.00     0.167 HD
ATOM     58  C   UNL A   1      39.055  31.530  33.445  1.00  0.00     0.074 A 
ATOM     59  C   UNL A   1      37.891  32.361  33.221  1.00  0.00     0.031 C 
ATOM     60  C   UNL A   1      39.742  31.474  34.612  1.00  0.00     0.037 A 
BRANCH  47  61
ATOM     61  C   UNL A   1      44.506  27.560  34.545  1.00  0.00     0.057 A 
ATOM     62  C   UNL A   1      44.336  26.414  35.332  1.00  0.00     0.134 A 
ATOM     63  C   UNL A   1      45.766  28.168  34.549  1.00  0.00     0.134 A 
ATOM     64  F   UNL A   1      43.149  25.788  35.377  1.00  0.00    -0.206 F 
ATOM     65  C   UNL A   1      45.376  25.899  36.107  1.00  0.00     0.040 A 
ATOM     66  C   UNL A   1      46.821  27.651  35.303  1.00  0.00     0.040 A 
ATOM     67  F   UNL A   1      45.995  29.262  33.808  1.00  0.00    -0.206 F 
ATOM     68  C   UNL A   1      46.624  26.518  36.092  1.00  0.00     0.006 A 
ENDBRANCH  47  61
BRANCH  48  69
ATOM     69  C   UNL A   1      36.997  31.352  29.222  1.00  0.00     0.057 A 
ATOM     70  C   UNL A   1      37.060  32.650  28.703  1.00  0.00     0.134 A 
ATOM     71  C   UNL A   1      35.830  30.617  28.988  1.00  0.00     0.134 A 
ATOM     72  F   UNL A   1      38.153  33.404  28.894  1.00  0.00    -0.206 F 
ATOM     73  C   UNL A   1      35.992  33.209  28.001  1.00  0.00     0.040 A 
ATOM     74  C   UNL A   1      34.763  31.154  28.267  1.00  0.00     0.040 A 
ATOM     75  F   UNL A   1      35.721  29.360  29.442  1.00  0.00    -0.206 F 
ATOM     76  C   UNL A   1      34.840  32.459  27.779  1.00  0.00     0.006 A 
ENDBRANCH  48  69
BRANCH  60  77
ATOM     77  C   UNL A   1      39.271  32.343  35.738  1.00  0.00     0.057 A 
ATOM     78  C   UNL A   1      38.299  31.886  36.636  1.00  0.00     0.134 A 
ATOM     79  C   UNL A   1      39.722  33.660  35.883  1.00  0.00     0.134 A 
ATOM     80  F   UNL A   1      37.820  30.637  36.543  1.00  0.00    -0.206 F 
ATOM     81  C   UNL A   1      37.780  32.714  37.632  1.00  0.00     0.040 A 
ATOM     82  C   UNL A   1      39.225  34.492  36.889  1.00  0.00     0.040 A 
ATOM     83  F   UNL A   1      40.661  34.152  35.061  1.00  0.00    -0.206 F 
ATOM     84  C   UNL A   1      38.244  34.023  37.760  1.00  0.00     0.006 A 
ENDBRANCH  60  77
ENDBRANCH  34  35
ENDBRANCH  27  29
ENDBRANCH  26  27
ENDBRANCH  25  26
ENDBRANCH   1  25
TORSDOF 14
ENDMDL
MODEL 2
REMARK VINA RESULT:     -11.6      4.128      7.504
REMARK SMILES COc1ccc(F)c(NC(=O)N[C@H]2CCC[C@H]2C(=O)OCCOC(=O)c2ccc(-c3c4nc(c(-c5c(F)cccc5F)c5ccc([nH]5)c(-c5c(F)cccc5F)c5nc(c(-c6c(F)cccc6F)c6ccc3[nH]6)C=C5)C=C4)cc2)c1
REMARK SMILES IDX 21 1 20 2 18 3 19 4 17 5 13 6 14 7 15 8 16 9 12 10 9 11
REMARK SMILES IDX 10 12 11 14 8 16 3 17 4 18 80 19 5 20 6 21 7 22 2 23 1 24
REMARK SMILES IDX 22 25 23 26 24 27 25 28 26 29 27 30 79 31 28 32 78 33 29 34
REMARK SMILES IDX 30 35 31 36 72 37 32 38 77 39 71 40 73 41 33 42 76 43 70 44
REMARK SMILES IDX 69 45 34 47 60 48 43 49 59 50 44 51 47 52 58 53 74 54 45 55
REMARK SMILES IDX 46 56 57 58 75 59 48 60 35 61 36 62 41 63 37 64 38 65 40 66
REMARK SMILES IDX 42 67 39 68 61 69 62 70 67 71 63 72 64 73 66 74 68 75 65 76
REMARK SMILES IDX 49 77 50 78 55 79 51 80 52 81 54 82 56 83 53 84
REMARK H PARENT 9 13 12 15 73 46 47 57
REMARK Flexibility Score: inf
ROOT
ATOM      1  C   UNL A   1      35.872  19.960  24.969  1.00  0.00     0.274 C 
ENDROOT
BRANCH   1   2
ATOM      2  O   UNL A   1      35.337  21.072  25.705  1.00  0.00    -0.462 OA
BRANCH   2   3
ATOM      3  C   UNL A   1      34.063  21.423  25.386  1.00  0.00     0.311 C 
ATOM      4  O   UNL A   1      33.066  20.767  25.659  1.00  0.00    -0.252 OA
BRANCH   3   5
ATOM      5  C   UNL A   1      34.045  22.870  24.992  1.00  0.00     0.121 C 
ATOM      6  C   UNL A   1      32.739  23.659  24.766  1.00  0.00     0.098 C 
ATOM      7  C   UNL A   1      33.399  24.951  24.352  1.00  0.00     0.026 C 
ATOM      8  C   UNL A   1      34.408  25.191  25.474  1.00  0.00     0.003 C 
ATOM      9  C   UNL A   1      34.936  23.799  25.815  1.00  0.00     0.017 C 
BRANCH   6  10
ATOM     10  N   UNL A   1      31.863  23.776  25.955  1.00  0.00    -0.334 N 
ATOM     11  N   UNL A   1      29.935  25.239  25.698  1.00  0.00    -0.305 N 
ATOM     12  C   UNL A   1      30.637  24.233  26.268  1.00  0.00     0.319 C 
ATOM     13  H   UNL A   1      28.971  25.062  25.608  1.00  0.00     0.171 HD
ATOM     14  O   UNL A   1      30.072  23.635  27.194  1.00  0.00    -0.248 OA
ATOM     15  H   UNL A   1      32.312  23.414  26.752  1.00  0.00     0.165 HD
BRANCH  11  16
ATOM     16  C   UNL A   1      30.346  26.499  25.209  1.00  0.00     0.082 A 
ATOM     17  C   UNL A   1      30.371  28.106  23.403  1.00  0.00     0.121 A 
ATOM     18  C   UNL A   1      31.294  28.894  24.087  1.00  0.00     0.049 A 
ATOM     19  C   UNL A   1      29.799  26.990  24.020  1.00  0.00     0.075 A 
ATOM     20  C   UNL A   1      31.677  28.529  25.379  1.00  0.00     0.045 A 
ATOM     21  C   UNL A   1      31.212  27.329  25.928  1.00  0.00     0.147 A 
ATOM     22  F   UNL A   1      31.634  26.974  27.150  1.00  0.00    -0.205 F 
BRANCH  17  23
ATOM     23  O   UNL A   1      30.010  28.363  22.107  1.00  0.00    -0.497 OA
ATOM     24  C   UNL A   1      29.731  29.753  21.896  1.00  0.00     0.278 C 
ENDBRANCH  17  23
ENDBRANCH  11  16
ENDBRANCH   6  10
ENDBRANCH   3   5
ENDBRANCH   2   3
ENDBRANCH   1   2
BRANCH   1  25
ATOM     25  C   UNL A   1      37.390  20.134  24.835  1.00  0.00     0.275 C 
BRANCH  25  26
ATOM     26  O   UNL A   1      37.904  21.234  25.627  1.00  0.00    -0.458 OA
BRANCH  26  27
ATOM     27  C   UNL A   1      39.164  21.075  26.099  1.00  0.00     0.338 C 
ATOM     28  O   UNL A   1      39.849  20.067  26.052  1.00  0.00    -0.246 OA
BRANCH  27  29
ATOM     29  C   UNL A   1      39.677  22.330  26.682  1.00  0.00     0.060 A 
ATOM     30  C   UNL A   1      39.211  23.546  26.179  1.00  0.00     0.016 A 
ATOM     31  C   UNL A   1      40.732  22.314  27.594  1.00  0.00     0.016 A 
ATOM     32  C   UNL A   1      39.820  24.745  26.544  1.00  0.00     0.010 A 
ATOM     33  C   UNL A   1      41.320  23.524  27.992  1.00  0.00     0.010 A 
ATOM     34  C   UNL A   1      40.880  24.749  27.457  1.00  0.00    -0.014 A 
BRANCH  34  35
ATOM     35  C   UNL A   1      41.535  26.029  27.835  1.00  0.00     0.031 A 
ATOM     36  C   UNL A   1      40.793  27.054  28.650  1.00  0.00     0.074 A 
ATOM     37  C   UNL A   1      42.808  26.272  27.468  1.00  0.00     0.049 A 
ATOM     38  N   UNL A   1      41.134  28.284  28.938  1.00  0.00    -0.248 NA
ATOM     39  C   UNL A   1      39.501  26.638  29.216  1.00  0.00     0.031 C 
ATOM     40  C   UNL A   1      43.670  25.339  26.741  1.00  0.00     0.029 A 
ATOM     41  N   UNL A   1      43.600  27.378  27.659  1.00  0.00    -0.354 N 
ATOM     42  C   UNL A   1      40.086  28.803  29.686  1.00  0.00     0.074 A 
ATOM     43  C   UNL A   1      39.096  27.754  29.811  1.00  0.00     0.031 C 
ATOM     44  C   UNL A   1      44.874  25.904  26.564  1.00  0.00     0.029 A 
ATOM     45  C   UNL A   1      44.847  27.263  27.096  1.00  0.00     0.049 A 
ATOM     46  H   UNL A   1      43.300  28.176  28.152  1.00  0.00     0.167 HD
ATOM     47  C   UNL A   1      39.962  30.043  30.217  1.00  0.00     0.037 A 
ATOM     48  C   UNL A   1      45.844  28.162  26.981  1.00  0.00     0.037 A 
ATOM     49  C   UNL A   1      40.962  31.075  30.123  1.00  0.00     0.049 A 
ATOM     50  C   UNL A   1      45.654  29.554  27.511  1.00  0.00     0.074 A 
ATOM     51  C   UNL A   1      40.918  32.363  30.631  1.00  0.00     0.029 A 
ATOM     52  N   UNL A   1      42.187  30.935  29.494  1.00  0.00    -0.354 N 
ATOM     53  N   UNL A   1      44.630  30.056  28.157  1.00  0.00    -0.248 NA
ATOM     54  C   UNL A   1      46.745  30.512  27.275  1.00  0.00     0.031 C 
ATOM     55  C   UNL A   1      42.103  33.014  30.275  1.00  0.00     0.029 A 
ATOM     56  C   UNL A   1      42.902  32.119  29.584  1.00  0.00     0.049 A 
ATOM     57  H   UNL A   1      42.504  30.117  29.048  1.00  0.00     0.167 HD
ATOM     58  C   UNL A   1      44.955  31.383  28.411  1.00  0.00     0.074 A 
ATOM     59  C   UNL A   1      46.276  31.605  27.864  1.00  0.00     0.031 C 
ATOM     60  C   UNL A   1      44.217  32.330  29.037  1.00  0.00     0.037 A 
BRANCH  47  61
ATOM     61  C   UNL A   1      38.685  30.373  30.931  1.00  0.00     0.057 A 
ATOM     62  C   UNL A   1      37.623  30.970  30.239  1.00  0.00     0.134 A 
ATOM     63  C   UNL A   1      38.531  30.172  32.307  1.00  0.00     0.134 A 
ATOM     64  F   UNL A   1      37.711  31.196  28.919  1.00  0.00    -0.206 F 
ATOM     65  C   UNL A   1      36.457  31.368  30.894  1.00  0.00     0.040 A 
ATOM     66  C   UNL A   1      37.361  30.547  32.970  1.00  0.00     0.040 A 
ATOM     67  F   UNL A   1      39.508  29.596  33.023  1.00  0.00    -0.206 F 
ATOM     68  C   UNL A   1      36.324  31.155  32.264  1.00  0.00     0.006 A 
ENDBRANCH  47  61
BRANCH  48  69
ATOM     69  C   UNL A   1      47.103  27.775  26.295  1.00  0.00     0.057 A 
ATOM     70  C   UNL A   1      47.214  27.809  24.900  1.00  0.00     0.134 A 
ATOM     71  C   UNL A   1      48.214  27.340  27.023  1.00  0.00     0.134 A 
ATOM     72  F   UNL A   1      46.181  28.218  24.148  1.00  0.00    -0.206 F 
ATOM     73  C   UNL A   1      48.377  27.397  24.250  1.00  0.00     0.040 A 
ATOM     74  C   UNL A   1      49.394  26.949  26.387  1.00  0.00     0.040 A 
ATOM     75  F   UNL A   1      48.175  27.308  28.363  1.00  0.00    -0.206 F 
ATOM     76  C   UNL A   1      49.473  26.968  24.995  1.00  0.00     0.006 A 
ENDBRANCH  48  69
BRANCH  60  77
ATOM     77  C   UNL A   1      44.820  33.694  29.186  1.00  0.00     0.057 A 
ATOM     78  C   UNL A   1      44.613  34.678  28.212  1.00  0.00     0.134 A 
ATOM     79  C   UNL A   1      45.668  34.006  30.254  1.00  0.00     0.134 A 
ATOM     80  F   UNL A   1      43.817  34.437  27.159  1.00  0.00    -0.206 F 
ATOM     81  C   UNL A   1      45.242  35.921  28.286  1.00  0.00     0.040 A 
ATOM     82  C   UNL A   1      46.288  35.254  30.351  1.00  0.00     0.040 A 
ATOM     83  F   UNL A   1      45.897  33.110  31.226  1.00  0.00    -0.206 F 
ATOM     84  C   UNL A   1      46.083  36.212  29.359  1.00  0.00     0.006 A 
ENDBRANCH  60  77
ENDBRANCH  34  35
ENDBRANCH  27  29
ENDBRANCH  26  27
ENDBRANCH  25  26
ENDBRANCH   1  25
TORSDOF 14
ENDMDL
MODEL 3
REMARK VINA RESULT:     -11.4      4.084      7.730
REMARK SMILES COc1ccc(F)c(NC(=O)N[C@H]2CCC[C@H]2C(=O)OCCOC(=O)c2ccc(-c3c4nc(c(-c5c(F)cccc5F)c5ccc([nH]5)c(-c5c(F)cccc5F)c5nc(c(-c6c(F)cccc6F)c6ccc3[nH]6)C=C5)C=C4)cc2)c1
REMARK SMILES IDX 21 1 20 2 18 3 19 4 17 5 13 6 14 7 15 8 16 9 12 10 9 11
REMARK SMILES IDX 10 12 11 14 8 16 3 17 4 18 80 19 5 20 6 21 7 22 2 23 1 24
REMARK SMILES IDX 22 25 23 26 24 27 25 28 26 29 27 30 79 31 28 32 78 33 29 34
REMARK SMILES IDX 30 35 31 36 72 37 32 38 77 39 71 40 73 41 33 42 76 43 70 44
REMARK SMILES IDX 69 45 34 47 60 48 43 49 59 50 44 51 47 52 58 53 74 54 45 55
REMARK SMILES IDX 46 56 57 58 75 59 48 60 35 61 36 62 41 63 37 64 38 65 40 66
REMARK SMILES IDX 42 67 39 68 61 69 62 70 67 71 63 72 64 73 66 74 68 75 65 76
REMARK SMILES IDX 49 77 50 78 55 79 51 80 52 81 54 82 56 83 53 84
REMARK H PARENT 9 13 12 15 73 46 47 57
REMARK Flexibility Score: inf
ROOT
ATOM      1  C   UNL A   1      34.882  20.474  25.001  1.00  0.00     0.274 C 
ENDROOT
BRANCH   1   2
ATOM      2  O   UNL A   1      33.608  21.137  24.994  1.00  0.00    -0.462 OA
BRANCH   2   3
ATOM      3  C   UNL A   1      32.911  21.045  23.830  1.00  0.00     0.311 C 
ATOM      4  O   UNL A   1      32.293  20.056  23.459  1.00  0.00    -0.252 OA
BRANCH   3   5
ATOM      5  C   UNL A   1      32.718  22.425  23.273  1.00  0.00     0.121 C 
ATOM      6  C   UNL A   1      31.597  23.371  23.752  1.00  0.00     0.098 C 
ATOM      7  C   UNL A   1      31.913  24.494  22.795  1.00  0.00     0.026 C 
ATOM      8  C   UNL A   1      33.412  24.705  23.002  1.00  0.00     0.003 C 
ATOM      9  C   UNL A   1      33.971  23.296  23.196  1.00  0.00     0.017 C 
BRANCH   6  10
ATOM     10  N   UNL A   1      31.667  23.751  25.182  1.00  0.00    -0.334 N 
ATOM     11  N   UNL A   1      30.153  25.529  25.869  1.00  0.00    -0.305 N 
ATOM     12  C   UNL A   1      30.952  24.458  26.077  1.00  0.00     0.319 C 
ATOM     13  H   UNL A   1      29.329  25.533  26.409  1.00  0.00     0.171 HD
ATOM     14  O   UNL A   1      31.028  24.058  27.247  1.00  0.00    -0.248 OA
ATOM     15  H   UNL A   1      32.474  23.377  25.601  1.00  0.00     0.165 HD
BRANCH  11  16
ATOM     16  C   UNL A   1      30.293  26.642  25.011  1.00  0.00     0.082 A 
ATOM     17  C   UNL A   1      31.383  28.742  24.513  1.00  0.00     0.121 A 
ATOM     18  C   UNL A   1      30.489  28.986  23.473  1.00  0.00     0.049 A 
ATOM     19  C   UNL A   1      31.369  27.517  25.186  1.00  0.00     0.075 A 
ATOM     20  C   UNL A   1      29.547  28.009  23.142  1.00  0.00     0.045 A 
ATOM     21  C   UNL A   1      29.445  26.850  23.919  1.00  0.00     0.147 A 
ATOM     22  F   UNL A   1      28.500  25.951  23.612  1.00  0.00    -0.205 F 
BRANCH  17  23
ATOM     23  O   UNL A   1      32.280  29.685  24.940  1.00  0.00    -0.497 OA
ATOM     24  C   UNL A   1      31.781  30.428  26.059  1.00  0.00     0.278 C 
ENDBRANCH  17  23
ENDBRANCH  11  16
ENDBRANCH   6  10
ENDBRANCH   3   5
ENDBRANCH   2   3
ENDBRANCH   1   2
BRANCH   1  25
ATOM     25  C   UNL A   1      35.898  21.353  25.741  1.00  0.00     0.275 C 
BRANCH  25  26
ATOM     26  O   UNL A   1      37.092  21.615  24.961  1.00  0.00    -0.458 OA
BRANCH  26  27
ATOM     27  C   UNL A   1      38.261  21.261  25.545  1.00  0.00     0.338 C 
ATOM     28  O   UNL A   1      38.779  20.157  25.551  1.00  0.00    -0.246 OA
BRANCH  27  29
ATOM     29  C   UNL A   1      38.912  22.422  26.184  1.00  0.00     0.060 A 
ATOM     30  C   UNL A   1      38.515  23.707  25.810  1.00  0.00     0.016 A 
ATOM     31  C   UNL A   1      40.019  22.252  27.014  1.00  0.00     0.016 A 
ATOM     32  C   UNL A   1      39.241  24.822  26.220  1.00  0.00     0.010 A 
ATOM     33  C   UNL A   1      40.728  23.378  27.460  1.00  0.00     0.010 A 
ATOM     34  C   UNL A   1      40.356  24.672  27.053  1.00  0.00    -0.014 A 
BRANCH  34  35
ATOM     35  C   UNL A   1      41.135  25.863  27.479  1.00  0.00     0.031 A 
ATOM     36  C   UNL A   1      40.505  26.915  28.351  1.00  0.00     0.074 A 
ATOM     37  C   UNL A   1      42.422  25.999  27.105  1.00  0.00     0.049 A 
ATOM     38  N   UNL A   1      40.967  28.091  28.692  1.00  0.00    -0.248 NA
ATOM     39  C   UNL A   1      39.185  26.599  28.917  1.00  0.00     0.031 C 
ATOM     40  C   UNL A   1      43.182  25.023  26.323  1.00  0.00     0.029 A 
ATOM     41  N   UNL A   1      43.319  27.014  27.335  1.00  0.00    -0.354 N 
ATOM     42  C   UNL A   1      39.982  28.673  29.478  1.00  0.00     0.074 A 
ATOM     43  C   UNL A   1      38.896  27.719  29.569  1.00  0.00     0.031 C 
ATOM     44  C   UNL A   1      44.433  25.477  26.154  1.00  0.00     0.029 A 
ATOM     45  C   UNL A   1      44.544  26.806  26.749  1.00  0.00     0.049 A 
ATOM     46  H   UNL A   1      43.104  27.813  27.868  1.00  0.00     0.167 HD
ATOM     47  C   UNL A   1      39.984  29.892  30.068  1.00  0.00     0.037 A 
ATOM     48  C   UNL A   1      45.621  27.609  26.660  1.00  0.00     0.037 A 
ATOM     49  C   UNL A   1      41.078  30.827  30.006  1.00  0.00     0.049 A 
ATOM     50  C   UNL A   1      45.573  28.986  27.256  1.00  0.00     0.074 A 
ATOM     51  C   UNL A   1      41.164  32.088  30.573  1.00  0.00     0.029 A 
ATOM     52  N   UNL A   1      42.277  30.600  29.353  1.00  0.00    -0.354 N 
ATOM     53  N   UNL A   1      44.610  29.553  27.940  1.00  0.00    -0.248 NA
ATOM     54  C   UNL A   1      46.749  29.844  27.048  1.00  0.00     0.031 C 
ATOM     55  C   UNL A   1      42.403  32.638  30.230  1.00  0.00     0.029 A 
ATOM     56  C   UNL A   1      43.105  31.703  29.486  1.00  0.00     0.049 A 
ATOM     57  H   UNL A   1      42.509  29.777  28.864  1.00  0.00     0.167 HD
ATOM     58  C   UNL A   1      45.064  30.829  28.250  1.00  0.00     0.074 A 
ATOM     59  C   UNL A   1      46.395  30.948  27.694  1.00  0.00     0.031 C 
ATOM     60  C   UNL A   1      44.428  31.813  28.930  1.00  0.00     0.037 A 
BRANCH  47  61
ATOM     61  C   UNL A   1      38.753  30.310  30.815  1.00  0.00     0.057 A 
ATOM     62  C   UNL A   1      38.592  29.964  32.163  1.00  0.00     0.134 A 
ATOM     63  C   UNL A   1      37.699  30.984  30.188  1.00  0.00     0.134 A 
ATOM     64  F   UNL A   1      39.563  29.311  32.819  1.00  0.00    -0.206 F 
ATOM     65  C   UNL A   1      37.420  30.264  32.859  1.00  0.00     0.040 A 
ATOM     66  C   UNL A   1      36.530  31.308  30.879  1.00  0.00     0.040 A 
ATOM     67  F   UNL A   1      37.797  31.352  28.902  1.00  0.00    -0.206 F 
ATOM     68  C   UNL A   1      36.385  30.939  32.216  1.00  0.00     0.006 A 
ENDBRANCH  47  61
BRANCH  48  69
ATOM     69  C   UNL A   1      46.829  27.136  25.938  1.00  0.00     0.057 A 
ATOM     70  C   UNL A   1      47.856  26.453  26.602  1.00  0.00     0.134 A 
ATOM     71  C   UNL A   1      46.993  27.380  24.571  1.00  0.00     0.134 A 
ATOM     72  F   UNL A   1      47.756  26.189  27.913  1.00  0.00    -0.206 F 
ATOM     73  C   UNL A   1      49.015  26.052  25.938  1.00  0.00     0.040 A 
ATOM     74  C   UNL A   1      48.137  26.963  23.888  1.00  0.00     0.040 A 
ATOM     75  F   UNL A   1      46.034  28.009  23.877  1.00  0.00    -0.206 F 
ATOM     76  C   UNL A   1      49.157  26.306  24.576  1.00  0.00     0.006 A 
ENDBRANCH  48  69
BRANCH  60  77
ATOM     77  C   UNL A   1      45.162  33.103  29.133  1.00  0.00     0.057 A 
ATOM     78  C   UNL A   1      45.948  33.308  30.273  1.00  0.00     0.134 A 
ATOM     79  C   UNL A   1      45.024  34.171  28.239  1.00  0.00     0.134 A 
ATOM     80  F   UNL A   1      46.112  32.326  31.172  1.00  0.00    -0.206 F 
ATOM     81  C   UNL A   1      46.561  34.536  30.525  1.00  0.00     0.040 A 
ATOM     82  C   UNL A   1      45.648  35.399  28.470  1.00  0.00     0.040 A 
ATOM     83  F   UNL A   1      44.292  34.034  27.123  1.00  0.00    -0.206 F 
ATOM     84  C   UNL A   1      46.411  35.586  29.620  1.00  0.00     0.006 A 
ENDBRANCH  60  77
ENDBRANCH  34  35
ENDBRANCH  27  29
ENDBRANCH  26  27
ENDBRANCH  25  26
ENDBRANCH   1  25
TORSDOF 14
ENDMDL
