MODEL 1
REMARK VINA RESULT:     -11.0      0.000      0.000
REMARK SMILES Cc1cc(C)n2ncc(C(=O)N(C)CCCC(=O)OCCOC(=O)c3ccc(-c4c5nc(c(-c6c(F)cccc6F)c6ccc([nH]6)c(-c6c(F)cccc6F)c6nc(c(-c7c(F)cccc7F)c7ccc4[nH]7)C=C6)C=C5)cc3)c2n1
REMARK SMILES IDX 19 1 17 2 18 3 16 4 15 5 14 6 12 7 13 8 10 9 11 10 9 11 1 12
REMARK SMILES IDX 2 13 3 14 80 15 4 16 79 17 5 18 6 19 7 20 8 21 20 22 21 23
REMARK SMILES IDX 22 24 23 25 24 26 25 27 26 28 78 29 27 30 77 31 28 32 29 33
REMARK SMILES IDX 30 34 71 35 31 36 76 37 70 38 72 39 32 40 75 41 69 42 68 43
REMARK SMILES IDX 33 45 59 46 42 47 58 48 43 49 46 50 57 51 73 52 44 53 45 54
REMARK SMILES IDX 56 56 74 57 47 58 34 59 35 60 40 61 36 62 37 63 39 64 41 65
REMARK SMILES IDX 38 66 60 67 61 68 66 69 62 70 63 71 65 72 67 73 64 74 48 75
REMARK SMILES IDX 49 76 54 77 50 78 51 79 53 80 55 81 52 82
REMARK H PARENT 72 44 46 55
REMARK Flexibility Score: inf
ROOT
ATOM      1  O   UNL A   1      42.172  19.950  25.739  1.00  0.00    -0.462 OA
ENDROOT
BRANCH   1   2
ATOM      2  C   UNL A   1      40.878  19.872  26.111  1.00  0.00     0.305 C 
ATOM      3  O   UNL A   1      40.088  19.017  25.727  1.00  0.00    -0.252 OA
BRANCH   2   4
ATOM      4  C   UNL A   1      40.484  21.001  27.045  1.00  0.00     0.124 C 
BRANCH   4   5
ATOM      5  C   UNL A   1      39.743  22.206  26.451  1.00  0.00     0.033 C 
BRANCH   5   6
ATOM      6  C   UNL A   1      38.390  21.965  25.760  1.00  0.00     0.120 C 
BRANCH   6   7
ATOM      7  N   UNL A   1      37.390  23.002  26.041  1.00  0.00    -0.342 N 
ATOM      8  C   UNL A   1      37.946  24.268  26.483  1.00  0.00     0.147 C 
BRANCH   7   9
ATOM      9  C   UNL A   1      36.059  22.734  25.683  1.00  0.00     0.259 C 
ATOM     10  O   UNL A   1      35.368  22.019  26.407  1.00  0.00    -0.269 OA
BRANCH   9  11
ATOM     11  C   UNL A   1      35.437  23.311  24.499  1.00  0.00     0.104 A 
ATOM     12  C   UNL A   1      33.444  27.435  26.340  1.00  0.00     0.067 C 
ATOM     13  C   UNL A   1      33.708  26.412  25.262  1.00  0.00     0.042 A 
ATOM     14  C   UNL A   1      32.992  26.607  23.963  1.00  0.00     0.047 A 
ATOM     15  N   UNL A   1      34.547  25.449  25.507  1.00  0.00    -0.233 NA
ATOM     16  C   UNL A   1      33.263  25.714  22.994  1.00  0.00     0.043 A 
ATOM     17  C   UNL A   1      34.746  24.521  24.516  1.00  0.00     0.168 A 
ATOM     18  C   UNL A   1      32.623  25.766  21.642  1.00  0.00     0.067 C 
ATOM     19  N   UNL A   1      34.154  24.664  23.259  1.00  0.00    -0.219 N 
ATOM     20  N   UNL A   1      34.529  23.667  22.420  1.00  0.00    -0.174 NA
ATOM     21  C   UNL A   1      35.246  22.845  23.186  1.00  0.00     0.151 A 
ENDBRANCH   9  11
ENDBRANCH   7   9
ENDBRANCH   6   7
ENDBRANCH   5   6
ENDBRANCH   4   5
ENDBRANCH   2   4
ENDBRANCH   1   2
BRANCH   1  22
ATOM     22  C   UNL A   1      42.995  18.782  25.813  1.00  0.00     0.274 C 
BRANCH  22  23
ATOM     23  C   UNL A   1      44.066  18.860  24.743  1.00  0.00     0.275 C 
BRANCH  23  24
ATOM     24  O   UNL A   1      44.192  20.197  24.259  1.00  0.00    -0.458 OA
BRANCH  24  25
ATOM     25  C   UNL A   1      45.399  20.769  24.457  1.00  0.00     0.338 C 
ATOM     26  O   UNL A   1      46.490  20.229  24.497  1.00  0.00    -0.246 OA
BRANCH  25  27
ATOM     27  C   UNL A   1      45.206  22.178  24.806  1.00  0.00     0.060 A 
ATOM     28  C   UNL A   1      46.185  22.795  25.589  1.00  0.00     0.016 A 
ATOM     29  C   UNL A   1      43.971  22.790  24.549  1.00  0.00     0.016 A 
ATOM     30  C   UNL A   1      45.873  23.982  26.220  1.00  0.00     0.010 A 
ATOM     31  C   UNL A   1      43.660  23.972  25.180  1.00  0.00     0.010 A 
ATOM     32  C   UNL A   1      44.592  24.525  26.056  1.00  0.00    -0.014 A 
BRANCH  32  33
ATOM     33  C   UNL A   1      44.275  25.733  26.788  1.00  0.00     0.031 A 
ATOM     34  C   UNL A   1      45.193  26.869  26.543  1.00  0.00     0.074 A 
ATOM     35  C   UNL A   1      43.173  25.867  27.545  1.00  0.00     0.049 A 
ATOM     36  N   UNL A   1      45.948  27.471  27.400  1.00  0.00    -0.248 NA
ATOM     37  C   UNL A   1      45.354  27.334  25.159  1.00  0.00     0.031 C 
ATOM     38  C   UNL A   1      42.023  24.967  27.651  1.00  0.00     0.029 A 
ATOM     39  N   UNL A   1      42.812  26.931  28.311  1.00  0.00    -0.354 N 
ATOM     40  C   UNL A   1      46.561  28.507  26.705  1.00  0.00     0.074 A 
ATOM     41  C   UNL A   1      46.257  28.302  25.312  1.00  0.00     0.031 C 
ATOM     42  C   UNL A   1      41.008  25.625  28.254  1.00  0.00     0.029 A 
ATOM     43  C   UNL A   1      41.479  26.933  28.681  1.00  0.00     0.049 A 
ATOM     44  H   UNL A   1      43.443  27.637  28.578  1.00  0.00     0.167 HD
ATOM     45  C   UNL A   1      47.100  29.571  27.358  1.00  0.00     0.037 A 
ATOM     46  C   UNL A   1      40.806  27.977  29.221  1.00  0.00     0.037 A 
ATOM     47  C   UNL A   1      47.361  29.268  28.741  1.00  0.00     0.049 A 
ATOM     48  C   UNL A   1      41.810  28.897  29.818  1.00  0.00     0.074 A 
ATOM     49  C   UNL A   1      48.099  28.300  29.399  1.00  0.00     0.029 A 
ATOM     50  N   UNL A   1      46.545  29.819  29.699  1.00  0.00    -0.354 N 
ATOM     51  N   UNL A   1      42.520  28.625  30.879  1.00  0.00    -0.248 NA
ATOM     52  C   UNL A   1      42.326  29.976  28.986  1.00  0.00     0.031 C 
ATOM     53  C   UNL A   1      47.338  27.983  30.561  1.00  0.00     0.029 A 
ATOM     54  C   UNL A   1      46.209  28.805  30.555  1.00  0.00     0.049 A 
ATOM     55  H   UNL A   1      46.259  30.759  29.758  1.00  0.00     0.167 HD
ATOM     56  C   UNL A   1      43.763  29.185  30.625  1.00  0.00     0.074 A 
ATOM     57  C   UNL A   1      43.553  30.091  29.501  1.00  0.00     0.031 C 
ATOM     58  C   UNL A   1      44.906  28.659  31.158  1.00  0.00     0.037 A 
BRANCH  45  59
ATOM     59  C   UNL A   1      47.047  30.986  26.842  1.00  0.00     0.057 A 
ATOM     60  C   UNL A   1      48.207  31.779  26.906  1.00  0.00     0.134 A 
ATOM     61  C   UNL A   1      45.852  31.688  26.589  1.00  0.00     0.134 A 
ATOM     62  F   UNL A   1      49.406  31.228  27.146  1.00  0.00    -0.206 F 
ATOM     63  C   UNL A   1      48.164  33.176  26.826  1.00  0.00     0.040 A 
ATOM     64  C   UNL A   1      45.807  33.078  26.454  1.00  0.00     0.040 A 
ATOM     65  F   UNL A   1      44.656  31.089  26.564  1.00  0.00    -0.206 F 
ATOM     66  C   UNL A   1      46.959  33.831  26.612  1.00  0.00     0.006 A 
ENDBRANCH  45  59
BRANCH  46  67
ATOM     67  C   UNL A   1      39.394  28.367  29.000  1.00  0.00     0.057 A 
ATOM     68  C   UNL A   1      38.465  28.331  30.050  1.00  0.00     0.134 A 
ATOM     69  C   UNL A   1      38.972  29.029  27.832  1.00  0.00     0.134 A 
ATOM     70  F   UNL A   1      38.783  27.762  31.222  1.00  0.00    -0.206 F 
ATOM     71  C   UNL A   1      37.205  28.936  29.953  1.00  0.00     0.040 A 
ATOM     72  C   UNL A   1      37.712  29.625  27.717  1.00  0.00     0.040 A 
ATOM     73  F   UNL A   1      39.797  29.203  26.790  1.00  0.00    -0.206 F 
ATOM     74  C   UNL A   1      36.829  29.594  28.787  1.00  0.00     0.006 A 
ENDBRANCH  46  67
BRANCH  58  75
ATOM     75  C   UNL A   1      44.792  27.630  32.245  1.00  0.00     0.057 A 
ATOM     76  C   UNL A   1      44.680  26.253  32.006  1.00  0.00     0.134 A 
ATOM     77  C   UNL A   1      45.015  28.029  33.569  1.00  0.00     0.134 A 
ATOM     78  F   UNL A   1      44.566  25.770  30.762  1.00  0.00    -0.206 F 
ATOM     79  C   UNL A   1      44.757  25.319  33.043  1.00  0.00     0.040 A 
ATOM     80  C   UNL A   1      45.127  27.103  34.609  1.00  0.00     0.040 A 
ATOM     81  F   UNL A   1      45.190  29.327  33.865  1.00  0.00    -0.206 F 
ATOM     82  C   UNL A   1      44.993  25.743  34.347  1.00  0.00     0.006 A 
ENDBRANCH  58  75
ENDBRANCH  32  33
ENDBRANCH  25  27
ENDBRANCH  24  25
ENDBRANCH  23  24
ENDBRANCH  22  23
ENDBRANCH   1  22
TORSDOF 16
ENDMDL
MODEL 2
REMARK VINA RESULT:     -10.4      1.265      1.737
REMARK SMILES Cc1cc(C)n2ncc(C(=O)N(C)CCCC(=O)OCCOC(=O)c3ccc(-c4c5nc(c(-c6c(F)cccc6F)c6ccc([nH]6)c(-c6c(F)cccc6F)c6nc(c(-c7c(F)cccc7F)c7ccc4[nH]7)C=C6)C=C5)cc3)c2n1
REMARK SMILES IDX 19 1 17 2 18 3 16 4 15 5 14 6 12 7 13 8 10 9 11 10 9 11 1 12
REMARK SMILES IDX 2 13 3 14 80 15 4 16 79 17 5 18 6 19 7 20 8 21 20 22 21 23
REMARK SMILES IDX 22 24 23 25 24 26 25 27 26 28 78 29 27 30 77 31 28 32 29 33
REMARK SMILES IDX 30 34 71 35 31 36 76 37 70 38 72 39 32 40 75 41 69 42 68 43
REMARK SMILES IDX 33 45 59 46 42 47 58 48 43 49 46 50 57 51 73 52 44 53 45 54
REMARK SMILES IDX 56 56 74 57 47 58 34 59 35 60 40 61 36 62 37 63 39 64 41 65
REMARK SMILES IDX 38 66 60 67 61 68 66 69 62 70 63 71 65 72 67 73 64 74 48 75
REMARK SMILES IDX 49 76 54 77 50 78 51 79 53 80 55 81 52 82
REMARK H PARENT 72 44 46 55
REMARK Flexibility Score: inf
ROOT
ATOM      1  O   UNL A   1      40.523  20.285  26.458  1.00  0.00    -0.462 OA
ENDROOT
BRANCH   1   2
ATOM      2  C   UNL A   1      40.625  21.537  26.949  1.00  0.00     0.305 C 
ATOM      3  O   UNL A   1      41.498  21.920  27.720  1.00  0.00    -0.252 OA
BRANCH   2   4
ATOM      4  C   UNL A   1      39.497  22.431  26.468  1.00  0.00     0.124 C 
BRANCH   4   5
ATOM      5  C   UNL A   1      38.316  21.778  25.738  1.00  0.00     0.033 C 
BRANCH   5   6
ATOM      6  C   UNL A   1      36.914  22.378  25.930  1.00  0.00     0.120 C 
BRANCH   6   7
ATOM      7  N   UNL A   1      36.049  22.248  24.751  1.00  0.00    -0.342 N 
ATOM      8  C   UNL A   1      36.677  22.631  23.500  1.00  0.00     0.147 C 
BRANCH   7   9
ATOM      9  C   UNL A   1      34.810  21.608  24.923  1.00  0.00     0.259 C 
ATOM     10  O   UNL A   1      34.729  20.391  24.763  1.00  0.00    -0.269 OA
BRANCH   9  11
ATOM     11  C   UNL A   1      33.611  22.326  25.333  1.00  0.00     0.104 A 
ATOM     12  C   UNL A   1      32.815  25.232  21.422  1.00  0.00     0.067 C 
ATOM     13  C   UNL A   1      32.554  24.725  22.819  1.00  0.00     0.042 A 
ATOM     14  C   UNL A   1      31.508  25.446  23.610  1.00  0.00     0.047 A 
ATOM     15  N   UNL A   1      33.222  23.694  23.245  1.00  0.00    -0.233 NA
ATOM     16  C   UNL A   1      31.253  24.965  24.839  1.00  0.00     0.043 A 
ATOM     17  C   UNL A   1      32.980  23.273  24.529  1.00  0.00     0.168 A 
ATOM     18  C   UNL A   1      30.242  25.579  25.756  1.00  0.00     0.067 C 
ATOM     19  N   UNL A   1      31.982  23.863  25.309  1.00  0.00    -0.219 N 
ATOM     20  N   UNL A   1      31.879  23.258  26.518  1.00  0.00    -0.174 NA
ATOM     21  C   UNL A   1      32.887  22.386  26.536  1.00  0.00     0.151 A 
ENDBRANCH   9  11
ENDBRANCH   7   9
ENDBRANCH   6   7
ENDBRANCH   5   6
ENDBRANCH   4   5
ENDBRANCH   2   4
ENDBRANCH   1   2
BRANCH   1  22
ATOM     22  C   UNL A   1      41.540  19.327  26.767  1.00  0.00     0.274 C 
BRANCH  22  23
ATOM     23  C   UNL A   1      42.518  19.250  25.610  1.00  0.00     0.275 C 
BRANCH  23  24
ATOM     24  O   UNL A   1      43.729  19.934  25.933  1.00  0.00    -0.458 OA
BRANCH  24  25
ATOM     25  C   UNL A   1      44.279  20.638  24.921  1.00  0.00     0.338 C 
ATOM     26  O   UNL A   1      44.836  20.213  23.924  1.00  0.00    -0.246 OA
BRANCH  25  27
ATOM     27  C   UNL A   1      44.274  22.059  25.272  1.00  0.00     0.060 A 
ATOM     28  C   UNL A   1      45.111  22.477  26.310  1.00  0.00     0.016 A 
ATOM     29  C   UNL A   1      43.290  22.900  24.732  1.00  0.00     0.016 A 
ATOM     30  C   UNL A   1      44.876  23.706  26.891  1.00  0.00     0.010 A 
ATOM     31  C   UNL A   1      43.055  24.124  25.315  1.00  0.00     0.010 A 
ATOM     32  C   UNL A   1      43.812  24.489  26.426  1.00  0.00    -0.014 A 
BRANCH  32  33
ATOM     33  C   UNL A   1      43.550  25.740  27.105  1.00  0.00     0.031 A 
ATOM     34  C   UNL A   1      44.500  26.831  26.791  1.00  0.00     0.074 A 
ATOM     35  C   UNL A   1      42.468  25.948  27.875  1.00  0.00     0.049 A 
ATOM     36  N   UNL A   1      45.292  27.445  27.605  1.00  0.00    -0.248 NA
ATOM     37  C   UNL A   1      44.651  27.225  25.384  1.00  0.00     0.031 C 
ATOM     38  C   UNL A   1      41.290  25.094  28.043  1.00  0.00     0.029 A 
ATOM     39  N   UNL A   1      42.158  27.058  28.595  1.00  0.00    -0.354 N 
ATOM     40  C   UNL A   1      45.926  28.427  26.850  1.00  0.00     0.074 A 
ATOM     41  C   UNL A   1      45.589  28.167  25.475  1.00  0.00     0.031 C 
ATOM     42  C   UNL A   1      40.310  25.814  28.632  1.00  0.00     0.029 A 
ATOM     43  C   UNL A   1      40.833  27.124  28.988  1.00  0.00     0.049 A 
ATOM     44  H   UNL A   1      42.817  27.754  28.817  1.00  0.00     0.167 HD
ATOM     45  C   UNL A   1      46.513  29.500  27.443  1.00  0.00     0.037 A 
ATOM     46  C   UNL A   1      40.206  28.215  29.491  1.00  0.00     0.037 A 
ATOM     47  C   UNL A   1      46.791  29.254  28.834  1.00  0.00     0.049 A 
ATOM     48  C   UNL A   1      41.252  29.126  30.025  1.00  0.00     0.074 A 
ATOM     49  C   UNL A   1      47.508  28.293  29.524  1.00  0.00     0.029 A 
ATOM     50  N   UNL A   1      46.012  29.877  29.779  1.00  0.00    -0.354 N 
ATOM     51  N   UNL A   1      41.972  28.880  31.085  1.00  0.00    -0.248 NA
ATOM     52  C   UNL A   1      41.788  30.147  29.134  1.00  0.00     0.031 C 
ATOM     53  C   UNL A   1      46.759  28.057  30.713  1.00  0.00     0.029 A 
ATOM     54  C   UNL A   1      45.659  28.916  30.688  1.00  0.00     0.049 A 
ATOM     55  H   UNL A   1      45.759  30.828  29.798  1.00  0.00     0.167 HD
ATOM     56  C   UNL A   1      43.229  29.383  30.783  1.00  0.00     0.074 A 
ATOM     57  C   UNL A   1      43.028  30.243  29.621  1.00  0.00     0.031 C 
ATOM     58  C   UNL A   1      44.363  28.844  31.320  1.00  0.00     0.037 A 
BRANCH  45  59
ATOM     59  C   UNL A   1      46.498  30.891  26.862  1.00  0.00     0.057 A 
ATOM     60  C   UNL A   1      47.683  31.650  26.878  1.00  0.00     0.134 A 
ATOM     61  C   UNL A   1      45.322  31.617  26.587  1.00  0.00     0.134 A 
ATOM     62  F   UNL A   1      48.867  31.074  27.133  1.00  0.00    -0.206 F 
ATOM     63  C   UNL A   1      47.681  33.042  26.733  1.00  0.00     0.040 A 
ATOM     64  C   UNL A   1      45.319  33.000  26.386  1.00  0.00     0.040 A 
ATOM     65  F   UNL A   1      44.108  31.055  26.600  1.00  0.00    -0.206 F 
ATOM     66  C   UNL A   1      46.495  33.723  26.498  1.00  0.00     0.006 A 
ENDBRANCH  45  59
BRANCH  46  67
ATOM     67  C   UNL A   1      38.804  28.643  29.276  1.00  0.00     0.057 A 
ATOM     68  C   UNL A   1      37.893  28.684  30.341  1.00  0.00     0.134 A 
ATOM     69  C   UNL A   1      38.384  29.267  28.087  1.00  0.00     0.134 A 
ATOM     70  F   UNL A   1      38.213  28.156  31.532  1.00  0.00    -0.206 F 
ATOM     71  C   UNL A   1      36.653  29.326  30.240  1.00  0.00     0.040 A 
ATOM     72  C   UNL A   1      37.142  29.900  27.967  1.00  0.00     0.040 A 
ATOM     73  F   UNL A   1      39.194  29.367  27.024  1.00  0.00    -0.206 F 
ATOM     74  C   UNL A   1      36.278  29.945  29.051  1.00  0.00     0.006 A 
ENDBRANCH  46  67
BRANCH  58  75
ATOM     75  C   UNL A   1      44.236  27.872  32.456  1.00  0.00     0.057 A 
ATOM     76  C   UNL A   1      44.088  26.488  32.285  1.00  0.00     0.134 A 
ATOM     77  C   UNL A   1      44.481  28.328  33.758  1.00  0.00     0.134 A 
ATOM     78  F   UNL A   1      43.950  25.948  31.067  1.00  0.00    -0.206 F 
ATOM     79  C   UNL A   1      44.153  25.603  33.366  1.00  0.00     0.040 A 
ATOM     80  C   UNL A   1      44.581  27.451  34.840  1.00  0.00     0.040 A 
ATOM     81  F   UNL A   1      44.691  29.634  33.989  1.00  0.00    -0.206 F 
ATOM     82  C   UNL A   1      44.412  26.083  34.646  1.00  0.00     0.006 A 
ENDBRANCH  58  75
ENDBRANCH  32  33
ENDBRANCH  25  27
ENDBRANCH  24  25
ENDBRANCH  23  24
ENDBRANCH  22  23
ENDBRANCH   1  22
TORSDOF 16
ENDMDL
MODEL 3
REMARK VINA RESULT:     -10.3      3.295      8.320
REMARK SMILES Cc1cc(C)n2ncc(C(=O)N(C)CCCC(=O)OCCOC(=O)c3ccc(-c4c5nc(c(-c6c(F)cccc6F)c6ccc([nH]6)c(-c6c(F)cccc6F)c6nc(c(-c7c(F)cccc7F)c7ccc4[nH]7)C=C6)C=C5)cc3)c2n1
REMARK SMILES IDX 19 1 17 2 18 3 16 4 15 5 14 6 12 7 13 8 10 9 11 10 9 11 1 12
REMARK SMILES IDX 2 13 3 14 80 15 4 16 79 17 5 18 6 19 7 20 8 21 20 22 21 23
REMARK SMILES IDX 22 24 23 25 24 26 25 27 26 28 78 29 27 30 77 31 28 32 29 33
REMARK SMILES IDX 30 34 71 35 31 36 76 37 70 38 72 39 32 40 75 41 69 42 68 43
REMARK SMILES IDX 33 45 59 46 42 47 58 48 43 49 46 50 57 51 73 52 44 53 45 54
REMARK SMILES IDX 56 56 74 57 47 58 34 59 35 60 40 61 36 62 37 63 39 64 41 65
REMARK SMILES IDX 38 66 60 67 61 68 66 69 62 70 63 71 65 72 67 73 64 74 48 75
REMARK SMILES IDX 49 76 54 77 50 78 51 79 53 80 55 81 52 82
REMARK H PARENT 72 44 46 55
REMARK Flexibility Score: inf
ROOT
ATOM      1  O   UNL A   1      32.332  29.470  27.441  1.00  0.00    -0.462 OA
ENDROOT
BRANCH   1   2
ATOM      2  C   UNL A   1      32.140  28.155  27.209  1.00  0.00     0.305 C 
ATOM      3  O   UNL A   1      31.165  27.512  27.581  1.00  0.00    -0.252 OA
BRANCH   2   4
ATOM      4  C   UNL A   1      33.303  27.532  26.460  1.00  0.00     0.124 C 
BRANCH   4   5
ATOM      5  C   UNL A   1      33.035  26.942  25.068  1.00  0.00     0.033 C 
BRANCH   5   6
ATOM      6  C   UNL A   1      33.968  25.836  24.549  1.00  0.00     0.120 C 
BRANCH   6   7
ATOM      7  N   UNL A   1      33.316  24.528  24.416  1.00  0.00    -0.342 N 
ATOM      8  C   UNL A   1      32.755  24.267  23.102  1.00  0.00     0.147 C 
BRANCH   7   9
ATOM      9  C   UNL A   1      33.463  23.618  25.475  1.00  0.00     0.259 C 
ATOM     10  O   UNL A   1      32.829  23.789  26.515  1.00  0.00    -0.269 OA
BRANCH   9  11
ATOM     11  C   UNL A   1      34.313  22.438  25.379  1.00  0.00     0.104 A 
ATOM     12  C   UNL A   1      38.743  24.320  26.473  1.00  0.00     0.067 C 
ATOM     13  C   UNL A   1      37.796  23.231  26.031  1.00  0.00     0.042 A 
ATOM     14  C   UNL A   1      38.413  21.932  25.619  1.00  0.00     0.047 A 
ATOM     15  N   UNL A   1      36.518  23.468  26.056  1.00  0.00    -0.233 NA
ATOM     16  C   UNL A   1      37.561  20.954  25.264  1.00  0.00     0.043 A 
ATOM     17  C   UNL A   1      35.684  22.467  25.624  1.00  0.00     0.168 A 
ATOM     18  C   UNL A   1      38.020  19.601  24.820  1.00  0.00     0.067 C 
ATOM     19  N   UNL A   1      36.182  21.209  25.273  1.00  0.00    -0.219 N 
ATOM     20  N   UNL A   1      35.182  20.361  24.931  1.00  0.00    -0.174 NA
ATOM     21  C   UNL A   1      34.086  21.120  24.947  1.00  0.00     0.151 A 
ENDBRANCH   9  11
ENDBRANCH   7   9
ENDBRANCH   6   7
ENDBRANCH   5   6
ENDBRANCH   4   5
ENDBRANCH   2   4
ENDBRANCH   1   2
BRANCH   1  22
ATOM     22  C   UNL A   1      33.561  30.080  27.036  1.00  0.00     0.274 C 
BRANCH  22  23
ATOM     23  C   UNL A   1      33.595  31.509  27.542  1.00  0.00     0.275 C 
BRANCH  23  24
ATOM     24  O   UNL A   1      34.496  31.628  28.642  1.00  0.00    -0.458 OA
BRANCH  24  25
ATOM     25  C   UNL A   1      35.701  32.161  28.344  1.00  0.00     0.338 C 
ATOM     26  O   UNL A   1      35.951  33.072  27.575  1.00  0.00    -0.246 OA
BRANCH  25  27
ATOM     27  C   UNL A   1      36.748  31.348  28.966  1.00  0.00     0.060 A 
ATOM     28  C   UNL A   1      37.928  31.990  29.351  1.00  0.00     0.016 A 
ATOM     29  C   UNL A   1      36.638  29.950  28.950  1.00  0.00     0.016 A 
ATOM     30  C   UNL A   1      39.044  31.219  29.604  1.00  0.00     0.010 A 
ATOM     31  C   UNL A   1      37.752  29.183  29.200  1.00  0.00     0.010 A 
ATOM     32  C   UNL A   1      38.958  29.827  29.466  1.00  0.00    -0.014 A 
BRANCH  32  33
ATOM     33  C   UNL A   1      40.165  29.056  29.670  1.00  0.00     0.031 A 
ATOM     34  C   UNL A   1      40.595  28.931  31.082  1.00  0.00     0.074 A 
ATOM     35  C   UNL A   1      40.796  28.400  28.681  1.00  0.00     0.049 A 
ATOM     36  N   UNL A   1      41.696  29.349  31.610  1.00  0.00    -0.248 NA
ATOM     37  C   UNL A   1      39.645  28.349  32.039  1.00  0.00     0.031 C 
ATOM     38  C   UNL A   1      40.345  28.167  27.307  1.00  0.00     0.029 A 
ATOM     39  N   UNL A   1      41.957  27.697  28.754  1.00  0.00    -0.354 N 
ATOM     40  C   UNL A   1      41.662  28.935  32.937  1.00  0.00     0.074 A 
ATOM     41  C   UNL A   1      40.333  28.437  33.176  1.00  0.00     0.031 C 
ATOM     42  C   UNL A   1      41.110  27.200  26.754  1.00  0.00     0.029 A 
ATOM     43  C   UNL A   1      42.169  26.843  27.686  1.00  0.00     0.049 A 
ATOM     44  H   UNL A   1      42.591  27.786  29.502  1.00  0.00     0.167 HD
ATOM     45  C   UNL A   1      42.800  28.847  33.676  1.00  0.00     0.037 A 
ATOM     46  C   UNL A   1      43.100  25.861  27.625  1.00  0.00     0.037 A 
ATOM     47  C   UNL A   1      43.865  29.633  33.108  1.00  0.00     0.049 A 
ATOM     48  C   UNL A   1      44.155  26.182  28.622  1.00  0.00     0.074 A 
ATOM     49  C   UNL A   1      44.011  30.965  32.768  1.00  0.00     0.029 A 
ATOM     50  N   UNL A   1      44.899  28.979  32.483  1.00  0.00    -0.354 N 
ATOM     51  N   UNL A   1      44.994  27.176  28.513  1.00  0.00    -0.248 NA
ATOM     52  C   UNL A   1      44.016  25.632  29.964  1.00  0.00     0.031 C 
ATOM     53  C   UNL A   1      44.794  30.957  31.577  1.00  0.00     0.029 A 
ATOM     54  C   UNL A   1      45.106  29.626  31.294  1.00  0.00     0.049 A 
ATOM     55  H   UNL A   1      45.395  28.200  32.823  1.00  0.00     0.167 HD
ATOM     56  C   UNL A   1      45.155  27.646  29.808  1.00  0.00     0.074 A 
ATOM     57  C   UNL A   1      44.618  26.595  30.666  1.00  0.00     0.031 C 
ATOM     58  C   UNL A   1      45.447  28.956  30.062  1.00  0.00     0.037 A 
BRANCH  45  59
ATOM     59  C   UNL A   1      43.055  27.769  34.698  1.00  0.00     0.057 A 
ATOM     60  C   UNL A   1      43.106  26.427  34.275  1.00  0.00     0.134 A 
ATOM     61  C   UNL A   1      42.934  27.956  36.089  1.00  0.00     0.134 A 
ATOM     62  F   UNL A   1      43.216  26.119  32.974  1.00  0.00    -0.206 F 
ATOM     63  C   UNL A   1      42.946  25.357  35.162  1.00  0.00     0.040 A 
ATOM     64  C   UNL A   1      42.828  26.892  36.988  1.00  0.00     0.040 A 
ATOM     65  F   UNL A   1      42.806  29.167  36.644  1.00  0.00    -0.206 F 
ATOM     66  C   UNL A   1      42.794  25.588  36.522  1.00  0.00     0.006 A 
ENDBRANCH  45  59
BRANCH  46  67
ATOM     67  C   UNL A   1      42.987  24.534  26.977  1.00  0.00     0.057 A 
ATOM     68  C   UNL A   1      42.240  23.505  27.569  1.00  0.00     0.134 A 
ATOM     69  C   UNL A   1      43.385  24.312  25.646  1.00  0.00     0.134 A 
ATOM     70  F   UNL A   1      41.775  23.635  28.821  1.00  0.00    -0.206 F 
ATOM     71  C   UNL A   1      41.890  22.341  26.874  1.00  0.00     0.040 A 
ATOM     72  C   UNL A   1      43.055  23.148  24.945  1.00  0.00     0.040 A 
ATOM     73  F   UNL A   1      44.033  25.252  24.943  1.00  0.00    -0.206 F 
ATOM     74  C   UNL A   1      42.290  22.164  25.554  1.00  0.00     0.006 A 
ENDBRANCH  46  67
BRANCH  58  75
ATOM     75  C   UNL A   1      45.864  29.840  28.923  1.00  0.00     0.057 A 
ATOM     76  C   UNL A   1      47.187  29.957  28.472  1.00  0.00     0.134 A 
ATOM     77  C   UNL A   1      44.869  30.424  28.129  1.00  0.00     0.134 A 
ATOM     78  F   UNL A   1      48.195  29.347  29.108  1.00  0.00    -0.206 F 
ATOM     79  C   UNL A   1      47.504  30.650  27.300  1.00  0.00     0.040 A 
ATOM     80  C   UNL A   1      45.170  31.091  26.939  1.00  0.00     0.040 A 
ATOM     81  F   UNL A   1      43.575  30.303  28.468  1.00  0.00    -0.206 F 
ATOM     82  C   UNL A   1      46.494  31.209  26.524  1.00  0.00     0.006 A 
ENDBRANCH  58  75
ENDBRANCH  32  33
ENDBRANCH  25  27
ENDBRANCH  24  25
ENDBRANCH  23  24
ENDBRANCH  22  23
ENDBRANCH   1  22
TORSDOF 16
ENDMDL
