MODEL 1
REMARK VINA RESULT:     -12.4      0.000      0.000
REMARK SMILES CSc1ccc(/C=C2\C(C)=C(CC(=O)OCCOC(=O)c3ccc(-c4c5nc(c(-c6c(F)cccc6F)c6ccc([nH]6)c(-c6c(F)cccc6F)c6nc(c(-c7c(F)cccc7F)c7ccc4[nH]7)C=C6)C=C5)cc3)c3cc(F)ccc32)cc1
REMARK SMILES IDX 16 1 15 2 13 3 14 4 12 5 11 6 7 7 8 8 9 9 81 10 10 11 75 12
REMARK SMILES IDX 80 13 76 14 79 15 77 16 78 17 6 18 3 19 4 20 83 21 5 22
REMARK SMILES IDX 82 23 2 24 1 25 17 26 18 27 19 28 20 29 21 30 22 31 74 32
REMARK SMILES IDX 23 33 73 34 24 35 25 36 26 37 67 38 27 39 72 40 66 41 68 42
REMARK SMILES IDX 28 43 71 44 65 45 64 46 29 48 55 49 38 50 54 51 39 52 42 53
REMARK SMILES IDX 53 54 69 55 40 56 41 57 52 59 70 60 43 61 30 62 31 63 36 64
REMARK SMILES IDX 32 65 33 66 35 67 37 68 34 69 56 70 57 71 62 72 58 73 59 74
REMARK SMILES IDX 61 75 63 76 60 77 44 78 45 79 50 80 46 81 47 82 49 83 51 84
REMARK SMILES IDX 48 85
REMARK H PARENT 68 47 42 58
REMARK Flexibility Score: inf
ROOT
ATOM      1  C   UNL A   1      37.446  21.263  25.451  1.00  0.00     0.274 C 
ENDROOT
BRANCH   1   2
ATOM      2  O   UNL A   1      37.738  22.551  24.863  1.00  0.00    -0.462 OA
BRANCH   2   3
ATOM      3  C   UNL A   1      37.612  23.611  25.706  1.00  0.00     0.310 C 
ATOM      4  O   UNL A   1      38.550  24.312  26.082  1.00  0.00    -0.252 OA
BRANCH   3   5
ATOM      5  C   UNL A   1      36.171  23.908  26.099  1.00  0.00     0.159 C 
BRANCH   5   6
ATOM      6  C   UNL A   1      35.191  24.497  25.056  1.00  0.00    -0.025 C 
ATOM      7  C   UNL A   1      33.069  21.836  25.462  1.00  0.00     0.017 C 
ATOM      8  C   UNL A   1      33.460  23.099  25.243  1.00  0.00    -0.014 C 
ATOM      9  C   UNL A   1      34.506  23.591  24.306  1.00  0.00    -0.039 C 
ATOM     10  C   UNL A   1      33.000  24.316  25.940  1.00  0.00    -0.010 A 
ATOM     11  C   UNL A   1      33.889  24.018  22.973  1.00  0.00     0.045 C 
ATOM     12  C   UNL A   1      34.031  25.236  25.666  1.00  0.00    -0.011 A 
ATOM     13  C   UNL A   1      31.713  24.727  26.260  1.00  0.00     0.012 A 
ATOM     14  C   UNL A   1      33.752  26.592  25.586  1.00  0.00     0.048 A 
ATOM     15  C   UNL A   1      31.451  26.103  26.240  1.00  0.00     0.040 A 
ATOM     16  C   UNL A   1      32.458  27.011  25.885  1.00  0.00     0.123 A 
ATOM     17  F   UNL A   1      32.145  28.308  25.741  1.00  0.00    -0.207 F 
BRANCH   7  18
ATOM     18  C   UNL A   1      33.294  20.655  24.593  1.00  0.00    -0.025 A 
ATOM     19  C   UNL A   1      33.402  17.878  24.213  1.00  0.00     0.007 A 
ATOM     20  C   UNL A   1      32.275  18.592  23.826  1.00  0.00     0.015 A 
ATOM     21  C   UNL A   1      34.554  18.596  24.549  1.00  0.00     0.015 A 
ATOM     22  C   UNL A   1      32.252  19.981  23.952  1.00  0.00     0.009 A 
ATOM     23  C   UNL A   1      34.506  19.981  24.734  1.00  0.00     0.009 A 
BRANCH  19  24
ATOM     24  S   UNL A   1      33.423  16.121  24.529  1.00  0.00    -0.130 SA
ATOM     25  C   UNL A   1      35.045  15.829  25.271  1.00  0.00     0.091 C 
ENDBRANCH  19  24
ENDBRANCH   7  18
ENDBRANCH   5   6
ENDBRANCH   3   5
ENDBRANCH   2   3
ENDBRANCH   1   2
BRANCH   1  26
ATOM     26  C   UNL A   1      38.500  20.246  24.966  1.00  0.00     0.275 C 
BRANCH  26  27
ATOM     27  O   UNL A   1      39.240  19.523  25.990  1.00  0.00    -0.458 OA
BRANCH  27  28
ATOM     28  C   UNL A   1      40.576  19.700  25.990  1.00  0.00     0.338 C 
ATOM     29  O   UNL A   1      41.397  18.923  25.549  1.00  0.00    -0.246 OA
BRANCH  28  30
ATOM     30  C   UNL A   1      41.086  20.928  26.603  1.00  0.00     0.060 A 
ATOM     31  C   UNL A   1      41.496  21.925  25.699  1.00  0.00     0.016 A 
ATOM     32  C   UNL A   1      41.292  21.076  27.970  1.00  0.00     0.016 A 
ATOM     33  C   UNL A   1      42.098  23.082  26.157  1.00  0.00     0.010 A 
ATOM     34  C   UNL A   1      41.869  22.259  28.434  1.00  0.00     0.010 A 
ATOM     35  C   UNL A   1      42.254  23.268  27.530  1.00  0.00    -0.014 A 
BRANCH  35  36
ATOM     36  C   UNL A   1      42.715  24.573  28.033  1.00  0.00     0.031 A 
ATOM     37  C   UNL A   1      41.738  25.635  28.410  1.00  0.00     0.074 A 
ATOM     38  C   UNL A   1      44.042  24.789  28.087  1.00  0.00     0.049 A 
ATOM     39  N   UNL A   1      41.961  26.891  28.686  1.00  0.00    -0.248 NA
ATOM     40  C   UNL A   1      40.326  25.234  28.479  1.00  0.00     0.031 C 
ATOM     41  C   UNL A   1      45.069  23.792  27.776  1.00  0.00     0.029 A 
ATOM     42  N   UNL A   1      44.751  25.921  28.385  1.00  0.00    -0.354 N 
ATOM     43  C   UNL A   1      40.714  27.447  28.932  1.00  0.00     0.074 A 
ATOM     44  C   UNL A   1      39.739  26.387  28.773  1.00  0.00     0.031 C 
ATOM     45  C   UNL A   1      46.276  24.364  27.869  1.00  0.00     0.029 A 
ATOM     46  C   UNL A   1      46.100  25.777  28.183  1.00  0.00     0.049 A 
ATOM     47  H   UNL A   1      44.336  26.752  28.710  1.00  0.00     0.167 HD
ATOM     48  C   UNL A   1      40.425  28.731  29.249  1.00  0.00     0.037 A 
ATOM     49  C   UNL A   1      47.082  26.696  28.189  1.00  0.00     0.037 A 
ATOM     50  C   UNL A   1      41.420  29.763  29.398  1.00  0.00     0.049 A 
ATOM     51  C   UNL A   1      46.732  28.121  28.486  1.00  0.00     0.074 A 
ATOM     52  C   UNL A   1      41.242  31.090  29.744  1.00  0.00     0.029 A 
ATOM     53  N   UNL A   1      42.782  29.582  29.196  1.00  0.00    -0.354 N 
ATOM     54  N   UNL A   1      45.554  28.644  28.725  1.00  0.00    -0.248 NA
ATOM     55  C   UNL A   1      47.838  29.085  28.511  1.00  0.00     0.031 C 
ATOM     56  C   UNL A   1      42.490  31.723  29.704  1.00  0.00     0.029 A 
ATOM     57  C   UNL A   1      43.453  30.778  29.383  1.00  0.00     0.049 A 
ATOM     58  H   UNL A   1      43.208  28.727  28.955  1.00  0.00     0.167 HD
ATOM     59  C   UNL A   1      45.776  29.993  28.956  1.00  0.00     0.074 A 
ATOM     60  C   UNL A   1      47.204  30.207  28.826  1.00  0.00     0.031 C 
ATOM     61  C   UNL A   1      44.878  30.964  29.255  1.00  0.00     0.037 A 
BRANCH  48  62
ATOM     62  C   UNL A   1      38.977  29.094  29.398  1.00  0.00     0.057 A 
ATOM     63  C   UNL A   1      38.304  28.996  30.622  1.00  0.00     0.134 A 
ATOM     64  C   UNL A   1      38.246  29.556  28.295  1.00  0.00     0.134 A 
ATOM     65  F   UNL A   1      38.941  28.548  31.715  1.00  0.00    -0.206 F 
ATOM     66  C   UNL A   1      36.949  29.315  30.738  1.00  0.00     0.040 A 
ATOM     67  C   UNL A   1      36.899  29.902  28.404  1.00  0.00     0.040 A 
ATOM     68  F   UNL A   1      38.831  29.680  27.094  1.00  0.00    -0.206 F 
ATOM     69  C   UNL A   1      36.244  29.773  29.627  1.00  0.00     0.006 A 
ENDBRANCH  48  62
BRANCH  49  70
ATOM     70  C   UNL A   1      48.465  26.273  27.872  1.00  0.00     0.057 A 
ATOM     71  C   UNL A   1      49.286  25.697  28.846  1.00  0.00     0.134 A 
ATOM     72  C   UNL A   1      48.971  26.363  26.568  1.00  0.00     0.134 A 
ATOM     73  F   UNL A   1      48.858  25.592  30.111  1.00  0.00    -0.206 F 
ATOM     74  C   UNL A   1      50.562  25.223  28.534  1.00  0.00     0.040 A 
ATOM     75  C   UNL A   1      50.235  25.873  26.238  1.00  0.00     0.040 A 
ATOM     76  F   UNL A   1      48.224  26.892  25.587  1.00  0.00    -0.206 F 
ATOM     77  C   UNL A   1      51.034  25.301  27.225  1.00  0.00     0.006 A 
ENDBRANCH  49  70
BRANCH  61  78
ATOM     78  C   UNL A   1      45.420  32.339  29.504  1.00  0.00     0.057 A 
ATOM     79  C   UNL A   1      45.491  33.301  28.490  1.00  0.00     0.134 A 
ATOM     80  C   UNL A   1      45.814  32.719  30.793  1.00  0.00     0.134 A 
ATOM     81  F   UNL A   1      45.142  32.991  27.233  1.00  0.00    -0.206 F 
ATOM     82  C   UNL A   1      45.943  34.595  28.749  1.00  0.00     0.040 A 
ATOM     83  C   UNL A   1      46.248  34.017  31.068  1.00  0.00     0.040 A 
ATOM     84  F   UNL A   1      45.766  31.843  31.807  1.00  0.00    -0.206 F 
ATOM     85  C   UNL A   1      46.314  34.958  30.043  1.00  0.00     0.006 A 
ENDBRANCH  61  78
ENDBRANCH  35  36
ENDBRANCH  28  30
ENDBRANCH  27  28
ENDBRANCH  26  27
ENDBRANCH   1  26
TORSDOF 14
ENDMDL
MODEL 2
REMARK VINA RESULT:     -12.3      2.052      3.960
REMARK SMILES CSc1ccc(/C=C2\C(C)=C(CC(=O)OCCOC(=O)c3ccc(-c4c5nc(c(-c6c(F)cccc6F)c6ccc([nH]6)c(-c6c(F)cccc6F)c6nc(c(-c7c(F)cccc7F)c7ccc4[nH]7)C=C6)C=C5)cc3)c3cc(F)ccc32)cc1
REMARK SMILES IDX 16 1 15 2 13 3 14 4 12 5 11 6 7 7 8 8 9 9 81 10 10 11 75 12
REMARK SMILES IDX 80 13 76 14 79 15 77 16 78 17 6 18 3 19 4 20 83 21 5 22
REMARK SMILES IDX 82 23 2 24 1 25 17 26 18 27 19 28 20 29 21 30 22 31 74 32
REMARK SMILES IDX 23 33 73 34 24 35 25 36 26 37 67 38 27 39 72 40 66 41 68 42
REMARK SMILES IDX 28 43 71 44 65 45 64 46 29 48 55 49 38 50 54 51 39 52 42 53
REMARK SMILES IDX 53 54 69 55 40 56 41 57 52 59 70 60 43 61 30 62 31 63 36 64
REMARK SMILES IDX 32 65 33 66 35 67 37 68 34 69 56 70 57 71 62 72 58 73 59 74
REMARK SMILES IDX 61 75 63 76 60 77 44 78 45 79 50 80 46 81 47 82 49 83 51 84
REMARK SMILES IDX 48 85
REMARK H PARENT 68 47 42 58
REMARK Flexibility Score: inf
ROOT
ATOM      1  C   UNL A   1      37.321  20.698  24.938  1.00  0.00     0.274 C 
ENDROOT
BRANCH   1   2
ATOM      2  O   UNL A   1      37.697  22.091  24.840  1.00  0.00    -0.462 OA
BRANCH   2   3
ATOM      3  C   UNL A   1      36.859  22.864  24.098  1.00  0.00     0.310 C 
ATOM      4  O   UNL A   1      36.742  22.785  22.876  1.00  0.00    -0.252 OA
BRANCH   3   5
ATOM      5  C   UNL A   1      36.005  23.810  24.933  1.00  0.00     0.159 C 
BRANCH   5   6
ATOM      6  C   UNL A   1      34.580  23.389  25.363  1.00  0.00    -0.025 C 
ATOM      7  C   UNL A   1      33.196  25.462  23.010  1.00  0.00     0.017 C 
ATOM      8  C   UNL A   1      33.337  24.387  23.799  1.00  0.00    -0.014 C 
ATOM      9  C   UNL A   1      33.619  24.348  25.259  1.00  0.00    -0.039 C 
ATOM     10  C   UNL A   1      33.327  22.968  23.395  1.00  0.00    -0.010 A 
ATOM     11  C   UNL A   1      32.325  24.218  26.063  1.00  0.00     0.045 C 
ATOM     12  C   UNL A   1      33.969  22.335  24.478  1.00  0.00    -0.011 A 
ATOM     13  C   UNL A   1      32.455  22.287  22.556  1.00  0.00     0.012 A 
ATOM     14  C   UNL A   1      33.645  21.029  24.812  1.00  0.00     0.048 A 
ATOM     15  C   UNL A   1      32.181  20.948  22.861  1.00  0.00     0.040 A 
ATOM     16  C   UNL A   1      32.755  20.345  23.988  1.00  0.00     0.123 A 
ATOM     17  F   UNL A   1      32.369  19.107  24.334  1.00  0.00    -0.207 F 
BRANCH   7  18
ATOM     18  C   UNL A   1      32.914  26.859  23.423  1.00  0.00    -0.025 A 
ATOM     19  C   UNL A   1      32.458  28.780  25.415  1.00  0.00     0.007 A 
ATOM     20  C   UNL A   1      33.715  28.661  24.834  1.00  0.00     0.015 A 
ATOM     21  C   UNL A   1      31.387  28.110  24.814  1.00  0.00     0.015 A 
ATOM     22  C   UNL A   1      33.920  27.752  23.796  1.00  0.00     0.009 A 
ATOM     23  C   UNL A   1      31.609  27.156  23.816  1.00  0.00     0.009 A 
BRANCH  19  24
ATOM     24  S   UNL A   1      32.148  29.541  27.000  1.00  0.00    -0.130 SA
ATOM     25  C   UNL A   1      31.729  31.251  26.590  1.00  0.00     0.091 C 
ENDBRANCH  19  24
ENDBRANCH   7  18
ENDBRANCH   5   6
ENDBRANCH   3   5
ENDBRANCH   2   3
ENDBRANCH   1   2
BRANCH   1  26
ATOM     26  C   UNL A   1      38.587  19.831  24.788  1.00  0.00     0.275 C 
BRANCH  26  27
ATOM     27  O   UNL A   1      39.281  19.458  26.013  1.00  0.00    -0.458 OA
BRANCH  27  28
ATOM     28  C   UNL A   1      40.619  19.621  26.007  1.00  0.00     0.338 C 
ATOM     29  O   UNL A   1      41.430  18.830  25.572  1.00  0.00    -0.246 OA
BRANCH  28  30
ATOM     30  C   UNL A   1      41.145  20.849  26.605  1.00  0.00     0.060 A 
ATOM     31  C   UNL A   1      41.428  21.886  25.697  1.00  0.00     0.016 A 
ATOM     32  C   UNL A   1      41.480  20.966  27.950  1.00  0.00     0.016 A 
ATOM     33  C   UNL A   1      42.032  23.052  26.130  1.00  0.00     0.010 A 
ATOM     34  C   UNL A   1      42.060  22.156  28.392  1.00  0.00     0.010 A 
ATOM     35  C   UNL A   1      42.317  23.204  27.487  1.00  0.00    -0.014 A 
BRANCH  35  36
ATOM     36  C   UNL A   1      42.780  24.511  27.983  1.00  0.00     0.031 A 
ATOM     37  C   UNL A   1      41.805  25.575  28.359  1.00  0.00     0.074 A 
ATOM     38  C   UNL A   1      44.108  24.727  28.032  1.00  0.00     0.049 A 
ATOM     39  N   UNL A   1      42.029  26.832  28.629  1.00  0.00    -0.248 NA
ATOM     40  C   UNL A   1      40.393  25.175  28.434  1.00  0.00     0.031 C 
ATOM     41  C   UNL A   1      45.133  23.728  27.722  1.00  0.00     0.029 A 
ATOM     42  N   UNL A   1      44.818  25.859  28.324  1.00  0.00    -0.354 N 
ATOM     43  C   UNL A   1      40.784  27.390  28.877  1.00  0.00     0.074 A 
ATOM     44  C   UNL A   1      39.808  26.330  28.724  1.00  0.00     0.031 C 
ATOM     45  C   UNL A   1      46.341  24.300  27.810  1.00  0.00     0.029 A 
ATOM     46  C   UNL A   1      46.166  25.714  28.118  1.00  0.00     0.049 A 
ATOM     47  H   UNL A   1      44.405  26.692  28.647  1.00  0.00     0.167 HD
ATOM     48  C   UNL A   1      40.496  28.675  29.189  1.00  0.00     0.037 A 
ATOM     49  C   UNL A   1      47.149  26.632  28.118  1.00  0.00     0.037 A 
ATOM     50  C   UNL A   1      41.492  29.707  29.331  1.00  0.00     0.049 A 
ATOM     51  C   UNL A   1      46.800  28.059  28.410  1.00  0.00     0.074 A 
ATOM     52  C   UNL A   1      41.316  31.036  29.672  1.00  0.00     0.029 A 
ATOM     53  N   UNL A   1      42.853  29.524  29.126  1.00  0.00    -0.354 N 
ATOM     54  N   UNL A   1      45.623  28.583  28.651  1.00  0.00    -0.248 NA
ATOM     55  C   UNL A   1      47.907  29.022  28.428  1.00  0.00     0.031 C 
ATOM     56  C   UNL A   1      42.564  31.668  29.626  1.00  0.00     0.029 A 
ATOM     57  C   UNL A   1      43.526  30.721  29.306  1.00  0.00     0.049 A 
ATOM     58  H   UNL A   1      43.278  28.668  28.888  1.00  0.00     0.167 HD
ATOM     59  C   UNL A   1      45.847  29.934  28.875  1.00  0.00     0.074 A 
ATOM     60  C   UNL A   1      47.274  30.145  28.741  1.00  0.00     0.031 C 
ATOM     61  C   UNL A   1      44.951  30.905  29.173  1.00  0.00     0.037 A 
BRANCH  48  62
ATOM     62  C   UNL A   1      39.049  29.039  29.341  1.00  0.00     0.057 A 
ATOM     63  C   UNL A   1      38.380  28.949  30.567  1.00  0.00     0.134 A 
ATOM     64  C   UNL A   1      38.314  29.495  28.238  1.00  0.00     0.134 A 
ATOM     65  F   UNL A   1      39.020  28.507  31.661  1.00  0.00    -0.206 F 
ATOM     66  C   UNL A   1      37.025  29.269  30.686  1.00  0.00     0.040 A 
ATOM     67  C   UNL A   1      36.968  29.842  28.349  1.00  0.00     0.040 A 
ATOM     68  F   UNL A   1      38.895  29.612  27.034  1.00  0.00    -0.206 F 
ATOM     69  C   UNL A   1      36.317  29.721  29.575  1.00  0.00     0.006 A 
ENDBRANCH  48  62
BRANCH  49  70
ATOM     70  C   UNL A   1      48.531  26.207  27.799  1.00  0.00     0.057 A 
ATOM     71  C   UNL A   1      49.019  26.260  26.490  1.00  0.00     0.134 A 
ATOM     72  C   UNL A   1      49.421  25.814  28.807  1.00  0.00     0.134 A 
ATOM     73  F   UNL A   1      48.211  26.621  25.484  1.00  0.00    -0.206 F 
ATOM     74  C   UNL A   1      50.345  25.937  26.194  1.00  0.00     0.040 A 
ATOM     75  C   UNL A   1      50.753  25.510  28.529  1.00  0.00     0.040 A 
ATOM     76  F   UNL A   1      49.014  25.759  30.085  1.00  0.00    -0.206 F 
ATOM     77  C   UNL A   1      51.218  25.572  27.217  1.00  0.00     0.006 A 
ENDBRANCH  49  70
BRANCH  61  78
ATOM     78  C   UNL A   1      45.494  32.281  29.415  1.00  0.00     0.057 A 
ATOM     79  C   UNL A   1      45.567  33.237  28.396  1.00  0.00     0.134 A 
ATOM     80  C   UNL A   1      45.887  32.668  30.703  1.00  0.00     0.134 A 
ATOM     81  F   UNL A   1      45.219  32.921  27.140  1.00  0.00    -0.206 F 
ATOM     82  C   UNL A   1      46.021  34.533  28.649  1.00  0.00     0.040 A 
ATOM     83  C   UNL A   1      46.322  33.967  30.971  1.00  0.00     0.040 A 
ATOM     84  F   UNL A   1      45.836  31.797  31.721  1.00  0.00    -0.206 F 
ATOM     85  C   UNL A   1      46.390  34.902  29.941  1.00  0.00     0.006 A 
ENDBRANCH  61  78
ENDBRANCH  35  36
ENDBRANCH  28  30
ENDBRANCH  27  28
ENDBRANCH  26  27
ENDBRANCH   1  26
TORSDOF 14
ENDMDL
MODEL 3
REMARK VINA RESULT:     -12.3      5.440     10.049
REMARK SMILES CSc1ccc(/C=C2\C(C)=C(CC(=O)OCCOC(=O)c3ccc(-c4c5nc(c(-c6c(F)cccc6F)c6ccc([nH]6)c(-c6c(F)cccc6F)c6nc(c(-c7c(F)cccc7F)c7ccc4[nH]7)C=C6)C=C5)cc3)c3cc(F)ccc32)cc1
REMARK SMILES IDX 16 1 15 2 13 3 14 4 12 5 11 6 7 7 8 8 9 9 81 10 10 11 75 12
REMARK SMILES IDX 80 13 76 14 79 15 77 16 78 17 6 18 3 19 4 20 83 21 5 22
REMARK SMILES IDX 82 23 2 24 1 25 17 26 18 27 19 28 20 29 21 30 22 31 74 32
REMARK SMILES IDX 23 33 73 34 24 35 25 36 26 37 67 38 27 39 72 40 66 41 68 42
REMARK SMILES IDX 28 43 71 44 65 45 64 46 29 48 55 49 38 50 54 51 39 52 42 53
REMARK SMILES IDX 53 54 69 55 40 56 41 57 52 59 70 60 43 61 30 62 31 63 36 64
REMARK SMILES IDX 32 65 33 66 35 67 37 68 34 69 56 70 57 71 62 72 58 73 59 74
REMARK SMILES IDX 61 75 63 76 60 77 44 78 45 79 50 80 46 81 47 82 49 83 51 84
REMARK SMILES IDX 48 85
REMARK H PARENT 68 47 42 58
REMARK Flexibility Score: inf
ROOT
ATOM      1  C   UNL A   1      32.591  30.951  26.597  1.00  0.00     0.274 C 
ENDROOT
BRANCH   1   2
ATOM      2  O   UNL A   1      33.085  30.079  27.640  1.00  0.00    -0.462 OA
BRANCH   2   3
ATOM      3  C   UNL A   1      34.212  29.386  27.327  1.00  0.00     0.310 C 
ATOM      4  O   UNL A   1      35.229  29.368  28.018  1.00  0.00    -0.252 OA
BRANCH   3   5
ATOM      5  C   UNL A   1      34.084  28.559  26.054  1.00  0.00     0.159 C 
BRANCH   5   6
ATOM      6  C   UNL A   1      33.332  27.207  26.084  1.00  0.00    -0.025 C 
ATOM      7  C   UNL A   1      31.632  28.024  23.222  1.00  0.00     0.017 C 
ATOM      8  C   UNL A   1      32.259  27.259  24.126  1.00  0.00    -0.014 C 
ATOM      9  C   UNL A   1      32.059  27.224  25.600  1.00  0.00    -0.039 C 
ATOM     10  C   UNL A   1      33.366  26.313  23.889  1.00  0.00    -0.010 A 
ATOM     11  C   UNL A   1      31.081  26.115  25.994  1.00  0.00     0.045 C 
ATOM     12  C   UNL A   1      33.925  26.165  25.174  1.00  0.00    -0.011 A 
ATOM     13  C   UNL A   1      33.515  25.343  22.907  1.00  0.00     0.012 A 
ATOM     14  C   UNL A   1      34.541  24.976  25.534  1.00  0.00     0.048 A 
ATOM     15  C   UNL A   1      34.194  24.169  23.256  1.00  0.00     0.040 A 
ATOM     16  C   UNL A   1      34.676  23.990  24.560  1.00  0.00     0.123 A 
ATOM     17  F   UNL A   1      35.199  22.803  24.904  1.00  0.00    -0.207 F 
BRANCH   7  18
ATOM     18  C   UNL A   1      30.347  28.749  23.384  1.00  0.00    -0.025 A 
ATOM     19  C   UNL A   1      28.640  30.881  22.745  1.00  0.00     0.007 A 
ATOM     20  C   UNL A   1      28.456  29.638  22.152  1.00  0.00     0.015 A 
ATOM     21  C   UNL A   1      29.514  30.970  23.834  1.00  0.00     0.015 A 
ATOM     22  C   UNL A   1      29.263  28.562  22.524  1.00  0.00     0.009 A 
ATOM     23  C   UNL A   1      30.362  29.908  24.160  1.00  0.00     0.009 A 
BRANCH  19  24
ATOM     24  S   UNL A   1      28.018  32.417  22.081  1.00  0.00    -0.130 SA
ATOM     25  C   UNL A   1      28.014  32.152  20.293  1.00  0.00     0.091 C 
ENDBRANCH  19  24
ENDBRANCH   7  18
ENDBRANCH   5   6
ENDBRANCH   3   5
ENDBRANCH   2   3
ENDBRANCH   1   2
BRANCH   1  26
ATOM     26  C   UNL A   1      31.967  32.201  27.250  1.00  0.00     0.275 C 
BRANCH  26  27
ATOM     27  O   UNL A   1      32.694  33.455  27.106  1.00  0.00    -0.458 OA
BRANCH  27  28
ATOM     28  C   UNL A   1      33.100  34.037  28.250  1.00  0.00     0.338 C 
ATOM     29  O   UNL A   1      32.510  34.910  28.852  1.00  0.00    -0.246 OA
BRANCH  28  30
ATOM     30  C   UNL A   1      34.383  33.599  28.804  1.00  0.00     0.060 A 
ATOM     31  C   UNL A   1      34.304  32.569  29.759  1.00  0.00     0.016 A 
ATOM     32  C   UNL A   1      35.593  34.228  28.530  1.00  0.00     0.016 A 
ATOM     33  C   UNL A   1      35.436  32.150  30.433  1.00  0.00     0.010 A 
ATOM     34  C   UNL A   1      36.740  33.781  29.186  1.00  0.00     0.010 A 
ATOM     35  C   UNL A   1      36.665  32.732  30.122  1.00  0.00    -0.014 A 
BRANCH  35  36
ATOM     36  C   UNL A   1      37.898  32.161  30.691  1.00  0.00     0.031 A 
ATOM     37  C   UNL A   1      38.630  31.069  29.987  1.00  0.00     0.074 A 
ATOM     38  C   UNL A   1      38.303  32.619  31.890  1.00  0.00     0.049 A 
ATOM     39  N   UNL A   1      39.610  30.326  30.425  1.00  0.00    -0.248 NA
ATOM     40  C   UNL A   1      38.201  30.769  28.614  1.00  0.00     0.031 C 
ATOM     41  C   UNL A   1      37.670  33.714  32.629  1.00  0.00     0.029 A 
ATOM     42  N   UNL A   1      39.317  32.203  32.708  1.00  0.00    -0.354 N 
ATOM     43  C   UNL A   1      39.900  29.444  29.396  1.00  0.00     0.074 A 
ATOM     44  C   UNL A   1      38.990  29.747  28.310  1.00  0.00     0.031 C 
ATOM     45  C   UNL A   1      38.289  33.861  33.807  1.00  0.00     0.029 A 
ATOM     46  C   UNL A   1      39.317  32.834  33.926  1.00  0.00     0.049 A 
ATOM     47  H   UNL A   1      39.978  31.520  32.451  1.00  0.00     0.167 HD
ATOM     48  C   UNL A   1      40.835  28.465  29.378  1.00  0.00     0.037 A 
ATOM     49  C   UNL A   1      40.024  32.574  35.039  1.00  0.00     0.037 A 
ATOM     50  C   UNL A   1      41.724  28.188  30.478  1.00  0.00     0.049 A 
ATOM     51  C   UNL A   1      41.014  31.450  35.017  1.00  0.00     0.074 A 
ATOM     52  C   UNL A   1      42.729  27.240  30.559  1.00  0.00     0.029 A 
ATOM     53  N   UNL A   1      41.705  28.854  31.697  1.00  0.00    -0.354 N 
ATOM     54  N   UNL A   1      41.292  30.621  34.040  1.00  0.00    -0.248 NA
ATOM     55  C   UNL A   1      41.785  31.220  36.244  1.00  0.00     0.031 C 
ATOM     56  C   UNL A   1      43.284  27.300  31.843  1.00  0.00     0.029 A 
ATOM     57  C   UNL A   1      42.660  28.320  32.545  1.00  0.00     0.049 A 
ATOM     58  H   UNL A   1      41.101  29.598  31.924  1.00  0.00     0.167 HD
ATOM     59  C   UNL A   1      42.289  29.786  34.522  1.00  0.00     0.074 A 
ATOM     60  C   UNL A   1      42.565  30.210  35.881  1.00  0.00     0.031 C 
ATOM     61  C   UNL A   1      42.921  28.766  33.893  1.00  0.00     0.037 A 
BRANCH  48  62
ATOM     62  C   UNL A   1      40.902  27.597  28.158  1.00  0.00     0.057 A 
ATOM     63  C   UNL A   1      40.186  26.399  28.052  1.00  0.00     0.134 A 
ATOM     64  C   UNL A   1      41.695  27.974  27.064  1.00  0.00     0.134 A 
ATOM     65  F   UNL A   1      39.418  25.973  29.066  1.00  0.00    -0.206 F 
ATOM     66  C   UNL A   1      40.279  25.590  26.916  1.00  0.00     0.040 A 
ATOM     67  C   UNL A   1      41.775  27.187  25.915  1.00  0.00     0.040 A 
ATOM     68  F   UNL A   1      42.403  29.113  27.097  1.00  0.00    -0.206 F 
ATOM     69  C   UNL A   1      41.073  25.986  25.842  1.00  0.00     0.006 A 
ENDBRANCH  48  62
BRANCH  49  70
ATOM     70  C   UNL A   1      39.778  33.384  36.255  1.00  0.00     0.057 A 
ATOM     71  C   UNL A   1      40.448  34.593  36.465  1.00  0.00     0.134 A 
ATOM     72  C   UNL A   1      38.809  33.007  37.194  1.00  0.00     0.134 A 
ATOM     73  F   UNL A   1      41.390  34.999  35.603  1.00  0.00    -0.206 F 
ATOM     74  C   UNL A   1      40.163  35.400  37.567  1.00  0.00     0.040 A 
ATOM     75  C   UNL A   1      38.498  33.815  38.288  1.00  0.00     0.040 A 
ATOM     76  F   UNL A   1      38.122  31.865  37.037  1.00  0.00    -0.206 F 
ATOM     77  C   UNL A   1      39.178  35.016  38.476  1.00  0.00     0.006 A 
ENDBRANCH  49  70
BRANCH  61  78
ATOM     78  C   UNL A   1      44.005  28.064  34.654  1.00  0.00     0.057 A 
ATOM     79  C   UNL A   1      45.317  28.548  34.688  1.00  0.00     0.134 A 
ATOM     80  C   UNL A   1      43.711  26.923  35.412  1.00  0.00     0.134 A 
ATOM     81  F   UNL A   1      45.663  29.627  33.970  1.00  0.00    -0.206 F 
ATOM     82  C   UNL A   1      46.304  27.917  35.447  1.00  0.00     0.040 A 
ATOM     83  C   UNL A   1      44.683  26.297  36.191  1.00  0.00     0.040 A 
ATOM     84  F   UNL A   1      42.470  26.414  35.423  1.00  0.00    -0.206 F 
ATOM     85  C   UNL A   1      45.985  26.794  36.209  1.00  0.00     0.006 A 
ENDBRANCH  61  78
ENDBRANCH  35  36
ENDBRANCH  28  30
ENDBRANCH  27  28
ENDBRANCH  26  27
ENDBRANCH   1  26
TORSDOF 14
ENDMDL
