MODEL 1
REMARK VINA RESULT:     -11.1      0.000      0.000
REMARK SMILES CCCc1cc(OC(F)(F)F)cc2c1O[C@@H](C(F)(F)F)C(C(=O)OCCOC(=O)c1ccc(-c3c4nc(c(-c5c(F)cccc5F)c5ccc([nH]5)c(-c5c(F)cccc5F)c5nc(c(-c6c(F)cccc6F)c6ccc3[nH]6)C=C5)C=C4)cc1)=C2
REMARK SMILES IDX 25 1 24 2 22 3 23 4 21 5 4 6 5 7 14 8 6 9 13 10 15 11 12 12
REMARK SMILES IDX 84 13 16 14 3 15 2 16 1 17 7 18 8 19 9 20 10 21 11 22 17 23
REMARK SMILES IDX 18 24 19 25 20 26 26 27 27 28 28 29 29 30 30 31 31 32 83 33
REMARK SMILES IDX 32 34 82 35 33 36 34 37 35 38 76 39 36 40 81 41 75 42 77 43
REMARK SMILES IDX 37 44 80 45 74 46 73 47 38 49 64 50 47 51 63 52 48 53 51 54
REMARK SMILES IDX 62 55 78 56 49 57 50 58 61 60 79 61 52 62 39 63 40 64 45 65
REMARK SMILES IDX 41 66 42 67 44 68 46 69 43 70 65 71 66 72 71 73 67 74 68 75
REMARK SMILES IDX 70 76 72 77 69 78 53 79 54 80 59 81 55 82 56 83 58 84 60 85
REMARK SMILES IDX 57 86
REMARK H PARENT 77 48 51 59
REMARK Flexibility Score: inf
ROOT
ATOM      1  C   UNL A   1      42.581  21.398  25.814  1.00  0.00     0.275 C 
ENDROOT
BRANCH   1   2
ATOM      2  O   UNL A   1      41.371  22.182  25.744  1.00  0.00    -0.459 OA
BRANCH   2   3
ATOM      3  C   UNL A   1      40.424  21.877  26.666  1.00  0.00     0.338 C 
ATOM      4  O   UNL A   1      40.610  21.400  27.770  1.00  0.00    -0.246 OA
BRANCH   3   5
ATOM      5  C   UNL A   1      39.081  22.246  26.188  1.00  0.00     0.087 C 
ATOM      6  C   UNL A   1      35.184  23.494  25.302  1.00  0.00    -0.002 A 
ATOM      7  C   UNL A   1      34.264  22.539  24.825  1.00  0.00     0.054 A 
ATOM      8  C   UNL A   1      36.462  23.050  25.665  1.00  0.00     0.131 A 
ATOM      9  C   UNL A   1      34.611  21.190  24.703  1.00  0.00     0.130 A 
ATOM     10  C   UNL A   1      36.846  21.708  25.494  1.00  0.00     0.021 A 
ATOM     11  O   UNL A   1      37.301  23.947  26.259  1.00  0.00    -0.475 OA
ATOM     12  C   UNL A   1      35.915  20.788  25.008  1.00  0.00     0.058 A 
ATOM     13  C   UNL A   1      38.198  21.286  25.871  1.00  0.00     0.027 C 
ATOM     14  C   UNL A   1      38.717  23.705  26.113  1.00  0.00     0.316 C 
BRANCH   6  15
ATOM     15  C   UNL A   1      34.788  24.961  25.248  1.00  0.00     0.039 C 
BRANCH  15  16
ATOM     16  C   UNL A   1      33.777  25.437  24.198  1.00  0.00     0.001 C 
ATOM     17  C   UNL A   1      33.379  26.902  24.303  1.00  0.00     0.004 C 
ENDBRANCH  15  16
ENDBRANCH   6  15
BRANCH   9  18
ATOM     18  O   UNL A   1      33.787  20.184  24.282  1.00  0.00    -0.406 OA
BRANCH  18  19
ATOM     19  C   UNL A   1      32.717  19.808  25.135  1.00  0.00     0.573 C 
ATOM     20  F   UNL A   1      32.230  18.591  24.808  1.00  0.00    -0.132 F 
ATOM     21  F   UNL A   1      33.109  19.804  26.427  1.00  0.00    -0.132 F 
ATOM     22  F   UNL A   1      31.719  20.708  25.002  1.00  0.00    -0.132 F 
ENDBRANCH  18  19
ENDBRANCH   9  18
BRANCH  14  23
ATOM     23  C   UNL A   1      39.477  24.677  27.037  1.00  0.00     0.430 C 
ATOM     24  F   UNL A   1      40.591  25.167  26.447  1.00  0.00    -0.167 F 
ATOM     25  F   UNL A   1      38.708  25.762  27.315  1.00  0.00    -0.167 F 
ATOM     26  F   UNL A   1      39.823  24.119  28.215  1.00  0.00    -0.167 F 
ENDBRANCH  14  23
ENDBRANCH   3   5
ENDBRANCH   2   3
ENDBRANCH   1   2
BRANCH   1  27
ATOM     27  C   UNL A   1      43.733  22.097  25.087  1.00  0.00     0.275 C 
BRANCH  27  28
ATOM     28  O   UNL A   1      44.582  22.814  26.009  1.00  0.00    -0.458 OA
BRANCH  28  29
ATOM     29  C   UNL A   1      44.698  24.141  25.760  1.00  0.00     0.338 C 
ATOM     30  O   UNL A   1      45.144  24.661  24.749  1.00  0.00    -0.246 OA
BRANCH  29  31
ATOM     31  C   UNL A   1      44.004  24.922  26.801  1.00  0.00     0.060 A 
ATOM     32  C   UNL A   1      44.119  26.309  26.701  1.00  0.00     0.016 A 
ATOM     33  C   UNL A   1      43.315  24.358  27.873  1.00  0.00     0.016 A 
ATOM     34  C   UNL A   1      43.473  27.150  27.602  1.00  0.00     0.010 A 
ATOM     35  C   UNL A   1      42.724  25.203  28.829  1.00  0.00     0.010 A 
ATOM     36  C   UNL A   1      42.786  26.604  28.689  1.00  0.00    -0.014 A 
BRANCH  36  37
ATOM     37  C   UNL A   1      42.262  27.521  29.731  1.00  0.00     0.031 A 
ATOM     38  C   UNL A   1      42.962  27.595  31.058  1.00  0.00     0.074 A 
ATOM     39  C   UNL A   1      41.232  28.350  29.475  1.00  0.00     0.049 A 
ATOM     40  N   UNL A   1      42.654  28.289  32.124  1.00  0.00    -0.248 NA
ATOM     41  C   UNL A   1      44.185  26.790  31.193  1.00  0.00     0.031 C 
ATOM     42  C   UNL A   1      40.542  28.470  28.193  1.00  0.00     0.029 A 
ATOM     43  N   UNL A   1      40.590  29.252  30.289  1.00  0.00    -0.354 N 
ATOM     44  C   UNL A   1      43.641  28.001  33.059  1.00  0.00     0.074 A 
ATOM     45  C   UNL A   1      44.551  27.063  32.437  1.00  0.00     0.031 C 
ATOM     46  C   UNL A   1      39.557  29.378  28.312  1.00  0.00     0.029 A 
ATOM     47  C   UNL A   1      39.520  29.870  29.689  1.00  0.00     0.049 A 
ATOM     48  H   UNL A   1      40.871  29.438  31.214  1.00  0.00     0.167 HD
ATOM     49  C   UNL A   1      43.771  28.472  34.322  1.00  0.00     0.037 A 
ATOM     50  C   UNL A   1      38.596  30.706  30.203  1.00  0.00     0.037 A 
ATOM     51  C   UNL A   1      42.857  29.393  34.946  1.00  0.00     0.049 A 
ATOM     52  C   UNL A   1      38.688  31.111  31.654  1.00  0.00     0.074 A 
ATOM     53  C   UNL A   1      42.892  29.903  36.232  1.00  0.00     0.029 A 
ATOM     54  N   UNL A   1      41.739  29.936  34.332  1.00  0.00    -0.354 N 
ATOM     55  N   UNL A   1      39.606  30.814  32.541  1.00  0.00    -0.248 NA
ATOM     56  C   UNL A   1      37.611  31.967  32.174  1.00  0.00     0.031 C 
ATOM     57  C   UNL A   1      41.761  30.705  36.416  1.00  0.00     0.029 A 
ATOM     58  C   UNL A   1      41.059  30.750  35.223  1.00  0.00     0.049 A 
ATOM     59  H   UNL A   1      41.468  29.767  33.401  1.00  0.00     0.167 HD
ATOM     60  C   UNL A   1      39.236  31.472  33.710  1.00  0.00     0.074 A 
ATOM     61  C   UNL A   1      38.017  32.194  33.414  1.00  0.00     0.031 C 
ATOM     62  C   UNL A   1      39.853  31.479  34.918  1.00  0.00     0.037 A 
BRANCH  49  63
ATOM     63  C   UNL A   1      44.916  27.944  35.136  1.00  0.00     0.057 A 
ATOM     64  C   UNL A   1      46.162  28.583  35.176  1.00  0.00     0.134 A 
ATOM     65  C   UNL A   1      44.759  26.784  35.907  1.00  0.00     0.134 A 
ATOM     66  F   UNL A   1      46.384  29.688  34.448  1.00  0.00    -0.206 F 
ATOM     67  C   UNL A   1      47.217  28.074  35.936  1.00  0.00     0.040 A 
ATOM     68  C   UNL A   1      45.797  26.282  36.691  1.00  0.00     0.040 A 
ATOM     69  F   UNL A   1      43.590  26.126  35.915  1.00  0.00    -0.206 F 
ATOM     70  C   UNL A   1      47.033  26.923  36.701  1.00  0.00     0.006 A 
ENDBRANCH  49  63
BRANCH  50  71
ATOM     71  C   UNL A   1      37.462  31.182  29.367  1.00  0.00     0.057 A 
ATOM     72  C   UNL A   1      37.432  32.479  28.841  1.00  0.00     0.134 A 
ATOM     73  C   UNL A   1      36.346  30.368  29.129  1.00  0.00     0.134 A 
ATOM     74  F   UNL A   1      38.454  33.320  29.060  1.00  0.00    -0.206 F 
ATOM     75  C   UNL A   1      36.327  32.958  28.134  1.00  0.00     0.040 A 
ATOM     76  C   UNL A   1      35.248  30.823  28.397  1.00  0.00     0.040 A 
ATOM     77  F   UNL A   1      36.303  29.118  29.612  1.00  0.00    -0.206 F 
ATOM     78  C   UNL A   1      35.231  32.127  27.906  1.00  0.00     0.006 A 
ENDBRANCH  50  71
BRANCH  62  79
ATOM     79  C   UNL A   1      39.256  32.335  36.000  1.00  0.00     0.057 A 
ATOM     80  C   UNL A   1      39.626  33.674  36.182  1.00  0.00     0.134 A 
ATOM     81  C   UNL A   1      38.263  31.821  36.844  1.00  0.00     0.134 A 
ATOM     82  F   UNL A   1      40.578  34.228  35.417  1.00  0.00    -0.206 F 
ATOM     83  C   UNL A   1      39.049  34.461  37.182  1.00  0.00     0.040 A 
ATOM     84  C   UNL A   1      37.657  32.607  37.827  1.00  0.00     0.040 A 
ATOM     85  F   UNL A   1      37.852  30.550  36.719  1.00  0.00    -0.206 F 
ATOM     86  C   UNL A   1      38.055  33.930  38.002  1.00  0.00     0.006 A 
ENDBRANCH  62  79
ENDBRANCH  36  37
ENDBRANCH  29  31
ENDBRANCH  28  29
ENDBRANCH  27  28
ENDBRANCH   1  27
TORSDOF 16
ENDMDL
MODEL 2
REMARK VINA RESULT:     -11.0      4.891     10.046
REMARK SMILES CCCc1cc(OC(F)(F)F)cc2c1O[C@@H](C(F)(F)F)C(C(=O)OCCOC(=O)c1ccc(-c3c4nc(c(-c5c(F)cccc5F)c5ccc([nH]5)c(-c5c(F)cccc5F)c5nc(c(-c6c(F)cccc6F)c6ccc3[nH]6)C=C5)C=C4)cc1)=C2
REMARK SMILES IDX 25 1 24 2 22 3 23 4 21 5 4 6 5 7 14 8 6 9 13 10 15 11 12 12
REMARK SMILES IDX 84 13 16 14 3 15 2 16 1 17 7 18 8 19 9 20 10 21 11 22 17 23
REMARK SMILES IDX 18 24 19 25 20 26 26 27 27 28 28 29 29 30 30 31 31 32 83 33
REMARK SMILES IDX 32 34 82 35 33 36 34 37 35 38 76 39 36 40 81 41 75 42 77 43
REMARK SMILES IDX 37 44 80 45 74 46 73 47 38 49 64 50 47 51 63 52 48 53 51 54
REMARK SMILES IDX 62 55 78 56 49 57 50 58 61 60 79 61 52 62 39 63 40 64 45 65
REMARK SMILES IDX 41 66 42 67 44 68 46 69 43 70 65 71 66 72 71 73 67 74 68 75
REMARK SMILES IDX 70 76 72 77 69 78 53 79 54 80 59 81 55 82 56 83 58 84 60 85
REMARK SMILES IDX 57 86
REMARK H PARENT 77 48 51 59
REMARK Flexibility Score: inf
ROOT
ATOM      1  C   UNL A   1      34.271  33.679  30.151  1.00  0.00     0.275 C 
ENDROOT
BRANCH   1   2
ATOM      2  O   UNL A   1      34.439  32.359  29.589  1.00  0.00    -0.459 OA
BRANCH   2   3
ATOM      3  C   UNL A   1      34.755  32.321  28.272  1.00  0.00     0.338 C 
ATOM      4  O   UNL A   1      35.440  33.122  27.664  1.00  0.00    -0.246 OA
BRANCH   3   5
ATOM      5  C   UNL A   1      34.193  31.122  27.626  1.00  0.00     0.087 C 
ATOM      6  C   UNL A   1      33.052  27.672  25.547  1.00  0.00    -0.002 A 
ATOM      7  C   UNL A   1      31.880  27.715  24.764  1.00  0.00     0.054 A 
ATOM      8  C   UNL A   1      33.463  28.854  26.177  1.00  0.00     0.131 A 
ATOM      9  C   UNL A   1      31.139  28.892  24.627  1.00  0.00     0.130 A 
ATOM     10  C   UNL A   1      32.699  30.031  26.098  1.00  0.00     0.021 A 
ATOM     11  O   UNL A   1      34.670  28.846  26.814  1.00  0.00    -0.475 OA
ATOM     12  C   UNL A   1      31.536  30.037  25.324  1.00  0.00     0.058 A 
ATOM     13  C   UNL A   1      33.155  31.242  26.785  1.00  0.00     0.027 C 
ATOM     14  C   UNL A   1      34.839  29.788  27.895  1.00  0.00     0.316 C 
BRANCH   6  15
ATOM     15  C   UNL A   1      33.709  26.322  25.783  1.00  0.00     0.039 C 
BRANCH  15  16
ATOM     16  C   UNL A   1      32.835  25.075  25.967  1.00  0.00     0.001 C 
ATOM     17  C   UNL A   1      33.502  23.758  25.591  1.00  0.00     0.004 C 
ENDBRANCH  15  16
ENDBRANCH   6  15
BRANCH   9  18
ATOM     18  O   UNL A   1      30.011  29.047  23.871  1.00  0.00    -0.406 OA
BRANCH  18  19
ATOM     19  C   UNL A   1      30.159  29.054  22.460  1.00  0.00     0.573 C 
ATOM     20  F   UNL A   1      29.097  29.631  21.855  1.00  0.00    -0.132 F 
ATOM     21  F   UNL A   1      31.289  29.699  22.098  1.00  0.00    -0.132 F 
ATOM     22  F   UNL A   1      30.247  27.779  22.025  1.00  0.00    -0.132 F 
ENDBRANCH  18  19
ENDBRANCH   9  18
BRANCH  14  23
ATOM     23  C   UNL A   1      36.320  29.787  28.319  1.00  0.00     0.430 C 
ATOM     24  F   UNL A   1      36.463  29.942  29.656  1.00  0.00    -0.167 F 
ATOM     25  F   UNL A   1      36.891  28.588  28.032  1.00  0.00    -0.167 F 
ATOM     26  F   UNL A   1      37.046  30.736  27.696  1.00  0.00    -0.167 F 
ENDBRANCH  14  23
ENDBRANCH   3   5
ENDBRANCH   2   3
ENDBRANCH   1   2
BRANCH   1  27
ATOM     27  C   UNL A   1      34.488  33.665  31.667  1.00  0.00     0.275 C 
BRANCH  27  28
ATOM     28  O   UNL A   1      35.876  33.875  32.004  1.00  0.00    -0.458 OA
BRANCH  28  29
ATOM     29  C   UNL A   1      36.467  32.839  32.647  1.00  0.00     0.338 C 
ATOM     30  O   UNL A   1      36.098  32.314  33.686  1.00  0.00    -0.246 OA
BRANCH  29  31
ATOM     31  C   UNL A   1      37.532  32.254  31.811  1.00  0.00     0.060 A 
ATOM     32  C   UNL A   1      38.292  31.246  32.407  1.00  0.00     0.016 A 
ATOM     33  C   UNL A   1      37.842  32.686  30.522  1.00  0.00     0.016 A 
ATOM     34  C   UNL A   1      39.297  30.592  31.700  1.00  0.00     0.010 A 
ATOM     35  C   UNL A   1      38.907  32.079  29.832  1.00  0.00     0.010 A 
ATOM     36  C   UNL A   1      39.628  31.018  30.412  1.00  0.00    -0.014 A 
BRANCH  36  37
ATOM     37  C   UNL A   1      40.819  30.426  29.753  1.00  0.00     0.031 A 
ATOM     38  C   UNL A   1      42.049  31.269  29.573  1.00  0.00     0.074 A 
ATOM     39  C   UNL A   1      40.846  29.127  29.401  1.00  0.00     0.049 A 
ATOM     40  N   UNL A   1      43.182  30.975  28.987  1.00  0.00    -0.248 NA
ATOM     41  C   UNL A   1      41.998  32.622  30.147  1.00  0.00     0.031 C 
ATOM     42  C   UNL A   1      39.769  28.166  29.631  1.00  0.00     0.029 A 
ATOM     43  N   UNL A   1      41.825  28.393  28.774  1.00  0.00    -0.354 N 
ATOM     44  C   UNL A   1      43.978  32.106  29.117  1.00  0.00     0.074 A 
ATOM     45  C   UNL A   1      43.195  33.094  29.829  1.00  0.00     0.031 C 
ATOM     46  C   UNL A   1      40.138  26.973  29.132  1.00  0.00     0.029 A 
ATOM     47  C   UNL A   1      41.455  27.097  28.510  1.00  0.00     0.049 A 
ATOM     48  H   UNL A   1      42.707  28.762  28.538  1.00  0.00     0.167 HD
ATOM     49  C   UNL A   1      45.243  32.304  28.678  1.00  0.00     0.037 A 
ATOM     50  C   UNL A   1      42.092  26.134  27.813  1.00  0.00     0.037 A 
ATOM     51  C   UNL A   1      46.017  31.326  27.957  1.00  0.00     0.049 A 
ATOM     52  C   UNL A   1      43.448  26.424  27.218  1.00  0.00     0.074 A 
ATOM     53  C   UNL A   1      47.298  31.447  27.446  1.00  0.00     0.029 A 
ATOM     54  N   UNL A   1      45.578  30.050  27.638  1.00  0.00    -0.354 N 
ATOM     55  N   UNL A   1      44.185  27.504  27.318  1.00  0.00    -0.248 NA
ATOM     56  C   UNL A   1      44.060  25.359  26.408  1.00  0.00     0.031 C 
ATOM     57  C   UNL A   1      47.610  30.266  26.763  1.00  0.00     0.029 A 
ATOM     58  C   UNL A   1      46.551  29.385  26.909  1.00  0.00     0.049 A 
ATOM     59  H   UNL A   1      44.705  29.673  27.890  1.00  0.00     0.167 HD
ATOM     60  C   UNL A   1      45.356  27.236  26.617  1.00  0.00     0.074 A 
ATOM     61  C   UNL A   1      45.237  25.887  26.106  1.00  0.00     0.031 C 
ATOM     62  C   UNL A   1      46.433  28.035  26.416  1.00  0.00     0.037 A 
BRANCH  49  63
ATOM     63  C   UNL A   1      45.847  33.657  28.911  1.00  0.00     0.057 A 
ATOM     64  C   UNL A   1      46.625  33.944  30.041  1.00  0.00     0.134 A 
ATOM     65  C   UNL A   1      45.660  34.685  27.977  1.00  0.00     0.134 A 
ATOM     66  F   UNL A   1      46.829  33.010  30.982  1.00  0.00    -0.206 F 
ATOM     67  C   UNL A   1      47.175  35.212  30.243  1.00  0.00     0.040 A 
ATOM     68  C   UNL A   1      46.227  35.946  28.155  1.00  0.00     0.040 A 
ATOM     69  F   UNL A   1      44.929  34.475  26.872  1.00  0.00    -0.206 F 
ATOM     70  C   UNL A   1      46.981  36.215  29.295  1.00  0.00     0.006 A 
ENDBRANCH  49  63
BRANCH  50  71
ATOM     71  C   UNL A   1      41.444  24.816  27.582  1.00  0.00     0.057 A 
ATOM     72  C   UNL A   1      40.412  24.660  26.650  1.00  0.00     0.134 A 
ATOM     73  C   UNL A   1      41.800  23.691  28.338  1.00  0.00     0.134 A 
ATOM     74  F   UNL A   1      40.000  25.705  25.917  1.00  0.00    -0.206 F 
ATOM     75  C   UNL A   1      39.740  23.445  26.496  1.00  0.00     0.040 A 
ATOM     76  C   UNL A   1      41.159  22.463  28.173  1.00  0.00     0.040 A 
ATOM     77  F   UNL A   1      42.774  23.772  29.256  1.00  0.00    -0.206 F 
ATOM     78  C   UNL A   1      40.116  22.339  27.257  1.00  0.00     0.006 A 
ENDBRANCH  50  71
BRANCH  62  79
ATOM     79  C   UNL A   1      47.597  27.458  25.659  1.00  0.00     0.057 A 
ATOM     80  C   UNL A   1      48.657  26.805  26.302  1.00  0.00     0.134 A 
ATOM     81  C   UNL A   1      47.634  27.521  24.259  1.00  0.00     0.134 A 
ATOM     82  F   UNL A   1      48.691  26.719  27.640  1.00  0.00    -0.206 F 
ATOM     83  C   UNL A   1      49.722  26.260  25.582  1.00  0.00     0.040 A 
ATOM     84  C   UNL A   1      48.678  26.952  23.527  1.00  0.00     0.040 A 
ATOM     85  F   UNL A   1      46.647  28.121  23.577  1.00  0.00    -0.206 F 
ATOM     86  C   UNL A   1      49.730  26.325  24.190  1.00  0.00     0.006 A 
ENDBRANCH  62  79
ENDBRANCH  36  37
ENDBRANCH  29  31
ENDBRANCH  28  29
ENDBRANCH  27  28
ENDBRANCH   1  27
TORSDOF 16
ENDMDL
MODEL 3
REMARK VINA RESULT:     -10.9      3.967      8.926
REMARK SMILES CCCc1cc(OC(F)(F)F)cc2c1O[C@@H](C(F)(F)F)C(C(=O)OCCOC(=O)c1ccc(-c3c4nc(c(-c5c(F)cccc5F)c5ccc([nH]5)c(-c5c(F)cccc5F)c5nc(c(-c6c(F)cccc6F)c6ccc3[nH]6)C=C5)C=C4)cc1)=C2
REMARK SMILES IDX 25 1 24 2 22 3 23 4 21 5 4 6 5 7 14 8 6 9 13 10 15 11 12 12
REMARK SMILES IDX 84 13 16 14 3 15 2 16 1 17 7 18 8 19 9 20 10 21 11 22 17 23
REMARK SMILES IDX 18 24 19 25 20 26 26 27 27 28 28 29 29 30 30 31 31 32 83 33
REMARK SMILES IDX 32 34 82 35 33 36 34 37 35 38 76 39 36 40 81 41 75 42 77 43
REMARK SMILES IDX 37 44 80 45 74 46 73 47 38 49 64 50 47 51 63 52 48 53 51 54
REMARK SMILES IDX 62 55 78 56 49 57 50 58 61 60 79 61 52 62 39 63 40 64 45 65
REMARK SMILES IDX 41 66 42 67 44 68 46 69 43 70 65 71 66 72 71 73 67 74 68 75
REMARK SMILES IDX 70 76 72 77 69 78 53 79 54 80 59 81 55 82 56 83 58 84 60 85
REMARK SMILES IDX 57 86
REMARK H PARENT 77 48 51 59
REMARK Flexibility Score: inf
ROOT
ATOM      1  C   UNL A   1      32.734  29.520  25.572  1.00  0.00     0.275 C 
ENDROOT
BRANCH   1   2
ATOM      2  O   UNL A   1      31.527  28.738  25.695  1.00  0.00    -0.459 OA
BRANCH   2   3
ATOM      3  C   UNL A   1      31.648  27.585  26.398  1.00  0.00     0.338 C 
ATOM      4  O   UNL A   1      31.249  27.377  27.529  1.00  0.00    -0.246 OA
BRANCH   3   5
ATOM      5  C   UNL A   1      32.305  26.540  25.594  1.00  0.00     0.087 C 
ATOM      6  C   UNL A   1      33.793  23.253  23.470  1.00  0.00    -0.002 A 
ATOM      7  C   UNL A   1      35.127  22.858  23.691  1.00  0.00     0.054 A 
ATOM      8  C   UNL A   1      33.285  24.307  24.241  1.00  0.00     0.131 A 
ATOM      9  C   UNL A   1      35.930  23.499  24.640  1.00  0.00     0.130 A 
ATOM     10  C   UNL A   1      34.094  25.001  25.157  1.00  0.00     0.021 A 
ATOM     11  O   UNL A   1      31.955  24.593  24.127  1.00  0.00    -0.475 OA
ATOM     12  C   UNL A   1      35.417  24.592  25.345  1.00  0.00     0.058 A 
ATOM     13  C   UNL A   1      33.530  26.108  25.933  1.00  0.00     0.027 C 
ATOM     14  C   UNL A   1      31.554  25.947  24.431  1.00  0.00     0.316 C 
BRANCH   6  15
ATOM     15  C   UNL A   1      33.040  22.622  22.311  1.00  0.00     0.039 C 
BRANCH  15  16
ATOM     16  C   UNL A   1      31.977  21.551  22.590  1.00  0.00     0.001 C 
ATOM     17  C   UNL A   1      32.437  20.400  23.474  1.00  0.00     0.004 C 
ENDBRANCH  15  16
ENDBRANCH   6  15
BRANCH   9  18
ATOM     18  O   UNL A   1      37.220  23.174  24.951  1.00  0.00    -0.406 OA
BRANCH  18  19
ATOM     19  C   UNL A   1      37.485  21.840  25.353  1.00  0.00     0.573 C 
ATOM     20  F   UNL A   1      36.474  21.337  26.093  1.00  0.00    -0.132 F 
ATOM     21  F   UNL A   1      37.697  21.047  24.281  1.00  0.00    -0.132 F 
ATOM     22  F   UNL A   1      38.604  21.827  26.110  1.00  0.00    -0.132 F 
ENDBRANCH  18  19
ENDBRANCH   9  18
BRANCH  14  23
ATOM     23  C   UNL A   1      30.015  26.004  24.473  1.00  0.00     0.430 C 
ATOM     24  F   UNL A   1      29.548  27.238  24.174  1.00  0.00    -0.167 F 
ATOM     25  F   UNL A   1      29.487  25.180  23.531  1.00  0.00    -0.167 F 
ATOM     26  F   UNL A   1      29.508  25.628  25.664  1.00  0.00    -0.167 F 
ENDBRANCH  14  23
ENDBRANCH   3   5
ENDBRANCH   2   3
ENDBRANCH   1   2
BRANCH   1  27
ATOM     27  C   UNL A   1      33.035  30.276  26.869  1.00  0.00     0.275 C 
BRANCH  27  28
ATOM     28  O   UNL A   1      34.262  29.817  27.476  1.00  0.00    -0.458 OA
BRANCH  28  29
ATOM     29  C   UNL A   1      34.834  30.694  28.336  1.00  0.00     0.338 C 
ATOM     30  O   UNL A   1      34.284  31.621  28.912  1.00  0.00    -0.246 OA
BRANCH  29  31
ATOM     31  C   UNL A   1      36.203  30.265  28.676  1.00  0.00     0.060 A 
ATOM     32  C   UNL A   1      37.152  30.389  27.661  1.00  0.00     0.016 A 
ATOM     33  C   UNL A   1      36.566  29.705  29.901  1.00  0.00     0.016 A 
ATOM     34  C   UNL A   1      38.485  30.054  27.879  1.00  0.00     0.010 A 
ATOM     35  C   UNL A   1      37.896  29.295  30.100  1.00  0.00     0.010 A 
ATOM     36  C   UNL A   1      38.866  29.483  29.096  1.00  0.00    -0.014 A 
BRANCH  36  37
ATOM     37  C   UNL A   1      40.251  28.970  29.236  1.00  0.00     0.031 A 
ATOM     38  C   UNL A   1      41.291  29.843  29.878  1.00  0.00     0.074 A 
ATOM     39  C   UNL A   1      40.565  27.709  28.885  1.00  0.00     0.049 A 
ATOM     40  N   UNL A   1      42.567  29.619  30.063  1.00  0.00    -0.248 NA
ATOM     41  C   UNL A   1      40.823  31.137  30.397  1.00  0.00     0.031 C 
ATOM     42  C   UNL A   1      39.626  26.716  28.368  1.00  0.00     0.029 A 
ATOM     43  N   UNL A   1      41.770  27.049  28.917  1.00  0.00    -0.354 N 
ATOM     44  C   UNL A   1      43.057  30.744  30.714  1.00  0.00     0.074 A 
ATOM     45  C   UNL A   1      41.943  31.653  30.883  1.00  0.00     0.031 C 
ATOM     46  C   UNL A   1      40.295  25.579  28.109  1.00  0.00     0.029 A 
ATOM     47  C   UNL A   1      41.714  25.777  28.402  1.00  0.00     0.049 A 
ATOM     48  H   UNL A   1      42.595  27.449  29.276  1.00  0.00     0.167 HD
ATOM     49  C   UNL A   1      44.321  30.998  31.127  1.00  0.00     0.037 A 
ATOM     50  C   UNL A   1      42.701  24.891  28.159  1.00  0.00     0.037 A 
ATOM     51  C   UNL A   1      45.433  30.101  30.945  1.00  0.00     0.049 A 
ATOM     52  C   UNL A   1      44.124  25.252  28.506  1.00  0.00     0.074 A 
ATOM     53  C   UNL A   1      46.757  30.286  31.305  1.00  0.00     0.029 A 
ATOM     54  N   UNL A   1      45.352  28.854  30.346  1.00  0.00    -0.354 N 
ATOM     55  N   UNL A   1      44.587  26.328  29.095  1.00  0.00    -0.248 NA
ATOM     56  C   UNL A   1      45.164  24.274  28.152  1.00  0.00     0.031 C 
ATOM     57  C   UNL A   1      47.488  29.177  30.866  1.00  0.00     0.029 A 
ATOM     58  C   UNL A   1      46.609  28.271  30.297  1.00  0.00     0.049 A 
ATOM     59  H   UNL A   1      44.526  28.443  30.004  1.00  0.00     0.167 HD
ATOM     60  C   UNL A   1      45.960  26.142  29.212  1.00  0.00     0.074 A 
ATOM     61  C   UNL A   1      46.254  24.843  28.644  1.00  0.00     0.031 C 
ATOM     62  C   UNL A   1      46.893  26.970  29.743  1.00  0.00     0.037 A 
BRANCH  49  63
ATOM     63  C   UNL A   1      44.581  32.333  31.761  1.00  0.00     0.057 A 
ATOM     64  C   UNL A   1      44.516  32.527  33.147  1.00  0.00     0.134 A 
ATOM     65  C   UNL A   1      44.920  33.438  30.969  1.00  0.00     0.134 A 
ATOM     66  F   UNL A   1      44.180  31.516  33.961  1.00  0.00    -0.206 F 
ATOM     67  C   UNL A   1      44.756  33.779  33.719  1.00  0.00     0.040 A 
ATOM     68  C   UNL A   1      45.188  34.686  31.531  1.00  0.00     0.040 A 
ATOM     69  F   UNL A   1      45.002  33.319  29.635  1.00  0.00    -0.206 F 
ATOM     70  C   UNL A   1      45.099  34.861  32.909  1.00  0.00     0.006 A 
ENDBRANCH  49  63
BRANCH  50  71
ATOM     71  C   UNL A   1      42.402  23.590  27.502  1.00  0.00     0.057 A 
ATOM     72  C   UNL A   1      42.077  22.450  28.246  1.00  0.00     0.134 A 
ATOM     73  C   UNL A   1      42.499  23.442  26.112  1.00  0.00     0.134 A 
ATOM     74  F   UNL A   1      42.001  22.516  29.583  1.00  0.00    -0.206 F 
ATOM     75  C   UNL A   1      41.887  21.207  27.637  1.00  0.00     0.040 A 
ATOM     76  C   UNL A   1      42.280  22.213  25.487  1.00  0.00     0.040 A 
ATOM     77  F   UNL A   1      42.816  24.491  25.339  1.00  0.00    -0.206 F 
ATOM     78  C   UNL A   1      41.984  21.087  26.252  1.00  0.00     0.006 A 
ENDBRANCH  50  71
BRANCH  62  79
ATOM     79  C   UNL A   1      48.314  26.481  29.790  1.00  0.00     0.057 A 
ATOM     80  C   UNL A   1      48.827  25.782  30.891  1.00  0.00     0.134 A 
ATOM     81  C   UNL A   1      49.168  26.677  28.697  1.00  0.00     0.134 A 
ATOM     82  F   UNL A   1      48.068  25.569  31.976  1.00  0.00    -0.206 F 
ATOM     83  C   UNL A   1      50.145  25.319  30.911  1.00  0.00     0.040 A 
ATOM     84  C   UNL A   1      50.477  26.191  28.694  1.00  0.00     0.040 A 
ATOM     85  F   UNL A   1      48.740  27.329  27.605  1.00  0.00    -0.206 F 
ATOM     86  C   UNL A   1      50.971  25.516  29.807  1.00  0.00     0.006 A 
ENDBRANCH  62  79
ENDBRANCH  36  37
ENDBRANCH  29  31
ENDBRANCH  28  29
ENDBRANCH  27  28
ENDBRANCH   1  27
TORSDOF 16
ENDMDL
