MODEL 1
REMARK VINA RESULT:     -11.4      0.000      0.000
REMARK SMILES CC(C)(C)OC(=O)N[C@@H](Cc1c[nH]c2cccc(Cl)c12)C(=O)OCCOC(=O)c1ccc(-c2c3nc(c(-c4c(F)cccc4F)c4ccc([nH]4)c(-c4c(F)cccc4F)c4nc(c(-c5c(F)cccc5F)c5ccc2[nH]5)C=C4)C=C3)cc1
REMARK SMILES IDX 24 1 23 2 21 3 22 4 9 5 8 6 6 7 7 8 5 10 2 11 1 12 3 13 4 14
REMARK SMILES IDX 10 15 11 16 12 17 20 18 13 19 14 20 18 21 15 23 17 24 19 25
REMARK SMILES IDX 16 26 25 27 26 28 27 29 28 30 29 31 30 32 82 33 31 34 81 35
REMARK SMILES IDX 32 36 33 37 34 38 75 39 35 40 80 41 74 42 76 43 36 44 79 45
REMARK SMILES IDX 73 46 72 47 37 49 63 50 46 51 62 52 47 53 50 54 61 55 77 56
REMARK SMILES IDX 48 57 49 58 60 60 78 61 51 62 38 63 39 64 44 65 40 66 41 67
REMARK SMILES IDX 43 68 45 69 42 70 64 71 65 72 70 73 66 74 67 75 69 76 71 77
REMARK SMILES IDX 68 78 52 79 53 80 58 81 54 82 55 83 57 84 59 85 56 86
REMARK H PARENT 8 9 13 22 76 48 50 59
REMARK Flexibility Score: inf
ROOT
ATOM      1  C   UNL A   1      37.182  21.873  24.202  1.00  0.00     0.274 C 
ENDROOT
BRANCH   1   2
ATOM      2  O   UNL A   1      36.266  22.888  24.664  1.00  0.00    -0.461 OA
BRANCH   2   3
ATOM      3  C   UNL A   1      35.285  23.297  23.799  1.00  0.00     0.329 C 
ATOM      4  O   UNL A   1      35.379  23.270  22.577  1.00  0.00    -0.250 OA
BRANCH   3   5
ATOM      5  C   UNL A   1      34.096  23.931  24.539  1.00  0.00     0.200 C 
BRANCH   5   6
ATOM      6  N   UNL A   1      33.782  23.239  25.797  1.00  0.00    -0.308 N 
ATOM      7  C   UNL A   1      32.814  23.517  26.716  1.00  0.00     0.408 C 
ATOM      8  O   UNL A   1      32.716  22.853  27.740  1.00  0.00    -0.225 OA
ATOM      9  H   UNL A   1      34.353  22.464  26.006  1.00  0.00     0.168 HD
BRANCH   7  10
ATOM     10  O   UNL A   1      32.023  24.571  26.389  1.00  0.00    -0.444 OA
BRANCH  10  11
ATOM     11  C   UNL A   1      30.646  24.359  25.951  1.00  0.00     0.106 C 
ATOM     12  C   UNL A   1      30.758  23.795  24.524  1.00  0.00     0.056 C 
ATOM     13  C   UNL A   1      29.886  25.689  25.888  1.00  0.00     0.056 C 
ATOM     14  C   UNL A   1      29.883  23.343  26.814  1.00  0.00     0.056 C 
ENDBRANCH  10  11
ENDBRANCH   7  10
ENDBRANCH   5   6
BRANCH   5  15
ATOM     15  C   UNL A   1      34.419  25.427  24.774  1.00  0.00     0.075 C 
BRANCH  15  16
ATOM     16  C   UNL A   1      33.614  26.363  23.897  1.00  0.00    -0.018 A 
ATOM     17  C   UNL A   1      33.403  26.155  22.545  1.00  0.00     0.087 A 
ATOM     18  C   UNL A   1      32.823  27.520  24.271  1.00  0.00     0.021 A 
ATOM     19  N   UNL A   1      32.477  27.054  22.106  1.00  0.00    -0.361 N 
ATOM     20  C   UNL A   1      32.066  27.860  23.139  1.00  0.00     0.047 A 
ATOM     21  C   UNL A   1      32.568  28.282  25.439  1.00  0.00     0.050 A 
ATOM     22  H   UNL A   1      32.150  27.117  21.179  1.00  0.00     0.166 HD
ATOM     23  C   UNL A   1      31.070  28.850  23.148  1.00  0.00     0.027 A 
ATOM     24  C   UNL A   1      31.571  29.261  25.478  1.00  0.00     0.021 A 
ATOM     25  Cl  UNL A   1      33.519  27.992  26.828  1.00  0.00    -0.084 Cl
ATOM     26  C   UNL A   1      30.821  29.532  24.341  1.00  0.00     0.004 A 
ENDBRANCH  15  16
ENDBRANCH   5  15
ENDBRANCH   3   5
ENDBRANCH   2   3
ENDBRANCH   1   2
BRANCH   1  27
ATOM     27  C   UNL A   1      37.663  20.990  25.346  1.00  0.00     0.275 C 
BRANCH  27  28
ATOM     28  O   UNL A   1      38.940  21.437  25.787  1.00  0.00    -0.458 OA
BRANCH  28  29
ATOM     29  C   UNL A   1      39.843  20.436  25.843  1.00  0.00     0.338 C 
ATOM     30  O   UNL A   1      39.692  19.265  25.534  1.00  0.00    -0.246 OA
BRANCH  29  31
ATOM     31  C   UNL A   1      41.077  20.921  26.437  1.00  0.00     0.060 A 
ATOM     32  C   UNL A   1      41.180  20.804  27.826  1.00  0.00     0.016 A 
ATOM     33  C   UNL A   1      41.753  21.890  25.696  1.00  0.00     0.016 A 
ATOM     34  C   UNL A   1      41.744  21.849  28.512  1.00  0.00     0.010 A 
ATOM     35  C   UNL A   1      42.274  22.952  26.385  1.00  0.00     0.010 A 
ATOM     36  C   UNL A   1      42.150  22.959  27.775  1.00  0.00    -0.014 A 
BRANCH  36  37
ATOM     37  C   UNL A   1      42.390  24.186  28.497  1.00  0.00     0.031 A 
ATOM     38  C   UNL A   1      41.381  25.233  28.246  1.00  0.00     0.074 A 
ATOM     39  C   UNL A   1      43.379  24.246  29.408  1.00  0.00     0.049 A 
ATOM     40  N   UNL A   1      41.554  26.437  27.813  1.00  0.00    -0.248 NA
ATOM     41  C   UNL A   1      39.971  24.826  28.368  1.00  0.00     0.031 C 
ATOM     42  C   UNL A   1      44.233  23.154  29.897  1.00  0.00     0.029 A 
ATOM     43  N   UNL A   1      43.746  25.291  30.191  1.00  0.00    -0.354 N 
ATOM     44  C   UNL A   1      40.280  26.997  27.778  1.00  0.00     0.074 A 
ATOM     45  C   UNL A   1      39.342  25.922  27.953  1.00  0.00     0.031 C 
ATOM     46  C   UNL A   1      44.837  23.544  31.042  1.00  0.00     0.029 A 
ATOM     47  C   UNL A   1      44.501  24.934  31.296  1.00  0.00     0.049 A 
ATOM     48  H   UNL A   1      43.496  26.222  29.992  1.00  0.00     0.167 HD
ATOM     49  C   UNL A   1      40.081  28.338  27.855  1.00  0.00     0.037 A 
ATOM     50  C   UNL A   1      44.724  25.712  32.382  1.00  0.00     0.037 A 
ATOM     51  C   UNL A   1      41.261  29.078  27.510  1.00  0.00     0.049 A 
ATOM     52  C   UNL A   1      44.388  27.111  32.009  1.00  0.00     0.074 A 
ATOM     53  C   UNL A   1      42.016  29.219  26.361  1.00  0.00     0.029 A 
ATOM     54  N   UNL A   1      42.039  29.562  28.532  1.00  0.00    -0.354 N 
ATOM     55  N   UNL A   1      45.075  27.824  31.159  1.00  0.00    -0.248 NA
ATOM     56  C   UNL A   1      43.021  27.562  32.232  1.00  0.00     0.031 C 
ATOM     57  C   UNL A   1      43.362  29.357  26.811  1.00  0.00     0.029 A 
ATOM     58  C   UNL A   1      43.348  29.312  28.207  1.00  0.00     0.049 A 
ATOM     59  H   UNL A   1      41.717  30.007  29.349  1.00  0.00     0.167 HD
ATOM     60  C   UNL A   1      44.130  28.555  30.451  1.00  0.00     0.074 A 
ATOM     61  C   UNL A   1      42.893  28.420  31.215  1.00  0.00     0.031 C 
ATOM     62  C   UNL A   1      44.367  28.962  29.168  1.00  0.00     0.037 A 
BRANCH  49  63
ATOM     63  C   UNL A   1      38.908  28.945  28.572  1.00  0.00     0.057 A 
ATOM     64  C   UNL A   1      37.830  29.584  27.919  1.00  0.00     0.134 A 
ATOM     65  C   UNL A   1      38.704  28.663  29.930  1.00  0.00     0.134 A 
ATOM     66  F   UNL A   1      37.823  29.812  26.599  1.00  0.00    -0.206 F 
ATOM     67  C   UNL A   1      36.647  29.934  28.572  1.00  0.00     0.040 A 
ATOM     68  C   UNL A   1      37.499  28.955  30.580  1.00  0.00     0.040 A 
ATOM     69  F   UNL A   1      39.644  28.031  30.649  1.00  0.00    -0.206 F 
ATOM     70  C   UNL A   1      36.467  29.592  29.901  1.00  0.00     0.006 A 
ENDBRANCH  49  63
BRANCH  50  71
ATOM     71  C   UNL A   1      44.878  25.267  33.786  1.00  0.00     0.057 A 
ATOM     72  C   UNL A   1      43.920  24.443  34.406  1.00  0.00     0.134 A 
ATOM     73  C   UNL A   1      45.844  25.828  34.630  1.00  0.00     0.134 A 
ATOM     74  F   UNL A   1      42.892  23.931  33.713  1.00  0.00    -0.206 F 
ATOM     75  C   UNL A   1      43.931  24.177  35.778  1.00  0.00     0.040 A 
ATOM     76  C   UNL A   1      45.861  25.579  36.009  1.00  0.00     0.040 A 
ATOM     77  F   UNL A   1      46.766  26.669  34.141  1.00  0.00    -0.206 F 
ATOM     78  C   UNL A   1      44.899  24.754  36.588  1.00  0.00     0.006 A 
ENDBRANCH  50  71
BRANCH  62  79
ATOM     79  C   UNL A   1      45.760  28.763  28.637  1.00  0.00     0.057 A 
ATOM     80  C   UNL A   1      46.667  29.827  28.658  1.00  0.00     0.134 A 
ATOM     81  C   UNL A   1      46.170  27.594  27.980  1.00  0.00     0.134 A 
ATOM     82  F   UNL A   1      46.319  31.001  29.207  1.00  0.00    -0.206 F 
ATOM     83  C   UNL A   1      47.931  29.725  28.070  1.00  0.00     0.040 A 
ATOM     84  C   UNL A   1      47.443  27.465  27.417  1.00  0.00     0.040 A 
ATOM     85  F   UNL A   1      45.328  26.568  27.811  1.00  0.00    -0.206 F 
ATOM     86  C   UNL A   1      48.328  28.537  27.458  1.00  0.00     0.006 A 
ENDBRANCH  62  79
ENDBRANCH  36  37
ENDBRANCH  29  31
ENDBRANCH  28  29
ENDBRANCH  27  28
ENDBRANCH   1  27
TORSDOF 16
ENDMDL
MODEL 2
REMARK VINA RESULT:     -11.2      1.658      2.531
REMARK SMILES CC(C)(C)OC(=O)N[C@@H](Cc1c[nH]c2cccc(Cl)c12)C(=O)OCCOC(=O)c1ccc(-c2c3nc(c(-c4c(F)cccc4F)c4ccc([nH]4)c(-c4c(F)cccc4F)c4nc(c(-c5c(F)cccc5F)c5ccc2[nH]5)C=C4)C=C3)cc1
REMARK SMILES IDX 24 1 23 2 21 3 22 4 9 5 8 6 6 7 7 8 5 10 2 11 1 12 3 13 4 14
REMARK SMILES IDX 10 15 11 16 12 17 20 18 13 19 14 20 18 21 15 23 17 24 19 25
REMARK SMILES IDX 16 26 25 27 26 28 27 29 28 30 29 31 30 32 82 33 31 34 81 35
REMARK SMILES IDX 32 36 33 37 34 38 75 39 35 40 80 41 74 42 76 43 36 44 79 45
REMARK SMILES IDX 73 46 72 47 37 49 63 50 46 51 62 52 47 53 50 54 61 55 77 56
REMARK SMILES IDX 48 57 49 58 60 60 78 61 51 62 38 63 39 64 44 65 40 66 41 67
REMARK SMILES IDX 43 68 45 69 42 70 64 71 65 72 70 73 66 74 67 75 69 76 71 77
REMARK SMILES IDX 68 78 52 79 53 80 58 81 54 82 55 83 57 84 59 85 56 86
REMARK H PARENT 8 9 13 22 76 48 50 59
REMARK Flexibility Score: inf
ROOT
ATOM      1  C   UNL A   1      37.076  22.527  24.237  1.00  0.00     0.274 C 
ENDROOT
BRANCH   1   2
ATOM      2  O   UNL A   1      35.703  22.877  24.509  1.00  0.00    -0.461 OA
BRANCH   2   3
ATOM      3  C   UNL A   1      34.829  22.884  23.454  1.00  0.00     0.329 C 
ATOM      4  O   UNL A   1      35.059  23.397  22.364  1.00  0.00    -0.250 OA
BRANCH   3   5
ATOM      5  C   UNL A   1      33.463  22.294  23.835  1.00  0.00     0.200 C 
BRANCH   5   6
ATOM      6  N   UNL A   1      33.399  21.887  25.246  1.00  0.00    -0.308 N 
ATOM      7  C   UNL A   1      33.740  20.697  25.818  1.00  0.00     0.408 C 
ATOM      8  O   UNL A   1      33.586  20.514  27.019  1.00  0.00    -0.225 OA
ATOM      9  H   UNL A   1      33.059  22.572  25.868  1.00  0.00     0.168 HD
BRANCH   7  10
ATOM     10  O   UNL A   1      34.233  19.782  24.945  1.00  0.00    -0.444 OA
BRANCH  10  11
ATOM     11  C   UNL A   1      33.450  18.604  24.580  1.00  0.00     0.106 C 
ATOM     12  C   UNL A   1      34.477  17.575  24.077  1.00  0.00     0.056 C 
ATOM     13  C   UNL A   1      32.486  18.927  23.433  1.00  0.00     0.056 C 
ATOM     14  C   UNL A   1      32.690  17.989  25.765  1.00  0.00     0.056 C 
ENDBRANCH  10  11
ENDBRANCH   7  10
ENDBRANCH   5   6
BRANCH   5  15
ATOM     15  C   UNL A   1      32.374  23.341  23.493  1.00  0.00     0.075 C 
BRANCH  15  16
ATOM     16  C   UNL A   1      32.580  24.672  24.184  1.00  0.00    -0.018 A 
ATOM     17  C   UNL A   1      32.550  24.836  25.558  1.00  0.00     0.087 A 
ATOM     18  C   UNL A   1      32.970  25.951  23.620  1.00  0.00     0.021 A 
ATOM     19  N   UNL A   1      32.975  26.097  25.857  1.00  0.00    -0.361 N 
ATOM     20  C   UNL A   1      33.289  26.779  24.707  1.00  0.00     0.047 A 
ATOM     21  C   UNL A   1      33.185  26.506  22.334  1.00  0.00     0.050 A 
ATOM     22  H   UNL A   1      33.047  26.465  26.767  1.00  0.00     0.166 HD
ATOM     23  C   UNL A   1      33.842  28.062  24.561  1.00  0.00     0.027 A 
ATOM     24  C   UNL A   1      33.752  27.773  22.162  1.00  0.00     0.021 A 
ATOM     25  Cl  UNL A   1      32.730  25.594  20.963  1.00  0.00    -0.084 Cl
ATOM     26  C   UNL A   1      34.087  28.538  23.272  1.00  0.00     0.004 A 
ENDBRANCH  15  16
ENDBRANCH   5  15
ENDBRANCH   3   5
ENDBRANCH   2   3
ENDBRANCH   1   2
BRANCH   1  27
ATOM     27  C   UNL A   1      37.494  21.272  24.991  1.00  0.00     0.275 C 
BRANCH  27  28
ATOM     28  O   UNL A   1      38.654  21.549  25.769  1.00  0.00    -0.458 OA
BRANCH  28  29
ATOM     29  C   UNL A   1      39.537  20.530  25.753  1.00  0.00     0.338 C 
ATOM     30  O   UNL A   1      39.358  19.381  25.381  1.00  0.00    -0.246 OA
BRANCH  29  31
ATOM     31  C   UNL A   1      40.791  20.956  26.352  1.00  0.00     0.060 A 
ATOM     32  C   UNL A   1      40.883  20.832  27.741  1.00  0.00     0.016 A 
ATOM     33  C   UNL A   1      41.512  21.897  25.615  1.00  0.00     0.016 A 
ATOM     34  C   UNL A   1      41.492  21.849  28.431  1.00  0.00     0.010 A 
ATOM     35  C   UNL A   1      42.077  22.932  26.308  1.00  0.00     0.010 A 
ATOM     36  C   UNL A   1      41.949  22.942  27.698  1.00  0.00    -0.014 A 
BRANCH  36  37
ATOM     37  C   UNL A   1      42.242  24.154  28.424  1.00  0.00     0.031 A 
ATOM     38  C   UNL A   1      41.249  25.227  28.219  1.00  0.00     0.074 A 
ATOM     39  C   UNL A   1      43.264  24.182  29.301  1.00  0.00     0.049 A 
ATOM     40  N   UNL A   1      41.435  26.431  27.792  1.00  0.00    -0.248 NA
ATOM     41  C   UNL A   1      39.836  24.851  28.386  1.00  0.00     0.031 C 
ATOM     42  C   UNL A   1      44.109  23.066  29.748  1.00  0.00     0.029 A 
ATOM     43  N   UNL A   1      43.681  25.210  30.081  1.00  0.00    -0.354 N 
ATOM     44  C   UNL A   1      40.174  27.021  27.808  1.00  0.00     0.074 A 
ATOM     45  C   UNL A   1      39.218  25.964  28.004  1.00  0.00     0.031 C 
ATOM     46  C   UNL A   1      44.760  23.430  30.876  1.00  0.00     0.029 A 
ATOM     47  C   UNL A   1      44.465  24.824  31.156  1.00  0.00     0.049 A 
ATOM     48  H   UNL A   1      43.446  26.148  29.900  1.00  0.00     0.167 HD
ATOM     49  C   UNL A   1      40.008  28.364  27.906  1.00  0.00     0.037 A 
ATOM     50  C   UNL A   1      44.744  25.584  32.241  1.00  0.00     0.037 A 
ATOM     51  C   UNL A   1      41.193  29.081  27.527  1.00  0.00     0.049 A 
ATOM     52  C   UNL A   1      44.427  26.994  31.894  1.00  0.00     0.074 A 
ATOM     53  C   UNL A   1      41.910  29.218  26.355  1.00  0.00     0.029 A 
ATOM     54  N   UNL A   1      42.016  29.536  28.526  1.00  0.00    -0.354 N 
ATOM     55  N   UNL A   1      45.101  27.701  31.028  1.00  0.00    -0.248 NA
ATOM     56  C   UNL A   1      43.079  27.474  32.169  1.00  0.00     0.031 C 
ATOM     57  C   UNL A   1      43.273  29.320  26.759  1.00  0.00     0.029 A 
ATOM     58  C   UNL A   1      43.307  29.260  28.153  1.00  0.00     0.049 A 
ATOM     59  H   UNL A   1      41.733  29.979  29.359  1.00  0.00     0.167 HD
ATOM     60  C   UNL A   1      44.148  28.461  30.361  1.00  0.00     0.074 A 
ATOM     61  C   UNL A   1      42.936  28.346  31.167  1.00  0.00     0.031 C 
ATOM     62  C   UNL A   1      44.350  28.877  29.075  1.00  0.00     0.037 A 
BRANCH  49  63
ATOM     63  C   UNL A   1      38.875  28.990  28.669  1.00  0.00     0.057 A 
ATOM     64  C   UNL A   1      37.783  29.647  28.060  1.00  0.00     0.134 A 
ATOM     65  C   UNL A   1      38.720  28.710  30.034  1.00  0.00     0.134 A 
ATOM     66  F   UNL A   1      37.726  29.877  26.742  1.00  0.00    -0.206 F 
ATOM     67  C   UNL A   1      36.633  30.015  28.760  1.00  0.00     0.040 A 
ATOM     68  C   UNL A   1      37.548  29.020  30.732  1.00  0.00     0.040 A 
ATOM     69  F   UNL A   1      39.678  28.061  30.714  1.00  0.00    -0.206 F 
ATOM     70  C   UNL A   1      36.500  29.675  30.095  1.00  0.00     0.006 A 
ENDBRANCH  49  63
BRANCH  50  71
ATOM     71  C   UNL A   1      44.935  25.121  33.634  1.00  0.00     0.057 A 
ATOM     72  C   UNL A   1      46.217  24.850  34.150  1.00  0.00     0.134 A 
ATOM     73  C   UNL A   1      43.855  24.707  34.423  1.00  0.00     0.134 A 
ATOM     74  F   UNL A   1      47.322  25.114  33.438  1.00  0.00    -0.206 F 
ATOM     75  C   UNL A   1      46.414  24.220  35.382  1.00  0.00     0.040 A 
ATOM     76  C   UNL A   1      44.039  24.065  35.656  1.00  0.00     0.040 A 
ATOM     77  F   UNL A   1      42.597  24.873  33.992  1.00  0.00    -0.206 F 
ATOM     78  C   UNL A   1      45.322  23.816  36.137  1.00  0.00     0.006 A 
ENDBRANCH  50  71
BRANCH  62  79
ATOM     79  C   UNL A   1      45.719  28.653  28.494  1.00  0.00     0.057 A 
ATOM     80  C   UNL A   1      46.009  27.446  27.851  1.00  0.00     0.134 A 
ATOM     81  C   UNL A   1      46.788  29.542  28.685  1.00  0.00     0.134 A 
ATOM     82  F   UNL A   1      45.053  26.517  27.695  1.00  0.00    -0.206 F 
ATOM     83  C   UNL A   1      47.298  27.146  27.400  1.00  0.00     0.040 A 
ATOM     84  C   UNL A   1      48.074  29.270  28.210  1.00  0.00     0.040 A 
ATOM     85  F   UNL A   1      46.629  30.667  29.391  1.00  0.00    -0.206 F 
ATOM     86  C   UNL A   1      48.333  28.064  27.567  1.00  0.00     0.006 A 
ENDBRANCH  62  79
ENDBRANCH  36  37
ENDBRANCH  29  31
ENDBRANCH  28  29
ENDBRANCH  27  28
ENDBRANCH   1  27
TORSDOF 16
ENDMDL
MODEL 3
REMARK VINA RESULT:     -11.1      2.482      6.941
REMARK SMILES CC(C)(C)OC(=O)N[C@@H](Cc1c[nH]c2cccc(Cl)c12)C(=O)OCCOC(=O)c1ccc(-c2c3nc(c(-c4c(F)cccc4F)c4ccc([nH]4)c(-c4c(F)cccc4F)c4nc(c(-c5c(F)cccc5F)c5ccc2[nH]5)C=C4)C=C3)cc1
REMARK SMILES IDX 24 1 23 2 21 3 22 4 9 5 8 6 6 7 7 8 5 10 2 11 1 12 3 13 4 14
REMARK SMILES IDX 10 15 11 16 12 17 20 18 13 19 14 20 18 21 15 23 17 24 19 25
REMARK SMILES IDX 16 26 25 27 26 28 27 29 28 30 29 31 30 32 82 33 31 34 81 35
REMARK SMILES IDX 32 36 33 37 34 38 75 39 35 40 80 41 74 42 76 43 36 44 79 45
REMARK SMILES IDX 73 46 72 47 37 49 63 50 46 51 62 52 47 53 50 54 61 55 77 56
REMARK SMILES IDX 48 57 49 58 60 60 78 61 51 62 38 63 39 64 44 65 40 66 41 67
REMARK SMILES IDX 43 68 45 69 42 70 64 71 65 72 70 73 66 74 67 75 69 76 71 77
REMARK SMILES IDX 68 78 52 79 53 80 58 81 54 82 55 83 57 84 59 85 56 86
REMARK H PARENT 8 9 13 22 76 48 50 59
REMARK Flexibility Score: inf
ROOT
ATOM      1  C   UNL A   1      32.970  29.389  27.233  1.00  0.00     0.274 C 
ENDROOT
BRANCH   1   2
ATOM      2  O   UNL A   1      32.157  28.830  26.180  1.00  0.00    -0.461 OA
BRANCH   2   3
ATOM      3  C   UNL A   1      31.726  27.538  26.330  1.00  0.00     0.329 C 
ATOM      4  O   UNL A   1      31.023  27.142  27.252  1.00  0.00    -0.250 OA
BRANCH   3   5
ATOM      5  C   UNL A   1      32.342  26.602  25.279  1.00  0.00     0.200 C 
BRANCH   5   6
ATOM      6  N   UNL A   1      32.894  27.331  24.128  1.00  0.00    -0.308 N 
ATOM      7  C   UNL A   1      33.513  26.846  23.014  1.00  0.00     0.408 C 
ATOM      8  O   UNL A   1      33.950  27.608  22.161  1.00  0.00    -0.225 OA
ATOM      9  H   UNL A   1      32.805  28.312  24.168  1.00  0.00     0.168 HD
BRANCH   7  10
ATOM     10  O   UNL A   1      33.595  25.492  22.970  1.00  0.00    -0.444 OA
BRANCH  10  11
ATOM     11  C   UNL A   1      32.668  24.716  22.150  1.00  0.00     0.106 C 
ATOM     12  C   UNL A   1      33.318  23.329  22.007  1.00  0.00     0.056 C 
ATOM     13  C   UNL A   1      32.530  25.333  20.754  1.00  0.00     0.056 C 
ATOM     14  C   UNL A   1      31.287  24.538  22.799  1.00  0.00     0.056 C 
ENDBRANCH  10  11
ENDBRANCH   7  10
ENDBRANCH   5   6
BRANCH   5  15
ATOM     15  C   UNL A   1      33.421  25.738  25.978  1.00  0.00     0.075 C 
BRANCH  15  16
ATOM     16  C   UNL A   1      33.017  24.288  26.143  1.00  0.00    -0.018 A 
ATOM     17  C   UNL A   1      31.761  23.883  26.558  1.00  0.00     0.087 A 
ATOM     18  C   UNL A   1      33.749  23.084  25.793  1.00  0.00     0.021 A 
ATOM     19  N   UNL A   1      31.663  22.532  26.400  1.00  0.00    -0.361 N 
ATOM     20  C   UNL A   1      32.832  22.026  25.888  1.00  0.00     0.047 A 
ATOM     21  C   UNL A   1      35.042  22.744  25.321  1.00  0.00     0.050 A 
ATOM     22  H   UNL A   1      30.867  21.996  26.622  1.00  0.00     0.166 HD
ATOM     23  C   UNL A   1      33.131  20.712  25.493  1.00  0.00     0.027 A 
ATOM     24  C   UNL A   1      35.357  21.448  24.905  1.00  0.00     0.021 A 
ATOM     25  Cl  UNL A   1      36.240  23.961  25.272  1.00  0.00    -0.084 Cl
ATOM     26  C   UNL A   1      34.401  20.443  24.981  1.00  0.00     0.004 A 
ENDBRANCH  15  16
ENDBRANCH   5  15
ENDBRANCH   3   5
ENDBRANCH   2   3
ENDBRANCH   1   2
BRANCH   1  27
ATOM     27  C   UNL A   1      34.428  29.508  26.810  1.00  0.00     0.275 C 
BRANCH  27  28
ATOM     28  O   UNL A   1      35.262  29.466  27.963  1.00  0.00    -0.458 OA
BRANCH  28  29
ATOM     29  C   UNL A   1      35.847  30.654  28.218  1.00  0.00     0.338 C 
ATOM     30  O   UNL A   1      35.695  31.712  27.628  1.00  0.00    -0.246 OA
BRANCH  29  31
ATOM     31  C   UNL A   1      36.811  30.507  29.296  1.00  0.00     0.060 A 
ATOM     32  C   UNL A   1      38.020  31.189  29.137  1.00  0.00     0.016 A 
ATOM     33  C   UNL A   1      36.678  29.345  30.057  1.00  0.00     0.016 A 
ATOM     34  C   UNL A   1      39.169  30.543  29.515  1.00  0.00     0.010 A 
ATOM     35  C   UNL A   1      37.828  28.683  30.391  1.00  0.00     0.010 A 
ATOM     36  C   UNL A   1      39.046  29.244  30.005  1.00  0.00    -0.014 A 
BRANCH  36  37
ATOM     37  C   UNL A   1      40.241  28.435  30.050  1.00  0.00     0.031 A 
ATOM     38  C   UNL A   1      40.865  28.367  31.385  1.00  0.00     0.074 A 
ATOM     39  C   UNL A   1      40.609  27.721  28.969  1.00  0.00     0.049 A 
ATOM     40  N   UNL A   1      42.070  28.676  31.732  1.00  0.00    -0.248 NA
ATOM     41  C   UNL A   1      39.973  28.039  32.509  1.00  0.00     0.031 C 
ATOM     42  C   UNL A   1      39.876  27.534  27.710  1.00  0.00     0.029 A 
ATOM     43  N   UNL A   1      41.677  26.898  28.823  1.00  0.00    -0.354 N 
ATOM     44  C   UNL A   1      42.135  28.407  33.096  1.00  0.00     0.074 A 
ATOM     45  C   UNL A   1      40.787  28.195  33.549  1.00  0.00     0.031 C 
ATOM     46  C   UNL A   1      40.401  26.480  27.045  1.00  0.00     0.029 A 
ATOM     47  C   UNL A   1      41.563  26.002  27.773  1.00  0.00     0.049 A 
ATOM     48  H   UNL A   1      42.464  26.933  29.413  1.00  0.00     0.167 HD
ATOM     49  C   UNL A   1      43.309  28.133  33.721  1.00  0.00     0.037 A 
ATOM     50  C   UNL A   1      42.316  24.889  27.602  1.00  0.00     0.037 A 
ATOM     51  C   UNL A   1      44.440  28.597  32.969  1.00  0.00     0.049 A 
ATOM     52  C   UNL A   1      43.516  25.022  28.469  1.00  0.00     0.074 A 
ATOM     53  C   UNL A   1      44.898  29.839  32.573  1.00  0.00     0.029 A 
ATOM     54  N   UNL A   1      45.122  27.684  32.204  1.00  0.00    -0.354 N 
ATOM     55  N   UNL A   1      44.469  25.890  28.267  1.00  0.00    -0.248 NA
ATOM     56  C   UNL A   1      43.433  24.498  29.825  1.00  0.00     0.031 C 
ATOM     57  C   UNL A   1      45.490  29.630  31.293  1.00  0.00     0.029 A 
ATOM     58  C   UNL A   1      45.376  28.272  30.990  1.00  0.00     0.049 A 
ATOM     59  H   UNL A   1      45.381  26.774  32.475  1.00  0.00     0.167 HD
ATOM     60  C   UNL A   1      44.844  26.318  29.534  1.00  0.00     0.074 A 
ATOM     61  C   UNL A   1      44.236  25.362  30.455  1.00  0.00     0.031 C 
ATOM     62  C   UNL A   1      45.370  27.564  29.732  1.00  0.00     0.037 A 
BRANCH  49  63
ATOM     63  C   UNL A   1      43.418  27.144  34.847  1.00  0.00     0.057 A 
ATOM     64  C   UNL A   1      43.318  27.492  36.213  1.00  0.00     0.134 A 
ATOM     65  C   UNL A   1      43.358  25.771  34.573  1.00  0.00     0.134 A 
ATOM     66  F   UNL A   1      43.239  28.763  36.628  1.00  0.00    -0.206 F 
ATOM     67  C   UNL A   1      43.189  26.545  37.230  1.00  0.00     0.040 A 
ATOM     68  C   UNL A   1      43.168  24.816  35.579  1.00  0.00     0.040 A 
ATOM     69  F   UNL A   1      43.411  25.320  33.311  1.00  0.00    -0.206 F 
ATOM     70  C   UNL A   1      43.083  25.202  36.911  1.00  0.00     0.006 A 
ENDBRANCH  49  63
BRANCH  50  71
ATOM     71  C   UNL A   1      41.889  23.602  27.008  1.00  0.00     0.057 A 
ATOM     72  C   UNL A   1      40.739  22.927  27.460  1.00  0.00     0.134 A 
ATOM     73  C   UNL A   1      42.724  22.882  26.144  1.00  0.00     0.134 A 
ATOM     74  F   UNL A   1      39.920  23.483  28.365  1.00  0.00    -0.206 F 
ATOM     75  C   UNL A   1      40.428  21.623  27.066  1.00  0.00     0.040 A 
ATOM     76  C   UNL A   1      42.429  21.570  25.748  1.00  0.00     0.040 A 
ATOM     77  F   UNL A   1      43.869  23.420  25.702  1.00  0.00    -0.206 F 
ATOM     78  C   UNL A   1      41.280  20.935  26.213  1.00  0.00     0.006 A 
ENDBRANCH  50  71
BRANCH  62  79
ATOM     79  C   UNL A   1      45.712  28.362  28.504  1.00  0.00     0.057 A 
ATOM     80  C   UNL A   1      47.022  28.352  28.015  1.00  0.00     0.134 A 
ATOM     81  C   UNL A   1      44.812  29.245  27.888  1.00  0.00     0.134 A 
ATOM     82  F   UNL A   1      47.956  27.585  28.599  1.00  0.00    -0.206 F 
ATOM     83  C   UNL A   1      47.414  29.168  26.950  1.00  0.00     0.040 A 
ATOM     84  C   UNL A   1      45.180  30.042  26.801  1.00  0.00     0.040 A 
ATOM     85  F   UNL A   1      43.572  29.404  28.363  1.00  0.00    -0.206 F 
ATOM     86  C   UNL A   1      46.488  30.007  26.330  1.00  0.00     0.006 A 
ENDBRANCH  62  79
ENDBRANCH  36  37
ENDBRANCH  29  31
ENDBRANCH  28  29
ENDBRANCH  27  28
ENDBRANCH   1  27
TORSDOF 16
ENDMDL
