MODEL 1
REMARK VINA RESULT:     -11.5      0.000      0.000
REMARK SMILES Cc1cccc([C@@H](CC(F)(F)F)C(=O)OCCOC(=O)c2ccc(-c3c4nc(c(-c5c(F)cccc5F)c5ccc([nH]5)c(-c5c(F)cccc5F)c5nc(c(-c6c(F)cccc6F)c6ccc3[nH]6)C=C5)C=C4)cc2)c1
REMARK SMILES IDX 16 1 15 2 13 3 14 4 7 5 6 6 1 7 2 8 3 9 75 10 4 11 5 12 8 13
REMARK SMILES IDX 9 14 10 15 11 16 12 17 17 18 18 19 19 20 20 21 21 22 22 23
REMARK SMILES IDX 74 24 23 25 73 26 24 27 25 28 26 29 67 30 27 31 72 32 66 33
REMARK SMILES IDX 68 34 28 35 71 36 65 37 64 38 29 40 55 41 38 42 54 43 39 44
REMARK SMILES IDX 42 45 53 46 69 47 40 48 41 49 52 51 70 52 43 53 30 54 31 55
REMARK SMILES IDX 36 56 32 57 33 58 35 59 37 60 34 61 56 62 57 63 62 64 58 65
REMARK SMILES IDX 59 66 61 67 63 68 60 69 44 70 45 71 50 72 46 73 47 74 49 75
REMARK SMILES IDX 51 76 48 77
REMARK H PARENT 68 39 42 50
REMARK Flexibility Score: inf
ROOT
ATOM      1  C   UNL A   1      32.838  30.730  27.168  1.00  0.00     0.274 C 
ENDROOT
BRANCH   1   2
ATOM      2  O   UNL A   1      33.170  29.625  26.335  1.00  0.00    -0.462 OA
BRANCH   2   3
ATOM      3  C   UNL A   1      32.203  28.682  26.151  1.00  0.00     0.313 C 
ATOM      4  O   UNL A   1      31.546  28.201  27.064  1.00  0.00    -0.252 OA
BRANCH   3   5
ATOM      5  C   UNL A   1      32.077  28.365  24.656  1.00  0.00     0.138 C 
BRANCH   5   6
ATOM      6  C   UNL A   1      30.681  28.696  24.175  1.00  0.00    -0.033 A 
ATOM      7  C   UNL A   1      28.685  31.791  23.225  1.00  0.00     0.044 C 
ATOM      8  C   UNL A   1      29.101  30.360  23.389  1.00  0.00    -0.051 A 
ATOM      9  C   UNL A   1      28.289  29.331  22.898  1.00  0.00     0.003 A 
ATOM     10  C   UNL A   1      30.295  30.037  24.036  1.00  0.00     0.008 A 
ATOM     11  C   UNL A   1      28.654  27.997  23.060  1.00  0.00     0.001 A 
ATOM     12  C   UNL A   1      29.837  27.677  23.712  1.00  0.00     0.004 A 
ENDBRANCH   5   6
BRANCH   5  13
ATOM     13  C   UNL A   1      33.195  28.810  23.712  1.00  0.00     0.135 C 
BRANCH  13  14
ATOM     14  C   UNL A   1      33.560  27.871  22.591  1.00  0.00     0.390 C 
ATOM     15  F   UNL A   1      34.463  28.389  21.741  1.00  0.00    -0.171 F 
ATOM     16  F   UNL A   1      34.110  26.747  23.111  1.00  0.00    -0.171 F 
ATOM     17  F   UNL A   1      32.483  27.492  21.876  1.00  0.00    -0.171 F 
ENDBRANCH  13  14
ENDBRANCH   5  13
ENDBRANCH   3   5
ENDBRANCH   2   3
ENDBRANCH   1   2
BRANCH   1  18
ATOM     18  C   UNL A   1      34.111  31.322  27.794  1.00  0.00     0.275 C 
BRANCH  18  19
ATOM     19  O   UNL A   1      35.309  30.472  27.901  1.00  0.00    -0.458 OA
BRANCH  19  20
ATOM     20  C   UNL A   1      36.281  30.368  28.850  1.00  0.00     0.338 C 
ATOM     21  O   UNL A   1      36.209  30.942  29.930  1.00  0.00    -0.246 OA
BRANCH  20  22
ATOM     22  C   UNL A   1      37.433  29.499  28.574  1.00  0.00     0.060 A 
ATOM     23  C   UNL A   1      38.272  29.710  27.462  1.00  0.00     0.016 A 
ATOM     24  C   UNL A   1      37.747  28.544  29.512  1.00  0.00     0.016 A 
ATOM     25  C   UNL A   1      39.509  29.057  27.390  1.00  0.00     0.010 A 
ATOM     26  C   UNL A   1      39.044  28.126  29.580  1.00  0.00     0.010 A 
ATOM     27  C   UNL A   1      39.906  28.297  28.488  1.00  0.00    -0.014 A 
BRANCH  27  28
ATOM     28  C   UNL A   1      41.067  27.414  28.565  1.00  0.00     0.031 A 
ATOM     29  C   UNL A   1      41.005  25.955  28.415  1.00  0.00     0.074 A 
ATOM     30  C   UNL A   1      42.232  28.100  28.594  1.00  0.00     0.049 A 
ATOM     31  N   UNL A   1      41.912  25.142  28.824  1.00  0.00    -0.248 NA
ATOM     32  C   UNL A   1      39.906  25.264  27.771  1.00  0.00     0.031 C 
ATOM     33  C   UNL A   1      43.611  27.698  28.423  1.00  0.00     0.029 A 
ATOM     34  N   UNL A   1      42.335  29.459  28.940  1.00  0.00    -0.354 N 
ATOM     35  C   UNL A   1      41.690  23.921  28.208  1.00  0.00     0.074 A 
ATOM     36  C   UNL A   1      40.359  24.012  27.675  1.00  0.00     0.031 C 
ATOM     37  C   UNL A   1      44.389  28.636  29.006  1.00  0.00     0.029 A 
ATOM     38  C   UNL A   1      43.510  29.594  29.674  1.00  0.00     0.049 A 
ATOM     39  H   UNL A   1      41.700  30.175  28.708  1.00  0.00     0.167 HD
ATOM     40  C   UNL A   1      42.739  23.055  28.083  1.00  0.00     0.037 A 
ATOM     41  C   UNL A   1      43.325  29.780  31.017  1.00  0.00     0.037 A 
ATOM     42  C   UNL A   1      43.912  23.624  28.756  1.00  0.00     0.049 A 
ATOM     43  C   UNL A   1      43.691  28.530  31.802  1.00  0.00     0.074 A 
ATOM     44  C   UNL A   1      45.009  24.353  28.329  1.00  0.00     0.029 A 
ATOM     45  N   UNL A   1      43.824  23.847  30.116  1.00  0.00    -0.354 N 
ATOM     46  N   UNL A   1      44.076  27.399  31.266  1.00  0.00    -0.248 NA
ATOM     47  C   UNL A   1      43.589  28.437  33.254  1.00  0.00     0.031 C 
ATOM     48  C   UNL A   1      45.519  25.080  29.454  1.00  0.00     0.029 A 
ATOM     49  C   UNL A   1      44.755  24.765  30.565  1.00  0.00     0.049 A 
ATOM     50  H   UNL A   1      43.170  23.402  30.702  1.00  0.00     0.167 HD
ATOM     51  C   UNL A   1      44.259  26.453  32.232  1.00  0.00     0.074 A 
ATOM     52  C   UNL A   1      43.905  27.147  33.462  1.00  0.00     0.031 C 
ATOM     53  C   UNL A   1      44.675  25.174  31.964  1.00  0.00     0.037 A 
BRANCH  40  54
ATOM     54  C   UNL A   1      42.794  21.847  27.167  1.00  0.00     0.057 A 
ATOM     55  C   UNL A   1      41.926  20.755  27.382  1.00  0.00     0.134 A 
ATOM     56  C   UNL A   1      43.676  21.664  26.084  1.00  0.00     0.134 A 
ATOM     57  F   UNL A   1      40.965  20.797  28.314  1.00  0.00    -0.206 F 
ATOM     58  C   UNL A   1      41.994  19.559  26.653  1.00  0.00     0.040 A 
ATOM     59  C   UNL A   1      43.780  20.457  25.368  1.00  0.00     0.040 A 
ATOM     60  F   UNL A   1      44.441  22.656  25.619  1.00  0.00    -0.206 F 
ATOM     61  C   UNL A   1      42.943  19.393  25.658  1.00  0.00     0.006 A 
ENDBRANCH  40  54
BRANCH  41  62
ATOM     62  C   UNL A   1      42.158  30.709  31.299  1.00  0.00     0.057 A 
ATOM     63  C   UNL A   1      42.242  32.056  30.863  1.00  0.00     0.134 A 
ATOM     64  C   UNL A   1      40.875  30.265  31.642  1.00  0.00     0.134 A 
ATOM     65  F   UNL A   1      43.428  32.579  30.507  1.00  0.00    -0.206 F 
ATOM     66  C   UNL A   1      41.111  32.857  30.648  1.00  0.00     0.040 A 
ATOM     67  C   UNL A   1      39.739  31.076  31.472  1.00  0.00     0.040 A 
ATOM     68  F   UNL A   1      40.670  29.009  32.061  1.00  0.00    -0.206 F 
ATOM     69  C   UNL A   1      39.848  32.356  30.931  1.00  0.00     0.006 A 
ENDBRANCH  41  62
BRANCH  53  70
ATOM     70  C   UNL A   1      44.993  24.169  33.047  1.00  0.00     0.057 A 
ATOM     71  C   UNL A   1      46.219  24.163  33.725  1.00  0.00     0.134 A 
ATOM     72  C   UNL A   1      44.131  23.100  33.381  1.00  0.00     0.134 A 
ATOM     73  F   UNL A   1      47.206  25.006  33.389  1.00  0.00    -0.206 F 
ATOM     74  C   UNL A   1      46.503  23.262  34.757  1.00  0.00     0.040 A 
ATOM     75  C   UNL A   1      44.428  22.158  34.365  1.00  0.00     0.040 A 
ATOM     76  F   UNL A   1      42.950  22.902  32.781  1.00  0.00    -0.206 F 
ATOM     77  C   UNL A   1      45.603  22.258  35.085  1.00  0.00     0.006 A 
ENDBRANCH  53  70
ENDBRANCH  27  28
ENDBRANCH  20  22
ENDBRANCH  19  20
ENDBRANCH  18  19
ENDBRANCH   1  18
TORSDOF 14
ENDMDL
MODEL 2
REMARK VINA RESULT:     -11.3      4.841     10.075
REMARK SMILES Cc1cccc([C@@H](CC(F)(F)F)C(=O)OCCOC(=O)c2ccc(-c3c4nc(c(-c5c(F)cccc5F)c5ccc([nH]5)c(-c5c(F)cccc5F)c5nc(c(-c6c(F)cccc6F)c6ccc3[nH]6)C=C5)C=C4)cc2)c1
REMARK SMILES IDX 16 1 15 2 13 3 14 4 7 5 6 6 1 7 2 8 3 9 75 10 4 11 5 12 8 13
REMARK SMILES IDX 9 14 10 15 11 16 12 17 17 18 18 19 19 20 20 21 21 22 22 23
REMARK SMILES IDX 74 24 23 25 73 26 24 27 25 28 26 29 67 30 27 31 72 32 66 33
REMARK SMILES IDX 68 34 28 35 71 36 65 37 64 38 29 40 55 41 38 42 54 43 39 44
REMARK SMILES IDX 42 45 53 46 69 47 40 48 41 49 52 51 70 52 43 53 30 54 31 55
REMARK SMILES IDX 36 56 32 57 33 58 35 59 37 60 34 61 56 62 57 63 62 64 58 65
REMARK SMILES IDX 59 66 61 67 63 68 60 69 44 70 45 71 50 72 46 73 47 74 49 75
REMARK SMILES IDX 51 76 48 77
REMARK H PARENT 68 39 42 50
REMARK Flexibility Score: inf
ROOT
ATOM      1  C   UNL A   1      36.669  23.100  24.741  1.00  0.00     0.274 C 
ENDROOT
BRANCH   1   2
ATOM      2  O   UNL A   1      35.843  21.954  24.564  1.00  0.00    -0.462 OA
BRANCH   2   3
ATOM      3  C   UNL A   1      34.595  22.168  24.059  1.00  0.00     0.313 C 
ATOM      4  O   UNL A   1      34.364  22.923  23.125  1.00  0.00    -0.252 OA
BRANCH   3   5
ATOM      5  C   UNL A   1      33.581  21.308  24.825  1.00  0.00     0.138 C 
BRANCH   5   6
ATOM      6  C   UNL A   1      33.450  19.954  24.164  1.00  0.00    -0.033 A 
ATOM      7  C   UNL A   1      34.773  16.426  24.679  1.00  0.00     0.044 C 
ATOM      8  C   UNL A   1      33.960  17.583  24.182  1.00  0.00    -0.051 A 
ATOM      9  C   UNL A   1      32.926  17.372  23.261  1.00  0.00     0.003 A 
ATOM     10  C   UNL A   1      34.224  18.880  24.625  1.00  0.00     0.008 A 
ATOM     11  C   UNL A   1      32.175  18.440  22.778  1.00  0.00     0.001 A 
ATOM     12  C   UNL A   1      32.446  19.730  23.212  1.00  0.00     0.004 A 
ENDBRANCH   5   6
BRANCH   5  13
ATOM     13  C   UNL A   1      33.657  21.265  26.351  1.00  0.00     0.135 C 
BRANCH  13  14
ATOM     14  C   UNL A   1      33.216  22.500  27.095  1.00  0.00     0.390 C 
ATOM     15  F   UNL A   1      32.021  22.962  26.692  1.00  0.00    -0.171 F 
ATOM     16  F   UNL A   1      33.101  22.211  28.414  1.00  0.00    -0.171 F 
ATOM     17  F   UNL A   1      34.109  23.502  26.985  1.00  0.00    -0.171 F 
ENDBRANCH  13  14
ENDBRANCH   5  13
ENDBRANCH   3   5
ENDBRANCH   2   3
ENDBRANCH   1   2
BRANCH   1  18
ATOM     18  C   UNL A   1      37.767  22.806  25.775  1.00  0.00     0.275 C 
BRANCH  18  19
ATOM     19  O   UNL A   1      38.239  23.902  26.638  1.00  0.00    -0.458 OA
BRANCH  19  20
ATOM     20  C   UNL A   1      39.472  24.232  27.113  1.00  0.00     0.338 C 
ATOM     21  O   UNL A   1      40.411  23.445  27.105  1.00  0.00    -0.246 OA
BRANCH  20  22
ATOM     22  C   UNL A   1      39.684  25.598  27.611  1.00  0.00     0.060 A 
ATOM     23  C   UNL A   1      40.162  26.627  26.776  1.00  0.00     0.016 A 
ATOM     24  C   UNL A   1      39.275  25.875  28.895  1.00  0.00     0.016 A 
ATOM     25  C   UNL A   1      40.076  27.961  27.197  1.00  0.00     0.010 A 
ATOM     26  C   UNL A   1      38.943  27.166  29.187  1.00  0.00     0.010 A 
ATOM     27  C   UNL A   1      39.416  28.222  28.395  1.00  0.00    -0.014 A 
BRANCH  27  28
ATOM     28  C   UNL A   1      39.349  29.502  29.094  1.00  0.00     0.031 A 
ATOM     29  C   UNL A   1      38.369  30.553  28.797  1.00  0.00     0.074 A 
ATOM     30  C   UNL A   1      40.160  29.539  30.176  1.00  0.00     0.049 A 
ATOM     31  N   UNL A   1      38.503  31.788  29.126  1.00  0.00    -0.248 NA
ATOM     32  C   UNL A   1      37.121  30.309  28.101  1.00  0.00     0.031 C 
ATOM     33  C   UNL A   1      40.261  30.451  31.295  1.00  0.00     0.029 A 
ATOM     34  N   UNL A   1      41.240  28.663  30.378  1.00  0.00    -0.354 N 
ATOM     35  C   UNL A   1      37.262  32.392  29.005  1.00  0.00     0.074 A 
ATOM     36  C   UNL A   1      36.474  31.469  28.237  1.00  0.00     0.031 C 
ATOM     37  C   UNL A   1      41.499  30.323  31.820  1.00  0.00     0.029 A 
ATOM     38  C   UNL A   1      42.257  29.415  30.962  1.00  0.00     0.049 A 
ATOM     39  H   UNL A   1      41.272  27.705  30.151  1.00  0.00     0.167 HD
ATOM     40  C   UNL A   1      37.017  33.526  29.727  1.00  0.00     0.037 A 
ATOM     41  C   UNL A   1      43.298  29.710  30.126  1.00  0.00     0.037 A 
ATOM     42  C   UNL A   1      38.240  33.913  30.440  1.00  0.00     0.049 A 
ATOM     43  C   UNL A   1      43.277  31.175  29.715  1.00  0.00     0.074 A 
ATOM     44  C   UNL A   1      38.715  33.704  31.723  1.00  0.00     0.029 A 
ATOM     45  N   UNL A   1      39.349  34.234  29.681  1.00  0.00    -0.354 N 
ATOM     46  N   UNL A   1      42.351  32.032  30.062  1.00  0.00    -0.248 NA
ATOM     47  C   UNL A   1      44.265  31.772  28.823  1.00  0.00     0.031 C 
ATOM     48  C   UNL A   1      40.142  33.826  31.690  1.00  0.00     0.029 A 
ATOM     49  C   UNL A   1      40.526  34.142  30.398  1.00  0.00     0.049 A 
ATOM     50  H   UNL A   1      39.306  34.497  28.734  1.00  0.00     0.167 HD
ATOM     51  C   UNL A   1      42.578  33.242  29.473  1.00  0.00     0.074 A 
ATOM     52  C   UNL A   1      43.775  33.014  28.676  1.00  0.00     0.031 C 
ATOM     53  C   UNL A   1      41.775  34.337  29.667  1.00  0.00     0.037 A 
BRANCH  40  54
ATOM     54  C   UNL A   1      35.654  34.135  29.996  1.00  0.00     0.057 A 
ATOM     55  C   UNL A   1      34.860  34.596  28.924  1.00  0.00     0.134 A 
ATOM     56  C   UNL A   1      35.066  34.331  31.261  1.00  0.00     0.134 A 
ATOM     57  F   UNL A   1      35.227  34.409  27.649  1.00  0.00    -0.206 F 
ATOM     58  C   UNL A   1      33.644  35.272  29.098  1.00  0.00     0.040 A 
ATOM     59  C   UNL A   1      33.866  35.040  31.453  1.00  0.00     0.040 A 
ATOM     60  F   UNL A   1      35.583  33.799  32.372  1.00  0.00    -0.206 F 
ATOM     61  C   UNL A   1      33.153  35.524  30.368  1.00  0.00     0.006 A 
ENDBRANCH  40  54
BRANCH  41  62
ATOM     62  C   UNL A   1      43.657  28.532  29.237  1.00  0.00     0.057 A 
ATOM     63  C   UNL A   1      43.366  28.613  27.852  1.00  0.00     0.134 A 
ATOM     64  C   UNL A   1      44.558  27.526  29.606  1.00  0.00     0.134 A 
ATOM     65  F   UNL A   1      42.515  29.548  27.393  1.00  0.00    -0.206 F 
ATOM     66  C   UNL A   1      44.032  27.843  26.889  1.00  0.00     0.040 A 
ATOM     67  C   UNL A   1      45.198  26.717  28.651  1.00  0.00     0.040 A 
ATOM     68  F   UNL A   1      44.916  27.357  30.886  1.00  0.00    -0.206 F 
ATOM     69  C   UNL A   1      44.973  26.903  27.289  1.00  0.00     0.006 A 
ENDBRANCH  41  62
BRANCH  53  70
ATOM     70  C   UNL A   1      42.100  35.704  29.110  1.00  0.00     0.057 A 
ATOM     71  C   UNL A   1      41.646  36.126  27.854  1.00  0.00     0.134 A 
ATOM     72  C   UNL A   1      42.968  36.612  29.758  1.00  0.00     0.134 A 
ATOM     73  F   UNL A   1      40.963  35.303  27.046  1.00  0.00    -0.206 F 
ATOM     74  C   UNL A   1      41.908  37.405  27.351  1.00  0.00     0.040 A 
ATOM     75  C   UNL A   1      43.287  37.866  29.240  1.00  0.00     0.040 A 
ATOM     76  F   UNL A   1      43.557  36.345  30.931  1.00  0.00    -0.206 F 
ATOM     77  C   UNL A   1      42.727  38.284  28.047  1.00  0.00     0.006 A 
ENDBRANCH  53  70
ENDBRANCH  27  28
ENDBRANCH  20  22
ENDBRANCH  19  20
ENDBRANCH  18  19
ENDBRANCH   1  18
TORSDOF 14
ENDMDL
MODEL 3
REMARK VINA RESULT:     -11.3      1.283      2.516
REMARK SMILES Cc1cccc([C@@H](CC(F)(F)F)C(=O)OCCOC(=O)c2ccc(-c3c4nc(c(-c5c(F)cccc5F)c5ccc([nH]5)c(-c5c(F)cccc5F)c5nc(c(-c6c(F)cccc6F)c6ccc3[nH]6)C=C5)C=C4)cc2)c1
REMARK SMILES IDX 16 1 15 2 13 3 14 4 7 5 6 6 1 7 2 8 3 9 75 10 4 11 5 12 8 13
REMARK SMILES IDX 9 14 10 15 11 16 12 17 17 18 18 19 19 20 20 21 21 22 22 23
REMARK SMILES IDX 74 24 23 25 73 26 24 27 25 28 26 29 67 30 27 31 72 32 66 33
REMARK SMILES IDX 68 34 28 35 71 36 65 37 64 38 29 40 55 41 38 42 54 43 39 44
REMARK SMILES IDX 42 45 53 46 69 47 40 48 41 49 52 51 70 52 43 53 30 54 31 55
REMARK SMILES IDX 36 56 32 57 33 58 35 59 37 60 34 61 56 62 57 63 62 64 58 65
REMARK SMILES IDX 59 66 61 67 63 68 60 69 44 70 45 71 50 72 46 73 47 74 49 75
REMARK SMILES IDX 51 76 48 77
REMARK H PARENT 68 39 42 50
REMARK Flexibility Score: inf
ROOT
ATOM      1  C   UNL A   1      33.181  29.825  26.598  1.00  0.00     0.274 C 
ENDROOT
BRANCH   1   2
ATOM      2  O   UNL A   1      33.170  28.498  27.112  1.00  0.00    -0.462 OA
BRANCH   2   3
ATOM      3  C   UNL A   1      32.196  27.666  26.647  1.00  0.00     0.313 C 
ATOM      4  O   UNL A   1      31.454  27.020  27.375  1.00  0.00    -0.252 OA
BRANCH   3   5
ATOM      5  C   UNL A   1      32.180  27.705  25.114  1.00  0.00     0.138 C 
BRANCH   5   6
ATOM      6  C   UNL A   1      33.087  26.627  24.561  1.00  0.00    -0.033 A 
ATOM      7  C   UNL A   1      35.461  23.978  25.904  1.00  0.00     0.044 C 
ATOM      8  C   UNL A   1      34.585  24.766  24.978  1.00  0.00    -0.051 A 
ATOM      9  C   UNL A   1      34.435  24.370  23.644  1.00  0.00     0.003 A 
ATOM     10  C   UNL A   1      33.913  25.903  25.431  1.00  0.00     0.008 A 
ATOM     11  C   UNL A   1      33.639  25.104  22.769  1.00  0.00     0.001 A 
ATOM     12  C   UNL A   1      32.980  26.239  23.218  1.00  0.00     0.004 A 
ENDBRANCH   5   6
BRANCH   5  13
ATOM     13  C   UNL A   1      30.837  27.835  24.394  1.00  0.00     0.135 C 
BRANCH  13  14
ATOM     14  C   UNL A   1      30.660  29.023  23.483  1.00  0.00     0.390 C 
ATOM     15  F   UNL A   1      31.769  29.327  22.789  1.00  0.00    -0.171 F 
ATOM     16  F   UNL A   1      29.691  28.750  22.575  1.00  0.00    -0.171 F 
ATOM     17  F   UNL A   1      30.274  30.124  24.156  1.00  0.00    -0.171 F 
ENDBRANCH  13  14
ENDBRANCH   5  13
ENDBRANCH   3   5
ENDBRANCH   2   3
ENDBRANCH   1   2
BRANCH   1  18
ATOM     18  C   UNL A   1      34.275  30.652  27.291  1.00  0.00     0.275 C 
BRANCH  18  19
ATOM     19  O   UNL A   1      35.145  29.991  28.278  1.00  0.00    -0.458 OA
BRANCH  19  20
ATOM     20  C   UNL A   1      36.362  30.317  28.795  1.00  0.00     0.338 C 
ATOM     21  O   UNL A   1      36.532  31.301  29.505  1.00  0.00    -0.246 OA
BRANCH  20  22
ATOM     22  C   UNL A   1      37.498  29.426  28.520  1.00  0.00     0.060 A 
ATOM     23  C   UNL A   1      38.337  29.616  27.404  1.00  0.00     0.016 A 
ATOM     24  C   UNL A   1      37.796  28.469  29.462  1.00  0.00     0.016 A 
ATOM     25  C   UNL A   1      39.561  28.939  27.333  1.00  0.00     0.010 A 
ATOM     26  C   UNL A   1      39.086  28.028  29.529  1.00  0.00     0.010 A 
ATOM     27  C   UNL A   1      39.947  28.177  28.433  1.00  0.00    -0.014 A 
BRANCH  27  28
ATOM     28  C   UNL A   1      41.092  27.273  28.511  1.00  0.00     0.031 A 
ATOM     29  C   UNL A   1      41.002  25.815  28.374  1.00  0.00     0.074 A 
ATOM     30  C   UNL A   1      42.270  27.938  28.528  1.00  0.00     0.049 A 
ATOM     31  N   UNL A   1      41.896  24.988  28.784  1.00  0.00    -0.248 NA
ATOM     32  C   UNL A   1      39.886  25.139  27.742  1.00  0.00     0.031 C 
ATOM     33  C   UNL A   1      43.640  27.509  28.352  1.00  0.00     0.029 A 
ATOM     34  N   UNL A   1      42.400  29.298  28.861  1.00  0.00    -0.354 N 
ATOM     35  C   UNL A   1      41.647  23.767  28.181  1.00  0.00     0.074 A 
ATOM     36  C   UNL A   1      40.315  23.878  27.654  1.00  0.00     0.031 C 
ATOM     37  C   UNL A   1      44.439  28.437  28.923  1.00  0.00     0.029 A 
ATOM     38  C   UNL A   1      43.582  29.417  29.588  1.00  0.00     0.049 A 
ATOM     39  H   UNL A   1      41.777  30.024  28.627  1.00  0.00     0.167 HD
ATOM     40  C   UNL A   1      42.679  22.880  28.057  1.00  0.00     0.037 A 
ATOM     41  C   UNL A   1      43.408  29.617  30.929  1.00  0.00     0.037 A 
ATOM     42  C   UNL A   1      43.867  23.433  28.719  1.00  0.00     0.049 A 
ATOM     43  C   UNL A   1      43.756  28.367  31.724  1.00  0.00     0.074 A 
ATOM     44  C   UNL A   1      44.975  24.137  28.279  1.00  0.00     0.029 A 
ATOM     45  N   UNL A   1      43.791  23.669  30.078  1.00  0.00    -0.354 N 
ATOM     46  N   UNL A   1      44.116  27.225  31.195  1.00  0.00    -0.248 NA
ATOM     47  C   UNL A   1      43.660  28.289  33.177  1.00  0.00     0.031 C 
ATOM     48  C   UNL A   1      45.505  24.864  29.395  1.00  0.00     0.029 A 
ATOM     49  C   UNL A   1      44.741  24.573  30.513  1.00  0.00     0.049 A 
ATOM     50  H   UNL A   1      43.132  23.242  30.671  1.00  0.00     0.167 HD
ATOM     51  C   UNL A   1      44.287  26.284  32.168  1.00  0.00     0.074 A 
ATOM     52  C   UNL A   1      43.953  26.995  33.394  1.00  0.00     0.031 C 
ATOM     53  C   UNL A   1      44.677  24.995  31.909  1.00  0.00     0.037 A 
BRANCH  40  54
ATOM     54  C   UNL A   1      42.707  21.663  27.151  1.00  0.00     0.057 A 
ATOM     55  C   UNL A   1      41.809  20.597  27.371  1.00  0.00     0.134 A 
ATOM     56  C   UNL A   1      43.588  21.448  26.074  1.00  0.00     0.134 A 
ATOM     57  F   UNL A   1      40.845  20.671  28.299  1.00  0.00    -0.206 F 
ATOM     58  C   UNL A   1      41.848  19.393  26.652  1.00  0.00     0.040 A 
ATOM     59  C   UNL A   1      43.663  20.233  25.368  1.00  0.00     0.040 A 
ATOM     60  F   UNL A   1      44.381  22.416  25.604  1.00  0.00    -0.206 F 
ATOM     61  C   UNL A   1      42.796  19.194  25.663  1.00  0.00     0.006 A 
ENDBRANCH  40  54
BRANCH  41  62
ATOM     62  C   UNL A   1      42.261  30.571  31.210  1.00  0.00     0.057 A 
ATOM     63  C   UNL A   1      42.377  31.918  30.782  1.00  0.00     0.134 A 
ATOM     64  C   UNL A   1      40.966  30.154  31.543  1.00  0.00     0.134 A 
ATOM     65  F   UNL A   1      43.576  32.417  30.436  1.00  0.00    -0.206 F 
ATOM     66  C   UNL A   1      41.266  32.745  30.565  1.00  0.00     0.040 A 
ATOM     67  C   UNL A   1      39.850  30.990  31.371  1.00  0.00     0.040 A 
ATOM     68  F   UNL A   1      40.731  28.901  31.954  1.00  0.00    -0.206 F 
ATOM     69  C   UNL A   1      39.990  32.270  30.839  1.00  0.00     0.006 A 
ENDBRANCH  41  62
BRANCH  53  70
ATOM     70  C   UNL A   1      44.982  23.993  32.999  1.00  0.00     0.057 A 
ATOM     71  C   UNL A   1      44.065  23.008  33.385  1.00  0.00     0.134 A 
ATOM     72  C   UNL A   1      46.160  24.040  33.778  1.00  0.00     0.134 A 
ATOM     73  F   UNL A   1      42.833  22.956  32.859  1.00  0.00    -0.206 F 
ATOM     74  C   UNL A   1      44.357  22.052  34.364  1.00  0.00     0.040 A 
ATOM     75  C   UNL A   1      46.438  23.130  34.798  1.00  0.00     0.040 A 
ATOM     76  F   UNL A   1      47.115  24.962  33.601  1.00  0.00    -0.206 F 
ATOM     77  C   UNL A   1      45.550  22.107  35.071  1.00  0.00     0.006 A 
ENDBRANCH  53  70
ENDBRANCH  27  28
ENDBRANCH  20  22
ENDBRANCH  19  20
ENDBRANCH  18  19
ENDBRANCH   1  18
TORSDOF 14
ENDMDL
