MODEL 1
REMARK VINA RESULT:      -9.3      0.000      0.000
REMARK SMILES Cc1cccc(C)c1Nc1ccccc1CC(=O)OCCOC(=O)c1ccc(-c2c3nc(c(-c4c(F)cccc4F)c4ccc([nH]4)c(-c4c(F)cccc4F)c4nc(c(-c5c(F)cccc5F)c5ccc2[nH]5)C=C4)C=C3)cc1
REMARK SMILES IDX 20 1 19 2 17 3 18 4 16 5 15 6 10 7 11 8 12 9 14 10 13 11
REMARK SMILES IDX 9 12 8 14 1 15 2 16 3 17 4 18 6 19 5 20 7 21 21 22 22 23
REMARK SMILES IDX 23 24 24 25 25 26 26 27 78 28 27 29 77 30 28 31 29 32 30 33
REMARK SMILES IDX 71 34 31 35 76 36 70 37 72 38 32 39 75 40 69 41 68 42 33 44
REMARK SMILES IDX 59 45 42 46 58 47 43 48 46 49 57 50 73 51 44 52 45 53 56 55
REMARK SMILES IDX 74 56 47 57 34 58 35 59 40 60 36 61 37 62 39 63 41 64 38 65
REMARK SMILES IDX 60 66 61 67 66 68 62 69 63 70 65 71 67 72 64 73 48 74 49 75
REMARK SMILES IDX 54 76 50 77 51 78 53 79 55 80 52 81
REMARK H PARENT 9 13 72 43 46 54
REMARK Flexibility Score: inf
ROOT
ATOM      1  C   UNL A   1      45.753  20.626  24.720  1.00  0.00     0.274 C 
ENDROOT
BRANCH   1   2
ATOM      2  O   UNL A   1      46.091  21.768  25.527  1.00  0.00    -0.462 OA
BRANCH   2   3
ATOM      3  C   UNL A   1      46.044  22.965  24.885  1.00  0.00     0.310 C 
ATOM      4  O   UNL A   1      45.590  23.132  23.756  1.00  0.00    -0.252 OA
BRANCH   3   5
ATOM      5  C   UNL A   1      46.690  24.089  25.652  1.00  0.00     0.160 C 
BRANCH   5   6
ATOM      6  C   UNL A   1      47.018  25.381  24.929  1.00  0.00    -0.013 A 
ATOM      7  C   UNL A   1      46.196  26.521  25.073  1.00  0.00     0.042 A 
ATOM      8  C   UNL A   1      46.501  27.683  24.342  1.00  0.00     0.026 A 
ATOM      9  C   UNL A   1      47.637  27.755  23.539  1.00  0.00     0.002 A 
ATOM     10  C   UNL A   1      48.183  25.487  24.145  1.00  0.00     0.006 A 
ATOM     11  C   UNL A   1      48.490  26.662  23.458  1.00  0.00     0.000 A 
BRANCH   7  12
ATOM     12  N   UNL A   1      45.140  26.601  26.004  1.00  0.00    -0.355 N 
ATOM     13  H   UNL A   1      45.019  25.795  26.556  1.00  0.00     0.167 HD
BRANCH  12  14
ATOM     14  C   UNL A   1      44.225  27.644  26.277  1.00  0.00     0.044 A 
ATOM     15  C   UNL A   1      46.078  28.815  27.581  1.00  0.00     0.046 C 
ATOM     16  C   UNL A   1      44.674  28.752  27.040  1.00  0.00    -0.027 A 
ATOM     17  C   UNL A   1      43.829  29.855  27.241  1.00  0.00     0.005 A 
ATOM     18  C   UNL A   1      42.549  29.876  26.698  1.00  0.00     0.001 A 
ATOM     19  C   UNL A   1      42.906  27.657  25.761  1.00  0.00    -0.027 A 
ATOM     20  C   UNL A   1      42.092  28.787  25.965  1.00  0.00     0.005 A 
ATOM     21  C   UNL A   1      42.307  26.511  24.989  1.00  0.00     0.046 C 
ENDBRANCH  12  14
ENDBRANCH   7  12
ENDBRANCH   5   6
ENDBRANCH   3   5
ENDBRANCH   2   3
ENDBRANCH   1   2
BRANCH   1  22
ATOM     22  C   UNL A   1      44.691  19.767  25.406  1.00  0.00     0.275 C 
BRANCH  22  23
ATOM     23  O   UNL A   1      43.405  19.989  24.801  1.00  0.00    -0.458 OA
BRANCH  23  24
ATOM     24  C   UNL A   1      42.358  20.063  25.649  1.00  0.00     0.338 C 
ATOM     25  O   UNL A   1      41.483  19.233  25.829  1.00  0.00    -0.246 OA
BRANCH  24  26
ATOM     26  C   UNL A   1      42.389  21.347  26.368  1.00  0.00     0.060 A 
ATOM     27  C   UNL A   1      42.638  22.544  25.689  1.00  0.00     0.016 A 
ATOM     28  C   UNL A   1      42.280  21.332  27.758  1.00  0.00     0.016 A 
ATOM     29  C   UNL A   1      42.807  23.729  26.408  1.00  0.00     0.010 A 
ATOM     30  C   UNL A   1      42.404  22.526  28.470  1.00  0.00     0.010 A 
ATOM     31  C   UNL A   1      42.691  23.731  27.805  1.00  0.00    -0.014 A 
BRANCH  31  32
ATOM     32  C   UNL A   1      42.902  24.968  28.599  1.00  0.00     0.031 A 
ATOM     33  C   UNL A   1      41.786  25.966  28.737  1.00  0.00     0.074 A 
ATOM     34  C   UNL A   1      44.098  25.220  29.161  1.00  0.00     0.049 A 
ATOM     35  N   UNL A   1      41.821  27.190  29.198  1.00  0.00    -0.248 NA
ATOM     36  C   UNL A   1      40.455  25.529  28.286  1.00  0.00     0.031 C 
ATOM     37  C   UNL A   1      45.250  24.319  29.145  1.00  0.00     0.029 A 
ATOM     38  N   UNL A   1      44.547  26.324  29.841  1.00  0.00    -0.354 N 
ATOM     39  C   UNL A   1      40.528  27.681  29.066  1.00  0.00     0.074 A 
ATOM     40  C   UNL A   1      39.734  26.626  28.472  1.00  0.00     0.031 C 
ATOM     41  C   UNL A   1      46.275  24.908  29.783  1.00  0.00     0.029 A 
ATOM     42  C   UNL A   1      45.869  26.247  30.199  1.00  0.00     0.049 A 
ATOM     43  H   UNL A   1      43.974  27.097  30.052  1.00  0.00     0.167 HD
ATOM     44  C   UNL A   1      40.048  28.899  29.410  1.00  0.00     0.037 A 
ATOM     45  C   UNL A   1      46.676  27.167  30.761  1.00  0.00     0.037 A 
ATOM     46  C   UNL A   1      40.832  29.941  30.021  1.00  0.00     0.049 A 
ATOM     47  C   UNL A   1      46.136  28.533  31.076  1.00  0.00     0.074 A 
ATOM     48  C   UNL A   1      40.435  31.213  30.397  1.00  0.00     0.029 A 
ATOM     49  N   UNL A   1      42.172  29.825  30.353  1.00  0.00    -0.354 N 
ATOM     50  N   UNL A   1      44.925  29.004  30.906  1.00  0.00    -0.248 NA
ATOM     51  C   UNL A   1      47.083  29.504  31.646  1.00  0.00     0.031 C 
ATOM     52  C   UNL A   1      41.543  31.876  30.938  1.00  0.00     0.029 A 
ATOM     53  C   UNL A   1      42.619  31.004  30.926  1.00  0.00     0.049 A 
ATOM     54  H   UNL A   1      42.724  29.024  30.204  1.00  0.00     0.167 HD
ATOM     55  C   UNL A   1      44.958  30.313  31.366  1.00  0.00     0.074 A 
ATOM     56  C   UNL A   1      46.306  30.562  31.832  1.00  0.00     0.031 C 
ATOM     57  C   UNL A   1      43.961  31.230  31.396  1.00  0.00     0.037 A 
BRANCH  44  58
ATOM     58  C   UNL A   1      38.605  29.181  29.118  1.00  0.00     0.057 A 
ATOM     59  C   UNL A   1      37.622  29.099  30.112  1.00  0.00     0.134 A 
ATOM     60  C   UNL A   1      38.201  29.582  27.838  1.00  0.00     0.134 A 
ATOM     61  F   UNL A   1      37.943  28.709  31.355  1.00  0.00    -0.206 F 
ATOM     62  C   UNL A   1      36.284  29.392  29.839  1.00  0.00     0.040 A 
ATOM     63  C   UNL A   1      36.870  29.896  27.558  1.00  0.00     0.040 A 
ATOM     64  F   UNL A   1      39.095  29.684  26.843  1.00  0.00    -0.206 F 
ATOM     65  C   UNL A   1      35.907  29.799  28.561  1.00  0.00     0.006 A 
ENDBRANCH  44  58
BRANCH  45  66
ATOM     66  C   UNL A   1      48.097  26.840  31.037  1.00  0.00     0.057 A 
ATOM     67  C   UNL A   1      49.089  27.085  30.081  1.00  0.00     0.134 A 
ATOM     68  C   UNL A   1      48.493  26.261  32.248  1.00  0.00     0.134 A 
ATOM     69  F   UNL A   1      48.764  27.615  28.892  1.00  0.00    -0.206 F 
ATOM     70  C   UNL A   1      50.424  26.752  30.313  1.00  0.00     0.040 A 
ATOM     71  C   UNL A   1      49.827  25.944  32.503  1.00  0.00     0.040 A 
ATOM     72  F   UNL A   1      47.588  26.000  33.202  1.00  0.00    -0.206 F 
ATOM     73  C   UNL A   1      50.797  26.184  31.531  1.00  0.00     0.006 A 
ENDBRANCH  45  66
BRANCH  57  74
ATOM     74  C   UNL A   1      44.283  32.568  31.990  1.00  0.00     0.057 A 
ATOM     75  C   UNL A   1      44.141  32.819  33.360  1.00  0.00     0.134 A 
ATOM     76  C   UNL A   1      44.766  33.606  31.184  1.00  0.00     0.134 A 
ATOM     77  F   UNL A   1      43.669  31.868  34.180  1.00  0.00    -0.206 F 
ATOM     78  C   UNL A   1      44.450  34.065  33.906  1.00  0.00     0.040 A 
ATOM     79  C   UNL A   1      45.096  34.851  31.722  1.00  0.00     0.040 A 
ATOM     80  F   UNL A   1      44.929  33.426  29.866  1.00  0.00    -0.206 F 
ATOM     81  C   UNL A   1      44.934  35.084  33.087  1.00  0.00     0.006 A 
ENDBRANCH  57  74
ENDBRANCH  31  32
ENDBRANCH  24  26
ENDBRANCH  23  24
ENDBRANCH  22  23
ENDBRANCH   1  22
TORSDOF 14
ENDMDL
MODEL 2
REMARK VINA RESULT:      -8.8      4.427      9.876
REMARK SMILES Cc1cccc(C)c1Nc1ccccc1CC(=O)OCCOC(=O)c1ccc(-c2c3nc(c(-c4c(F)cccc4F)c4ccc([nH]4)c(-c4c(F)cccc4F)c4nc(c(-c5c(F)cccc5F)c5ccc2[nH]5)C=C4)C=C3)cc1
REMARK SMILES IDX 20 1 19 2 17 3 18 4 16 5 15 6 10 7 11 8 12 9 14 10 13 11
REMARK SMILES IDX 9 12 8 14 1 15 2 16 3 17 4 18 6 19 5 20 7 21 21 22 22 23
REMARK SMILES IDX 23 24 24 25 25 26 26 27 78 28 27 29 77 30 28 31 29 32 30 33
REMARK SMILES IDX 71 34 31 35 76 36 70 37 72 38 32 39 75 40 69 41 68 42 33 44
REMARK SMILES IDX 59 45 42 46 58 47 43 48 46 49 57 50 73 51 44 52 45 53 56 55
REMARK SMILES IDX 74 56 47 57 34 58 35 59 40 60 36 61 37 62 39 63 41 64 38 65
REMARK SMILES IDX 60 66 61 67 66 68 62 69 63 70 65 71 67 72 64 73 48 74 49 75
REMARK SMILES IDX 54 76 50 77 51 78 53 79 55 80 52 81
REMARK H PARENT 9 13 72 43 46 54
REMARK Flexibility Score: inf
ROOT
ATOM      1  C   UNL A   1      33.714  34.238  29.166  1.00  0.00     0.274 C 
ENDROOT
BRANCH   1   2
ATOM      2  O   UNL A   1      33.669  33.698  30.498  1.00  0.00    -0.462 OA
BRANCH   2   3
ATOM      3  C   UNL A   1      34.567  34.228  31.370  1.00  0.00     0.310 C 
ATOM      4  O   UNL A   1      34.478  35.349  31.865  1.00  0.00    -0.252 OA
BRANCH   3   5
ATOM      5  C   UNL A   1      35.761  33.346  31.621  1.00  0.00     0.160 C 
BRANCH   5   6
ATOM      6  C   UNL A   1      37.110  33.754  31.062  1.00  0.00    -0.013 A 
ATOM      7  C   UNL A   1      38.177  34.098  31.922  1.00  0.00     0.042 A 
ATOM      8  C   UNL A   1      39.395  34.527  31.366  1.00  0.00     0.026 A 
ATOM      9  C   UNL A   1      39.593  34.547  29.987  1.00  0.00     0.002 A 
ATOM     10  C   UNL A   1      37.343  33.741  29.673  1.00  0.00     0.006 A 
ATOM     11  C   UNL A   1      38.572  34.133  29.142  1.00  0.00     0.000 A 
BRANCH   7  12
ATOM     12  N   UNL A   1      38.129  33.928  33.321  1.00  0.00    -0.355 N 
ATOM     13  H   UNL A   1      37.450  34.475  33.777  1.00  0.00     0.167 HD
BRANCH  12  14
ATOM     14  C   UNL A   1      38.894  33.103  34.179  1.00  0.00     0.044 A 
ATOM     15  C   UNL A   1      40.177  35.186  34.900  1.00  0.00     0.046 C 
ATOM     16  C   UNL A   1      39.898  33.708  34.977  1.00  0.00    -0.027 A 
ATOM     17  C   UNL A   1      40.603  32.942  35.918  1.00  0.00     0.005 A 
ATOM     18  C   UNL A   1      40.330  31.589  36.079  1.00  0.00     0.001 A 
ATOM     19  C   UNL A   1      38.650  31.715  34.322  1.00  0.00    -0.027 A 
ATOM     20  C   UNL A   1      39.362  30.981  35.288  1.00  0.00     0.005 A 
ATOM     21  C   UNL A   1      37.650  30.960  33.485  1.00  0.00     0.046 C 
ENDBRANCH  12  14
ENDBRANCH   7  12
ENDBRANCH   5   6
ENDBRANCH   3   5
ENDBRANCH   2   3
ENDBRANCH   1   2
BRANCH   1  22
ATOM     22  C   UNL A   1      34.007  33.143  28.141  1.00  0.00     0.275 C 
BRANCH  22  23
ATOM     23  O   UNL A   1      34.452  31.947  28.807  1.00  0.00    -0.458 OA
BRANCH  23  24
ATOM     24  C   UNL A   1      34.654  30.872  28.016  1.00  0.00     0.338 C 
ATOM     25  O   UNL A   1      33.924  30.441  27.141  1.00  0.00    -0.246 OA
BRANCH  24  26
ATOM     26  C   UNL A   1      35.935  30.233  28.362  1.00  0.00     0.060 A 
ATOM     27  C   UNL A   1      36.157  29.721  29.644  1.00  0.00     0.016 A 
ATOM     28  C   UNL A   1      36.963  30.252  27.420  1.00  0.00     0.016 A 
ATOM     29  C   UNL A   1      37.425  29.251  29.995  1.00  0.00     0.010 A 
ATOM     30  C   UNL A   1      38.215  29.740  27.759  1.00  0.00     0.010 A 
ATOM     31  C   UNL A   1      38.465  29.256  29.055  1.00  0.00    -0.014 A 
BRANCH  31  32
ATOM     32  C   UNL A   1      39.832  28.797  29.410  1.00  0.00     0.031 A 
ATOM     33  C   UNL A   1      40.742  29.700  30.197  1.00  0.00     0.074 A 
ATOM     34  C   UNL A   1      40.275  27.596  28.996  1.00  0.00     0.049 A 
ATOM     35  N   UNL A   1      42.025  29.587  30.428  1.00  0.00    -0.248 NA
ATOM     36  C   UNL A   1      40.124  30.893  30.796  1.00  0.00     0.031 C 
ATOM     37  C   UNL A   1      39.485  26.605  28.267  1.00  0.00     0.029 A 
ATOM     38  N   UNL A   1      41.513  27.015  29.116  1.00  0.00    -0.354 N 
ATOM     39  C   UNL A   1      42.375  30.706  31.171  1.00  0.00     0.074 A 
ATOM     40  C   UNL A   1      41.172  31.493  31.345  1.00  0.00     0.031 C 
ATOM     41  C   UNL A   1      40.258  25.539  28.003  1.00  0.00     0.029 A 
ATOM     42  C   UNL A   1      41.609  25.798  28.490  1.00  0.00     0.049 A 
ATOM     43  H   UNL A   1      42.260  27.432  29.604  1.00  0.00     0.167 HD
ATOM     44  C   UNL A   1      43.590  31.046  31.664  1.00  0.00     0.037 A 
ATOM     45  C   UNL A   1      42.675  25.000  28.293  1.00  0.00     0.037 A 
ATOM     46  C   UNL A   1      44.783  30.255  31.510  1.00  0.00     0.049 A 
ATOM     47  C   UNL A   1      44.025  25.429  28.795  1.00  0.00     0.074 A 
ATOM     48  C   UNL A   1      46.061  30.522  31.967  1.00  0.00     0.029 A 
ATOM     49  N   UNL A   1      44.838  29.035  30.856  1.00  0.00    -0.354 N 
ATOM     50  N   UNL A   1      44.357  26.511  29.457  1.00  0.00    -0.248 NA
ATOM     51  C   UNL A   1      45.155  24.532  28.506  1.00  0.00     0.031 C 
ATOM     52  C   UNL A   1      46.897  29.472  31.569  1.00  0.00     0.029 A 
ATOM     53  C   UNL A   1      46.130  28.539  30.892  1.00  0.00     0.049 A 
ATOM     54  H   UNL A   1      44.072  28.587  30.429  1.00  0.00     0.167 HD
ATOM     55  C   UNL A   1      45.723  26.415  29.681  1.00  0.00     0.074 A 
ATOM     56  C   UNL A   1      46.160  25.165  29.095  1.00  0.00     0.031 C 
ATOM     57  C   UNL A   1      46.545  27.286  30.314  1.00  0.00     0.037 A 
BRANCH  44  58
ATOM     58  C   UNL A   1      43.695  32.345  32.406  1.00  0.00     0.057 A 
ATOM     59  C   UNL A   1      43.565  32.410  33.799  1.00  0.00     0.134 A 
ATOM     60  C   UNL A   1      43.975  33.535  31.724  1.00  0.00     0.134 A 
ATOM     61  F   UNL A   1      43.285  31.307  34.508  1.00  0.00    -0.206 F 
ATOM     62  C   UNL A   1      43.695  33.619  34.486  1.00  0.00     0.040 A 
ATOM     63  C   UNL A   1      44.126  34.746  32.402  1.00  0.00     0.040 A 
ATOM     64  F   UNL A   1      44.116  33.539  30.390  1.00  0.00    -0.206 F 
ATOM     65  C   UNL A   1      43.983  34.790  33.787  1.00  0.00     0.006 A 
ENDBRANCH  44  58
BRANCH  45  66
ATOM     66  C   UNL A   1      42.521  23.721  27.557  1.00  0.00     0.057 A 
ATOM     67  C   UNL A   1      42.258  22.527  28.237  1.00  0.00     0.134 A 
ATOM     68  C   UNL A   1      42.652  23.658  26.165  1.00  0.00     0.134 A 
ATOM     69  F   UNL A   1      42.149  22.522  29.574  1.00  0.00    -0.206 F 
ATOM     70  C   UNL A   1      42.144  21.312  27.561  1.00  0.00     0.040 A 
ATOM     71  C   UNL A   1      42.518  22.454  25.474  1.00  0.00     0.040 A 
ATOM     72  F   UNL A   1      42.906  24.769  25.458  1.00  0.00    -0.206 F 
ATOM     73  C   UNL A   1      42.269  21.274  26.173  1.00  0.00     0.006 A 
ENDBRANCH  45  66
BRANCH  57  74
ATOM     74  C   UNL A   1      47.986  26.896  30.440  1.00  0.00     0.057 A 
ATOM     75  C   UNL A   1      48.943  27.302  29.502  1.00  0.00     0.134 A 
ATOM     76  C   UNL A   1      48.424  26.129  31.527  1.00  0.00     0.134 A 
ATOM     77  F   UNL A   1      48.582  28.026  28.432  1.00  0.00    -0.206 F 
ATOM     78  C   UNL A   1      50.285  26.941  29.630  1.00  0.00     0.040 A 
ATOM     79  C   UNL A   1      49.766  25.778  31.675  1.00  0.00     0.040 A 
ATOM     80  F   UNL A   1      47.556  25.714  32.461  1.00  0.00    -0.206 F 
ATOM     81  C   UNL A   1      50.700  26.181  30.723  1.00  0.00     0.006 A 
ENDBRANCH  57  74
ENDBRANCH  31  32
ENDBRANCH  24  26
ENDBRANCH  23  24
ENDBRANCH  22  23
ENDBRANCH   1  22
TORSDOF 14
ENDMDL
MODEL 3
REMARK VINA RESULT:      -8.6      0.342      1.366
REMARK SMILES Cc1cccc(C)c1Nc1ccccc1CC(=O)OCCOC(=O)c1ccc(-c2c3nc(c(-c4c(F)cccc4F)c4ccc([nH]4)c(-c4c(F)cccc4F)c4nc(c(-c5c(F)cccc5F)c5ccc2[nH]5)C=C4)C=C3)cc1
REMARK SMILES IDX 20 1 19 2 17 3 18 4 16 5 15 6 10 7 11 8 12 9 14 10 13 11
REMARK SMILES IDX 9 12 8 14 1 15 2 16 3 17 4 18 6 19 5 20 7 21 21 22 22 23
REMARK SMILES IDX 23 24 24 25 25 26 26 27 78 28 27 29 77 30 28 31 29 32 30 33
REMARK SMILES IDX 71 34 31 35 76 36 70 37 72 38 32 39 75 40 69 41 68 42 33 44
REMARK SMILES IDX 59 45 42 46 58 47 43 48 46 49 57 50 73 51 44 52 45 53 56 55
REMARK SMILES IDX 74 56 47 57 34 58 35 59 40 60 36 61 37 62 39 63 41 64 38 65
REMARK SMILES IDX 60 66 61 67 66 68 62 69 63 70 65 71 67 72 64 73 48 74 49 75
REMARK SMILES IDX 54 76 50 77 51 78 53 79 55 80 52 81
REMARK H PARENT 9 13 72 43 46 54
REMARK Flexibility Score: inf
ROOT
ATOM      1  C   UNL A   1      45.700  20.651  25.602  1.00  0.00     0.274 C 
ENDROOT
BRANCH   1   2
ATOM      2  O   UNL A   1      46.419  21.524  24.713  1.00  0.00    -0.462 OA
BRANCH   2   3
ATOM      3  C   UNL A   1      45.804  22.704  24.436  1.00  0.00     0.310 C 
ATOM      4  O   UNL A   1      45.089  22.904  23.457  1.00  0.00    -0.252 OA
BRANCH   3   5
ATOM      5  C   UNL A   1      46.146  23.807  25.403  1.00  0.00     0.160 C 
BRANCH   5   6
ATOM      6  C   UNL A   1      46.731  25.101  24.869  1.00  0.00    -0.013 A 
ATOM      7  C   UNL A   1      46.156  26.348  25.203  1.00  0.00     0.042 A 
ATOM      8  C   UNL A   1      46.691  27.520  24.642  1.00  0.00     0.026 A 
ATOM      9  C   UNL A   1      47.820  27.482  23.826  1.00  0.00     0.002 A 
ATOM     10  C   UNL A   1      47.895  25.087  24.077  1.00  0.00     0.006 A 
ATOM     11  C   UNL A   1      48.434  26.266  23.562  1.00  0.00     0.000 A 
BRANCH   7  12
ATOM     12  N   UNL A   1      45.135  26.497  26.164  1.00  0.00    -0.355 N 
ATOM     13  H   UNL A   1      45.080  25.765  26.820  1.00  0.00     0.167 HD
BRANCH  12  14
ATOM     14  C   UNL A   1      44.177  27.522  26.343  1.00  0.00     0.044 A 
ATOM     15  C   UNL A   1      45.913  28.790  27.716  1.00  0.00     0.046 C 
ATOM     16  C   UNL A   1      44.547  28.667  27.093  1.00  0.00    -0.027 A 
ATOM     17  C   UNL A   1      43.662  29.751  27.202  1.00  0.00     0.005 A 
ATOM     18  C   UNL A   1      42.418  29.716  26.583  1.00  0.00     0.001 A 
ATOM     19  C   UNL A   1      42.892  27.479  25.748  1.00  0.00    -0.027 A 
ATOM     20  C   UNL A   1      42.037  28.590  25.861  1.00  0.00     0.005 A 
ATOM     21  C   UNL A   1      42.374  26.290  24.982  1.00  0.00     0.046 C 
ENDBRANCH  12  14
ENDBRANCH   7  12
ENDBRANCH   5   6
ENDBRANCH   3   5
ENDBRANCH   2   3
ENDBRANCH   1   2
BRANCH   1  22
ATOM     22  C   UNL A   1      44.492  20.030  24.902  1.00  0.00     0.275 C 
BRANCH  22  23
ATOM     23  O   UNL A   1      43.559  19.527  25.875  1.00  0.00    -0.458 OA
BRANCH  23  24
ATOM     24  C   UNL A   1      42.325  20.073  25.847  1.00  0.00     0.338 C 
ATOM     25  O   UNL A   1      41.321  19.623  25.323  1.00  0.00    -0.246 OA
BRANCH  24  26
ATOM     26  C   UNL A   1      42.336  21.362  26.558  1.00  0.00     0.060 A 
ATOM     27  C   UNL A   1      42.478  22.565  25.860  1.00  0.00     0.016 A 
ATOM     28  C   UNL A   1      42.316  21.352  27.953  1.00  0.00     0.016 A 
ATOM     29  C   UNL A   1      42.632  23.763  26.562  1.00  0.00     0.010 A 
ATOM     30  C   UNL A   1      42.423  22.555  28.651  1.00  0.00     0.010 A 
ATOM     31  C   UNL A   1      42.605  23.768  27.964  1.00  0.00    -0.014 A 
BRANCH  31  32
ATOM     32  C   UNL A   1      42.802  25.020  28.738  1.00  0.00     0.031 A 
ATOM     33  C   UNL A   1      41.687  26.025  28.829  1.00  0.00     0.074 A 
ATOM     34  C   UNL A   1      43.985  25.279  29.324  1.00  0.00     0.049 A 
ATOM     35  N   UNL A   1      41.715  27.258  29.267  1.00  0.00    -0.248 NA
ATOM     36  C   UNL A   1      40.365  25.584  28.355  1.00  0.00     0.031 C 
ATOM     37  C   UNL A   1      45.133  24.374  29.353  1.00  0.00     0.029 A 
ATOM     38  N   UNL A   1      44.421  26.395  29.993  1.00  0.00    -0.354 N 
ATOM     39  C   UNL A   1      40.428  27.750  29.094  1.00  0.00     0.074 A 
ATOM     40  C   UNL A   1      39.644  26.686  28.502  1.00  0.00     0.031 C 
ATOM     41  C   UNL A   1      46.144  24.971  30.005  1.00  0.00     0.029 A 
ATOM     42  C   UNL A   1      45.734  26.320  30.385  1.00  0.00     0.049 A 
ATOM     43  H   UNL A   1      43.847  27.174  30.174  1.00  0.00     0.167 HD
ATOM     44  C   UNL A   1      39.944  28.977  29.402  1.00  0.00     0.037 A 
ATOM     45  C   UNL A   1      46.531  27.248  30.948  1.00  0.00     0.037 A 
ATOM     46  C   UNL A   1      40.718  30.028  30.011  1.00  0.00     0.049 A 
ATOM     47  C   UNL A   1      45.989  28.622  31.222  1.00  0.00     0.074 A 
ATOM     48  C   UNL A   1      40.317  31.308  30.353  1.00  0.00     0.029 A 
ATOM     49  N   UNL A   1      42.048  29.914  30.378  1.00  0.00    -0.354 N 
ATOM     50  N   UNL A   1      44.784  29.094  31.013  1.00  0.00    -0.248 NA
ATOM     51  C   UNL A   1      46.926  29.600  31.795  1.00  0.00     0.031 C 
ATOM     52  C   UNL A   1      41.414  31.978  30.907  1.00  0.00     0.029 A 
ATOM     53  C   UNL A   1      42.487  31.103  30.938  1.00  0.00     0.049 A 
ATOM     54  H   UNL A   1      42.601  29.108  30.258  1.00  0.00     0.167 HD
ATOM     55  C   UNL A   1      44.811  30.412  31.448  1.00  0.00     0.074 A 
ATOM     56  C   UNL A   1      46.149  30.665  31.942  1.00  0.00     0.031 C 
ATOM     57  C   UNL A   1      43.818  31.333  31.436  1.00  0.00     0.037 A 
BRANCH  44  58
ATOM     58  C   UNL A   1      38.510  29.258  29.070  1.00  0.00     0.057 A 
ATOM     59  C   UNL A   1      37.507  29.227  30.046  1.00  0.00     0.134 A 
ATOM     60  C   UNL A   1      38.135  29.607  27.766  1.00  0.00     0.134 A 
ATOM     61  F   UNL A   1      37.800  28.888  31.311  1.00  0.00    -0.206 F 
ATOM     62  C   UNL A   1      36.178  29.520  29.735  1.00  0.00     0.040 A 
ATOM     63  C   UNL A   1      36.813  29.920  27.446  1.00  0.00     0.040 A 
ATOM     64  F   UNL A   1      39.049  29.659  26.786  1.00  0.00    -0.206 F 
ATOM     65  C   UNL A   1      35.830  29.874  28.433  1.00  0.00     0.006 A 
ENDBRANCH  44  58
BRANCH  45  66
ATOM     66  C   UNL A   1      47.943  26.922  31.264  1.00  0.00     0.057 A 
ATOM     67  C   UNL A   1      48.290  26.334  32.486  1.00  0.00     0.134 A 
ATOM     68  C   UNL A   1      48.978  27.206  30.366  1.00  0.00     0.134 A 
ATOM     69  F   UNL A   1      47.342  26.063  33.396  1.00  0.00    -0.206 F 
ATOM     70  C   UNL A   1      49.617  26.053  32.810  1.00  0.00     0.040 A 
ATOM     71  C   UNL A   1      50.307  26.910  30.667  1.00  0.00     0.040 A 
ATOM     72  F   UNL A   1      48.709  27.771  29.180  1.00  0.00    -0.206 F 
ATOM     73  C   UNL A   1      50.631  26.337  31.896  1.00  0.00     0.006 A 
ENDBRANCH  45  66
BRANCH  57  74
ATOM     74  C   UNL A   1      44.131  32.681  32.011  1.00  0.00     0.057 A 
ATOM     75  C   UNL A   1      44.607  33.728  31.214  1.00  0.00     0.134 A 
ATOM     76  C   UNL A   1      43.926  32.940  33.371  1.00  0.00     0.134 A 
ATOM     77  F   UNL A   1      44.837  33.537  29.906  1.00  0.00    -0.206 F 
ATOM     78  C   UNL A   1      44.890  34.983  31.755  1.00  0.00     0.040 A 
ATOM     79  C   UNL A   1      44.186  34.195  33.920  1.00  0.00     0.040 A 
ATOM     80  F   UNL A   1      43.466  31.979  34.186  1.00  0.00    -0.206 F 
ATOM     81  C   UNL A   1      44.674  35.221  33.112  1.00  0.00     0.006 A 
ENDBRANCH  57  74
ENDBRANCH  31  32
ENDBRANCH  24  26
ENDBRANCH  23  24
ENDBRANCH  22  23
ENDBRANCH   1  22
TORSDOF 14
ENDMDL
