MODEL 1
REMARK VINA RESULT:     -11.7      0.000      0.000
REMARK SMILES Cc1n[nH]c(C)c1CC(=O)N1CC[C@H](C(=O)OCCOC(=O)c2ccc(-c3c4nc(c(-c5c(F)cccc5F)c5ccc([nH]5)c(-c5c(F)cccc5F)c5nc(c(-c6c(F)cccc6F)c6ccc3[nH]6)C=C5)C=C4)cc2)[C@H]1C
REMARK SMILES IDX 18 1 17 2 15 3 16 4 14 5 11 6 12 7 77 8 13 9 78 10 9 11
REMARK SMILES IDX 10 12 8 13 7 14 1 15 2 16 3 17 4 18 5 19 6 21 19 22 20 23
REMARK SMILES IDX 21 24 22 25 23 26 24 27 76 28 25 29 75 30 26 31 27 32 28 33
REMARK SMILES IDX 69 34 29 35 74 36 68 37 70 38 30 39 73 40 67 41 66 42 31 44
REMARK SMILES IDX 57 45 40 46 56 47 41 48 44 49 55 50 71 51 42 52 43 53 54 55
REMARK SMILES IDX 72 56 45 57 32 58 33 59 38 60 34 61 35 62 37 63 39 64 36 65
REMARK SMILES IDX 58 66 59 67 64 68 60 69 61 70 63 71 65 72 62 73 46 74 47 75
REMARK SMILES IDX 52 76 48 77 49 78 51 79 53 80 50 81
REMARK H PARENT 4 20 70 43 44 54
REMARK Flexibility Score: inf
ROOT
ATOM      1  C   UNL A   1      34.517  20.842  25.096  1.00  0.00     0.274 C 
ENDROOT
BRANCH   1   2
ATOM      2  O   UNL A   1      34.103  21.591  23.929  1.00  0.00    -0.462 OA
BRANCH   2   3
ATOM      3  C   UNL A   1      34.335  22.926  23.979  1.00  0.00     0.311 C 
ATOM      4  O   UNL A   1      34.895  23.566  23.093  1.00  0.00    -0.252 OA
BRANCH   3   5
ATOM      5  C   UNL A   1      33.853  23.608  25.245  1.00  0.00     0.123 C 
ATOM      6  N   UNL A   1      32.219  25.300  24.863  1.00  0.00    -0.339 N 
ATOM      7  C   UNL A   1      33.528  25.881  24.616  1.00  0.00     0.121 C 
ATOM      8  C   UNL A   1      32.353  23.932  25.389  1.00  0.00     0.096 C 
ATOM      9  C   UNL A   1      34.495  24.991  25.376  1.00  0.00     0.039 C 
ATOM     10  C   UNL A   1      31.989  23.862  26.875  1.00  0.00     0.032 C 
BRANCH   6  11
ATOM     11  C   UNL A   1      31.101  25.975  24.415  1.00  0.00     0.227 C 
ATOM     12  O   UNL A   1      30.311  25.399  23.653  1.00  0.00    -0.275 OA
BRANCH  11  13
ATOM     13  C   UNL A   1      30.899  27.468  24.644  1.00  0.00     0.139 C 
BRANCH  13  14
ATOM     14  C   UNL A   1      30.705  28.377  23.481  1.00  0.00     0.005 A 
ATOM     15  C   UNL A   1      28.115  28.251  23.126  1.00  0.00     0.069 C 
ATOM     16  C   UNL A   1      29.490  28.725  22.827  1.00  0.00     0.063 A 
ATOM     17  N   UNL A   1      29.698  29.576  21.816  1.00  0.00    -0.181 NA
ATOM     18  N   UNL A   1      31.028  29.703  21.758  1.00  0.00    -0.282 N 
ATOM     19  C   UNL A   1      31.689  28.977  22.708  1.00  0.00     0.036 A 
ATOM     20  H   UNL A   1      31.487  30.268  21.095  1.00  0.00     0.190 HD
ATOM     21  C   UNL A   1      33.173  28.928  22.751  1.00  0.00     0.066 C 
ENDBRANCH  13  14
ENDBRANCH  11  13
ENDBRANCH   6  11
ENDBRANCH   3   5
ENDBRANCH   2   3
ENDBRANCH   1   2
BRANCH   1  22
ATOM     22  C   UNL A   1      35.988  20.439  25.001  1.00  0.00     0.275 C 
BRANCH  22  23
ATOM     23  O   UNL A   1      36.783  21.391  25.726  1.00  0.00    -0.458 OA
BRANCH  23  24
ATOM     24  C   UNL A   1      38.114  21.158  25.751  1.00  0.00     0.338 C 
ATOM     25  O   UNL A   1      38.683  20.149  25.351  1.00  0.00    -0.246 OA
BRANCH  24  26
ATOM     26  C   UNL A   1      38.826  22.332  26.313  1.00  0.00     0.060 A 
ATOM     27  C   UNL A   1      38.341  23.628  26.126  1.00  0.00     0.016 A 
ATOM     28  C   UNL A   1      40.045  22.151  26.968  1.00  0.00     0.016 A 
ATOM     29  C   UNL A   1      39.112  24.734  26.488  1.00  0.00     0.010 A 
ATOM     30  C   UNL A   1      40.761  23.261  27.436  1.00  0.00     0.010 A 
ATOM     31  C   UNL A   1      40.322  24.572  27.176  1.00  0.00    -0.014 A 
BRANCH  31  32
ATOM     32  C   UNL A   1      41.136  25.749  27.603  1.00  0.00     0.031 A 
ATOM     33  C   UNL A   1      40.527  26.814  28.481  1.00  0.00     0.074 A 
ATOM     34  C   UNL A   1      42.420  25.890  27.210  1.00  0.00     0.049 A 
ATOM     35  N   UNL A   1      40.954  28.027  28.731  1.00  0.00    -0.248 NA
ATOM     36  C   UNL A   1      39.262  26.477  29.154  1.00  0.00     0.031 C 
ATOM     37  C   UNL A   1      43.180  24.931  26.406  1.00  0.00     0.029 A 
ATOM     38  N   UNL A   1      43.318  26.908  27.437  1.00  0.00    -0.354 N 
ATOM     39  C   UNL A   1      39.980  28.619  29.526  1.00  0.00     0.074 A 
ATOM     40  C   UNL A   1      38.944  27.628  29.730  1.00  0.00     0.031 C 
ATOM     41  C   UNL A   1      44.433  25.382  26.244  1.00  0.00     0.029 A 
ATOM     42  C   UNL A   1      44.539  26.709  26.836  1.00  0.00     0.049 A 
ATOM     43  H   UNL A   1      43.106  27.703  27.977  1.00  0.00     0.167 HD
ATOM     44  C   UNL A   1      39.950  29.874  30.034  1.00  0.00     0.037 A 
ATOM     45  C   UNL A   1      45.608  27.520  26.718  1.00  0.00     0.037 A 
ATOM     46  C   UNL A   1      41.010  30.838  29.893  1.00  0.00     0.049 A 
ATOM     47  C   UNL A   1      45.545  28.912  27.275  1.00  0.00     0.074 A 
ATOM     48  C   UNL A   1      41.060  32.142  30.357  1.00  0.00     0.029 A 
ATOM     49  N   UNL A   1      42.221  30.591  29.268  1.00  0.00    -0.354 N 
ATOM     50  N   UNL A   1      44.571  29.499  27.927  1.00  0.00    -0.248 NA
ATOM     51  C   UNL A   1      46.720  29.768  27.053  1.00  0.00     0.031 C 
ATOM     52  C   UNL A   1      42.299  32.688  30.002  1.00  0.00     0.029 A 
ATOM     53  C   UNL A   1      43.029  31.714  29.343  1.00  0.00     0.049 A 
ATOM     54  H   UNL A   1      42.470  29.743  28.835  1.00  0.00     0.167 HD
ATOM     55  C   UNL A   1      45.015  30.785  28.194  1.00  0.00     0.074 A 
ATOM     56  C   UNL A   1      46.356  30.889  27.659  1.00  0.00     0.031 C 
ATOM     57  C   UNL A   1      44.365  31.797  28.817  1.00  0.00     0.037 A 
BRANCH  44  58
ATOM     58  C   UNL A   1      38.718  30.297  30.778  1.00  0.00     0.057 A 
ATOM     59  C   UNL A   1      38.606  30.163  32.166  1.00  0.00     0.134 A 
ATOM     60  C   UNL A   1      37.655  30.908  30.098  1.00  0.00     0.134 A 
ATOM     61  F   UNL A   1      39.583  29.577  32.873  1.00  0.00    -0.206 F 
ATOM     62  C   UNL A   1      37.475  30.613  32.851  1.00  0.00     0.040 A 
ATOM     63  C   UNL A   1      36.530  31.381  30.773  1.00  0.00     0.040 A 
ATOM     64  F   UNL A   1      37.705  31.073  28.767  1.00  0.00    -0.206 F 
ATOM     65  C   UNL A   1      36.437  31.232  32.156  1.00  0.00     0.006 A 
ENDBRANCH  44  58
BRANCH  45  66
ATOM     66  C   UNL A   1      46.812  27.060  25.982  1.00  0.00     0.057 A 
ATOM     67  C   UNL A   1      47.837  26.366  26.634  1.00  0.00     0.134 A 
ATOM     68  C   UNL A   1      46.974  27.317  24.614  1.00  0.00     0.134 A 
ATOM     69  F   UNL A   1      47.752  26.116  27.949  1.00  0.00    -0.206 F 
ATOM     70  C   UNL A   1      48.984  25.953  25.956  1.00  0.00     0.040 A 
ATOM     71  C   UNL A   1      48.103  26.886  23.919  1.00  0.00     0.040 A 
ATOM     72  F   UNL A   1      46.028  27.979  23.933  1.00  0.00    -0.206 F 
ATOM     73  C   UNL A   1      49.116  26.206  24.592  1.00  0.00     0.006 A 
ENDBRANCH  45  66
BRANCH  57  74
ATOM     74  C   UNL A   1      45.108  33.086  28.980  1.00  0.00     0.057 A 
ATOM     75  C   UNL A   1      45.929  33.325  30.089  1.00  0.00     0.134 A 
ATOM     76  C   UNL A   1      45.016  34.092  28.009  1.00  0.00     0.134 A 
ATOM     77  F   UNL A   1      46.046  32.407  31.059  1.00  0.00    -0.206 F 
ATOM     78  C   UNL A   1      46.618  34.529  30.236  1.00  0.00     0.040 A 
ATOM     79  C   UNL A   1      45.714  35.292  28.137  1.00  0.00     0.040 A 
ATOM     80  F   UNL A   1      44.249  33.920  26.923  1.00  0.00    -0.206 F 
ATOM     81  C   UNL A   1      46.514  35.515  29.256  1.00  0.00     0.006 A 
ENDBRANCH  57  74
ENDBRANCH  31  32
ENDBRANCH  24  26
ENDBRANCH  23  24
ENDBRANCH  22  23
ENDBRANCH   1  22
TORSDOF 14
ENDMDL
MODEL 2
REMARK VINA RESULT:     -11.5      3.845      8.733
REMARK SMILES Cc1n[nH]c(C)c1CC(=O)N1CC[C@H](C(=O)OCCOC(=O)c2ccc(-c3c4nc(c(-c5c(F)cccc5F)c5ccc([nH]5)c(-c5c(F)cccc5F)c5nc(c(-c6c(F)cccc6F)c6ccc3[nH]6)C=C5)C=C4)cc2)[C@H]1C
REMARK SMILES IDX 18 1 17 2 15 3 16 4 14 5 11 6 12 7 77 8 13 9 78 10 9 11
REMARK SMILES IDX 10 12 8 13 7 14 1 15 2 16 3 17 4 18 5 19 6 21 19 22 20 23
REMARK SMILES IDX 21 24 22 25 23 26 24 27 76 28 25 29 75 30 26 31 27 32 28 33
REMARK SMILES IDX 69 34 29 35 74 36 68 37 70 38 30 39 73 40 67 41 66 42 31 44
REMARK SMILES IDX 57 45 40 46 56 47 41 48 44 49 55 50 71 51 42 52 43 53 54 55
REMARK SMILES IDX 72 56 45 57 32 58 33 59 38 60 34 61 35 62 37 63 39 64 36 65
REMARK SMILES IDX 58 66 59 67 64 68 60 69 61 70 63 71 65 72 62 73 46 74 47 75
REMARK SMILES IDX 52 76 48 77 49 78 51 79 53 80 50 81
REMARK H PARENT 4 20 70 43 44 54
REMARK Flexibility Score: inf
ROOT
ATOM      1  C   UNL A   1      30.806  29.552  24.352  1.00  0.00     0.274 C 
ENDROOT
BRANCH   1   2
ATOM      2  O   UNL A   1      31.349  29.209  23.055  1.00  0.00    -0.462 OA
BRANCH   2   3
ATOM      3  C   UNL A   1      30.998  27.989  22.578  1.00  0.00     0.311 C 
ATOM      4  O   UNL A   1      29.926  27.436  22.808  1.00  0.00    -0.252 OA
BRANCH   3   5
ATOM      5  C   UNL A   1      32.052  27.316  21.719  1.00  0.00     0.123 C 
ATOM      6  N   UNL A   1      32.574  25.094  22.403  1.00  0.00    -0.339 N 
ATOM      7  C   UNL A   1      33.325  26.008  23.247  1.00  0.00     0.121 C 
ATOM      8  C   UNL A   1      31.868  25.833  21.344  1.00  0.00     0.096 C 
ATOM      9  C   UNL A   1      33.396  27.299  22.451  1.00  0.00     0.039 C 
ATOM     10  C   UNL A   1      32.511  25.602  19.973  1.00  0.00     0.032 C 
BRANCH   6  11
ATOM     11  C   UNL A   1      32.460  23.775  22.795  1.00  0.00     0.227 C 
ATOM     12  O   UNL A   1      33.276  22.944  22.369  1.00  0.00    -0.275 OA
BRANCH  11  13
ATOM     13  C   UNL A   1      31.252  23.249  23.562  1.00  0.00     0.139 C 
BRANCH  13  14
ATOM     14  C   UNL A   1      31.294  23.171  25.048  1.00  0.00     0.005 A 
ATOM     15  C   UNL A   1      30.413  25.537  25.737  1.00  0.00     0.069 C 
ATOM     16  C   UNL A   1      30.919  24.165  25.995  1.00  0.00     0.063 A 
ATOM     17  N   UNL A   1      31.088  23.741  27.252  1.00  0.00    -0.181 NA
ATOM     18  N   UNL A   1      31.648  22.533  27.121  1.00  0.00    -0.282 N 
ATOM     19  C   UNL A   1      31.833  22.152  25.822  1.00  0.00     0.036 A 
ATOM     20  H   UNL A   1      31.902  21.971  27.889  1.00  0.00     0.190 HD
ATOM     21  C   UNL A   1      32.513  20.878  25.478  1.00  0.00     0.066 C 
ENDBRANCH  13  14
ENDBRANCH  11  13
ENDBRANCH   6  11
ENDBRANCH   3   5
ENDBRANCH   2   3
ENDBRANCH   1   2
BRANCH   1  22
ATOM     22  C   UNL A   1      31.769  29.163  25.473  1.00  0.00     0.275 C 
BRANCH  22  23
ATOM     23  O   UNL A   1      32.859  30.098  25.502  1.00  0.00    -0.458 OA
BRANCH  23  24
ATOM     24  C   UNL A   1      32.960  30.860  26.613  1.00  0.00     0.338 C 
ATOM     25  O   UNL A   1      32.101  31.612  27.060  1.00  0.00    -0.246 OA
BRANCH  24  26
ATOM     26  C   UNL A   1      34.274  30.638  27.264  1.00  0.00     0.060 A 
ATOM     27  C   UNL A   1      34.714  29.353  27.584  1.00  0.00     0.016 A 
ATOM     28  C   UNL A   1      35.051  31.735  27.642  1.00  0.00     0.016 A 
ATOM     29  C   UNL A   1      35.856  29.166  28.364  1.00  0.00     0.010 A 
ATOM     30  C   UNL A   1      36.259  31.537  28.324  1.00  0.00     0.010 A 
ATOM     31  C   UNL A   1      36.665  30.252  28.725  1.00  0.00    -0.014 A 
BRANCH  31  32
ATOM     32  C   UNL A   1      37.910  30.059  29.528  1.00  0.00     0.031 A 
ATOM     33  C   UNL A   1      39.051  29.240  28.975  1.00  0.00     0.074 A 
ATOM     34  C   UNL A   1      38.039  30.602  30.757  1.00  0.00     0.049 A 
ATOM     35  N   UNL A   1      40.080  28.725  29.600  1.00  0.00    -0.248 NA
ATOM     36  C   UNL A   1      39.019  28.947  27.533  1.00  0.00     0.031 C 
ATOM     37  C   UNL A   1      37.059  31.464  31.420  1.00  0.00     0.029 A 
ATOM     38  N   UNL A   1      39.060  30.504  31.675  1.00  0.00    -0.354 N 
ATOM     39  C   UNL A   1      40.776  27.990  28.647  1.00  0.00     0.074 A 
ATOM     40  C   UNL A   1      40.060  28.137  27.397  1.00  0.00     0.031 C 
ATOM     41  C   UNL A   1      37.540  31.849  32.612  1.00  0.00     0.029 A 
ATOM     42  C   UNL A   1      38.812  31.177  32.848  1.00  0.00     0.049 A 
ATOM     43  H   UNL A   1      39.888  29.999  31.508  1.00  0.00     0.167 HD
ATOM     44  C   UNL A   1      41.905  27.258  28.801  1.00  0.00     0.037 A 
ATOM     45  C   UNL A   1      39.493  31.209  34.009  1.00  0.00     0.037 A 
ATOM     46  C   UNL A   1      42.658  27.167  30.025  1.00  0.00     0.049 A 
ATOM     47  C   UNL A   1      40.732  30.376  34.163  1.00  0.00     0.074 A 
ATOM     48  C   UNL A   1      43.804  26.433  30.283  1.00  0.00     0.029 A 
ATOM     49  N   UNL A   1      42.360  27.860  31.187  1.00  0.00    -0.354 N 
ATOM     50  N   UNL A   1      41.317  29.596  33.287  1.00  0.00    -0.248 NA
ATOM     51  C   UNL A   1      41.390  30.405  35.478  1.00  0.00     0.031 C 
ATOM     52  C   UNL A   1      44.193  26.674  31.605  1.00  0.00     0.029 A 
ATOM     53  C   UNL A   1      43.305  27.579  32.160  1.00  0.00     0.049 A 
ATOM     54  H   UNL A   1      41.590  28.463  31.303  1.00  0.00     0.167 HD
ATOM     55  C   UNL A   1      42.409  29.045  33.943  1.00  0.00     0.074 A 
ATOM     56  C   UNL A   1      42.424  29.598  35.280  1.00  0.00     0.031 C 
ATOM     57  C   UNL A   1      43.313  28.148  33.481  1.00  0.00     0.037 A 
BRANCH  44  58
ATOM     58  C   UNL A   1      42.392  26.468  27.623  1.00  0.00     0.057 A 
ATOM     59  C   UNL A   1      41.978  25.152  27.389  1.00  0.00     0.134 A 
ATOM     60  C   UNL A   1      43.239  27.059  26.676  1.00  0.00     0.134 A 
ATOM     61  F   UNL A   1      41.176  24.527  28.264  1.00  0.00    -0.206 F 
ATOM     62  C   UNL A   1      42.396  24.448  26.258  1.00  0.00     0.040 A 
ATOM     63  C   UNL A   1      43.646  26.374  25.531  1.00  0.00     0.040 A 
ATOM     64  F   UNL A   1      43.666  28.321  26.839  1.00  0.00    -0.206 F 
ATOM     65  C   UNL A   1      43.225  25.062  25.320  1.00  0.00     0.006 A 
ENDBRANCH  44  58
BRANCH  45  66
ATOM     66  C   UNL A   1      38.981  32.010  35.150  1.00  0.00     0.057 A 
ATOM     67  C   UNL A   1      39.195  33.391  35.216  1.00  0.00     0.134 A 
ATOM     68  C   UNL A   1      38.282  31.413  36.206  1.00  0.00     0.134 A 
ATOM     69  F   UNL A   1      39.883  34.016  34.249  1.00  0.00    -0.206 F 
ATOM     70  C   UNL A   1      38.741  34.148  36.297  1.00  0.00     0.040 A 
ATOM     71  C   UNL A   1      37.799  32.162  37.279  1.00  0.00     0.040 A 
ATOM     72  F   UNL A   1      38.047  30.093  36.202  1.00  0.00    -0.206 F 
ATOM     73  C   UNL A   1      38.033  33.534  37.329  1.00  0.00     0.006 A 
ENDBRANCH  45  66
BRANCH  57  74
ATOM     74  C   UNL A   1      44.407  27.741  34.418  1.00  0.00     0.057 A 
ATOM     75  C   UNL A   1      44.292  26.608  35.233  1.00  0.00     0.134 A 
ATOM     76  C   UNL A   1      45.593  28.481  34.495  1.00  0.00     0.134 A 
ATOM     77  F   UNL A   1      43.174  25.868  35.215  1.00  0.00    -0.206 F 
ATOM     78  C   UNL A   1      45.314  26.235  36.106  1.00  0.00     0.040 A 
ATOM     79  C   UNL A   1      46.629  28.107  35.352  1.00  0.00     0.040 A 
ATOM     80  F   UNL A   1      45.764  29.573  33.737  1.00  0.00    -0.206 F 
ATOM     81  C   UNL A   1      46.489  26.983  36.164  1.00  0.00     0.006 A 
ENDBRANCH  57  74
ENDBRANCH  31  32
ENDBRANCH  24  26
ENDBRANCH  23  24
ENDBRANCH  22  23
ENDBRANCH   1  22
TORSDOF 14
ENDMDL
MODEL 3
REMARK VINA RESULT:     -11.4      0.993      2.258
REMARK SMILES Cc1n[nH]c(C)c1CC(=O)N1CC[C@H](C(=O)OCCOC(=O)c2ccc(-c3c4nc(c(-c5c(F)cccc5F)c5ccc([nH]5)c(-c5c(F)cccc5F)c5nc(c(-c6c(F)cccc6F)c6ccc3[nH]6)C=C5)C=C4)cc2)[C@H]1C
REMARK SMILES IDX 18 1 17 2 15 3 16 4 14 5 11 6 12 7 77 8 13 9 78 10 9 11
REMARK SMILES IDX 10 12 8 13 7 14 1 15 2 16 3 17 4 18 5 19 6 21 19 22 20 23
REMARK SMILES IDX 21 24 22 25 23 26 24 27 76 28 25 29 75 30 26 31 27 32 28 33
REMARK SMILES IDX 69 34 29 35 74 36 68 37 70 38 30 39 73 40 67 41 66 42 31 44
REMARK SMILES IDX 57 45 40 46 56 47 41 48 44 49 55 50 71 51 42 52 43 53 54 55
REMARK SMILES IDX 72 56 45 57 32 58 33 59 38 60 34 61 35 62 37 63 39 64 36 65
REMARK SMILES IDX 58 66 59 67 64 68 60 69 61 70 63 71 65 72 62 73 46 74 47 75
REMARK SMILES IDX 52 76 48 77 49 78 51 79 53 80 50 81
REMARK H PARENT 4 20 70 43 44 54
REMARK Flexibility Score: inf
ROOT
ATOM      1  C   UNL A   1      34.503  20.786  24.900  1.00  0.00     0.274 C 
ENDROOT
BRANCH   1   2
ATOM      2  O   UNL A   1      33.485  21.636  25.479  1.00  0.00    -0.462 OA
BRANCH   2   3
ATOM      3  C   UNL A   1      32.835  22.447  24.608  1.00  0.00     0.311 C 
ATOM      4  O   UNL A   1      32.561  22.144  23.450  1.00  0.00    -0.252 OA
BRANCH   3   5
ATOM      5  C   UNL A   1      32.461  23.807  25.165  1.00  0.00     0.123 C 
ATOM      6  N   UNL A   1      33.180  25.631  23.811  1.00  0.00    -0.339 N 
ATOM      7  C   UNL A   1      34.309  25.207  24.622  1.00  0.00     0.121 C 
ATOM      8  C   UNL A   1      31.964  24.896  24.194  1.00  0.00     0.096 C 
ATOM      9  C   UNL A   1      33.686  24.473  25.796  1.00  0.00     0.039 C 
ATOM     10  C   UNL A   1      30.977  25.794  24.947  1.00  0.00     0.032 C 
BRANCH   6  11
ATOM     11  C   UNL A   1      33.417  26.457  22.729  1.00  0.00     0.227 C 
ATOM     12  O   UNL A   1      33.653  25.951  21.622  1.00  0.00    -0.275 OA
BRANCH  11  13
ATOM     13  C   UNL A   1      33.609  27.961  22.874  1.00  0.00     0.139 C 
BRANCH  13  14
ATOM     14  C   UNL A   1      32.718  28.739  23.778  1.00  0.00     0.005 A 
ATOM     15  C   UNL A   1      34.025  28.636  26.043  1.00  0.00     0.069 C 
ATOM     16  C   UNL A   1      32.905  29.041  25.156  1.00  0.00     0.063 A 
ATOM     17  N   UNL A   1      31.895  29.768  25.645  1.00  0.00    -0.181 NA
ATOM     18  N   UNL A   1      31.028  29.857  24.631  1.00  0.00    -0.282 N 
ATOM     19  C   UNL A   1      31.449  29.226  23.494  1.00  0.00     0.036 A 
ATOM     20  H   UNL A   1      30.169  30.333  24.696  1.00  0.00     0.190 HD
ATOM     21  C   UNL A   1      30.586  29.147  22.288  1.00  0.00     0.066 C 
ENDBRANCH  13  14
ENDBRANCH  11  13
ENDBRANCH   6  11
ENDBRANCH   3   5
ENDBRANCH   2   3
ENDBRANCH   1   2
BRANCH   1  22
ATOM     22  C   UNL A   1      35.786  21.570  24.627  1.00  0.00     0.275 C 
BRANCH  22  23
ATOM     23  O   UNL A   1      36.564  21.632  25.833  1.00  0.00    -0.458 OA
BRANCH  23  24
ATOM     24  C   UNL A   1      37.857  21.255  25.727  1.00  0.00     0.338 C 
ATOM     25  O   UNL A   1      38.267  20.153  25.379  1.00  0.00    -0.246 OA
BRANCH  24  26
ATOM     26  C   UNL A   1      38.749  22.391  26.065  1.00  0.00     0.060 A 
ATOM     27  C   UNL A   1      40.015  22.177  26.613  1.00  0.00     0.016 A 
ATOM     28  C   UNL A   1      38.287  23.700  25.913  1.00  0.00     0.016 A 
ATOM     29  C   UNL A   1      40.767  23.246  27.104  1.00  0.00     0.010 A 
ATOM     30  C   UNL A   1      39.095  24.778  26.299  1.00  0.00     0.010 A 
ATOM     31  C   UNL A   1      40.334  24.567  26.930  1.00  0.00    -0.014 A 
BRANCH  31  32
ATOM     32  C   UNL A   1      41.149  25.721  27.417  1.00  0.00     0.031 A 
ATOM     33  C   UNL A   1      40.532  26.755  28.327  1.00  0.00     0.074 A 
ATOM     34  C   UNL A   1      42.440  25.867  27.053  1.00  0.00     0.049 A 
ATOM     35  N   UNL A   1      40.963  27.954  28.632  1.00  0.00    -0.248 NA
ATOM     36  C   UNL A   1      39.252  26.401  28.962  1.00  0.00     0.031 C 
ATOM     37  C   UNL A   1      43.208  24.935  26.226  1.00  0.00     0.029 A 
ATOM     38  N   UNL A   1      43.341  26.869  27.336  1.00  0.00    -0.354 N 
ATOM     39  C   UNL A   1      39.978  28.521  29.432  1.00  0.00     0.074 A 
ATOM     40  C   UNL A   1      38.932  27.531  29.578  1.00  0.00     0.031 C 
ATOM     41  C   UNL A   1      44.467  25.383  26.104  1.00  0.00     0.029 A 
ATOM     42  C   UNL A   1      44.571  26.684  26.750  1.00  0.00     0.049 A 
ATOM     43  H   UNL A   1      43.125  27.643  27.903  1.00  0.00     0.167 HD
ATOM     44  C   UNL A   1      39.947  29.755  29.989  1.00  0.00     0.037 A 
ATOM     45  C   UNL A   1      45.648  27.491  26.683  1.00  0.00     0.037 A 
ATOM     46  C   UNL A   1      41.016  30.717  29.904  1.00  0.00     0.049 A 
ATOM     47  C   UNL A   1      45.585  28.861  27.294  1.00  0.00     0.074 A 
ATOM     48  C   UNL A   1      41.068  32.001  30.420  1.00  0.00     0.029 A 
ATOM     49  N   UNL A   1      42.237  30.484  29.292  1.00  0.00    -0.354 N 
ATOM     50  N   UNL A   1      44.603  29.428  27.951  1.00  0.00    -0.248 NA
ATOM     51  C   UNL A   1      46.770  29.716  27.126  1.00  0.00     0.031 C 
ATOM     52  C   UNL A   1      42.316  32.550  30.110  1.00  0.00     0.029 A 
ATOM     53  C   UNL A   1      43.051  31.597  29.425  1.00  0.00     0.049 A 
ATOM     54  H   UNL A   1      42.488  29.652  28.830  1.00  0.00     0.167 HD
ATOM     55  C   UNL A   1      45.052  30.700  28.276  1.00  0.00     0.074 A 
ATOM     56  C   UNL A   1      46.402  30.815  27.770  1.00  0.00     0.031 C 
ATOM     57  C   UNL A   1      44.397  31.692  28.927  1.00  0.00     0.037 A 
BRANCH  44  58
ATOM     58  C   UNL A   1      38.705  30.159  30.726  1.00  0.00     0.057 A 
ATOM     59  C   UNL A   1      37.632  30.788  30.085  1.00  0.00     0.134 A 
ATOM     60  C   UNL A   1      38.558  29.852  32.086  1.00  0.00     0.134 A 
ATOM     61  F   UNL A   1      37.716  31.118  28.787  1.00  0.00    -0.206 F 
ATOM     62  C   UNL A   1      36.460  31.107  30.772  1.00  0.00     0.040 A 
ATOM     63  C   UNL A   1      37.383  30.146  32.778  1.00  0.00     0.040 A 
ATOM     64  F   UNL A   1      39.547  29.242  32.757  1.00  0.00    -0.206 F 
ATOM     65  C   UNL A   1      36.329  30.778  32.120  1.00  0.00     0.006 A 
ENDBRANCH  44  58
BRANCH  45  66
ATOM     66  C   UNL A   1      46.862  27.052  25.950  1.00  0.00     0.057 A 
ATOM     67  C   UNL A   1      47.005  27.291  24.579  1.00  0.00     0.134 A 
ATOM     68  C   UNL A   1      47.899  26.369  26.598  1.00  0.00     0.134 A 
ATOM     69  F   UNL A   1      46.032  27.915  23.898  1.00  0.00    -0.206 F 
ATOM     70  C   UNL A   1      48.130  26.859  23.876  1.00  0.00     0.040 A 
ATOM     71  C   UNL A   1      49.041  25.955  25.913  1.00  0.00     0.040 A 
ATOM     72  F   UNL A   1      47.821  26.107  27.911  1.00  0.00    -0.206 F 
ATOM     73  C   UNL A   1      49.156  26.195  24.546  1.00  0.00     0.006 A 
ENDBRANCH  45  66
BRANCH  57  74
ATOM     74  C   UNL A   1      45.146  32.967  29.154  1.00  0.00     0.057 A 
ATOM     75  C   UNL A   1      45.077  34.031  28.246  1.00  0.00     0.134 A 
ATOM     76  C   UNL A   1      45.933  33.139  30.300  1.00  0.00     0.134 A 
ATOM     77  F   UNL A   1      44.354  33.920  27.123  1.00  0.00    -0.206 F 
ATOM     78  C   UNL A   1      45.780  35.217  28.462  1.00  0.00     0.040 A 
ATOM     79  C   UNL A   1      46.625  34.326  30.535  1.00  0.00     0.040 A 
ATOM     80  F   UNL A   1      46.035  32.158  31.208  1.00  0.00    -0.206 F 
ATOM     81  C   UNL A   1      46.554  35.368  29.612  1.00  0.00     0.006 A 
ENDBRANCH  57  74
ENDBRANCH  31  32
ENDBRANCH  24  26
ENDBRANCH  23  24
ENDBRANCH  22  23
ENDBRANCH   1  22
TORSDOF 14
ENDMDL
