MODEL 1
REMARK VINA RESULT:     -12.3      0.000      0.000
REMARK SMILES Cc1ccc([C@H](C)Nc2ccc(C(=O)OCCOC(=O)c3ccc(-c4c5nc(c(-c6c(F)cccc6F)c6ccc([nH]6)c(-c6c(F)cccc6F)c6nc(c(-c7c(F)cccc7F)c7ccc4[nH]7)C=C6)C=C5)cc3)cc2Cl)cc1F
REMARK SMILES IDX 16 1 15 2 13 3 14 4 12 5 9 6 10 7 76 8 11 9 75 10 77 11 8 12
REMARK SMILES IDX 6 14 7 15 5 16 1 17 2 18 3 19 79 20 4 21 78 22 80 23 17 24
REMARK SMILES IDX 18 25 19 26 20 27 21 28 22 29 74 30 23 31 73 32 24 33 25 34
REMARK SMILES IDX 26 35 67 36 27 37 72 38 66 39 68 40 28 41 71 42 65 43 64 44
REMARK SMILES IDX 29 46 55 47 38 48 54 49 39 50 42 51 53 52 69 53 40 54 41 55
REMARK SMILES IDX 52 57 70 58 43 59 30 60 31 61 36 62 32 63 33 64 35 65 37 66
REMARK SMILES IDX 34 67 56 68 57 69 62 70 58 71 59 72 61 73 63 74 60 75 44 76
REMARK SMILES IDX 45 77 50 78 46 79 47 80 49 81 51 82 48 83
REMARK H PARENT 8 13 68 45 42 56
REMARK Flexibility Score: inf
ROOT
ATOM      1  C   UNL A   1      43.503  18.282  25.555  1.00  0.00     0.275 C 
ENDROOT
BRANCH   1   2
ATOM      2  O   UNL A   1      42.339  19.117  25.377  1.00  0.00    -0.458 OA
BRANCH   2   3
ATOM      3  C   UNL A   1      41.627  19.449  26.494  1.00  0.00     0.338 C 
ATOM      4  O   UNL A   1      41.999  19.360  27.640  1.00  0.00    -0.246 OA
BRANCH   3   5
ATOM      5  C   UNL A   1      40.332  20.079  26.106  1.00  0.00     0.061 A 
ATOM      6  C   UNL A   1      37.815  21.195  25.413  1.00  0.00     0.053 A 
ATOM      7  C   UNL A   1      38.143  19.872  25.079  1.00  0.00     0.028 A 
ATOM      8  C   UNL A   1      38.808  21.958  26.066  1.00  0.00     0.065 A 
ATOM      9  C   UNL A   1      39.400  19.337  25.376  1.00  0.00     0.018 A 
ATOM     10  C   UNL A   1      40.029  21.390  26.450  1.00  0.00     0.038 A 
ATOM     11  Cl  UNL A   1      38.617  23.621  26.502  1.00  0.00    -0.082 Cl
BRANCH   6  12
ATOM     12  N   UNL A   1      36.562  21.644  25.023  1.00  0.00    -0.377 N 
ATOM     13  H   UNL A   1      35.802  21.025  25.108  1.00  0.00     0.161 HD
BRANCH  12  14
ATOM     14  C   UNL A   1      36.302  22.983  24.495  1.00  0.00     0.106 C 
ATOM     15  C   UNL A   1      36.649  22.955  22.996  1.00  0.00     0.036 C 
BRANCH  14  16
ATOM     16  C   UNL A   1      34.879  23.396  24.870  1.00  0.00    -0.023 A 
ATOM     17  C   UNL A   1      30.926  24.148  26.495  1.00  0.00     0.047 C 
ATOM     18  C   UNL A   1      32.277  23.925  25.893  1.00  0.00    -0.015 A 
ATOM     19  C   UNL A   1      33.250  24.928  25.860  1.00  0.00     0.007 A 
ATOM     20  C   UNL A   1      32.604  22.674  25.387  1.00  0.00     0.126 A 
ATOM     21  C   UNL A   1      34.536  24.665  25.361  1.00  0.00     0.006 A 
ATOM     22  C   UNL A   1      33.866  22.418  24.869  1.00  0.00     0.045 A 
ATOM     23  F   UNL A   1      31.704  21.680  25.420  1.00  0.00    -0.207 F 
ENDBRANCH  14  16
ENDBRANCH  12  14
ENDBRANCH   6  12
ENDBRANCH   3   5
ENDBRANCH   2   3
ENDBRANCH   1   2
BRANCH   1  24
ATOM     24  C   UNL A   1      44.793  18.937  25.061  1.00  0.00     0.275 C 
BRANCH  24  25
ATOM     25  O   UNL A   1      44.494  20.165  24.401  1.00  0.00    -0.458 OA
BRANCH  25  26
ATOM     26  C   UNL A   1      44.931  21.234  25.094  1.00  0.00     0.338 C 
ATOM     27  O   UNL A   1      46.028  21.396  25.613  1.00  0.00    -0.246 OA
BRANCH  26  28
ATOM     28  C   UNL A   1      43.839  22.176  25.309  1.00  0.00     0.060 A 
ATOM     29  C   UNL A   1      43.837  23.252  24.408  1.00  0.00     0.016 A 
ATOM     30  C   UNL A   1      43.538  22.320  26.658  1.00  0.00     0.016 A 
ATOM     31  C   UNL A   1      43.899  24.529  24.904  1.00  0.00     0.010 A 
ATOM     32  C   UNL A   1      43.617  23.586  27.157  1.00  0.00     0.010 A 
ATOM     33  C   UNL A   1      43.887  24.656  26.281  1.00  0.00    -0.014 A 
BRANCH  33  34
ATOM     34  C   UNL A   1      43.931  25.932  26.935  1.00  0.00     0.031 A 
ATOM     35  C   UNL A   1      42.661  26.657  26.956  1.00  0.00     0.074 A 
ATOM     36  C   UNL A   1      44.983  26.141  27.750  1.00  0.00     0.049 A 
ATOM     37  N   UNL A   1      42.498  27.814  27.476  1.00  0.00    -0.248 NA
ATOM     38  C   UNL A   1      41.449  26.135  26.318  1.00  0.00     0.031 C 
ATOM     39  C   UNL A   1      45.028  26.920  28.972  1.00  0.00     0.029 A 
ATOM     40  N   UNL A   1      46.317  25.800  27.497  1.00  0.00    -0.354 N 
ATOM     41  C   UNL A   1      41.139  28.018  27.571  1.00  0.00     0.074 A 
ATOM     42  C   UNL A   1      40.549  27.046  26.689  1.00  0.00     0.031 C 
ATOM     43  C   UNL A   1      46.310  27.225  29.241  1.00  0.00     0.029 A 
ATOM     44  C   UNL A   1      47.090  26.833  28.077  1.00  0.00     0.049 A 
ATOM     45  H   UNL A   1      46.647  25.007  27.017  1.00  0.00     0.167 HD
ATOM     46  C   UNL A   1      40.700  28.877  28.529  1.00  0.00     0.037 A 
ATOM     47  C   UNL A   1      47.756  27.716  27.264  1.00  0.00     0.037 A 
ATOM     48  C   UNL A   1      41.849  29.511  29.179  1.00  0.00     0.049 A 
ATOM     49  C   UNL A   1      47.242  29.141  27.357  1.00  0.00     0.074 A 
ATOM     50  C   UNL A   1      42.571  29.264  30.335  1.00  0.00     0.029 A 
ATOM     51  N   UNL A   1      42.629  30.346  28.412  1.00  0.00    -0.354 N 
ATOM     52  N   UNL A   1      46.113  29.473  27.920  1.00  0.00    -0.248 NA
ATOM     53  C   UNL A   1      47.932  30.298  26.786  1.00  0.00     0.031 C 
ATOM     54  C   UNL A   1      43.819  29.952  30.221  1.00  0.00     0.029 A 
ATOM     55  C   UNL A   1      43.836  30.619  29.008  1.00  0.00     0.049 A 
ATOM     56  H   UNL A   1      42.353  30.707  27.539  1.00  0.00     0.167 HD
ATOM     57  C   UNL A   1      45.906  30.818  27.792  1.00  0.00     0.074 A 
ATOM     58  C   UNL A   1      47.066  31.293  27.060  1.00  0.00     0.031 C 
ATOM     59  C   UNL A   1      44.788  31.434  28.271  1.00  0.00     0.037 A 
BRANCH  46  60
ATOM     60  C   UNL A   1      39.293  29.027  29.046  1.00  0.00     0.057 A 
ATOM     61  C   UNL A   1      38.292  29.510  28.178  1.00  0.00     0.134 A 
ATOM     62  C   UNL A   1      38.842  28.773  30.353  1.00  0.00     0.134 A 
ATOM     63  F   UNL A   1      38.534  29.741  26.879  1.00  0.00    -0.206 F 
ATOM     64  C   UNL A   1      36.983  29.781  28.590  1.00  0.00     0.040 A 
ATOM     65  C   UNL A   1      37.537  29.048  30.783  1.00  0.00     0.040 A 
ATOM     66  F   UNL A   1      39.612  28.219  31.290  1.00  0.00    -0.206 F 
ATOM     67  C   UNL A   1      36.603  29.565  29.903  1.00  0.00     0.006 A 
ENDBRANCH  46  60
BRANCH  47  68
ATOM     68  C   UNL A   1      48.230  27.054  26.010  1.00  0.00     0.057 A 
ATOM     69  C   UNL A   1      47.508  27.302  24.826  1.00  0.00     0.134 A 
ATOM     70  C   UNL A   1      49.568  26.669  25.873  1.00  0.00     0.134 A 
ATOM     71  F   UNL A   1      46.215  27.659  24.888  1.00  0.00    -0.206 F 
ATOM     72  C   UNL A   1      48.137  27.346  23.580  1.00  0.00     0.040 A 
ATOM     73  C   UNL A   1      50.205  26.704  24.627  1.00  0.00     0.040 A 
ATOM     74  F   UNL A   1      50.313  26.395  26.954  1.00  0.00    -0.206 F 
ATOM     75  C   UNL A   1      49.504  27.094  23.487  1.00  0.00     0.006 A 
ENDBRANCH  47  68
BRANCH  59  76
ATOM     76  C   UNL A   1      44.477  32.884  28.058  1.00  0.00     0.057 A 
ATOM     77  C   UNL A   1      44.482  33.812  29.101  1.00  0.00     0.134 A 
ATOM     78  C   UNL A   1      44.038  33.368  26.806  1.00  0.00     0.134 A 
ATOM     79  F   UNL A   1      44.837  33.448  30.343  1.00  0.00    -0.206 F 
ATOM     80  C   UNL A   1      44.102  35.144  28.906  1.00  0.00     0.040 A 
ATOM     81  C   UNL A   1      43.595  34.675  26.614  1.00  0.00     0.040 A 
ATOM     82  F   UNL A   1      44.046  32.599  25.706  1.00  0.00    -0.206 F 
ATOM     83  C   UNL A   1      43.642  35.575  27.664  1.00  0.00     0.006 A 
ENDBRANCH  59  76
ENDBRANCH  33  34
ENDBRANCH  26  28
ENDBRANCH  25  26
ENDBRANCH  24  25
ENDBRANCH   1  24
TORSDOF 14
ENDMDL
MODEL 2
REMARK VINA RESULT:     -12.0      1.381      2.377
REMARK SMILES Cc1ccc([C@H](C)Nc2ccc(C(=O)OCCOC(=O)c3ccc(-c4c5nc(c(-c6c(F)cccc6F)c6ccc([nH]6)c(-c6c(F)cccc6F)c6nc(c(-c7c(F)cccc7F)c7ccc4[nH]7)C=C6)C=C5)cc3)cc2Cl)cc1F
REMARK SMILES IDX 16 1 15 2 13 3 14 4 12 5 9 6 10 7 76 8 11 9 75 10 77 11 8 12
REMARK SMILES IDX 6 14 7 15 5 16 1 17 2 18 3 19 79 20 4 21 78 22 80 23 17 24
REMARK SMILES IDX 18 25 19 26 20 27 21 28 22 29 74 30 23 31 73 32 24 33 25 34
REMARK SMILES IDX 26 35 67 36 27 37 72 38 66 39 68 40 28 41 71 42 65 43 64 44
REMARK SMILES IDX 29 46 55 47 38 48 54 49 39 50 42 51 53 52 69 53 40 54 41 55
REMARK SMILES IDX 52 57 70 58 43 59 30 60 31 61 36 62 32 63 33 64 35 65 37 66
REMARK SMILES IDX 34 67 56 68 57 69 62 70 58 71 59 72 61 73 63 74 60 75 44 76
REMARK SMILES IDX 45 77 50 78 46 79 47 80 49 81 51 82 48 83
REMARK H PARENT 8 13 68 45 42 56
REMARK Flexibility Score: inf
ROOT
ATOM      1  C   UNL A   1      42.463  19.929  27.088  1.00  0.00     0.275 C 
ENDROOT
BRANCH   1   2
ATOM      2  O   UNL A   1      41.116  20.449  27.114  1.00  0.00    -0.458 OA
BRANCH   2   3
ATOM      3  C   UNL A   1      40.956  21.761  27.460  1.00  0.00     0.338 C 
ATOM      4  O   UNL A   1      41.730  22.441  28.090  1.00  0.00    -0.246 OA
BRANCH   3   5
ATOM      5  C   UNL A   1      39.719  22.308  26.829  1.00  0.00     0.061 A 
ATOM      6  C   UNL A   1      37.424  23.433  25.594  1.00  0.00     0.053 A 
ATOM      7  C   UNL A   1      38.207  24.175  26.492  1.00  0.00     0.028 A 
ATOM      8  C   UNL A   1      37.801  22.091  25.370  1.00  0.00     0.065 A 
ATOM      9  C   UNL A   1      39.309  23.607  27.138  1.00  0.00     0.018 A 
ATOM     10  C   UNL A   1      38.962  21.555  25.941  1.00  0.00     0.038 A 
ATOM     11  Cl  UNL A   1      36.929  21.000  24.350  1.00  0.00    -0.082 Cl
BRANCH   6  12
ATOM     12  N   UNL A   1      36.322  24.075  25.052  1.00  0.00    -0.377 N 
ATOM     13  H   UNL A   1      36.411  24.471  24.156  1.00  0.00     0.161 HD
BRANCH  12  14
ATOM     14  C   UNL A   1      35.032  24.198  25.731  1.00  0.00     0.106 C 
ATOM     15  C   UNL A   1      34.382  25.504  25.240  1.00  0.00     0.036 C 
BRANCH  14  16
ATOM     16  C   UNL A   1      34.238  22.908  25.523  1.00  0.00    -0.023 A 
ATOM     17  C   UNL A   1      32.485  19.081  24.465  1.00  0.00     0.047 C 
ATOM     18  C   UNL A   1      33.048  20.407  24.868  1.00  0.00    -0.015 A 
ATOM     19  C   UNL A   1      33.599  20.627  26.133  1.00  0.00     0.007 A 
ATOM     20  C   UNL A   1      33.070  21.450  23.950  1.00  0.00     0.126 A 
ATOM     21  C   UNL A   1      34.192  21.859  26.455  1.00  0.00     0.006 A 
ATOM     22  C   UNL A   1      33.632  22.677  24.273  1.00  0.00     0.045 A 
ATOM     23  F   UNL A   1      32.569  21.272  22.719  1.00  0.00    -0.207 F 
ENDBRANCH  14  16
ENDBRANCH  12  14
ENDBRANCH   6  12
ENDBRANCH   3   5
ENDBRANCH   2   3
ENDBRANCH   1   2
BRANCH   1  24
ATOM     24  C   UNL A   1      43.060  19.879  25.682  1.00  0.00     0.275 C 
BRANCH  24  25
ATOM     25  O   UNL A   1      44.219  20.706  25.613  1.00  0.00    -0.458 OA
BRANCH  25  26
ATOM     26  C   UNL A   1      43.916  21.978  25.289  1.00  0.00     0.338 C 
ATOM     27  O   UNL A   1      43.012  22.374  24.565  1.00  0.00    -0.246 OA
BRANCH  26  28
ATOM     28  C   UNL A   1      44.939  22.884  25.799  1.00  0.00     0.060 A 
ATOM     29  C   UNL A   1      44.983  22.953  27.200  1.00  0.00     0.016 A 
ATOM     30  C   UNL A   1      45.096  23.998  24.983  1.00  0.00     0.016 A 
ATOM     31  C   UNL A   1      44.814  24.171  27.808  1.00  0.00     0.010 A 
ATOM     32  C   UNL A   1      44.910  25.209  25.581  1.00  0.00     0.010 A 
ATOM     33  C   UNL A   1      44.682  25.263  26.970  1.00  0.00    -0.014 A 
BRANCH  33  34
ATOM     34  C   UNL A   1      44.515  26.598  27.469  1.00  0.00     0.031 A 
ATOM     35  C   UNL A   1      43.144  27.107  27.418  1.00  0.00     0.074 A 
ATOM     36  C   UNL A   1      45.513  27.070  28.239  1.00  0.00     0.049 A 
ATOM     37  N   UNL A   1      42.792  28.276  27.799  1.00  0.00    -0.248 NA
ATOM     38  C   UNL A   1      42.037  26.323  26.862  1.00  0.00     0.031 C 
ATOM     39  C   UNL A   1      45.423  27.986  29.361  1.00  0.00     0.029 A 
ATOM     40  N   UNL A   1      46.886  26.921  28.013  1.00  0.00    -0.354 N 
ATOM     41  C   UNL A   1      41.418  28.267  27.886  1.00  0.00     0.074 A 
ATOM     42  C   UNL A   1      40.999  27.115  27.133  1.00  0.00     0.031 C 
ATOM     43  C   UNL A   1      46.637  28.523  29.576  1.00  0.00     0.029 A 
ATOM     44  C   UNL A   1      47.478  28.127  28.457  1.00  0.00     0.049 A 
ATOM     45  H   UNL A   1      47.344  26.140  27.626  1.00  0.00     0.167 HD
ATOM     46  C   UNL A   1      40.839  29.152  28.741  1.00  0.00     0.037 A 
ATOM     47  C   UNL A   1      47.998  29.002  27.537  1.00  0.00     0.037 A 
ATOM     48  C   UNL A   1      41.865  30.035  29.297  1.00  0.00     0.049 A 
ATOM     49  C   UNL A   1      47.261  30.327  27.467  1.00  0.00     0.074 A 
ATOM     50  C   UNL A   1      42.609  30.048  30.465  1.00  0.00     0.029 A 
ATOM     51  N   UNL A   1      42.506  30.889  28.427  1.00  0.00    -0.354 N 
ATOM     52  N   UNL A   1      46.088  30.537  28.000  1.00  0.00    -0.248 NA
ATOM     53  C   UNL A   1      47.758  31.503  26.754  1.00  0.00     0.031 C 
ATOM     54  C   UNL A   1      43.731  30.909  30.256  1.00  0.00     0.029 A 
ATOM     55  C   UNL A   1      43.649  31.421  28.972  1.00  0.00     0.049 A 
ATOM     56  H   UNL A   1      42.181  31.093  27.521  1.00  0.00     0.167 HD
ATOM     57  C   UNL A   1      45.667  31.806  27.716  1.00  0.00     0.074 A 
ATOM     58  C   UNL A   1      46.741  32.371  26.918  1.00  0.00     0.031 C 
ATOM     59  C   UNL A   1      44.461  32.286  28.132  1.00  0.00     0.037 A 
BRANCH  46  60
ATOM     60  C   UNL A   1      39.422  29.133  29.253  1.00  0.00     0.057 A 
ATOM     61  C   UNL A   1      38.371  29.472  28.376  1.00  0.00     0.134 A 
ATOM     62  C   UNL A   1      39.002  28.848  30.564  1.00  0.00     0.134 A 
ATOM     63  F   UNL A   1      38.587  29.709  27.074  1.00  0.00    -0.206 F 
ATOM     64  C   UNL A   1      37.038  29.584  28.782  1.00  0.00     0.040 A 
ATOM     65  C   UNL A   1      37.671  28.964  30.987  1.00  0.00     0.040 A 
ATOM     66  F   UNL A   1      39.832  28.411  31.511  1.00  0.00    -0.206 F 
ATOM     67  C   UNL A   1      36.683  29.345  30.098  1.00  0.00     0.006 A 
ENDBRANCH  46  60
BRANCH  47  68
ATOM     68  C   UNL A   1      48.582  28.281  26.365  1.00  0.00     0.057 A 
ATOM     69  C   UNL A   1      49.808  27.614  26.551  1.00  0.00     0.134 A 
ATOM     70  C   UNL A   1      47.758  27.825  25.330  1.00  0.00     0.134 A 
ATOM     71  F   UNL A   1      50.652  28.013  27.517  1.00  0.00    -0.206 F 
ATOM     72  C   UNL A   1      50.113  26.435  25.865  1.00  0.00     0.040 A 
ATOM     73  C   UNL A   1      48.059  26.650  24.632  1.00  0.00     0.040 A 
ATOM     74  F   UNL A   1      46.586  28.425  25.076  1.00  0.00    -0.206 F 
ATOM     75  C   UNL A   1      49.210  25.924  24.936  1.00  0.00     0.006 A 
ENDBRANCH  47  68
BRANCH  59  76
ATOM     76  C   UNL A   1      43.922  33.631  27.752  1.00  0.00     0.057 A 
ATOM     77  C   UNL A   1      43.629  33.975  26.430  1.00  0.00     0.134 A 
ATOM     78  C   UNL A   1      43.799  34.670  28.700  1.00  0.00     0.134 A 
ATOM     79  F   UNL A   1      43.759  33.077  25.442  1.00  0.00    -0.206 F 
ATOM     80  C   UNL A   1      43.212  35.263  26.078  1.00  0.00     0.040 A 
ATOM     81  C   UNL A   1      43.447  35.973  28.352  1.00  0.00     0.040 A 
ATOM     82  F   UNL A   1      43.985  34.459  30.012  1.00  0.00    -0.206 F 
ATOM     83  C   UNL A   1      43.137  36.270  27.037  1.00  0.00     0.006 A 
ENDBRANCH  59  76
ENDBRANCH  33  34
ENDBRANCH  26  28
ENDBRANCH  25  26
ENDBRANCH  24  25
ENDBRANCH   1  24
TORSDOF 14
ENDMDL
MODEL 3
REMARK VINA RESULT:     -11.9      6.347     11.433
REMARK SMILES Cc1ccc([C@H](C)Nc2ccc(C(=O)OCCOC(=O)c3ccc(-c4c5nc(c(-c6c(F)cccc6F)c6ccc([nH]6)c(-c6c(F)cccc6F)c6nc(c(-c7c(F)cccc7F)c7ccc4[nH]7)C=C6)C=C5)cc3)cc2Cl)cc1F
REMARK SMILES IDX 16 1 15 2 13 3 14 4 12 5 9 6 10 7 76 8 11 9 75 10 77 11 8 12
REMARK SMILES IDX 6 14 7 15 5 16 1 17 2 18 3 19 79 20 4 21 78 22 80 23 17 24
REMARK SMILES IDX 18 25 19 26 20 27 21 28 22 29 74 30 23 31 73 32 24 33 25 34
REMARK SMILES IDX 26 35 67 36 27 37 72 38 66 39 68 40 28 41 71 42 65 43 64 44
REMARK SMILES IDX 29 46 55 47 38 48 54 49 39 50 42 51 53 52 69 53 40 54 41 55
REMARK SMILES IDX 52 57 70 58 43 59 30 60 31 61 36 62 32 63 33 64 35 65 37 66
REMARK SMILES IDX 34 67 56 68 57 69 62 70 58 71 59 72 61 73 63 74 60 75 44 76
REMARK SMILES IDX 45 77 50 78 46 79 47 80 49 81 51 82 48 83
REMARK H PARENT 8 13 68 45 42 56
REMARK Flexibility Score: inf
ROOT
ATOM      1  C   UNL A   1      32.590  36.352  30.005  1.00  0.00     0.275 C 
ENDROOT
BRANCH   1   2
ATOM      2  O   UNL A   1      32.678  34.996  29.516  1.00  0.00    -0.458 OA
BRANCH   2   3
ATOM      3  C   UNL A   1      33.476  34.770  28.430  1.00  0.00     0.338 C 
ATOM      4  O   UNL A   1      34.332  35.506  27.998  1.00  0.00    -0.246 OA
BRANCH   3   5
ATOM      5  C   UNL A   1      33.240  33.396  27.900  1.00  0.00     0.061 A 
ATOM      6  C   UNL A   1      32.766  30.825  26.795  1.00  0.00     0.053 A 
ATOM      7  C   UNL A   1      31.806  31.845  26.705  1.00  0.00     0.028 A 
ATOM      8  C   UNL A   1      33.954  31.120  27.498  1.00  0.00     0.065 A 
ATOM      9  C   UNL A   1      32.019  33.096  27.292  1.00  0.00     0.018 A 
ATOM     10  C   UNL A   1      34.206  32.403  27.997  1.00  0.00     0.038 A 
ATOM     11  Cl  UNL A   1      35.225  29.978  27.768  1.00  0.00    -0.082 Cl
BRANCH   6  12
ATOM     12  N   UNL A   1      32.432  29.605  26.227  1.00  0.00    -0.377 N 
ATOM     13  H   UNL A   1      32.078  29.603  25.309  1.00  0.00     0.161 HD
BRANCH  12  14
ATOM     14  C   UNL A   1      32.575  28.319  26.910  1.00  0.00     0.106 C 
ATOM     15  C   UNL A   1      31.402  28.196  27.898  1.00  0.00     0.036 C 
BRANCH  14  16
ATOM     16  C   UNL A   1      32.719  27.215  25.863  1.00  0.00    -0.023 A 
ATOM     17  C   UNL A   1      33.132  24.605  22.419  1.00  0.00     0.047 C 
ATOM     18  C   UNL A   1      32.992  25.459  23.640  1.00  0.00    -0.015 A 
ATOM     19  C   UNL A   1      34.028  25.606  24.567  1.00  0.00     0.007 A 
ATOM     20  C   UNL A   1      31.816  26.169  23.849  1.00  0.00     0.126 A 
ATOM     21  C   UNL A   1      33.896  26.477  25.660  1.00  0.00     0.006 A 
ATOM     22  C   UNL A   1      31.673  27.012  24.943  1.00  0.00     0.045 A 
ATOM     23  F   UNL A   1      30.807  26.071  22.971  1.00  0.00    -0.207 F 
ENDBRANCH  14  16
ENDBRANCH  12  14
ENDBRANCH   6  12
ENDBRANCH   3   5
ENDBRANCH   2   3
ENDBRANCH   1   2
BRANCH   1  24
ATOM     24  C   UNL A   1      32.886  36.471  31.500  1.00  0.00     0.275 C 
BRANCH  24  25
ATOM     25  O   UNL A   1      33.120  35.179  32.055  1.00  0.00    -0.458 OA
BRANCH  25  26
ATOM     26  C   UNL A   1      34.428  34.955  32.285  1.00  0.00     0.338 C 
ATOM     27  O   UNL A   1      35.221  35.673  32.879  1.00  0.00    -0.246 OA
BRANCH  26  28
ATOM     28  C   UNL A   1      34.867  33.760  31.572  1.00  0.00     0.060 A 
ATOM     29  C   UNL A   1      34.776  32.584  32.333  1.00  0.00     0.016 A 
ATOM     30  C   UNL A   1      35.934  34.028  30.722  1.00  0.00     0.016 A 
ATOM     31  C   UNL A   1      35.909  31.840  32.538  1.00  0.00     0.010 A 
ATOM     32  C   UNL A   1      37.067  33.301  30.937  1.00  0.00     0.010 A 
ATOM     33  C   UNL A   1      37.057  32.280  31.906  1.00  0.00    -0.014 A 
BRANCH  33  34
ATOM     34  C   UNL A   1      38.310  31.590  32.020  1.00  0.00     0.031 A 
ATOM     35  C   UNL A   1      38.376  30.312  31.309  1.00  0.00     0.074 A 
ATOM     36  C   UNL A   1      39.358  32.331  32.427  1.00  0.00     0.049 A 
ATOM     37  N   UNL A   1      39.396  29.542  31.301  1.00  0.00    -0.248 NA
ATOM     38  C   UNL A   1      37.232  29.765  30.573  1.00  0.00     0.031 C 
ATOM     39  C   UNL A   1      40.751  32.196  32.049  1.00  0.00     0.029 A 
ATOM     40  N   UNL A   1      39.359  33.286  33.450  1.00  0.00    -0.354 N 
ATOM     41  C   UNL A   1      39.188  28.620  30.299  1.00  0.00     0.074 A 
ATOM     42  C   UNL A   1      37.780  28.689  30.009  1.00  0.00     0.031 C 
ATOM     43  C   UNL A   1      41.509  32.821  32.968  1.00  0.00     0.029 A 
ATOM     44  C   UNL A   1      40.627  33.180  34.068  1.00  0.00     0.049 A 
ATOM     45  H   UNL A   1      38.630  33.902  33.690  1.00  0.00     0.167 HD
ATOM     46  C   UNL A   1      40.286  28.051  29.733  1.00  0.00     0.037 A 
ATOM     47  C   UNL A   1      40.721  32.654  35.332  1.00  0.00     0.037 A 
ATOM     48  C   UNL A   1      41.485  28.484  30.453  1.00  0.00     0.049 A 
ATOM     49  C   UNL A   1      41.471  31.337  35.394  1.00  0.00     0.074 A 
ATOM     50  C   UNL A   1      42.429  29.479  30.262  1.00  0.00     0.029 A 
ATOM     51  N   UNL A   1      41.619  28.076  31.762  1.00  0.00    -0.354 N 
ATOM     52  N   UNL A   1      41.760  30.613  34.347  1.00  0.00    -0.248 NA
ATOM     53  C   UNL A   1      41.914  30.705  36.637  1.00  0.00     0.031 C 
ATOM     54  C   UNL A   1      43.110  29.675  31.504  1.00  0.00     0.029 A 
ATOM     55  C   UNL A   1      42.584  28.790  32.430  1.00  0.00     0.049 A 
ATOM     56  H   UNL A   1      41.086  27.356  32.170  1.00  0.00     0.167 HD
ATOM     57  C   UNL A   1      42.386  29.461  34.734  1.00  0.00     0.074 A 
ATOM     58  C   UNL A   1      42.448  29.555  36.182  1.00  0.00     0.031 C 
ATOM     59  C   UNL A   1      42.779  28.509  33.842  1.00  0.00     0.037 A 
BRANCH  46  60
ATOM     60  C   UNL A   1      40.352  27.281  28.440  1.00  0.00     0.057 A 
ATOM     61  C   UNL A   1      39.697  26.036  28.349  1.00  0.00     0.134 A 
ATOM     62  C   UNL A   1      41.050  27.646  27.275  1.00  0.00     0.134 A 
ATOM     63  F   UNL A   1      38.931  25.567  29.345  1.00  0.00    -0.206 F 
ATOM     64  C   UNL A   1      39.785  25.201  27.230  1.00  0.00     0.040 A 
ATOM     65  C   UNL A   1      41.154  26.817  26.150  1.00  0.00     0.040 A 
ATOM     66  F   UNL A   1      41.647  28.829  27.129  1.00  0.00    -0.206 F 
ATOM     67  C   UNL A   1      40.530  25.583  26.128  1.00  0.00     0.006 A 
ENDBRANCH  46  60
BRANCH  47  68
ATOM     68  C   UNL A   1      39.524  33.001  36.158  1.00  0.00     0.057 A 
ATOM     69  C   UNL A   1      38.549  32.002  36.349  1.00  0.00     0.134 A 
ATOM     70  C   UNL A   1      39.594  34.015  37.119  1.00  0.00     0.134 A 
ATOM     71  F   UNL A   1      38.419  31.008  35.455  1.00  0.00    -0.206 F 
ATOM     72  C   UNL A   1      37.810  31.916  37.532  1.00  0.00     0.040 A 
ATOM     73  C   UNL A   1      38.852  33.942  38.303  1.00  0.00     0.040 A 
ATOM     74  F   UNL A   1      40.481  35.014  36.994  1.00  0.00    -0.206 F 
ATOM     75  C   UNL A   1      37.999  32.864  38.535  1.00  0.00     0.006 A 
ENDBRANCH  47  68
BRANCH  59  76
ATOM     76  C   UNL A   1      43.372  27.190  34.236  1.00  0.00     0.057 A 
ATOM     77  C   UNL A   1      42.600  26.146  34.751  1.00  0.00     0.134 A 
ATOM     78  C   UNL A   1      44.767  26.976  34.226  1.00  0.00     0.134 A 
ATOM     79  F   UNL A   1      41.267  26.261  34.852  1.00  0.00    -0.206 F 
ATOM     80  C   UNL A   1      43.177  24.953  35.199  1.00  0.00     0.040 A 
ATOM     81  C   UNL A   1      45.358  25.820  34.730  1.00  0.00     0.040 A 
ATOM     82  F   UNL A   1      45.617  27.870  33.698  1.00  0.00    -0.206 F 
ATOM     83  C   UNL A   1      44.561  24.794  35.205  1.00  0.00     0.006 A 
ENDBRANCH  59  76
ENDBRANCH  33  34
ENDBRANCH  26  28
ENDBRANCH  25  26
ENDBRANCH  24  25
ENDBRANCH   1  24
TORSDOF 14
ENDMDL
