MODEL 1
REMARK VINA RESULT:     -12.8      0.000      0.000
REMARK SMILES C[N@@H+]1CC2(CC[NH+](C(=O)c3cc(-c4ccncc4)n[nH]3)CC2)C[C@H]1C(=O)OCCOC(=O)c1ccc(-c2c3nc(c(-c4c(F)cccc4F)c4ccc([nH]4)c(-c4c(F)cccc4F)c4nc(c(-c5c(F)cccc5F)c5ccc2[nH]5)C=C4)C=C3)cc1
REMARK SMILES IDX 28 1 27 2 25 3 26 4 24 5 1 6 2 7 3 8 4 10 23 11 5 12 22 13
REMARK SMILES IDX 6 14 21 15 7 16 8 18 9 19 10 20 11 21 20 22 12 23 19 24
REMARK SMILES IDX 13 26 14 27 18 28 15 29 17 30 16 31 29 32 30 33 31 34 32 35
REMARK SMILES IDX 33 36 34 37 86 38 35 39 85 40 36 41 37 42 38 43 79 44 39 45
REMARK SMILES IDX 84 46 78 47 80 48 40 49 83 50 77 51 76 52 41 54 67 55 50 56
REMARK SMILES IDX 66 57 51 58 54 59 65 60 81 61 52 62 53 63 64 65 82 66 55 67
REMARK SMILES IDX 42 68 43 69 48 70 44 71 45 72 47 73 49 74 46 75 68 76 69 77
REMARK SMILES IDX 74 78 70 79 71 80 73 81 75 82 72 83 56 84 57 85 62 86 58 87
REMARK SMILES IDX 59 88 61 89 63 90 60 91
REMARK H PARENT 2 9 7 17 20 25 80 53 54 64
REMARK Flexibility Score: inf
ROOT
ATOM      1  C   UNL A   1      31.472  31.926  26.621  1.00  0.00     0.274 C 
ENDROOT
BRANCH   1   2
ATOM      2  O   UNL A   1      32.040  30.719  27.163  1.00  0.00    -0.458 OA
BRANCH   2   3
ATOM      3  C   UNL A   1      33.039  30.140  26.446  1.00  0.00     0.365 C 
ATOM      4  O   UNL A   1      34.207  30.070  26.818  1.00  0.00    -0.245 OA
BRANCH   3   5
ATOM      5  C   UNL A   1      32.593  29.584  25.083  1.00  0.00     0.295 C 
ATOM      6  C   UNL A   1      33.520  29.123  22.877  1.00  0.00     0.333 C 
ATOM      7  N   UNL A   1      33.675  28.932  24.317  1.00  0.00    -0.325 N 
ATOM      8  C   UNL A   1      33.646  27.517  24.695  1.00  0.00     0.270 C 
ATOM      9  H   UNL A   1      34.581  29.347  24.537  1.00  0.00     0.348 HD
ATOM     10  C   UNL A   1      32.205  27.185  25.141  1.00  0.00     0.036 C 
ATOM     11  C   UNL A   1      31.499  28.545  25.242  1.00  0.00     0.091 C 
ATOM     12  C   UNL A   1      32.208  26.485  26.519  1.00  0.00     0.075 C 
ATOM     13  C   UNL A   1      31.471  26.293  24.108  1.00  0.00     0.075 C 
ATOM     14  C   UNL A   1      32.766  25.072  26.416  1.00  0.00     0.271 C 
ATOM     15  C   UNL A   1      31.985  24.853  24.091  1.00  0.00     0.271 C 
ATOM     16  N   UNL A   1      31.992  24.305  25.441  1.00  0.00    -0.266 N 
ATOM     17  H   UNL A   1      31.530  24.324  24.572  1.00  0.00     0.357 HD
BRANCH  16  18
ATOM     18  C   UNL A   1      31.395  23.072  25.680  1.00  0.00     0.362 C 
ATOM     19  O   UNL A   1      30.226  22.976  26.046  1.00  0.00    -0.224 OA
BRANCH  18  20
ATOM     20  C   UNL A   1      32.188  21.895  25.459  1.00  0.00     0.163 A 
ATOM     21  C   UNL A   1      31.858  20.604  25.096  1.00  0.00     0.068 A 
ATOM     22  N   UNL A   1      33.551  21.905  25.519  1.00  0.00    -0.269 N 
ATOM     23  C   UNL A   1      33.080  19.885  25.088  1.00  0.00     0.093 A 
ATOM     24  N   UNL A   1      34.108  20.688  25.396  1.00  0.00    -0.175 NA
ATOM     25  H   UNL A   1      34.078  22.728  25.640  1.00  0.00     0.190 HD
BRANCH  23  26
ATOM     26  C   UNL A   1      33.271  18.469  24.821  1.00  0.00     0.005 A 
ATOM     27  C   UNL A   1      32.957  17.515  25.789  1.00  0.00     0.030 A 
ATOM     28  C   UNL A   1      33.775  18.051  23.589  1.00  0.00     0.030 A 
ATOM     29  C   UNL A   1      33.160  16.181  25.479  1.00  0.00     0.111 A 
ATOM     30  C   UNL A   1      33.955  16.695  23.382  1.00  0.00     0.111 A 
ATOM     31  N   UNL A   1      33.662  15.751  24.302  1.00  0.00    -0.265 NA
ENDBRANCH  23  26
ENDBRANCH  18  20
ENDBRANCH  16  18
ENDBRANCH   3   5
ENDBRANCH   2   3
ENDBRANCH   1   2
BRANCH   1  32
ATOM     32  C   UNL A   1      32.433  33.105  26.784  1.00  0.00     0.275 C 
BRANCH  32  33
ATOM     33  O   UNL A   1      32.190  33.798  28.023  1.00  0.00    -0.458 OA
BRANCH  33  34
ATOM     34  C   UNL A   1      33.223  34.550  28.466  1.00  0.00     0.338 C 
ATOM     35  O   UNL A   1      33.233  35.744  28.702  1.00  0.00    -0.246 OA
BRANCH  34  36
ATOM     36  C   UNL A   1      34.384  33.688  28.727  1.00  0.00     0.060 A 
ATOM     37  C   UNL A   1      34.160  32.458  29.343  1.00  0.00     0.016 A 
ATOM     38  C   UNL A   1      35.681  34.149  28.518  1.00  0.00     0.016 A 
ATOM     39  C   UNL A   1      35.225  31.688  29.791  1.00  0.00     0.010 A 
ATOM     40  C   UNL A   1      36.758  33.370  28.957  1.00  0.00     0.010 A 
ATOM     41  C   UNL A   1      36.535  32.151  29.624  1.00  0.00    -0.014 A 
BRANCH  41  42
ATOM     42  C   UNL A   1      37.652  31.418  30.269  1.00  0.00     0.031 A 
ATOM     43  C   UNL A   1      37.930  31.648  31.730  1.00  0.00     0.074 A 
ATOM     44  C   UNL A   1      38.366  30.512  29.578  1.00  0.00     0.049 A 
ATOM     45  N   UNL A   1      38.917  31.207  32.465  1.00  0.00    -0.248 NA
ATOM     46  C   UNL A   1      36.965  32.487  32.459  1.00  0.00     0.031 C 
ATOM     47  C   UNL A   1      38.137  30.138  28.182  1.00  0.00     0.029 A 
ATOM     48  N   UNL A   1      39.429  29.735  29.962  1.00  0.00    -0.354 N 
ATOM     49  C   UNL A   1      38.707  31.734  33.734  1.00  0.00     0.074 A 
ATOM     50  C   UNL A   1      37.510  32.542  33.665  1.00  0.00     0.031 C 
ATOM     51  C   UNL A   1      39.029  29.198  27.829  1.00  0.00     0.029 A 
ATOM     52  C   UNL A   1      39.926  28.947  28.954  1.00  0.00     0.049 A 
ATOM     53  H   UNL A   1      39.800  29.742  30.874  1.00  0.00     0.167 HD
ATOM     54  C   UNL A   1      39.444  31.553  34.856  1.00  0.00     0.037 A 
ATOM     55  C   UNL A   1      41.003  28.139  28.933  1.00  0.00     0.037 A 
ATOM     56  C   UNL A   1      40.625  30.733  34.923  1.00  0.00     0.049 A 
ATOM     57  C   UNL A   1      41.846  28.014  30.173  1.00  0.00     0.074 A 
ATOM     58  C   UNL A   1      41.473  30.522  35.995  1.00  0.00     0.029 A 
ATOM     59  N   UNL A   1      41.110  29.969  33.871  1.00  0.00    -0.354 N 
ATOM     60  N   UNL A   1      41.677  28.568  31.350  1.00  0.00    -0.248 NA
ATOM     61  C   UNL A   1      43.034  27.154  30.080  1.00  0.00     0.031 C 
ATOM     62  C   UNL A   1      42.486  29.648  35.585  1.00  0.00     0.029 A 
ATOM     63  C   UNL A   1      42.244  29.283  34.271  1.00  0.00     0.049 A 
ATOM     64  H   UNL A   1      40.709  29.924  32.974  1.00  0.00     0.167 HD
ATOM     65  C   UNL A   1      42.712  28.094  32.145  1.00  0.00     0.074 A 
ATOM     66  C   UNL A   1      43.498  27.201  31.320  1.00  0.00     0.031 C 
ATOM     67  C   UNL A   1      42.990  28.373  33.443  1.00  0.00     0.037 A 
BRANCH  54  68
ATOM     68  C   UNL A   1      39.005  32.276  36.094  1.00  0.00     0.057 A 
ATOM     69  C   UNL A   1      39.402  33.593  36.361  1.00  0.00     0.134 A 
ATOM     70  C   UNL A   1      38.155  31.658  37.020  1.00  0.00     0.134 A 
ATOM     71  F   UNL A   1      40.231  34.235  35.524  1.00  0.00    -0.206 F 
ATOM     72  C   UNL A   1      38.982  34.263  37.512  1.00  0.00     0.040 A 
ATOM     73  C   UNL A   1      37.709  32.326  38.162  1.00  0.00     0.040 A 
ATOM     74  F   UNL A   1      37.737  30.398  36.825  1.00  0.00    -0.206 F 
ATOM     75  C   UNL A   1      38.128  33.631  38.413  1.00  0.00     0.006 A 
ENDBRANCH  54  68
BRANCH  55  76
ATOM     76  C   UNL A   1      41.370  27.403  27.696  1.00  0.00     0.057 A 
ATOM     77  C   UNL A   1      42.143  28.007  26.697  1.00  0.00     0.134 A 
ATOM     78  C   UNL A   1      40.921  26.099  27.462  1.00  0.00     0.134 A 
ATOM     79  F   UNL A   1      42.584  29.265  26.852  1.00  0.00    -0.206 F 
ATOM     80  C   UNL A   1      42.432  27.351  25.499  1.00  0.00     0.040 A 
ATOM     81  C   UNL A   1      41.226  25.420  26.282  1.00  0.00     0.040 A 
ATOM     82  F   UNL A   1      40.177  25.463  28.379  1.00  0.00    -0.206 F 
ATOM     83  C   UNL A   1      41.976  26.051  25.291  1.00  0.00     0.006 A 
ENDBRANCH  55  76
BRANCH  67  84
ATOM     84  C   UNL A   1      44.145  27.645  34.064  1.00  0.00     0.057 A 
ATOM     85  C   UNL A   1      45.438  28.183  34.085  1.00  0.00     0.134 A 
ATOM     86  C   UNL A   1      43.950  26.396  34.665  1.00  0.00     0.134 A 
ATOM     87  F   UNL A   1      45.691  29.369  33.514  1.00  0.00    -0.206 F 
ATOM     88  C   UNL A   1      46.504  27.488  34.659  1.00  0.00     0.040 A 
ATOM     89  C   UNL A   1      45.004  25.703  35.263  1.00  0.00     0.040 A 
ATOM     90  F   UNL A   1      42.734  25.830  34.685  1.00  0.00    -0.206 F 
ATOM     91  C   UNL A   1      46.287  26.246  35.255  1.00  0.00     0.006 A 
ENDBRANCH  67  84
ENDBRANCH  41  42
ENDBRANCH  34  36
ENDBRANCH  33  34
ENDBRANCH  32  33
ENDBRANCH   1  32
TORSDOF 14
ENDMDL
MODEL 2
REMARK VINA RESULT:     -12.5      1.930      2.478
REMARK SMILES C[N@@H+]1CC2(CC[NH+](C(=O)c3cc(-c4ccncc4)n[nH]3)CC2)C[C@H]1C(=O)OCCOC(=O)c1ccc(-c2c3nc(c(-c4c(F)cccc4F)c4ccc([nH]4)c(-c4c(F)cccc4F)c4nc(c(-c5c(F)cccc5F)c5ccc2[nH]5)C=C4)C=C3)cc1
REMARK SMILES IDX 28 1 27 2 25 3 26 4 24 5 1 6 2 7 3 8 4 10 23 11 5 12 22 13
REMARK SMILES IDX 6 14 21 15 7 16 8 18 9 19 10 20 11 21 20 22 12 23 19 24
REMARK SMILES IDX 13 26 14 27 18 28 15 29 17 30 16 31 29 32 30 33 31 34 32 35
REMARK SMILES IDX 33 36 34 37 86 38 35 39 85 40 36 41 37 42 38 43 79 44 39 45
REMARK SMILES IDX 84 46 78 47 80 48 40 49 83 50 77 51 76 52 41 54 67 55 50 56
REMARK SMILES IDX 66 57 51 58 54 59 65 60 81 61 52 62 53 63 64 65 82 66 55 67
REMARK SMILES IDX 42 68 43 69 48 70 44 71 45 72 47 73 49 74 46 75 68 76 69 77
REMARK SMILES IDX 74 78 70 79 71 80 73 81 75 82 72 83 56 84 57 85 62 86 58 87
REMARK SMILES IDX 59 88 61 89 63 90 60 91
REMARK H PARENT 2 9 7 17 20 25 80 53 54 64
REMARK Flexibility Score: inf
ROOT
ATOM      1  C   UNL A   1      31.427  32.044  26.571  1.00  0.00     0.274 C 
ENDROOT
BRANCH   1   2
ATOM      2  O   UNL A   1      31.762  30.673  26.855  1.00  0.00    -0.458 OA
BRANCH   2   3
ATOM      3  C   UNL A   1      32.218  29.929  25.812  1.00  0.00     0.365 C 
ATOM      4  O   UNL A   1      33.404  29.797  25.523  1.00  0.00    -0.245 OA
BRANCH   3   5
ATOM      5  C   UNL A   1      31.107  29.265  24.981  1.00  0.00     0.295 C 
ATOM      6  C   UNL A   1      29.827  29.664  22.946  1.00  0.00     0.333 C 
ATOM      7  N   UNL A   1      31.159  29.591  23.541  1.00  0.00    -0.325 N 
ATOM      8  C   UNL A   1      31.989  28.557  22.918  1.00  0.00     0.270 C 
ATOM      9  H   UNL A   1      31.562  30.517  23.389  1.00  0.00     0.348 HD
ATOM     10  C   UNL A   1      31.890  27.290  23.797  1.00  0.00     0.036 C 
ATOM     11  C   UNL A   1      31.176  27.752  25.077  1.00  0.00     0.091 C 
ATOM     12  C   UNL A   1      33.297  26.752  24.140  1.00  0.00     0.075 C 
ATOM     13  C   UNL A   1      31.061  26.175  23.113  1.00  0.00     0.075 C 
ATOM     14  C   UNL A   1      33.968  26.149  22.913  1.00  0.00     0.271 C 
ATOM     15  C   UNL A   1      31.795  25.519  21.943  1.00  0.00     0.271 C 
ATOM     16  N   UNL A   1      33.124  25.092  22.359  1.00  0.00    -0.266 N 
ATOM     17  H   UNL A   1      32.204  24.807  22.155  1.00  0.00     0.357 HD
BRANCH  16  18
ATOM     18  C   UNL A   1      33.537  23.790  22.096  1.00  0.00     0.362 C 
ATOM     19  O   UNL A   1      33.251  23.216  21.048  1.00  0.00    -0.224 OA
BRANCH  18  20
ATOM     20  C   UNL A   1      34.341  23.134  23.089  1.00  0.00     0.163 A 
ATOM     21  C   UNL A   1      35.706  23.073  23.291  1.00  0.00     0.068 A 
ATOM     22  N   UNL A   1      33.801  22.451  24.139  1.00  0.00    -0.269 N 
ATOM     23  C   UNL A   1      35.890  22.225  24.412  1.00  0.00     0.093 A 
ATOM     24  N   UNL A   1      34.709  21.813  24.896  1.00  0.00    -0.175 NA
ATOM     25  H   UNL A   1      32.835  22.429  24.326  1.00  0.00     0.190 HD
BRANCH  23  26
ATOM     26  C   UNL A   1      37.148  21.795  24.999  1.00  0.00     0.005 A 
ATOM     27  C   UNL A   1      37.937  22.689  25.723  1.00  0.00     0.030 A 
ATOM     28  C   UNL A   1      37.579  20.477  24.840  1.00  0.00     0.030 A 
ATOM     29  C   UNL A   1      39.125  22.223  26.258  1.00  0.00     0.111 A 
ATOM     30  C   UNL A   1      38.789  20.114  25.403  1.00  0.00     0.111 A 
ATOM     31  N   UNL A   1      39.574  20.959  26.106  1.00  0.00    -0.265 NA
ENDBRANCH  23  26
ENDBRANCH  18  20
ENDBRANCH  16  18
ENDBRANCH   3   5
ENDBRANCH   2   3
ENDBRANCH   1   2
BRANCH   1  32
ATOM     32  C   UNL A   1      32.579  32.978  26.944  1.00  0.00     0.275 C 
BRANCH  32  33
ATOM     33  O   UNL A   1      32.180  33.902  27.973  1.00  0.00    -0.458 OA
BRANCH  33  34
ATOM     34  C   UNL A   1      33.183  34.646  28.492  1.00  0.00     0.338 C 
ATOM     35  O   UNL A   1      33.165  35.825  28.791  1.00  0.00    -0.246 OA
BRANCH  34  36
ATOM     36  C   UNL A   1      34.350  33.789  28.747  1.00  0.00     0.060 A 
ATOM     37  C   UNL A   1      34.127  32.527  29.293  1.00  0.00     0.016 A 
ATOM     38  C   UNL A   1      35.645  34.280  28.603  1.00  0.00     0.016 A 
ATOM     39  C   UNL A   1      35.191  31.751  29.736  1.00  0.00     0.010 A 
ATOM     40  C   UNL A   1      36.721  33.495  29.037  1.00  0.00     0.010 A 
ATOM     41  C   UNL A   1      36.497  32.241  29.635  1.00  0.00    -0.014 A 
BRANCH  41  42
ATOM     42  C   UNL A   1      37.605  31.494  30.279  1.00  0.00     0.031 A 
ATOM     43  C   UNL A   1      37.890  31.722  31.738  1.00  0.00     0.074 A 
ATOM     44  C   UNL A   1      38.304  30.576  29.587  1.00  0.00     0.049 A 
ATOM     45  N   UNL A   1      38.873  31.268  32.472  1.00  0.00    -0.248 NA
ATOM     46  C   UNL A   1      36.939  32.576  32.468  1.00  0.00     0.031 C 
ATOM     47  C   UNL A   1      38.066  30.203  28.193  1.00  0.00     0.029 A 
ATOM     48  N   UNL A   1      39.357  29.784  29.970  1.00  0.00    -0.354 N 
ATOM     49  C   UNL A   1      38.674  31.800  33.740  1.00  0.00     0.074 A 
ATOM     50  C   UNL A   1      37.488  32.625  33.673  1.00  0.00     0.031 C 
ATOM     51  C   UNL A   1      38.944  29.250  27.839  1.00  0.00     0.029 A 
ATOM     52  C   UNL A   1      39.840  28.988  28.962  1.00  0.00     0.049 A 
ATOM     53  H   UNL A   1      39.731  29.788  30.881  1.00  0.00     0.167 HD
ATOM     54  C   UNL A   1      39.410  31.611  34.861  1.00  0.00     0.037 A 
ATOM     55  C   UNL A   1      40.905  28.164  28.940  1.00  0.00     0.037 A 
ATOM     56  C   UNL A   1      40.579  30.773  34.926  1.00  0.00     0.049 A 
ATOM     57  C   UNL A   1      41.749  28.029  30.178  1.00  0.00     0.074 A 
ATOM     58  C   UNL A   1      41.428  30.553  35.997  1.00  0.00     0.029 A 
ATOM     59  N   UNL A   1      41.051  30.001  33.874  1.00  0.00    -0.354 N 
ATOM     60  N   UNL A   1      41.591  28.588  31.354  1.00  0.00    -0.248 NA
ATOM     61  C   UNL A   1      42.925  27.152  30.083  1.00  0.00     0.031 C 
ATOM     62  C   UNL A   1      42.427  29.663  35.585  1.00  0.00     0.029 A 
ATOM     63  C   UNL A   1      42.176  29.299  34.272  1.00  0.00     0.049 A 
ATOM     64  H   UNL A   1      40.647  29.960  32.978  1.00  0.00     0.167 HD
ATOM     65  C   UNL A   1      42.622  28.101  32.147  1.00  0.00     0.074 A 
ATOM     66  C   UNL A   1      43.393  27.195  31.321  1.00  0.00     0.031 C 
ATOM     67  C   UNL A   1      42.907  28.377  33.444  1.00  0.00     0.037 A 
BRANCH  54  68
ATOM     68  C   UNL A   1      38.985  32.342  36.099  1.00  0.00     0.057 A 
ATOM     69  C   UNL A   1      38.162  31.747  37.063  1.00  0.00     0.134 A 
ATOM     70  C   UNL A   1      39.424  33.650  36.343  1.00  0.00     0.134 A 
ATOM     71  F   UNL A   1      37.692  30.504  36.881  1.00  0.00    -0.206 F 
ATOM     72  C   UNL A   1      37.777  32.432  38.217  1.00  0.00     0.040 A 
ATOM     73  C   UNL A   1      39.066  34.336  37.504  1.00  0.00     0.040 A 
ATOM     74  F   UNL A   1      40.216  34.278  35.460  1.00  0.00    -0.206 F 
ATOM     75  C   UNL A   1      38.235  33.729  38.443  1.00  0.00     0.006 A 
ENDBRANCH  54  68
BRANCH  55  76
ATOM     76  C   UNL A   1      41.258  27.422  27.703  1.00  0.00     0.057 A 
ATOM     77  C   UNL A   1      42.036  28.013  26.700  1.00  0.00     0.134 A 
ATOM     78  C   UNL A   1      40.791  26.122  27.473  1.00  0.00     0.134 A 
ATOM     79  F   UNL A   1      42.495  29.265  26.851  1.00  0.00    -0.206 F 
ATOM     80  C   UNL A   1      42.313  27.350  25.503  1.00  0.00     0.040 A 
ATOM     81  C   UNL A   1      41.084  25.437  26.293  1.00  0.00     0.040 A 
ATOM     82  F   UNL A   1      40.041  25.499  28.394  1.00  0.00    -0.206 F 
ATOM     83  C   UNL A   1      41.838  26.057  25.299  1.00  0.00     0.006 A 
ENDBRANCH  55  76
BRANCH  67  84
ATOM     84  C   UNL A   1      44.053  27.635  34.063  1.00  0.00     0.057 A 
ATOM     85  C   UNL A   1      45.353  28.153  34.081  1.00  0.00     0.134 A 
ATOM     86  C   UNL A   1      43.842  26.389  34.667  1.00  0.00     0.134 A 
ATOM     87  F   UNL A   1      45.622  29.335  33.506  1.00  0.00    -0.206 F 
ATOM     88  C   UNL A   1      46.411  27.444  34.653  1.00  0.00     0.040 A 
ATOM     89  C   UNL A   1      44.887  25.682  35.264  1.00  0.00     0.040 A 
ATOM     90  F   UNL A   1      42.618  25.840  34.691  1.00  0.00    -0.206 F 
ATOM     91  C   UNL A   1      46.178  26.207  35.251  1.00  0.00     0.006 A 
ENDBRANCH  67  84
ENDBRANCH  41  42
ENDBRANCH  34  36
ENDBRANCH  33  34
ENDBRANCH  32  33
ENDBRANCH   1  32
TORSDOF 14
ENDMDL
MODEL 3
REMARK VINA RESULT:     -12.5      4.001      8.889
REMARK SMILES C[N@@H+]1CC2(CC[NH+](C(=O)c3cc(-c4ccncc4)n[nH]3)CC2)C[C@H]1C(=O)OCCOC(=O)c1ccc(-c2c3nc(c(-c4c(F)cccc4F)c4ccc([nH]4)c(-c4c(F)cccc4F)c4nc(c(-c5c(F)cccc5F)c5ccc2[nH]5)C=C4)C=C3)cc1
REMARK SMILES IDX 28 1 27 2 25 3 26 4 24 5 1 6 2 7 3 8 4 10 23 11 5 12 22 13
REMARK SMILES IDX 6 14 21 15 7 16 8 18 9 19 10 20 11 21 20 22 12 23 19 24
REMARK SMILES IDX 13 26 14 27 18 28 15 29 17 30 16 31 29 32 30 33 31 34 32 35
REMARK SMILES IDX 33 36 34 37 86 38 35 39 85 40 36 41 37 42 38 43 79 44 39 45
REMARK SMILES IDX 84 46 78 47 80 48 40 49 83 50 77 51 76 52 41 54 67 55 50 56
REMARK SMILES IDX 66 57 51 58 54 59 65 60 81 61 52 62 53 63 64 65 82 66 55 67
REMARK SMILES IDX 42 68 43 69 48 70 44 71 45 72 47 73 49 74 46 75 68 76 69 77
REMARK SMILES IDX 74 78 70 79 71 80 73 81 75 82 72 83 56 84 57 85 62 86 58 87
REMARK SMILES IDX 59 88 61 89 63 90 60 91
REMARK H PARENT 2 9 7 17 20 25 80 53 54 64
REMARK Flexibility Score: inf
ROOT
ATOM      1  C   UNL A   1      35.485  20.436  25.088  1.00  0.00     0.274 C 
ENDROOT
BRANCH   1   2
ATOM      2  O   UNL A   1      35.386  21.399  26.153  1.00  0.00    -0.458 OA
BRANCH   2   3
ATOM      3  C   UNL A   1      34.440  22.365  26.015  1.00  0.00     0.365 C 
ATOM      4  O   UNL A   1      33.616  22.655  26.878  1.00  0.00    -0.245 OA
BRANCH   3   5
ATOM      5  C   UNL A   1      34.459  23.072  24.649  1.00  0.00     0.295 C 
ATOM      6  C   UNL A   1      33.338  22.958  22.489  1.00  0.00     0.333 C 
ATOM      7  N   UNL A   1      33.165  23.037  23.937  1.00  0.00    -0.325 N 
ATOM      8  C   UNL A   1      32.442  24.244  24.344  1.00  0.00     0.270 C 
ATOM      9  H   UNL A   1      32.635  22.200  24.180  1.00  0.00     0.348 HD
ATOM     10  C   UNL A   1      33.494  25.302  24.745  1.00  0.00     0.036 C 
ATOM     11  C   UNL A   1      34.826  24.538  24.791  1.00  0.00     0.091 C 
ATOM     12  C   UNL A   1      33.172  25.891  26.137  1.00  0.00     0.075 C 
ATOM     13  C   UNL A   1      33.587  26.448  23.707  1.00  0.00     0.075 C 
ATOM     14  C   UNL A   1      31.937  26.780  26.085  1.00  0.00     0.271 C 
ATOM     15  C   UNL A   1      32.378  27.383  23.740  1.00  0.00     0.271 C 
ATOM     16  N   UNL A   1      32.134  27.842  25.100  1.00  0.00    -0.266 N 
ATOM     17  H   UNL A   1      32.496  28.074  24.215  1.00  0.00     0.357 HD
BRANCH  16  18
ATOM     18  C   UNL A   1      31.981  29.202  25.345  1.00  0.00     0.362 C 
ATOM     19  O   UNL A   1      31.027  29.839  24.906  1.00  0.00    -0.224 OA
BRANCH  18  20
ATOM     20  C   UNL A   1      32.972  29.846  26.161  1.00  0.00     0.163 A 
ATOM     21  C   UNL A   1      32.933  30.973  26.959  1.00  0.00     0.068 A 
ATOM     22  N   UNL A   1      34.225  29.336  26.337  1.00  0.00    -0.269 N 
ATOM     23  C   UNL A   1      34.247  31.126  27.470  1.00  0.00     0.093 A 
ATOM     24  N   UNL A   1      35.043  30.136  27.041  1.00  0.00    -0.175 NA
ATOM     25  H   UNL A   1      34.504  28.461  25.981  1.00  0.00     0.190 HD
BRANCH  23  26
ATOM     26  C   UNL A   1      34.747  32.193  28.322  1.00  0.00     0.005 A 
ATOM     27  C   UNL A   1      35.941  32.845  28.017  1.00  0.00     0.030 A 
ATOM     28  C   UNL A   1      34.032  32.572  29.459  1.00  0.00     0.030 A 
ATOM     29  C   UNL A   1      36.368  33.852  28.865  1.00  0.00     0.111 A 
ATOM     30  C   UNL A   1      34.551  33.582  30.249  1.00  0.00     0.111 A 
ATOM     31  N   UNL A   1      35.705  34.228  29.980  1.00  0.00    -0.265 NA
ENDBRANCH  23  26
ENDBRANCH  18  20
ENDBRANCH  16  18
ENDBRANCH   3   5
ENDBRANCH   2   3
ENDBRANCH   1   2
BRANCH   1  32
ATOM     32  C   UNL A   1      36.926  19.952  24.920  1.00  0.00     0.275 C 
BRANCH  32  33
ATOM     33  O   UNL A   1      37.856  21.039  25.082  1.00  0.00    -0.458 OA
BRANCH  33  34
ATOM     34  C   UNL A   1      38.987  20.724  25.754  1.00  0.00     0.338 C 
ATOM     35  O   UNL A   1      39.558  19.650  25.799  1.00  0.00    -0.246 OA
BRANCH  34  36
ATOM     36  C   UNL A   1      39.529  21.929  26.398  1.00  0.00     0.060 A 
ATOM     37  C   UNL A   1      38.957  23.157  26.073  1.00  0.00     0.016 A 
ATOM     38  C   UNL A   1      40.681  21.869  27.178  1.00  0.00     0.016 A 
ATOM     39  C   UNL A   1      39.545  24.344  26.493  1.00  0.00     0.010 A 
ATOM     40  C   UNL A   1      41.269  23.062  27.614  1.00  0.00     0.010 A 
ATOM     41  C   UNL A   1      40.722  24.306  27.247  1.00  0.00    -0.014 A 
BRANCH  41  42
ATOM     42  C   UNL A   1      41.445  25.570  27.529  1.00  0.00     0.031 A 
ATOM     43  C   UNL A   1      40.792  26.608  28.400  1.00  0.00     0.074 A 
ATOM     44  C   UNL A   1      42.693  25.762  27.067  1.00  0.00     0.049 A 
ATOM     45  N   UNL A   1      41.187  27.822  28.682  1.00  0.00    -0.248 NA
ATOM     46  C   UNL A   1      39.523  26.224  29.040  1.00  0.00     0.031 C 
ATOM     47  C   UNL A   1      43.466  24.797  26.285  1.00  0.00     0.029 A 
ATOM     48  N   UNL A   1      43.535  26.838  27.196  1.00  0.00    -0.354 N 
ATOM     49  C   UNL A   1      40.206  28.356  29.509  1.00  0.00     0.074 A 
ATOM     50  C   UNL A   1      39.188  27.341  29.670  1.00  0.00     0.031 C 
ATOM     51  C   UNL A   1      44.672  25.322  26.009  1.00  0.00     0.029 A 
ATOM     52  C   UNL A   1      44.734  26.678  26.545  1.00  0.00     0.049 A 
ATOM     53  H   UNL A   1      43.302  27.647  27.707  1.00  0.00     0.167 HD
ATOM     54  C   UNL A   1      40.163  29.579  30.089  1.00  0.00     0.037 A 
ATOM     55  C   UNL A   1      45.752  27.543  26.375  1.00  0.00     0.037 A 
ATOM     56  C   UNL A   1      41.189  30.578  29.941  1.00  0.00     0.049 A 
ATOM     57  C   UNL A   1      45.645  28.922  26.967  1.00  0.00     0.074 A 
ATOM     58  C   UNL A   1      41.220  31.868  30.442  1.00  0.00     0.029 A 
ATOM     59  N   UNL A   1      42.378  30.387  29.251  1.00  0.00    -0.354 N 
ATOM     60  N   UNL A   1      44.683  29.441  27.694  1.00  0.00    -0.248 NA
ATOM     61  C   UNL A   1      46.765  29.839  26.712  1.00  0.00     0.031 C 
ATOM     62  C   UNL A   1      42.419  32.464  30.037  1.00  0.00     0.029 A 
ATOM     63  C   UNL A   1      43.152  31.532  29.319  1.00  0.00     0.049 A 
ATOM     64  H   UNL A   1      42.632  29.559  28.783  1.00  0.00     0.167 HD
ATOM     65  C   UNL A   1      45.100  30.726  28.012  1.00  0.00     0.074 A 
ATOM     66  C   UNL A   1      46.404  30.906  27.409  1.00  0.00     0.031 C 
ATOM     67  C   UNL A   1      44.461  31.676  28.739  1.00  0.00     0.037 A 
BRANCH  54  68
ATOM     68  C   UNL A   1      38.957  29.911  30.915  1.00  0.00     0.057 A 
ATOM     69  C   UNL A   1      37.792  30.439  30.343  1.00  0.00     0.134 A 
ATOM     70  C   UNL A   1      38.949  29.676  32.296  1.00  0.00     0.134 A 
ATOM     71  F   UNL A   1      37.741  30.706  29.030  1.00  0.00    -0.206 F 
ATOM     72  C   UNL A   1      36.669  30.737  31.118  1.00  0.00     0.040 A 
ATOM     73  C   UNL A   1      37.824  29.947  33.077  1.00  0.00     0.040 A 
ATOM     74  F   UNL A   1      40.031  29.170  32.907  1.00  0.00    -0.206 F 
ATOM     75  C   UNL A   1      36.682  30.485  32.489  1.00  0.00     0.006 A 
ENDBRANCH  54  68
BRANCH  55  76
ATOM     76  C   UNL A   1      46.949  27.152  25.589  1.00  0.00     0.057 A 
ATOM     77  C   UNL A   1      48.005  26.448  26.180  1.00  0.00     0.134 A 
ATOM     78  C   UNL A   1      47.089  27.511  24.243  1.00  0.00     0.134 A 
ATOM     79  F   UNL A   1      47.942  26.096  27.473  1.00  0.00    -0.206 F 
ATOM     80  C   UNL A   1      49.167  26.139  25.470  1.00  0.00     0.040 A 
ATOM     81  C   UNL A   1      48.232  27.184  23.513  1.00  0.00     0.040 A 
ATOM     82  F   UNL A   1      46.113  28.186  23.617  1.00  0.00    -0.206 F 
ATOM     83  C   UNL A   1      49.281  26.505  24.131  1.00  0.00     0.006 A 
ENDBRANCH  55  76
BRANCH  67  84
ATOM     84  C   UNL A   1      45.198  32.960  28.982  1.00  0.00     0.057 A 
ATOM     85  C   UNL A   1      45.059  34.068  28.139  1.00  0.00     0.134 A 
ATOM     86  C   UNL A   1      46.045  33.087  30.090  1.00  0.00     0.134 A 
ATOM     87  F   UNL A   1      44.274  34.004  27.053  1.00  0.00    -0.206 F 
ATOM     88  C   UNL A   1      45.760  35.252  28.374  1.00  0.00     0.040 A 
ATOM     89  C   UNL A   1      46.732  34.274  30.349  1.00  0.00     0.040 A 
ATOM     90  F   UNL A   1      46.215  32.065  30.941  1.00  0.00    -0.206 F 
ATOM     91  C   UNL A   1      46.596  35.359  29.484  1.00  0.00     0.006 A 
ENDBRANCH  67  84
ENDBRANCH  41  42
ENDBRANCH  34  36
ENDBRANCH  33  34
ENDBRANCH  32  33
ENDBRANCH   1  32
TORSDOF 14
ENDMDL
