MODEL 1
REMARK VINA RESULT:     -10.0      0.000      0.000
REMARK SMILES Cc1ccn2c([C@H]3C[C@@H]3C(=O)OCCOC(=O)c3ccc(-c4c5nc(c(-c6c(F)cccc6F)c6ccc([nH]6)c(-c6c(F)cccc6F)c6nc(c(-c7c(F)cccc7F)c7ccc4[nH]7)C=C6)C=C5)cc3)nnc2c1
REMARK SMILES IDX 14 1 13 2 12 3 10 4 11 5 9 6 7 7 8 8 6 9 1 10 2 11 3 12
REMARK SMILES IDX 75 13 4 14 74 15 5 16 73 17 72 18 15 19 16 20 17 21 18 22
REMARK SMILES IDX 19 23 71 24 20 25 70 26 21 27 22 28 23 29 64 30 24 31 69 32
REMARK SMILES IDX 63 33 65 34 25 35 68 36 62 37 61 38 26 40 52 41 35 42 51 43
REMARK SMILES IDX 36 44 39 45 50 46 66 47 37 48 38 49 49 51 67 52 40 53 27 54
REMARK SMILES IDX 28 55 33 56 29 57 30 58 32 59 34 60 31 61 53 62 54 63 59 64
REMARK SMILES IDX 55 65 56 66 58 67 60 68 57 69 41 70 42 71 47 72 43 73 44 74
REMARK SMILES IDX 46 75 48 76 45 77
REMARK H PARENT 65 39 39 50
REMARK Flexibility Score: inf
ROOT
ATOM      1  C   UNL A   1      42.341  19.242  26.121  1.00  0.00     0.275 C 
ENDROOT
BRANCH   1   2
ATOM      2  C   UNL A   1      43.677  19.002  25.410  1.00  0.00     0.274 C 
BRANCH   2   3
ATOM      3  O   UNL A   1      44.028  20.182  24.654  1.00  0.00    -0.462 OA
BRANCH   3   4
ATOM      4  C   UNL A   1      45.265  20.703  24.866  1.00  0.00     0.309 C 
ATOM      5  O   UNL A   1      46.232  20.103  25.313  1.00  0.00    -0.252 OA
BRANCH   4   6
ATOM      6  C   UNL A   1      45.336  22.132  24.453  1.00  0.00     0.110 C 
ATOM      7  C   UNL A   1      45.033  23.205  25.478  1.00  0.00     0.073 C 
ATOM      8  C   UNL A   1      44.092  22.970  24.344  1.00  0.00     0.028 C 
BRANCH   7   9
ATOM      9  C   UNL A   1      45.787  24.523  25.567  1.00  0.00     0.141 A 
ATOM     10  C   UNL A   1      49.107  26.677  29.481  1.00  0.00     0.044 C 
ATOM     11  C   UNL A   1      48.219  26.118  28.414  1.00  0.00    -0.046 A 
ATOM     12  C   UNL A   1      47.091  25.311  28.874  1.00  0.00     0.022 A 
ATOM     13  C   UNL A   1      48.398  26.343  27.092  1.00  0.00     0.053 A 
ATOM     14  C   UNL A   1      46.342  24.641  27.988  1.00  0.00     0.095 A 
ATOM     15  C   UNL A   1      47.417  25.861  26.178  1.00  0.00     0.161 A 
ATOM     16  N   UNL A   1      46.529  24.915  26.648  1.00  0.00    -0.286 N 
ATOM     17  N   UNL A   1      47.026  26.227  24.974  1.00  0.00    -0.130 NA
ATOM     18  N   UNL A   1      45.910  25.453  24.639  1.00  0.00    -0.134 NA
ENDBRANCH   7   9
ENDBRANCH   4   6
ENDBRANCH   3   4
ENDBRANCH   2   3
ENDBRANCH   1   2
BRANCH   1  19
ATOM     19  O   UNL A   1      42.045  20.653  26.085  1.00  0.00    -0.458 OA
BRANCH  19  20
ATOM     20  C   UNL A   1      41.351  21.138  27.143  1.00  0.00     0.338 C 
ATOM     21  O   UNL A   1      40.770  20.471  27.992  1.00  0.00    -0.246 OA
BRANCH  20  22
ATOM     22  C   UNL A   1      41.735  22.562  27.331  1.00  0.00     0.060 A 
ATOM     23  C   UNL A   1      42.667  23.017  28.270  1.00  0.00     0.016 A 
ATOM     24  C   UNL A   1      40.946  23.499  26.696  1.00  0.00     0.016 A 
ATOM     25  C   UNL A   1      42.589  24.342  28.775  1.00  0.00     0.010 A 
ATOM     26  C   UNL A   1      40.914  24.795  27.202  1.00  0.00     0.010 A 
ATOM     27  C   UNL A   1      41.570  25.212  28.366  1.00  0.00    -0.014 A 
BRANCH  27  28
ATOM     28  C   UNL A   1      41.479  26.679  28.732  1.00  0.00     0.031 A 
ATOM     29  C   UNL A   1      42.672  27.307  28.086  1.00  0.00     0.074 A 
ATOM     30  C   UNL A   1      40.558  27.441  29.431  1.00  0.00     0.049 A 
ATOM     31  N   UNL A   1      43.835  27.353  28.653  1.00  0.00    -0.248 NA
ATOM     32  C   UNL A   1      42.739  27.557  26.632  1.00  0.00     0.031 C 
ATOM     33  C   UNL A   1      39.287  27.039  30.058  1.00  0.00     0.029 A 
ATOM     34  N   UNL A   1      40.547  28.818  29.735  1.00  0.00    -0.354 N 
ATOM     35  C   UNL A   1      44.663  27.970  27.726  1.00  0.00     0.074 A 
ATOM     36  C   UNL A   1      44.051  27.745  26.455  1.00  0.00     0.031 C 
ATOM     37  C   UNL A   1      38.544  28.118  30.444  1.00  0.00     0.029 A 
ATOM     38  C   UNL A   1      39.315  29.341  30.278  1.00  0.00     0.049 A 
ATOM     39  H   UNL A   1      41.334  29.389  29.585  1.00  0.00     0.167 HD
ATOM     40  C   UNL A   1      45.468  28.984  28.148  1.00  0.00     0.037 A 
ATOM     41  C   UNL A   1      39.009  30.646  30.646  1.00  0.00     0.037 A 
ATOM     42  C   UNL A   1      45.503  28.985  29.595  1.00  0.00     0.049 A 
ATOM     43  C   UNL A   1      40.322  31.232  30.966  1.00  0.00     0.074 A 
ATOM     44  C   UNL A   1      45.997  28.170  30.591  1.00  0.00     0.029 A 
ATOM     45  N   UNL A   1      44.467  29.700  30.136  1.00  0.00    -0.354 N 
ATOM     46  N   UNL A   1      40.965  30.919  32.051  1.00  0.00    -0.248 NA
ATOM     47  C   UNL A   1      41.095  31.897  29.928  1.00  0.00     0.031 C 
ATOM     48  C   UNL A   1      45.148  28.357  31.722  1.00  0.00     0.029 A 
ATOM     49  C   UNL A   1      44.231  29.361  31.434  1.00  0.00     0.049 A 
ATOM     50  H   UNL A   1      43.952  30.379  29.644  1.00  0.00     0.167 HD
ATOM     51  C   UNL A   1      42.272  30.857  31.630  1.00  0.00     0.074 A 
ATOM     52  C   UNL A   1      42.321  31.639  30.392  1.00  0.00     0.031 C 
ATOM     53  C   UNL A   1      43.081  29.878  32.123  1.00  0.00     0.037 A 
BRANCH  40  54
ATOM     54  C   UNL A   1      45.695  30.282  27.387  1.00  0.00     0.057 A 
ATOM     55  C   UNL A   1      44.707  31.238  27.065  1.00  0.00     0.134 A 
ATOM     56  C   UNL A   1      47.019  30.744  27.258  1.00  0.00     0.134 A 
ATOM     57  F   UNL A   1      43.396  31.004  27.167  1.00  0.00    -0.206 F 
ATOM     58  C   UNL A   1      45.008  32.554  26.701  1.00  0.00     0.040 A 
ATOM     59  C   UNL A   1      47.329  32.071  26.933  1.00  0.00     0.040 A 
ATOM     60  F   UNL A   1      48.057  29.937  27.527  1.00  0.00    -0.206 F 
ATOM     61  C   UNL A   1      46.320  32.986  26.666  1.00  0.00     0.006 A 
ENDBRANCH  40  54
BRANCH  41  62
ATOM     62  C   UNL A   1      37.815  31.585  30.848  1.00  0.00     0.057 A 
ATOM     63  C   UNL A   1      37.195  31.742  32.087  1.00  0.00     0.134 A 
ATOM     64  C   UNL A   1      37.007  32.028  29.763  1.00  0.00     0.134 A 
ATOM     65  F   UNL A   1      37.915  31.621  33.204  1.00  0.00    -0.206 F 
ATOM     66  C   UNL A   1      35.814  32.018  32.232  1.00  0.00     0.040 A 
ATOM     67  C   UNL A   1      35.648  32.394  29.895  1.00  0.00     0.040 A 
ATOM     68  F   UNL A   1      37.495  32.072  28.515  1.00  0.00    -0.206 F 
ATOM     69  C   UNL A   1      35.024  32.309  31.128  1.00  0.00     0.006 A 
ENDBRANCH  41  62
BRANCH  53  70
ATOM     70  C   UNL A   1      42.678  29.242  33.417  1.00  0.00     0.057 A 
ATOM     71  C   UNL A   1      43.169  29.811  34.593  1.00  0.00     0.134 A 
ATOM     72  C   UNL A   1      41.893  28.087  33.546  1.00  0.00     0.134 A 
ATOM     73  F   UNL A   1      43.965  30.890  34.536  1.00  0.00    -0.206 F 
ATOM     74  C   UNL A   1      42.886  29.270  35.846  1.00  0.00     0.040 A 
ATOM     75  C   UNL A   1      41.575  27.551  34.798  1.00  0.00     0.040 A 
ATOM     76  F   UNL A   1      41.445  27.428  32.471  1.00  0.00    -0.206 F 
ATOM     77  C   UNL A   1      42.074  28.145  35.954  1.00  0.00     0.006 A 
ENDBRANCH  53  70
ENDBRANCH  27  28
ENDBRANCH  20  22
ENDBRANCH  19  20
ENDBRANCH   1  19
TORSDOF 12
ENDMDL
MODEL 2
REMARK VINA RESULT:      -9.7      5.266      9.260
REMARK SMILES Cc1ccn2c([C@H]3C[C@@H]3C(=O)OCCOC(=O)c3ccc(-c4c5nc(c(-c6c(F)cccc6F)c6ccc([nH]6)c(-c6c(F)cccc6F)c6nc(c(-c7c(F)cccc7F)c7ccc4[nH]7)C=C6)C=C5)cc3)nnc2c1
REMARK SMILES IDX 14 1 13 2 12 3 10 4 11 5 9 6 7 7 8 8 6 9 1 10 2 11 3 12
REMARK SMILES IDX 75 13 4 14 74 15 5 16 73 17 72 18 15 19 16 20 17 21 18 22
REMARK SMILES IDX 19 23 71 24 20 25 70 26 21 27 22 28 23 29 64 30 24 31 69 32
REMARK SMILES IDX 63 33 65 34 25 35 68 36 62 37 61 38 26 40 52 41 35 42 51 43
REMARK SMILES IDX 36 44 39 45 50 46 66 47 37 48 38 49 49 51 67 52 40 53 27 54
REMARK SMILES IDX 28 55 33 56 29 57 30 58 32 59 34 60 31 61 53 62 54 63 59 64
REMARK SMILES IDX 55 65 56 66 58 67 60 68 57 69 41 70 42 71 47 72 43 73 44 74
REMARK SMILES IDX 46 75 48 76 45 77
REMARK H PARENT 65 39 39 50
REMARK Flexibility Score: inf
ROOT
ATOM      1  C   UNL A   1      40.151  23.885  26.494  1.00  0.00     0.275 C 
ENDROOT
BRANCH   1   2
ATOM      2  C   UNL A   1      39.252  22.644  26.525  1.00  0.00     0.274 C 
BRANCH   2   3
ATOM      3  O   UNL A   1      37.918  23.016  26.115  1.00  0.00    -0.462 OA
BRANCH   3   4
ATOM      4  C   UNL A   1      37.239  22.123  25.348  1.00  0.00     0.309 C 
ATOM      5  O   UNL A   1      37.704  21.120  24.828  1.00  0.00    -0.252 OA
BRANCH   4   6
ATOM      6  C   UNL A   1      35.801  22.490  25.224  1.00  0.00     0.110 C 
ATOM      7  C   UNL A   1      34.827  21.997  26.275  1.00  0.00     0.073 C 
ATOM      8  C   UNL A   1      34.763  21.456  24.886  1.00  0.00     0.028 C 
BRANCH   7   9
ATOM      9  C   UNL A   1      33.671  22.828  26.810  1.00  0.00     0.141 A 
ATOM     10  C   UNL A   1      31.415  27.625  25.112  1.00  0.00     0.044 C 
ATOM     11  C   UNL A   1      32.004  26.334  25.587  1.00  0.00    -0.046 A 
ATOM     12  C   UNL A   1      33.450  26.191  25.431  1.00  0.00     0.022 A 
ATOM     13  C   UNL A   1      31.281  25.342  26.155  1.00  0.00     0.053 A 
ATOM     14  C   UNL A   1      34.036  25.012  25.678  1.00  0.00     0.095 A 
ATOM     15  C   UNL A   1      31.969  24.210  26.681  1.00  0.00     0.161 A 
ATOM     16  N   UNL A   1      33.280  24.031  26.286  1.00  0.00    -0.286 N 
ATOM     17  N   UNL A   1      31.702  23.328  27.623  1.00  0.00    -0.130 NA
ATOM     18  N   UNL A   1      32.836  22.526  27.786  1.00  0.00    -0.134 NA
ENDBRANCH   7   9
ENDBRANCH   4   6
ENDBRANCH   3   4
ENDBRANCH   2   3
ENDBRANCH   1   2
BRANCH   1  19
ATOM     19  O   UNL A   1      39.516  24.933  27.256  1.00  0.00    -0.458 OA
BRANCH  19  20
ATOM     20  C   UNL A   1      40.278  25.509  28.217  1.00  0.00     0.338 C 
ATOM     21  O   UNL A   1      41.484  25.351  28.372  1.00  0.00    -0.246 OA
BRANCH  20  22
ATOM     22  C   UNL A   1      39.513  26.647  28.790  1.00  0.00     0.060 A 
ATOM     23  C   UNL A   1      39.563  27.961  28.311  1.00  0.00     0.016 A 
ATOM     24  C   UNL A   1      38.904  26.426  30.008  1.00  0.00     0.016 A 
ATOM     25  C   UNL A   1      39.284  29.051  29.177  1.00  0.00     0.010 A 
ATOM     26  C   UNL A   1      38.621  27.520  30.821  1.00  0.00     0.010 A 
ATOM     27  C   UNL A   1      38.977  28.842  30.528  1.00  0.00    -0.014 A 
BRANCH  27  28
ATOM     28  C   UNL A   1      38.527  29.917  31.496  1.00  0.00     0.031 A 
ATOM     29  C   UNL A   1      37.523  30.719  30.733  1.00  0.00     0.074 A 
ATOM     30  C   UNL A   1      38.818  30.203  32.819  1.00  0.00     0.049 A 
ATOM     31  N   UNL A   1      37.851  31.707  29.963  1.00  0.00    -0.248 NA
ATOM     32  C   UNL A   1      36.156  30.225  30.469  1.00  0.00     0.031 C 
ATOM     33  C   UNL A   1      39.696  29.492  33.763  1.00  0.00     0.029 A 
ATOM     34  N   UNL A   1      38.355  31.237  33.658  1.00  0.00    -0.354 N 
ATOM     35  C   UNL A   1      36.656  32.153  29.419  1.00  0.00     0.074 A 
ATOM     36  C   UNL A   1      35.766  31.037  29.482  1.00  0.00     0.031 C 
ATOM     37  C   UNL A   1      39.538  29.940  35.044  1.00  0.00     0.029 A 
ATOM     38  C   UNL A   1      38.673  31.110  35.062  1.00  0.00     0.049 A 
ATOM     39  H   UNL A   1      37.844  32.001  33.307  1.00  0.00     0.167 HD
ATOM     40  C   UNL A   1      36.393  33.490  29.434  1.00  0.00     0.037 A 
ATOM     41  C   UNL A   1      38.334  31.954  36.113  1.00  0.00     0.037 A 
ATOM     42  C   UNL A   1      37.612  34.203  29.752  1.00  0.00     0.049 A 
ATOM     43  C   UNL A   1      38.155  33.263  35.460  1.00  0.00     0.074 A 
ATOM     44  C   UNL A   1      38.827  34.442  29.145  1.00  0.00     0.029 A 
ATOM     45  N   UNL A   1      37.807  34.316  31.103  1.00  0.00    -0.354 N 
ATOM     46  N   UNL A   1      39.166  33.959  35.033  1.00  0.00    -0.248 NA
ATOM     47  C   UNL A   1      36.846  33.654  34.961  1.00  0.00     0.031 C 
ATOM     48  C   UNL A   1      39.777  34.604  30.197  1.00  0.00     0.029 A 
ATOM     49  C   UNL A   1      39.107  34.578  31.416  1.00  0.00     0.049 A 
ATOM     50  H   UNL A   1      37.092  34.217  31.772  1.00  0.00     0.167 HD
ATOM     51  C   UNL A   1      38.701  34.488  33.853  1.00  0.00     0.074 A 
ATOM     52  C   UNL A   1      37.240  34.432  33.949  1.00  0.00     0.031 C 
ATOM     53  C   UNL A   1      39.543  34.565  32.784  1.00  0.00     0.037 A 
BRANCH  40  54
ATOM     54  C   UNL A   1      35.046  34.102  29.786  1.00  0.00     0.057 A 
ATOM     55  C   UNL A   1      34.483  34.182  31.077  1.00  0.00     0.134 A 
ATOM     56  C   UNL A   1      34.437  34.939  28.830  1.00  0.00     0.134 A 
ATOM     57  F   UNL A   1      34.950  33.500  32.127  1.00  0.00    -0.206 F 
ATOM     58  C   UNL A   1      33.443  35.057  31.405  1.00  0.00     0.040 A 
ATOM     59  C   UNL A   1      33.421  35.847  29.157  1.00  0.00     0.040 A 
ATOM     60  F   UNL A   1      34.869  34.959  27.560  1.00  0.00    -0.206 F 
ATOM     61  C   UNL A   1      32.929  35.918  30.453  1.00  0.00     0.006 A 
ENDBRANCH  40  54
BRANCH  41  62
ATOM     62  C   UNL A   1      38.142  31.956  37.633  1.00  0.00     0.057 A 
ATOM     63  C   UNL A   1      37.257  31.088  38.271  1.00  0.00     0.134 A 
ATOM     64  C   UNL A   1      38.509  33.069  38.441  1.00  0.00     0.134 A 
ATOM     65  F   UNL A   1      37.030  29.879  37.752  1.00  0.00    -0.206 F 
ATOM     66  C   UNL A   1      36.562  31.426  39.457  1.00  0.00     0.040 A 
ATOM     67  C   UNL A   1      37.892  33.379  39.674  1.00  0.00     0.040 A 
ATOM     68  F   UNL A   1      39.452  33.932  38.037  1.00  0.00    -0.206 F 
ATOM     69  C   UNL A   1      36.852  32.597  40.146  1.00  0.00     0.006 A 
ENDBRANCH  41  62
BRANCH  53  70
ATOM     70  C   UNL A   1      41.013  34.533  33.066  1.00  0.00     0.057 A 
ATOM     71  C   UNL A   1      41.723  33.408  32.643  1.00  0.00     0.134 A 
ATOM     72  C   UNL A   1      41.728  35.512  33.770  1.00  0.00     0.134 A 
ATOM     73  F   UNL A   1      41.088  32.413  32.005  1.00  0.00    -0.206 F 
ATOM     74  C   UNL A   1      43.086  33.262  32.892  1.00  0.00     0.040 A 
ATOM     75  C   UNL A   1      43.102  35.394  34.001  1.00  0.00     0.040 A 
ATOM     76  F   UNL A   1      41.115  36.585  34.283  1.00  0.00    -0.206 F 
ATOM     77  C   UNL A   1      43.785  34.264  33.560  1.00  0.00     0.006 A 
ENDBRANCH  53  70
ENDBRANCH  27  28
ENDBRANCH  20  22
ENDBRANCH  19  20
ENDBRANCH   1  19
TORSDOF 12
ENDMDL
MODEL 3
REMARK VINA RESULT:      -9.6      4.742     11.142
REMARK SMILES Cc1ccn2c([C@H]3C[C@@H]3C(=O)OCCOC(=O)c3ccc(-c4c5nc(c(-c6c(F)cccc6F)c6ccc([nH]6)c(-c6c(F)cccc6F)c6nc(c(-c7c(F)cccc7F)c7ccc4[nH]7)C=C6)C=C5)cc3)nnc2c1
REMARK SMILES IDX 14 1 13 2 12 3 10 4 11 5 9 6 7 7 8 8 6 9 1 10 2 11 3 12
REMARK SMILES IDX 75 13 4 14 74 15 5 16 73 17 72 18 15 19 16 20 17 21 18 22
REMARK SMILES IDX 19 23 71 24 20 25 70 26 21 27 22 28 23 29 64 30 24 31 69 32
REMARK SMILES IDX 63 33 65 34 25 35 68 36 62 37 61 38 26 40 52 41 35 42 51 43
REMARK SMILES IDX 36 44 39 45 50 46 66 47 37 48 38 49 49 51 67 52 40 53 27 54
REMARK SMILES IDX 28 55 33 56 29 57 30 58 32 59 34 60 31 61 53 62 54 63 59 64
REMARK SMILES IDX 55 65 56 66 58 67 60 68 57 69 41 70 42 71 47 72 43 73 44 74
REMARK SMILES IDX 46 75 48 76 45 77
REMARK H PARENT 65 39 39 50
REMARK Flexibility Score: inf
ROOT
ATOM      1  C   UNL A   1      35.419  33.468  34.277  1.00  0.00     0.275 C 
ENDROOT
BRANCH   1   2
ATOM      2  C   UNL A   1      35.158  34.957  34.532  1.00  0.00     0.274 C 
BRANCH   2   3
ATOM      3  O   UNL A   1      35.339  35.686  33.298  1.00  0.00    -0.462 OA
BRANCH   3   4
ATOM      4  C   UNL A   1      34.290  36.432  32.865  1.00  0.00     0.309 C 
ATOM      5  O   UNL A   1      34.026  37.574  33.214  1.00  0.00    -0.252 OA
BRANCH   4   6
ATOM      6  C   UNL A   1      33.476  35.700  31.855  1.00  0.00     0.110 C 
ATOM      7  C   UNL A   1      33.655  36.035  30.389  1.00  0.00     0.073 C 
ATOM      8  C   UNL A   1      32.385  36.393  31.087  1.00  0.00     0.028 C 
BRANCH   7   9
ATOM      9  C   UNL A   1      33.632  34.997  29.277  1.00  0.00     0.141 A 
ATOM     10  C   UNL A   1      37.052  30.788  28.022  1.00  0.00     0.044 C 
ATOM     11  C   UNL A   1      36.117  31.913  28.341  1.00  0.00    -0.046 A 
ATOM     12  C   UNL A   1      36.729  33.124  28.883  1.00  0.00     0.022 A 
ATOM     13  C   UNL A   1      34.782  31.863  28.132  1.00  0.00     0.053 A 
ATOM     14  C   UNL A   1      35.957  34.115  29.345  1.00  0.00     0.095 A 
ATOM     15  C   UNL A   1      34.010  33.039  28.357  1.00  0.00     0.161 A 
ATOM     16  N   UNL A   1      34.602  34.050  29.089  1.00  0.00    -0.286 N 
ATOM     17  N   UNL A   1      32.867  33.493  27.885  1.00  0.00    -0.130 NA
ATOM     18  N   UNL A   1      32.690  34.790  28.378  1.00  0.00    -0.134 NA
ENDBRANCH   7   9
ENDBRANCH   4   6
ENDBRANCH   3   4
ENDBRANCH   2   3
ENDBRANCH   1   2
BRANCH   1  19
ATOM     19  O   UNL A   1      35.943  33.313  32.943  1.00  0.00    -0.458 OA
BRANCH  19  20
ATOM     20  C   UNL A   1      35.641  32.147  32.322  1.00  0.00     0.338 C 
ATOM     21  O   UNL A   1      34.686  31.953  31.577  1.00  0.00    -0.246 OA
BRANCH  20  22
ATOM     22  C   UNL A   1      36.845  31.277  32.366  1.00  0.00     0.060 A 
ATOM     23  C   UNL A   1      38.152  31.736  32.564  1.00  0.00     0.016 A 
ATOM     24  C   UNL A   1      36.674  29.971  31.954  1.00  0.00     0.016 A 
ATOM     25  C   UNL A   1      39.256  30.996  32.065  1.00  0.00     0.010 A 
ATOM     26  C   UNL A   1      37.783  29.267  31.495  1.00  0.00     0.010 A 
ATOM     27  C   UNL A   1      39.065  29.809  31.346  1.00  0.00    -0.014 A 
BRANCH  27  28
ATOM     28  C   UNL A   1      40.170  28.876  30.895  1.00  0.00     0.031 A 
ATOM     29  C   UNL A   1      40.922  28.547  32.144  1.00  0.00     0.074 A 
ATOM     30  C   UNL A   1      40.515  28.309  29.680  1.00  0.00     0.049 A 
ATOM     31  N   UNL A   1      41.884  29.284  32.600  1.00  0.00    -0.248 NA
ATOM     32  C   UNL A   1      40.393  27.614  33.160  1.00  0.00     0.031 C 
ATOM     33  C   UNL A   1      39.859  28.429  28.367  1.00  0.00     0.029 A 
ATOM     34  N   UNL A   1      41.573  27.443  29.338  1.00  0.00    -0.354 N 
ATOM     35  C   UNL A   1      42.286  28.667  33.775  1.00  0.00     0.074 A 
ATOM     36  C   UNL A   1      41.157  27.910  34.216  1.00  0.00     0.031 C 
ATOM     37  C   UNL A   1      40.355  27.532  27.464  1.00  0.00     0.029 A 
ATOM     38  C   UNL A   1      41.509  26.845  28.024  1.00  0.00     0.049 A 
ATOM     39  H   UNL A   1      42.314  27.256  29.959  1.00  0.00     0.167 HD
ATOM     40  C   UNL A   1      43.617  28.463  33.980  1.00  0.00     0.037 A 
ATOM     41  C   UNL A   1      42.389  25.947  27.431  1.00  0.00     0.037 A 
ATOM     42  C   UNL A   1      44.365  29.247  33.021  1.00  0.00     0.049 A 
ATOM     43  C   UNL A   1      43.667  26.213  28.115  1.00  0.00     0.074 A 
ATOM     44  C   UNL A   1      44.601  30.583  32.778  1.00  0.00     0.029 A 
ATOM     45  N   UNL A   1      44.536  28.585  31.834  1.00  0.00    -0.354 N 
ATOM     46  N   UNL A   1      44.363  27.283  27.872  1.00  0.00    -0.248 NA
ATOM     47  C   UNL A   1      44.013  25.478  29.321  1.00  0.00     0.031 C 
ATOM     48  C   UNL A   1      44.823  30.704  31.374  1.00  0.00     0.029 A 
ATOM     49  C   UNL A   1      44.834  29.433  30.810  1.00  0.00     0.049 A 
ATOM     50  H   UNL A   1      44.451  27.610  31.731  1.00  0.00     0.167 HD
ATOM     51  C   UNL A   1      44.835  27.633  29.115  1.00  0.00     0.074 A 
ATOM     52  C   UNL A   1      44.757  26.412  29.920  1.00  0.00     0.031 C 
ATOM     53  C   UNL A   1      44.884  28.951  29.458  1.00  0.00     0.037 A 
BRANCH  40  54
ATOM     54  C   UNL A   1      44.218  27.184  34.543  1.00  0.00     0.057 A 
ATOM     55  C   UNL A   1      44.221  25.921  33.913  1.00  0.00     0.134 A 
ATOM     56  C   UNL A   1      45.119  27.301  35.619  1.00  0.00     0.134 A 
ATOM     57  F   UNL A   1      43.470  25.629  32.847  1.00  0.00    -0.206 F 
ATOM     58  C   UNL A   1      45.084  24.884  34.282  1.00  0.00     0.040 A 
ATOM     59  C   UNL A   1      46.015  26.283  35.972  1.00  0.00     0.040 A 
ATOM     60  F   UNL A   1      45.215  28.446  36.312  1.00  0.00    -0.206 F 
ATOM     61  C   UNL A   1      46.008  25.072  35.293  1.00  0.00     0.006 A 
ENDBRANCH  40  54
BRANCH  41  62
ATOM     62  C   UNL A   1      42.449  24.874  26.339  1.00  0.00     0.057 A 
ATOM     63  C   UNL A   1      41.856  23.622  26.494  1.00  0.00     0.134 A 
ATOM     64  C   UNL A   1      43.425  24.902  25.303  1.00  0.00     0.134 A 
ATOM     65  F   UNL A   1      40.751  23.504  27.234  1.00  0.00    -0.206 F 
ATOM     66  C   UNL A   1      42.374  22.442  25.909  1.00  0.00     0.040 A 
ATOM     67  C   UNL A   1      43.897  23.746  24.640  1.00  0.00     0.040 A 
ATOM     68  F   UNL A   1      44.000  26.054  24.930  1.00  0.00    -0.206 F 
ATOM     69  C   UNL A   1      43.426  22.496  25.003  1.00  0.00     0.006 A 
ENDBRANCH  41  62
BRANCH  53  70
ATOM     70  C   UNL A   1      44.891  29.950  28.343  1.00  0.00     0.057 A 
ATOM     71  C   UNL A   1      46.127  30.287  27.789  1.00  0.00     0.134 A 
ATOM     72  C   UNL A   1      43.764  30.621  27.845  1.00  0.00     0.134 A 
ATOM     73  F   UNL A   1      47.249  29.716  28.253  1.00  0.00    -0.206 F 
ATOM     74  C   UNL A   1      46.245  31.236  26.776  1.00  0.00     0.040 A 
ATOM     75  C   UNL A   1      43.864  31.552  26.807  1.00  0.00     0.040 A 
ATOM     76  F   UNL A   1      42.550  30.421  28.369  1.00  0.00    -0.206 F 
ATOM     77  C   UNL A   1      45.110  31.862  26.270  1.00  0.00     0.006 A 
ENDBRANCH  53  70
ENDBRANCH  27  28
ENDBRANCH  20  22
ENDBRANCH  19  20
ENDBRANCH   1  19
TORSDOF 12
ENDMDL
