MODEL 1
REMARK VINA RESULT:     -10.8      0.000      0.000
REMARK SMILES COc1ccc(NC(=O)[C@H](CC(=O)OCCOC(=O)c2ccc(-c3c4nc(c(-c5c(F)cccc5F)c5ccc([nH]5)c(-c5c(F)cccc5F)c5nc(c(-c6c(F)cccc6F)c6ccc3[nH]6)C=C5)C=C4)cc2)Cc2ccccc2)cc1
REMARK SMILES IDX 15 1 14 2 12 3 13 4 11 5 10 6 8 7 7 8 9 10 6 11 3 12 4 13
REMARK SMILES IDX 82 14 5 15 81 16 2 17 1 18 74 19 75 20 76 21 80 22 77 23
REMARK SMILES IDX 79 24 78 25 16 26 17 27 18 28 19 29 20 30 21 31 73 32 22 33
REMARK SMILES IDX 72 34 23 35 24 36 25 37 66 38 26 39 71 40 65 41 67 42 27 43
REMARK SMILES IDX 70 44 64 45 63 46 28 48 54 49 37 50 53 51 38 52 41 53 52 54
REMARK SMILES IDX 68 55 39 56 40 57 51 59 69 60 42 61 29 62 30 63 35 64 31 65
REMARK SMILES IDX 32 66 34 67 36 68 33 69 55 70 56 71 61 72 57 73 58 74 60 75
REMARK SMILES IDX 62 76 59 77 43 78 44 79 49 80 45 81 46 82 48 83 50 84 47 85
REMARK H PARENT 7 9 67 47 41 58
REMARK Flexibility Score: inf
ROOT
ATOM      1  C   UNL A   1      32.446  30.740  27.041  1.00  0.00     0.274 C 
ENDROOT
BRANCH   1   2
ATOM      2  O   UNL A   1      32.025  30.022  25.863  1.00  0.00    -0.462 OA
BRANCH   2   3
ATOM      3  C   UNL A   1      32.968  29.287  25.228  1.00  0.00     0.306 C 
ATOM      4  O   UNL A   1      33.192  29.362  24.031  1.00  0.00    -0.252 OA
BRANCH   3   5
ATOM      5  C   UNL A   1      33.624  28.285  26.148  1.00  0.00     0.136 C 
BRANCH   5   6
ATOM      6  C   UNL A   1      33.207  26.823  26.036  1.00  0.00     0.094 C 
BRANCH   6   7
ATOM      7  C   UNL A   1      31.889  26.234  26.581  1.00  0.00     0.228 C 
ATOM      8  N   UNL A   1      31.347  25.001  26.601  1.00  0.00    -0.326 N 
ATOM      9  H   UNL A   1      30.393  25.080  26.827  1.00  0.00     0.169 HD
ATOM     10  O   UNL A   1      31.081  27.064  27.055  1.00  0.00    -0.274 OA
BRANCH   8  11
ATOM     11  C   UNL A   1      31.650  23.643  26.414  1.00  0.00     0.041 A 
ATOM     12  C   UNL A   1      32.950  21.217  25.796  1.00  0.00     0.119 A 
ATOM     13  C   UNL A   1      31.843  21.629  25.072  1.00  0.00     0.048 A 
ATOM     14  C   UNL A   1      33.311  21.930  26.932  1.00  0.00     0.048 A 
ATOM     15  C   UNL A   1      31.165  22.804  25.432  1.00  0.00     0.030 A 
ATOM     16  C   UNL A   1      32.666  23.134  27.240  1.00  0.00     0.030 A 
BRANCH  12  17
ATOM     17  O   UNL A   1      33.821  20.250  25.405  1.00  0.00    -0.497 OA
ATOM     18  C   UNL A   1      33.284  18.982  25.074  1.00  0.00     0.278 C 
ENDBRANCH  12  17
ENDBRANCH   8  11
ENDBRANCH   6   7
BRANCH   6  19
ATOM     19  C   UNL A   1      33.430  26.230  24.596  1.00  0.00     0.049 C 
BRANCH  19  20
ATOM     20  C   UNL A   1      34.265  24.969  24.519  1.00  0.00    -0.047 A 
ATOM     21  C   UNL A   1      34.073  24.076  23.456  1.00  0.00     0.004 A 
ATOM     22  C   UNL A   1      35.302  24.724  25.430  1.00  0.00     0.004 A 
ATOM     23  C   UNL A   1      34.995  23.055  23.218  1.00  0.00     0.000 A 
ATOM     24  C   UNL A   1      36.230  23.713  25.182  1.00  0.00     0.000 A 
ATOM     25  C   UNL A   1      36.092  22.897  24.061  1.00  0.00     0.000 A 
ENDBRANCH  19  20
ENDBRANCH   6  19
ENDBRANCH   5   6
ENDBRANCH   3   5
ENDBRANCH   2   3
ENDBRANCH   1   2
BRANCH   1  26
ATOM     26  C   UNL A   1      31.779  32.113  27.162  1.00  0.00     0.275 C 
BRANCH  26  27
ATOM     27  O   UNL A   1      32.757  33.158  27.015  1.00  0.00    -0.458 OA
BRANCH  27  28
ATOM     28  C   UNL A   1      33.052  33.879  28.123  1.00  0.00     0.338 C 
ATOM     29  O   UNL A   1      32.415  34.800  28.599  1.00  0.00    -0.246 OA
BRANCH  28  30
ATOM     30  C   UNL A   1      34.329  33.388  28.676  1.00  0.00     0.060 A 
ATOM     31  C   UNL A   1      35.501  33.582  27.954  1.00  0.00     0.016 A 
ATOM     32  C   UNL A   1      34.365  32.690  29.886  1.00  0.00     0.016 A 
ATOM     33  C   UNL A   1      36.706  33.100  28.451  1.00  0.00     0.010 A 
ATOM     34  C   UNL A   1      35.593  32.230  30.396  1.00  0.00     0.010 A 
ATOM     35  C   UNL A   1      36.780  32.441  29.679  1.00  0.00    -0.014 A 
BRANCH  35  36
ATOM     36  C   UNL A   1      38.110  31.945  30.126  1.00  0.00     0.031 A 
ATOM     37  C   UNL A   1      38.684  30.697  29.522  1.00  0.00     0.074 A 
ATOM     38  C   UNL A   1      38.879  32.690  30.944  1.00  0.00     0.049 A 
ATOM     39  N   UNL A   1      39.799  30.076  29.813  1.00  0.00    -0.248 NA
ATOM     40  C   UNL A   1      37.911  30.080  28.437  1.00  0.00     0.031 C 
ATOM     41  C   UNL A   1      38.510  33.999  31.479  1.00  0.00     0.029 A 
ATOM     42  N   UNL A   1      40.154  32.487  31.417  1.00  0.00    -0.354 N 
ATOM     43  C   UNL A   1      39.831  28.958  28.991  1.00  0.00     0.074 A 
ATOM     44  C   UNL A   1      38.645  29.010  28.161  1.00  0.00     0.031 C 
ATOM     45  C   UNL A   1      39.562  34.517  32.134  1.00  0.00     0.029 A 
ATOM     46  C   UNL A   1      40.649  33.545  32.145  1.00  0.00     0.049 A 
ATOM     47  H   UNL A   1      40.665  31.662  31.252  1.00  0.00     0.167 HD
ATOM     48  C   UNL A   1      40.751  27.965  28.958  1.00  0.00     0.037 A 
ATOM     49  C   UNL A   1      41.836  33.707  32.762  1.00  0.00     0.037 A 
ATOM     50  C   UNL A   1      41.937  27.927  29.774  1.00  0.00     0.049 A 
ATOM     51  C   UNL A   1      42.808  32.558  32.772  1.00  0.00     0.074 A 
ATOM     52  C   UNL A   1      42.875  26.917  29.894  1.00  0.00     0.029 A 
ATOM     53  N   UNL A   1      42.356  28.960  30.600  1.00  0.00    -0.354 N 
ATOM     54  N   UNL A   1      42.761  31.426  32.113  1.00  0.00    -0.248 NA
ATOM     55  C   UNL A   1      43.975  32.688  33.660  1.00  0.00     0.031 C 
ATOM     56  C   UNL A   1      43.843  27.324  30.821  1.00  0.00     0.029 A 
ATOM     57  C   UNL A   1      43.531  28.605  31.245  1.00  0.00     0.049 A 
ATOM     58  H   UNL A   1      41.888  29.819  30.712  1.00  0.00     0.167 HD
ATOM     59  C   UNL A   1      43.876  30.705  32.516  1.00  0.00     0.074 A 
ATOM     60  C   UNL A   1      44.609  31.544  33.440  1.00  0.00     0.031 C 
ATOM     61  C   UNL A   1      44.247  29.447  32.168  1.00  0.00     0.037 A 
BRANCH  48  62
ATOM     62  C   UNL A   1      40.439  26.789  28.084  1.00  0.00     0.057 A 
ATOM     63  C   UNL A   1      40.989  26.629  26.808  1.00  0.00     0.134 A 
ATOM     64  C   UNL A   1      39.539  25.811  28.530  1.00  0.00     0.134 A 
ATOM     65  F   UNL A   1      41.838  27.542  26.315  1.00  0.00    -0.206 F 
ATOM     66  C   UNL A   1      40.632  25.553  25.992  1.00  0.00     0.040 A 
ATOM     67  C   UNL A   1      39.192  24.719  27.734  1.00  0.00     0.040 A 
ATOM     68  F   UNL A   1      38.977  25.905  29.745  1.00  0.00    -0.206 F 
ATOM     69  C   UNL A   1      39.732  24.593  26.456  1.00  0.00     0.006 A 
ENDBRANCH  48  62
BRANCH  49  70
ATOM     70  C   UNL A   1      42.166  34.973  33.470  1.00  0.00     0.057 A 
ATOM     71  C   UNL A   1      42.930  35.969  32.848  1.00  0.00     0.134 A 
ATOM     72  C   UNL A   1      41.766  35.208  34.792  1.00  0.00     0.134 A 
ATOM     73  F   UNL A   1      43.377  35.794  31.596  1.00  0.00    -0.206 F 
ATOM     74  C   UNL A   1      43.288  37.144  33.514  1.00  0.00     0.040 A 
ATOM     75  C   UNL A   1      42.090  36.391  35.460  1.00  0.00     0.040 A 
ATOM     76  F   UNL A   1      41.049  34.290  35.457  1.00  0.00    -0.206 F 
ATOM     77  C   UNL A   1      42.861  37.360  34.822  1.00  0.00     0.006 A 
ENDBRANCH  49  70
BRANCH  61  78
ATOM     78  C   UNL A   1      45.496  28.907  32.798  1.00  0.00     0.057 A 
ATOM     79  C   UNL A   1      45.450  28.123  33.959  1.00  0.00     0.134 A 
ATOM     80  C   UNL A   1      46.751  29.143  32.225  1.00  0.00     0.134 A 
ATOM     81  F   UNL A   1      44.280  27.873  34.565  1.00  0.00    -0.206 F 
ATOM     82  C   UNL A   1      46.612  27.611  34.539  1.00  0.00     0.040 A 
ATOM     83  C   UNL A   1      47.918  28.617  32.783  1.00  0.00     0.040 A 
ATOM     84  F   UNL A   1      46.862  29.881  31.110  1.00  0.00    -0.206 F 
ATOM     85  C   UNL A   1      47.849  27.852  33.946  1.00  0.00     0.006 A 
ENDBRANCH  61  78
ENDBRANCH  35  36
ENDBRANCH  28  30
ENDBRANCH  27  28
ENDBRANCH  26  27
ENDBRANCH   1  26
TORSDOF 17
ENDMDL
MODEL 2
REMARK VINA RESULT:     -10.8      2.401      3.128
REMARK SMILES COc1ccc(NC(=O)[C@H](CC(=O)OCCOC(=O)c2ccc(-c3c4nc(c(-c5c(F)cccc5F)c5ccc([nH]5)c(-c5c(F)cccc5F)c5nc(c(-c6c(F)cccc6F)c6ccc3[nH]6)C=C5)C=C4)cc2)Cc2ccccc2)cc1
REMARK SMILES IDX 15 1 14 2 12 3 13 4 11 5 10 6 8 7 7 8 9 10 6 11 3 12 4 13
REMARK SMILES IDX 82 14 5 15 81 16 2 17 1 18 74 19 75 20 76 21 80 22 77 23
REMARK SMILES IDX 79 24 78 25 16 26 17 27 18 28 19 29 20 30 21 31 73 32 22 33
REMARK SMILES IDX 72 34 23 35 24 36 25 37 66 38 26 39 71 40 65 41 67 42 27 43
REMARK SMILES IDX 70 44 64 45 63 46 28 48 54 49 37 50 53 51 38 52 41 53 52 54
REMARK SMILES IDX 68 55 39 56 40 57 51 59 69 60 42 61 29 62 30 63 35 64 31 65
REMARK SMILES IDX 32 66 34 67 36 68 33 69 55 70 56 71 61 72 57 73 58 74 60 75
REMARK SMILES IDX 62 76 59 77 43 78 44 79 49 80 45 81 46 82 48 83 50 84 47 85
REMARK H PARENT 7 9 67 47 41 58
REMARK Flexibility Score: inf
ROOT
ATOM      1  C   UNL A   1      31.299  28.447  25.389  1.00  0.00     0.274 C 
ENDROOT
BRANCH   1   2
ATOM      2  O   UNL A   1      31.445  27.622  24.215  1.00  0.00    -0.462 OA
BRANCH   2   3
ATOM      3  C   UNL A   1      32.708  27.391  23.786  1.00  0.00     0.306 C 
ATOM      4  O   UNL A   1      33.040  27.420  22.612  1.00  0.00    -0.252 OA
BRANCH   3   5
ATOM      5  C   UNL A   1      33.627  26.980  24.912  1.00  0.00     0.136 C 
BRANCH   5   6
ATOM      6  C   UNL A   1      33.635  25.516  25.338  1.00  0.00     0.094 C 
BRANCH   6   7
ATOM      7  C   UNL A   1      32.498  24.812  26.108  1.00  0.00     0.228 C 
ATOM      8  N   UNL A   1      32.046  23.544  26.165  1.00  0.00    -0.326 N 
ATOM      9  H   UNL A   1      31.158  23.546  26.589  1.00  0.00     0.169 HD
ATOM     10  O   UNL A   1      31.762  25.561  26.789  1.00  0.00    -0.274 OA
BRANCH   8  11
ATOM     11  C   UNL A   1      32.381  22.221  25.838  1.00  0.00     0.041 A 
ATOM     12  C   UNL A   1      33.745  19.902  24.991  1.00  0.00     0.119 A 
ATOM     13  C   UNL A   1      32.650  20.373  24.287  1.00  0.00     0.048 A 
ATOM     14  C   UNL A   1      34.063  20.491  26.209  1.00  0.00     0.048 A 
ATOM     15  C   UNL A   1      31.938  21.488  24.756  1.00  0.00     0.030 A 
ATOM     16  C   UNL A   1      33.386  21.641  26.630  1.00  0.00     0.030 A 
BRANCH  12  17
ATOM     17  O   UNL A   1      34.646  19.000  24.519  1.00  0.00    -0.497 OA
ATOM     18  C   UNL A   1      34.183  17.686  24.264  1.00  0.00     0.278 C 
ENDBRANCH  12  17
ENDBRANCH   8  11
ENDBRANCH   6   7
BRANCH   6  19
ATOM     19  C   UNL A   1      34.100  24.546  24.191  1.00  0.00     0.049 C 
BRANCH  19  20
ATOM     20  C   UNL A   1      35.385  23.786  24.443  1.00  0.00    -0.047 A 
ATOM     21  C   UNL A   1      36.149  24.078  25.581  1.00  0.00     0.004 A 
ATOM     22  C   UNL A   1      35.776  22.721  23.619  1.00  0.00     0.004 A 
ATOM     23  C   UNL A   1      37.183  23.226  25.973  1.00  0.00     0.000 A 
ATOM     24  C   UNL A   1      36.800  21.863  24.020  1.00  0.00     0.000 A 
ATOM     25  C   UNL A   1      37.484  22.100  25.211  1.00  0.00     0.000 A 
ENDBRANCH  19  20
ENDBRANCH   6  19
ENDBRANCH   5   6
ENDBRANCH   3   5
ENDBRANCH   2   3
ENDBRANCH   1   2
BRANCH   1  26
ATOM     26  C   UNL A   1      31.499  29.935  25.089  1.00  0.00     0.275 C 
BRANCH  26  27
ATOM     27  O   UNL A   1      32.757  30.387  25.621  1.00  0.00    -0.458 OA
BRANCH  27  28
ATOM     28  C   UNL A   1      32.711  31.150  26.738  1.00  0.00     0.338 C 
ATOM     29  O   UNL A   1      31.841  31.939  27.062  1.00  0.00    -0.246 OA
BRANCH  28  30
ATOM     30  C   UNL A   1      33.933  30.902  27.527  1.00  0.00     0.060 A 
ATOM     31  C   UNL A   1      34.401  29.601  27.661  1.00  0.00     0.016 A 
ATOM     32  C   UNL A   1      34.591  31.949  28.179  1.00  0.00     0.016 A 
ATOM     33  C   UNL A   1      35.535  29.350  28.424  1.00  0.00     0.010 A 
ATOM     34  C   UNL A   1      35.754  31.691  28.926  1.00  0.00     0.010 A 
ATOM     35  C   UNL A   1      36.241  30.381  29.048  1.00  0.00    -0.014 A 
BRANCH  35  36
ATOM     36  C   UNL A   1      37.434  30.018  29.858  1.00  0.00     0.031 A 
ATOM     37  C   UNL A   1      38.597  29.326  29.210  1.00  0.00     0.074 A 
ATOM     38  C   UNL A   1      37.556  30.451  31.129  1.00  0.00     0.049 A 
ATOM     39  N   UNL A   1      39.701  28.881  29.752  1.00  0.00    -0.248 NA
ATOM     40  C   UNL A   1      38.511  29.125  27.757  1.00  0.00     0.031 C 
ATOM     41  C   UNL A   1      36.572  31.270  31.834  1.00  0.00     0.029 A 
ATOM     42  N   UNL A   1      38.585  30.319  32.033  1.00  0.00    -0.354 N 
ATOM     43  C   UNL A   1      40.416  28.291  28.719  1.00  0.00     0.074 A 
ATOM     44  C   UNL A   1      39.638  28.471  27.511  1.00  0.00     0.031 C 
ATOM     45  C   UNL A   1      37.077  31.635  33.023  1.00  0.00     0.029 A 
ATOM     46  C   UNL A   1      38.381  31.009  33.206  1.00  0.00     0.049 A 
ATOM     47  H   UNL A   1      39.390  29.782  31.856  1.00  0.00     0.167 HD
ATOM     48  C   UNL A   1      41.597  27.631  28.784  1.00  0.00     0.037 A 
ATOM     49  C   UNL A   1      39.150  31.110  34.308  1.00  0.00     0.037 A 
ATOM     50  C   UNL A   1      42.374  27.468  29.986  1.00  0.00     0.049 A 
ATOM     51  C   UNL A   1      40.419  30.306  34.381  1.00  0.00     0.074 A 
ATOM     52  C   UNL A   1      43.526  26.728  30.180  1.00  0.00     0.029 A 
ATOM     53  N   UNL A   1      42.082  28.075  31.199  1.00  0.00    -0.354 N 
ATOM     54  N   UNL A   1      41.017  29.613  33.443  1.00  0.00    -0.248 NA
ATOM     55  C   UNL A   1      41.094  30.253  35.689  1.00  0.00     0.031 C 
ATOM     56  C   UNL A   1      43.912  26.858  31.520  1.00  0.00     0.029 A 
ATOM     57  C   UNL A   1      43.024  27.714  32.149  1.00  0.00     0.049 A 
ATOM     58  H   UNL A   1      41.318  28.675  31.361  1.00  0.00     0.167 HD
ATOM     59  C   UNL A   1      42.123  29.031  34.047  1.00  0.00     0.074 A 
ATOM     60  C   UNL A   1      42.143  29.489  35.420  1.00  0.00     0.031 C 
ATOM     61  C   UNL A   1      43.028  28.172  33.515  1.00  0.00     0.037 A 
BRANCH  48  62
ATOM     62  C   UNL A   1      42.051  26.942  27.533  1.00  0.00     0.057 A 
ATOM     63  C   UNL A   1      42.829  27.579  26.561  1.00  0.00     0.134 A 
ATOM     64  C   UNL A   1      41.667  25.615  27.291  1.00  0.00     0.134 A 
ATOM     65  F   UNL A   1      43.208  28.855  26.723  1.00  0.00    -0.206 F 
ATOM     66  C   UNL A   1      43.186  26.931  25.376  1.00  0.00     0.040 A 
ATOM     67  C   UNL A   1      42.037  24.949  26.123  1.00  0.00     0.040 A 
ATOM     68  F   UNL A   1      40.921  24.948  28.185  1.00  0.00    -0.206 F 
ATOM     69  C   UNL A   1      42.791  25.611  25.156  1.00  0.00     0.006 A 
ENDBRANCH  48  62
BRANCH  49  70
ATOM     70  C   UNL A   1      38.731  31.955  35.460  1.00  0.00     0.057 A 
ATOM     71  C   UNL A   1      38.068  31.396  36.560  1.00  0.00     0.134 A 
ATOM     72  C   UNL A   1      38.940  33.340  35.477  1.00  0.00     0.134 A 
ATOM     73  F   UNL A   1      37.802  30.082  36.593  1.00  0.00    -0.206 F 
ATOM     74  C   UNL A   1      37.626  32.181  37.628  1.00  0.00     0.040 A 
ATOM     75  C   UNL A   1      38.532  34.132  36.551  1.00  0.00     0.040 A 
ATOM     76  F   UNL A   1      39.551  33.946  34.448  1.00  0.00    -0.206 F 
ATOM     77  C   UNL A   1      37.865  33.554  37.629  1.00  0.00     0.006 A 
ENDBRANCH  49  70
BRANCH  61  78
ATOM     78  C   UNL A   1      44.109  27.671  34.426  1.00  0.00     0.057 A 
ATOM     79  C   UNL A   1      43.961  26.483  35.153  1.00  0.00     0.134 A 
ATOM     80  C   UNL A   1      45.319  28.363  34.556  1.00  0.00     0.134 A 
ATOM     81  F   UNL A   1      42.820  25.781  35.084  1.00  0.00    -0.206 F 
ATOM     82  C   UNL A   1      44.972  26.011  35.993  1.00  0.00     0.040 A 
ATOM     83  C   UNL A   1      46.345  27.889  35.375  1.00  0.00     0.040 A 
ATOM     84  F   UNL A   1      45.526  29.505  33.882  1.00  0.00    -0.206 F 
ATOM     85  C   UNL A   1      46.170  26.712  36.099  1.00  0.00     0.006 A 
ENDBRANCH  61  78
ENDBRANCH  35  36
ENDBRANCH  28  30
ENDBRANCH  27  28
ENDBRANCH  26  27
ENDBRANCH   1  26
TORSDOF 17
ENDMDL
MODEL 3
REMARK VINA RESULT:     -10.6      2.427      3.581
REMARK SMILES COc1ccc(NC(=O)[C@H](CC(=O)OCCOC(=O)c2ccc(-c3c4nc(c(-c5c(F)cccc5F)c5ccc([nH]5)c(-c5c(F)cccc5F)c5nc(c(-c6c(F)cccc6F)c6ccc3[nH]6)C=C5)C=C4)cc2)Cc2ccccc2)cc1
REMARK SMILES IDX 15 1 14 2 12 3 13 4 11 5 10 6 8 7 7 8 9 10 6 11 3 12 4 13
REMARK SMILES IDX 82 14 5 15 81 16 2 17 1 18 74 19 75 20 76 21 80 22 77 23
REMARK SMILES IDX 79 24 78 25 16 26 17 27 18 28 19 29 20 30 21 31 73 32 22 33
REMARK SMILES IDX 72 34 23 35 24 36 25 37 66 38 26 39 71 40 65 41 67 42 27 43
REMARK SMILES IDX 70 44 64 45 63 46 28 48 54 49 37 50 53 51 38 52 41 53 52 54
REMARK SMILES IDX 68 55 39 56 40 57 51 59 69 60 42 61 29 62 30 63 35 64 31 65
REMARK SMILES IDX 32 66 34 67 36 68 33 69 55 70 56 71 61 72 57 73 58 74 60 75
REMARK SMILES IDX 62 76 59 77 43 78 44 79 49 80 45 81 46 82 48 83 50 84 47 85
REMARK H PARENT 7 9 67 47 41 58
REMARK Flexibility Score: inf
ROOT
ATOM      1  C   UNL A   1      31.307  28.863  24.775  1.00  0.00     0.274 C 
ENDROOT
BRANCH   1   2
ATOM      2  O   UNL A   1      32.190  27.919  25.415  1.00  0.00    -0.462 OA
BRANCH   2   3
ATOM      3  C   UNL A   1      31.626  27.055  26.291  1.00  0.00     0.306 C 
ATOM      4  O   UNL A   1      31.234  27.375  27.401  1.00  0.00    -0.252 OA
BRANCH   3   5
ATOM      5  C   UNL A   1      31.649  25.632  25.783  1.00  0.00     0.136 C 
BRANCH   5   6
ATOM      6  C   UNL A   1      31.564  25.403  24.279  1.00  0.00     0.094 C 
BRANCH   6   7
ATOM      7  C   UNL A   1      32.749  25.519  23.297  1.00  0.00     0.228 C 
ATOM      8  N   UNL A   1      34.007  25.038  23.280  1.00  0.00    -0.326 N 
ATOM      9  H   UNL A   1      34.523  25.530  22.601  1.00  0.00     0.169 HD
ATOM     10  O   UNL A   1      32.568  26.280  22.320  1.00  0.00    -0.274 OA
BRANCH   8  11
ATOM     11  C   UNL A   1      34.850  24.089  23.879  1.00  0.00     0.041 A 
ATOM     12  C   UNL A   1      36.997  22.822  25.198  1.00  0.00     0.119 A 
ATOM     13  C   UNL A   1      36.715  22.534  23.873  1.00  0.00     0.048 A 
ATOM     14  C   UNL A   1      36.112  23.617  25.915  1.00  0.00     0.048 A 
ATOM     15  C   UNL A   1      35.603  23.120  23.248  1.00  0.00     0.030 A 
ATOM     16  C   UNL A   1      35.046  24.246  25.261  1.00  0.00     0.030 A 
BRANCH  12  17
ATOM     17  O   UNL A   1      38.161  22.516  25.830  1.00  0.00    -0.497 OA
ATOM     18  C   UNL A   1      38.842  23.569  26.490  1.00  0.00     0.278 C 
ENDBRANCH  12  17
ENDBRANCH   8  11
ENDBRANCH   6   7
BRANCH   6  19
ATOM     19  C   UNL A   1      30.764  24.103  23.900  1.00  0.00     0.049 C 
BRANCH  19  20
ATOM     20  C   UNL A   1      31.467  22.788  24.165  1.00  0.00    -0.047 A 
ATOM     21  C   UNL A   1      31.889  21.999  23.085  1.00  0.00     0.004 A 
ATOM     22  C   UNL A   1      31.802  22.389  25.466  1.00  0.00     0.004 A 
ATOM     23  C   UNL A   1      32.760  20.929  23.292  1.00  0.00     0.000 A 
ATOM     24  C   UNL A   1      32.685  21.328  25.669  1.00  0.00     0.000 A 
ATOM     25  C   UNL A   1      33.185  20.617  24.581  1.00  0.00     0.000 A 
ENDBRANCH  19  20
ENDBRANCH   6  19
ENDBRANCH   5   6
ENDBRANCH   3   5
ENDBRANCH   2   3
ENDBRANCH   1   2
BRANCH   1  26
ATOM     26  C   UNL A   1      31.322  30.235  25.456  1.00  0.00     0.275 C 
BRANCH  26  27
ATOM     27  O   UNL A   1      32.655  30.560  25.893  1.00  0.00    -0.458 OA
BRANCH  27  28
ATOM     28  C   UNL A   1      32.768  31.492  26.868  1.00  0.00     0.338 C 
ATOM     29  O   UNL A   1      32.022  32.429  27.088  1.00  0.00    -0.246 OA
BRANCH  28  30
ATOM     30  C   UNL A   1      33.995  31.217  27.640  1.00  0.00     0.060 A 
ATOM     31  C   UNL A   1      34.410  29.902  27.808  1.00  0.00     0.016 A 
ATOM     32  C   UNL A   1      34.711  32.255  28.243  1.00  0.00     0.016 A 
ATOM     33  C   UNL A   1      35.549  29.626  28.556  1.00  0.00     0.010 A 
ATOM     34  C   UNL A   1      35.878  31.970  28.975  1.00  0.00     0.010 A 
ATOM     35  C   UNL A   1      36.311  30.645  29.130  1.00  0.00    -0.014 A 
BRANCH  35  36
ATOM     36  C   UNL A   1      37.505  30.258  29.928  1.00  0.00     0.031 A 
ATOM     37  C   UNL A   1      38.662  29.576  29.260  1.00  0.00     0.074 A 
ATOM     38  C   UNL A   1      37.632  30.658  31.209  1.00  0.00     0.049 A 
ATOM     39  N   UNL A   1      39.766  29.114  29.788  1.00  0.00    -0.248 NA
ATOM     40  C   UNL A   1      38.571  29.411  27.803  1.00  0.00     0.031 C 
ATOM     41  C   UNL A   1      36.654  31.464  31.937  1.00  0.00     0.029 A 
ATOM     42  N   UNL A   1      38.663  30.500  32.106  1.00  0.00    -0.354 N 
ATOM     43  C   UNL A   1      40.475  28.545  28.739  1.00  0.00     0.074 A 
ATOM     44  C   UNL A   1      39.695  28.759  27.537  1.00  0.00     0.031 C 
ATOM     45  C   UNL A   1      37.164  31.798  33.133  1.00  0.00     0.029 A 
ATOM     46  C   UNL A   1      38.465  31.161  33.297  1.00  0.00     0.049 A 
ATOM     47  H   UNL A   1      39.465  29.963  31.915  1.00  0.00     0.167 HD
ATOM     48  C   UNL A   1      41.654  27.879  28.784  1.00  0.00     0.037 A 
ATOM     49  C   UNL A   1      39.237  31.232  34.399  1.00  0.00     0.037 A 
ATOM     50  C   UNL A   1      42.433  27.684  29.979  1.00  0.00     0.049 A 
ATOM     51  C   UNL A   1      40.504  30.421  34.449  1.00  0.00     0.074 A 
ATOM     52  C   UNL A   1      43.583  26.933  30.151  1.00  0.00     0.029 A 
ATOM     53  N   UNL A   1      42.147  28.262  31.207  1.00  0.00    -0.354 N 
ATOM     54  N   UNL A   1      41.096  29.748  33.492  1.00  0.00    -0.248 NA
ATOM     55  C   UNL A   1      41.181  30.333  35.752  1.00  0.00     0.031 C 
ATOM     56  C   UNL A   1      43.972  27.029  31.493  1.00  0.00     0.029 A 
ATOM     57  C   UNL A   1      43.090  27.873  32.146  1.00  0.00     0.049 A 
ATOM     58  H   UNL A   1      41.386  28.861  31.386  1.00  0.00     0.167 HD
ATOM     59  C   UNL A   1      42.201  29.147  34.078  1.00  0.00     0.074 A 
ATOM     60  C   UNL A   1      42.227  29.571  35.462  1.00  0.00     0.031 C 
ATOM     61  C   UNL A   1      43.101  28.297  33.523  1.00  0.00     0.037 A 
BRANCH  48  62
ATOM     62  C   UNL A   1      42.101  27.219  27.515  1.00  0.00     0.057 A 
ATOM     63  C   UNL A   1      41.840  25.875  27.232  1.00  0.00     0.134 A 
ATOM     64  C   UNL A   1      42.837  27.950  26.572  1.00  0.00     0.134 A 
ATOM     65  F   UNL A   1      41.161  25.115  28.104  1.00  0.00    -0.206 F 
ATOM     66  C   UNL A   1      42.322  25.270  26.068  1.00  0.00     0.040 A 
ATOM     67  C   UNL A   1      43.303  27.364  25.395  1.00  0.00     0.040 A 
ATOM     68  F   UNL A   1      43.120  29.244  26.785  1.00  0.00    -0.206 F 
ATOM     69  C   UNL A   1      43.054  26.017  25.145  1.00  0.00     0.006 A 
ENDBRANCH  48  62
BRANCH  49  70
ATOM     70  C   UNL A   1      38.825  32.050  35.572  1.00  0.00     0.057 A 
ATOM     71  C   UNL A   1      39.147  33.411  35.649  1.00  0.00     0.134 A 
ATOM     72  C   UNL A   1      38.140  31.494  36.660  1.00  0.00     0.134 A 
ATOM     73  F   UNL A   1      39.834  34.001  34.660  1.00  0.00    -0.206 F 
ATOM     74  C   UNL A   1      38.810  34.184  36.763  1.00  0.00     0.040 A 
ATOM     75  C   UNL A   1      37.769  32.260  37.766  1.00  0.00     0.040 A 
ATOM     76  F   UNL A   1      37.816  30.191  36.663  1.00  0.00    -0.206 F 
ATOM     77  C   UNL A   1      38.111  33.609  37.823  1.00  0.00     0.006 A 
ENDBRANCH  49  70
BRANCH  61  78
ATOM     78  C   UNL A   1      44.181  27.769  34.418  1.00  0.00     0.057 A 
ATOM     79  C   UNL A   1      44.032  26.561  35.113  1.00  0.00     0.134 A 
ATOM     80  C   UNL A   1      45.393  28.455  34.564  1.00  0.00     0.134 A 
ATOM     81  F   UNL A   1      42.889  25.864  35.027  1.00  0.00    -0.206 F 
ATOM     82  C   UNL A   1      45.043  26.065  35.937  1.00  0.00     0.040 A 
ATOM     83  C   UNL A   1      46.420  27.956  35.368  1.00  0.00     0.040 A 
ATOM     84  F   UNL A   1      45.601  29.613  33.921  1.00  0.00    -0.206 F 
ATOM     85  C   UNL A   1      46.243  26.760  36.061  1.00  0.00     0.006 A 
ENDBRANCH  61  78
ENDBRANCH  35  36
ENDBRANCH  28  30
ENDBRANCH  27  28
ENDBRANCH  26  27
ENDBRANCH   1  26
TORSDOF 17
ENDMDL
