MODEL 1
REMARK VINA RESULT:     -10.8      0.000      0.000
REMARK SMILES COCCS(=O)(=O)N1C[C@@H](C(=O)OCCOC(=O)c2ccc(-c3c4nc(c(-c5c(F)cccc5F)c5ccc([nH]5)c(-c5c(F)cccc5F)c5nc(c(-c6c(F)cccc6F)c6ccc3[nH]6)C=C5)C=C4)cc2)c2ccccc21
REMARK SMILES IDX 14 1 13 2 11 3 12 4 10 5 8 6 9 7 78 8 73 9 77 10 74 11 76 12
REMARK SMILES IDX 75 13 5 14 6 15 7 16 4 17 3 18 2 19 1 20 15 21 16 22 17 23
REMARK SMILES IDX 18 24 19 25 20 26 72 27 21 28 71 29 22 30 23 31 24 32 65 33
REMARK SMILES IDX 25 34 70 35 64 36 66 37 26 38 69 39 63 40 62 41 27 43 53 44
REMARK SMILES IDX 36 45 52 46 37 47 40 48 51 49 67 50 38 51 39 52 50 54 68 55
REMARK SMILES IDX 41 56 28 57 29 58 34 59 30 60 31 61 33 62 35 63 32 64 54 65
REMARK SMILES IDX 55 66 60 67 56 68 57 69 59 70 61 71 58 72 42 73 43 74 48 75
REMARK SMILES IDX 44 76 45 77 47 78 49 79 46 80
REMARK H PARENT 66 42 40 53
REMARK Flexibility Score: inf
ROOT
ATOM      1  C   UNL A   1      38.590  21.301  25.749  1.00  0.00     0.274 C 
ENDROOT
BRANCH   1   2
ATOM      2  O   UNL A   1      37.658  21.680  24.713  1.00  0.00    -0.462 OA
BRANCH   2   3
ATOM      3  C   UNL A   1      36.692  22.553  25.091  1.00  0.00     0.315 C 
ATOM      4  O   UNL A   1      36.753  23.768  24.927  1.00  0.00    -0.251 OA
BRANCH   3   5
ATOM      5  C   UNL A   1      35.487  21.923  25.723  1.00  0.00     0.152 C 
ATOM      6  N   UNL A   1      33.729  20.372  25.273  1.00  0.00    -0.269 N 
ATOM      7  C   UNL A   1      35.179  20.595  25.022  1.00  0.00     0.155 C 
ATOM      8  C   UNL A   1      33.135  21.635  25.560  1.00  0.00     0.056 A 
ATOM      9  C   UNL A   1      34.141  22.598  25.731  1.00  0.00    -0.008 A 
ATOM     10  C   UNL A   1      31.810  21.943  25.808  1.00  0.00     0.027 A 
ATOM     11  C   UNL A   1      33.821  23.909  26.061  1.00  0.00     0.007 A 
ATOM     12  C   UNL A   1      31.478  23.264  26.117  1.00  0.00     0.002 A 
ATOM     13  C   UNL A   1      32.475  24.244  26.226  1.00  0.00     0.000 A 
BRANCH   6  14
ATOM     14  S   UNL A   1      32.961  19.089  24.525  1.00  0.00     0.237 S 
ATOM     15  O   UNL A   1      32.406  19.507  23.257  1.00  0.00    -0.206 OA
ATOM     16  O   UNL A   1      32.101  18.491  25.530  1.00  0.00    -0.206 OA
BRANCH  14  17
ATOM     17  C   UNL A   1      34.267  17.910  24.219  1.00  0.00     0.188 C 
BRANCH  17  18
ATOM     18  C   UNL A   1      33.755  16.557  23.769  1.00  0.00     0.178 C 
BRANCH  18  19
ATOM     19  O   UNL A   1      33.952  15.559  24.778  1.00  0.00    -0.384 OA
ATOM     20  C   UNL A   1      32.733  15.082  25.336  1.00  0.00     0.194 C 
ENDBRANCH  18  19
ENDBRANCH  17  18
ENDBRANCH  14  17
ENDBRANCH   6  14
ENDBRANCH   3   5
ENDBRANCH   2   3
ENDBRANCH   1   2
BRANCH   1  21
ATOM     21  C   UNL A   1      39.333  20.024  25.358  1.00  0.00     0.275 C 
BRANCH  21  22
ATOM     22  O   UNL A   1      40.321  19.702  26.355  1.00  0.00    -0.458 OA
BRANCH  22  23
ATOM     23  C   UNL A   1      41.606  19.893  25.979  1.00  0.00     0.338 C 
ATOM     24  O   UNL A   1      42.284  19.182  25.258  1.00  0.00    -0.246 OA
BRANCH  23  25
ATOM     25  C   UNL A   1      42.118  21.145  26.561  1.00  0.00     0.060 A 
ATOM     26  C   UNL A   1      42.186  21.296  27.945  1.00  0.00     0.016 A 
ATOM     27  C   UNL A   1      42.412  22.217  25.720  1.00  0.00     0.016 A 
ATOM     28  C   UNL A   1      42.485  22.539  28.500  1.00  0.00     0.010 A 
ATOM     29  C   UNL A   1      42.788  23.441  26.275  1.00  0.00     0.010 A 
ATOM     30  C   UNL A   1      42.800  23.624  27.670  1.00  0.00    -0.014 A 
BRANCH  30  31
ATOM     31  C   UNL A   1      43.127  24.954  28.243  1.00  0.00     0.031 A 
ATOM     32  C   UNL A   1      42.031  25.947  28.520  1.00  0.00     0.074 A 
ATOM     33  C   UNL A   1      44.410  25.292  28.471  1.00  0.00     0.049 A 
ATOM     34  N   UNL A   1      42.120  27.214  28.834  1.00  0.00    -0.248 NA
ATOM     35  C   UNL A   1      40.651  25.450  28.409  1.00  0.00     0.031 C 
ATOM     36  C   UNL A   1      45.564  24.417  28.263  1.00  0.00     0.029 A 
ATOM     37  N   UNL A   1      44.958  26.472  28.907  1.00  0.00    -0.354 N 
ATOM     38  C   UNL A   1      40.814  27.679  28.910  1.00  0.00     0.074 A 
ATOM     39  C   UNL A   1      39.949  26.558  28.603  1.00  0.00     0.031 C 
ATOM     40  C   UNL A   1      46.684  25.090  28.568  1.00  0.00     0.029 A 
ATOM     41  C   UNL A   1      46.332  26.458  28.929  1.00  0.00     0.049 A 
ATOM     42  H   UNL A   1      44.420  27.250  29.178  1.00  0.00     0.167 HD
ATOM     43  C   UNL A   1      40.377  28.927  29.205  1.00  0.00     0.037 A 
ATOM     44  C   UNL A   1      47.213  27.448  29.166  1.00  0.00     0.037 A 
ATOM     45  C   UNL A   1      41.239  30.027  29.551  1.00  0.00     0.049 A 
ATOM     46  C   UNL A   1      46.708  28.826  29.481  1.00  0.00     0.074 A 
ATOM     47  C   UNL A   1      40.890  31.315  29.922  1.00  0.00     0.029 A 
ATOM     48  N   UNL A   1      42.625  29.967  29.573  1.00  0.00    -0.354 N 
ATOM     49  N   UNL A   1      45.471  29.254  29.550  1.00  0.00    -0.248 NA
ATOM     50  C   UNL A   1      47.719  29.857  29.744  1.00  0.00     0.031 C 
ATOM     51  C   UNL A   1      42.066  32.045  30.127  1.00  0.00     0.029 A 
ATOM     52  C   UNL A   1      43.147  31.201  29.926  1.00  0.00     0.049 A 
ATOM     53  H   UNL A   1      43.159  29.167  29.366  1.00  0.00     0.167 HD
ATOM     54  C   UNL A   1      45.553  30.601  29.873  1.00  0.00     0.074 A 
ATOM     55  C   UNL A   1      46.962  30.915  30.003  1.00  0.00     0.031 C 
ATOM     56  C   UNL A   1      44.551  31.498  30.044  1.00  0.00     0.037 A 
BRANCH  43  57
ATOM     57  C   UNL A   1      38.899  29.178  29.130  1.00  0.00     0.057 A 
ATOM     58  C   UNL A   1      38.067  29.091  30.254  1.00  0.00     0.134 A 
ATOM     59  C   UNL A   1      38.303  29.535  27.913  1.00  0.00     0.134 A 
ATOM     60  F   UNL A   1      38.572  28.741  31.447  1.00  0.00    -0.206 F 
ATOM     61  C   UNL A   1      36.694  29.324  30.165  1.00  0.00     0.040 A 
ATOM     62  C   UNL A   1      36.935  29.795  27.816  1.00  0.00     0.040 A 
ATOM     63  F   UNL A   1      39.042  29.642  26.799  1.00  0.00    -0.206 F 
ATOM     64  C   UNL A   1      36.124  29.682  28.943  1.00  0.00     0.006 A 
ENDBRANCH  43  57
BRANCH  44  65
ATOM     65  C   UNL A   1      48.666  27.164  29.077  1.00  0.00     0.057 A 
ATOM     66  C   UNL A   1      49.387  26.723  30.192  1.00  0.00     0.134 A 
ATOM     67  C   UNL A   1      49.359  27.293  27.867  1.00  0.00     0.134 A 
ATOM     68  F   UNL A   1      48.782  26.600  31.381  1.00  0.00    -0.206 F 
ATOM     69  C   UNL A   1      50.747  26.419  30.106  1.00  0.00     0.040 A 
ATOM     70  C   UNL A   1      50.712  26.971  27.761  1.00  0.00     0.040 A 
ATOM     71  F   UNL A   1      48.719  27.706  26.762  1.00  0.00    -0.206 F 
ATOM     72  C   UNL A   1      51.410  26.534  28.885  1.00  0.00     0.006 A 
ENDBRANCH  44  65
BRANCH  56  73
ATOM     73  C   UNL A   1      44.946  32.898  30.408  1.00  0.00     0.057 A 
ATOM     74  C   UNL A   1      45.141  33.284  31.740  1.00  0.00     0.134 A 
ATOM     75  C   UNL A   1      45.165  33.861  29.415  1.00  0.00     0.134 A 
ATOM     76  F   UNL A   1      44.934  32.412  32.738  1.00  0.00    -0.206 F 
ATOM     77  C   UNL A   1      45.521  34.585  32.073  1.00  0.00     0.040 A 
ATOM     78  C   UNL A   1      45.566  35.158  29.734  1.00  0.00     0.040 A 
ATOM     79  F   UNL A   1      45.001  33.552  28.119  1.00  0.00    -0.206 F 
ATOM     80  C   UNL A   1      45.739  35.525  31.067  1.00  0.00     0.006 A 
ENDBRANCH  56  73
ENDBRANCH  30  31
ENDBRANCH  23  25
ENDBRANCH  22  23
ENDBRANCH  21  22
ENDBRANCH   1  21
TORSDOF 15
ENDMDL
MODEL 2
REMARK VINA RESULT:     -10.6      0.941      6.276
REMARK SMILES COCCS(=O)(=O)N1C[C@@H](C(=O)OCCOC(=O)c2ccc(-c3c4nc(c(-c5c(F)cccc5F)c5ccc([nH]5)c(-c5c(F)cccc5F)c5nc(c(-c6c(F)cccc6F)c6ccc3[nH]6)C=C5)C=C4)cc2)c2ccccc21
REMARK SMILES IDX 14 1 13 2 11 3 12 4 10 5 8 6 9 7 78 8 73 9 77 10 74 11 76 12
REMARK SMILES IDX 75 13 5 14 6 15 7 16 4 17 3 18 2 19 1 20 15 21 16 22 17 23
REMARK SMILES IDX 18 24 19 25 20 26 72 27 21 28 71 29 22 30 23 31 24 32 65 33
REMARK SMILES IDX 25 34 70 35 64 36 66 37 26 38 69 39 63 40 62 41 27 43 53 44
REMARK SMILES IDX 36 45 52 46 37 47 40 48 51 49 67 50 38 51 39 52 50 54 68 55
REMARK SMILES IDX 41 56 28 57 29 58 34 59 30 60 31 61 33 62 35 63 32 64 54 65
REMARK SMILES IDX 55 66 60 67 56 68 57 69 59 70 61 71 58 72 42 73 43 74 48 75
REMARK SMILES IDX 44 76 45 77 47 78 49 79 46 80
REMARK H PARENT 66 42 40 53
REMARK Flexibility Score: inf
ROOT
ATOM      1  C   UNL A   1      38.737  20.855  25.707  1.00  0.00     0.274 C 
ENDROOT
BRANCH   1   2
ATOM      2  O   UNL A   1      37.617  20.984  24.804  1.00  0.00    -0.462 OA
BRANCH   2   3
ATOM      3  C   UNL A   1      36.891  22.122  24.937  1.00  0.00     0.315 C 
ATOM      4  O   UNL A   1      37.367  23.252  24.923  1.00  0.00    -0.251 OA
BRANCH   3   5
ATOM      5  C   UNL A   1      35.414  21.912  25.084  1.00  0.00     0.152 C 
ATOM      6  N   UNL A   1      33.682  20.348  24.576  1.00  0.00    -0.269 N 
ATOM      7  C   UNL A   1      35.102  20.412  25.017  1.00  0.00     0.155 C 
ATOM      8  C   UNL A   1      33.374  21.572  23.915  1.00  0.00     0.056 A 
ATOM      9  C   UNL A   1      34.421  22.486  24.107  1.00  0.00    -0.008 A 
ATOM     10  C   UNL A   1      32.201  21.959  23.293  1.00  0.00     0.027 A 
ATOM     11  C   UNL A   1      34.343  23.774  23.594  1.00  0.00     0.007 A 
ATOM     12  C   UNL A   1      32.125  23.245  22.753  1.00  0.00     0.002 A 
ATOM     13  C   UNL A   1      33.196  24.141  22.888  1.00  0.00     0.000 A 
BRANCH   6  14
ATOM     14  S   UNL A   1      33.005  18.861  24.224  1.00  0.00     0.237 S 
ATOM     15  O   UNL A   1      32.461  18.862  22.885  1.00  0.00    -0.206 OA
ATOM     16  O   UNL A   1      32.153  18.527  25.351  1.00  0.00    -0.206 OA
BRANCH  14  17
ATOM     17  C   UNL A   1      34.380  17.723  24.283  1.00  0.00     0.188 C 
BRANCH  17  18
ATOM     18  C   UNL A   1      34.007  16.314  23.874  1.00  0.00     0.178 C 
BRANCH  18  19
ATOM     19  O   UNL A   1      33.992  15.427  24.998  1.00  0.00    -0.384 OA
ATOM     20  C   UNL A   1      32.680  15.037  25.385  1.00  0.00     0.194 C 
ENDBRANCH  18  19
ENDBRANCH  17  18
ENDBRANCH  14  17
ENDBRANCH   6  14
ENDBRANCH   3   5
ENDBRANCH   2   3
ENDBRANCH   1   2
BRANCH   1  21
ATOM     21  C   UNL A   1      39.463  19.531  25.472  1.00  0.00     0.275 C 
BRANCH  21  22
ATOM     22  O   UNL A   1      40.482  19.343  26.471  1.00  0.00    -0.458 OA
BRANCH  22  23
ATOM     23  C   UNL A   1      41.747  19.591  26.060  1.00  0.00     0.338 C 
ATOM     24  O   UNL A   1      42.463  18.877  25.380  1.00  0.00    -0.246 OA
BRANCH  23  25
ATOM     25  C   UNL A   1      42.181  20.912  26.542  1.00  0.00     0.060 A 
ATOM     26  C   UNL A   1      41.944  21.287  27.864  1.00  0.00     0.016 A 
ATOM     27  C   UNL A   1      42.713  21.828  25.635  1.00  0.00     0.016 A 
ATOM     28  C   UNL A   1      42.176  22.599  28.273  1.00  0.00     0.010 A 
ATOM     29  C   UNL A   1      43.020  23.120  26.065  1.00  0.00     0.010 A 
ATOM     30  C   UNL A   1      42.727  23.528  27.379  1.00  0.00    -0.014 A 
BRANCH  30  31
ATOM     31  C   UNL A   1      42.987  24.929  27.798  1.00  0.00     0.031 A 
ATOM     32  C   UNL A   1      44.383  25.365  28.148  1.00  0.00     0.074 A 
ATOM     33  C   UNL A   1      41.965  25.798  27.912  1.00  0.00     0.049 A 
ATOM     34  N   UNL A   1      44.788  26.474  28.713  1.00  0.00    -0.248 NA
ATOM     35  C   UNL A   1      45.465  24.418  27.837  1.00  0.00     0.031 C 
ATOM     36  C   UNL A   1      40.568  25.508  27.587  1.00  0.00     0.029 A 
ATOM     37  N   UNL A   1      41.943  27.097  28.354  1.00  0.00    -0.354 N 
ATOM     38  C   UNL A   1      46.161  26.340  28.870  1.00  0.00     0.074 A 
ATOM     39  C   UNL A   1      46.521  25.038  28.347  1.00  0.00     0.031 C 
ATOM     40  C   UNL A   1      39.824  26.595  27.844  1.00  0.00     0.029 A 
ATOM     41  C   UNL A   1      40.679  27.632  28.410  1.00  0.00     0.049 A 
ATOM     42  H   UNL A   1      42.754  27.596  28.606  1.00  0.00     0.167 HD
ATOM     43  C   UNL A   1      47.040  27.220  29.407  1.00  0.00     0.037 A 
ATOM     44  C   UNL A   1      40.247  28.807  28.906  1.00  0.00     0.037 A 
ATOM     45  C   UNL A   1      46.685  28.531  29.886  1.00  0.00     0.049 A 
ATOM     46  C   UNL A   1      41.236  29.763  29.504  1.00  0.00     0.074 A 
ATOM     47  C   UNL A   1      47.511  29.518  30.395  1.00  0.00     0.029 A 
ATOM     48  N   UNL A   1      45.394  29.037  29.914  1.00  0.00    -0.354 N 
ATOM     49  N   UNL A   1      42.531  29.626  29.649  1.00  0.00    -0.248 NA
ATOM     50  C   UNL A   1      40.703  31.033  30.014  1.00  0.00     0.031 C 
ATOM     51  C   UNL A   1      46.715  30.606  30.768  1.00  0.00     0.029 A 
ATOM     52  C   UNL A   1      45.398  30.314  30.453  1.00  0.00     0.049 A 
ATOM     53  H   UNL A   1      44.593  28.560  29.599  1.00  0.00     0.167 HD
ATOM     54  C   UNL A   1      42.971  30.793  30.257  1.00  0.00     0.074 A 
ATOM     55  C   UNL A   1      41.806  31.635  30.439  1.00  0.00     0.031 C 
ATOM     56  C   UNL A   1      44.228  31.135  30.633  1.00  0.00     0.037 A 
BRANCH  43  57
ATOM     57  C   UNL A   1      48.470  26.779  29.535  1.00  0.00     0.057 A 
ATOM     58  C   UNL A   1      48.930  26.042  30.633  1.00  0.00     0.134 A 
ATOM     59  C   UNL A   1      49.395  27.082  28.528  1.00  0.00     0.134 A 
ATOM     60  F   UNL A   1      48.098  25.730  31.639  1.00  0.00    -0.206 F 
ATOM     61  C   UNL A   1      50.264  25.645  30.738  1.00  0.00     0.040 A 
ATOM     62  C   UNL A   1      50.726  26.669  28.609  1.00  0.00     0.040 A 
ATOM     63  F   UNL A   1      49.020  27.780  27.445  1.00  0.00    -0.206 F 
ATOM     64  C   UNL A   1      51.166  25.954  29.721  1.00  0.00     0.006 A 
ENDBRANCH  43  57
BRANCH  44  65
ATOM     65  C   UNL A   1      38.797  29.116  28.880  1.00  0.00     0.057 A 
ATOM     66  C   UNL A   1      38.012  29.003  30.032  1.00  0.00     0.134 A 
ATOM     67  C   UNL A   1      38.170  29.568  27.712  1.00  0.00     0.134 A 
ATOM     68  F   UNL A   1      38.552  28.557  31.175  1.00  0.00    -0.206 F 
ATOM     69  C   UNL A   1      36.654  29.327  30.024  1.00  0.00     0.040 A 
ATOM     70  C   UNL A   1      36.820  29.918  27.694  1.00  0.00     0.040 A 
ATOM     71  F   UNL A   1      38.873  29.703  26.577  1.00  0.00    -0.206 F 
ATOM     72  C   UNL A   1      36.058  29.795  28.854  1.00  0.00     0.006 A 
ENDBRANCH  44  65
BRANCH  56  73
ATOM     73  C   UNL A   1      44.406  32.485  31.261  1.00  0.00     0.057 A 
ATOM     74  C   UNL A   1      44.354  32.664  32.649  1.00  0.00     0.134 A 
ATOM     75  C   UNL A   1      44.664  33.612  30.471  1.00  0.00     0.134 A 
ATOM     76  F   UNL A   1      44.096  31.626  33.459  1.00  0.00    -0.206 F 
ATOM     77  C   UNL A   1      44.533  33.922  33.227  1.00  0.00     0.040 A 
ATOM     78  C   UNL A   1      44.866  34.870  31.039  1.00  0.00     0.040 A 
ATOM     79  F   UNL A   1      44.733  33.506  29.134  1.00  0.00    -0.206 F 
ATOM     80  C   UNL A   1      44.794  35.028  32.422  1.00  0.00     0.006 A 
ENDBRANCH  56  73
ENDBRANCH  30  31
ENDBRANCH  23  25
ENDBRANCH  22  23
ENDBRANCH  21  22
ENDBRANCH   1  21
TORSDOF 15
ENDMDL
MODEL 3
REMARK VINA RESULT:     -10.6      1.365      2.071
REMARK SMILES COCCS(=O)(=O)N1C[C@@H](C(=O)OCCOC(=O)c2ccc(-c3c4nc(c(-c5c(F)cccc5F)c5ccc([nH]5)c(-c5c(F)cccc5F)c5nc(c(-c6c(F)cccc6F)c6ccc3[nH]6)C=C5)C=C4)cc2)c2ccccc21
REMARK SMILES IDX 14 1 13 2 11 3 12 4 10 5 8 6 9 7 78 8 73 9 77 10 74 11 76 12
REMARK SMILES IDX 75 13 5 14 6 15 7 16 4 17 3 18 2 19 1 20 15 21 16 22 17 23
REMARK SMILES IDX 18 24 19 25 20 26 72 27 21 28 71 29 22 30 23 31 24 32 65 33
REMARK SMILES IDX 25 34 70 35 64 36 66 37 26 38 69 39 63 40 62 41 27 43 53 44
REMARK SMILES IDX 36 45 52 46 37 47 40 48 51 49 67 50 38 51 39 52 50 54 68 55
REMARK SMILES IDX 41 56 28 57 29 58 34 59 30 60 31 61 33 62 35 63 32 64 54 65
REMARK SMILES IDX 55 66 60 67 56 68 57 69 59 70 61 71 58 72 42 73 43 74 48 75
REMARK SMILES IDX 44 76 45 77 47 78 49 79 46 80
REMARK H PARENT 66 42 40 53
REMARK Flexibility Score: inf
ROOT
ATOM      1  C   UNL A   1      38.703  20.804  25.701  1.00  0.00     0.274 C 
ENDROOT
BRANCH   1   2
ATOM      2  O   UNL A   1      37.579  20.987  24.813  1.00  0.00    -0.462 OA
BRANCH   2   3
ATOM      3  C   UNL A   1      36.866  22.125  25.005  1.00  0.00     0.315 C 
ATOM      4  O   UNL A   1      37.357  23.248  25.064  1.00  0.00    -0.251 OA
BRANCH   3   5
ATOM      5  C   UNL A   1      35.385  21.927  25.121  1.00  0.00     0.152 C 
ATOM      6  N   UNL A   1      33.652  20.375  24.582  1.00  0.00    -0.269 N 
ATOM      7  C   UNL A   1      35.063  20.430  25.053  1.00  0.00     0.155 C 
ATOM      8  C   UNL A   1      33.368  21.598  23.910  1.00  0.00     0.056 A 
ATOM      9  C   UNL A   1      34.418  22.505  24.121  1.00  0.00    -0.008 A 
ATOM     10  C   UNL A   1      32.212  21.992  23.261  1.00  0.00     0.027 A 
ATOM     11  C   UNL A   1      34.361  23.791  23.601  1.00  0.00     0.007 A 
ATOM     12  C   UNL A   1      32.158  23.276  22.715  1.00  0.00     0.002 A 
ATOM     13  C   UNL A   1      33.232  24.164  22.869  1.00  0.00     0.000 A 
BRANCH   6  14
ATOM     14  S   UNL A   1      32.971  18.891  24.222  1.00  0.00     0.237 S 
ATOM     15  O   UNL A   1      32.403  18.910  22.892  1.00  0.00    -0.206 OA
ATOM     16  O   UNL A   1      32.140  18.540  25.359  1.00  0.00    -0.206 OA
BRANCH  14  17
ATOM     17  C   UNL A   1      34.349  17.755  24.240  1.00  0.00     0.188 C 
BRANCH  17  18
ATOM     18  C   UNL A   1      33.950  16.328  23.932  1.00  0.00     0.178 C 
BRANCH  18  19
ATOM     19  O   UNL A   1      33.935  15.520  25.115  1.00  0.00    -0.384 OA
ATOM     20  C   UNL A   1      32.646  15.000  25.420  1.00  0.00     0.194 C 
ENDBRANCH  18  19
ENDBRANCH  17  18
ENDBRANCH  14  17
ENDBRANCH   6  14
ENDBRANCH   3   5
ENDBRANCH   2   3
ENDBRANCH   1   2
BRANCH   1  21
ATOM     21  C   UNL A   1      39.414  19.486  25.398  1.00  0.00     0.275 C 
BRANCH  21  22
ATOM     22  O   UNL A   1      40.392  19.205  26.417  1.00  0.00    -0.458 OA
BRANCH  22  23
ATOM     23  C   UNL A   1      41.673  19.483  26.081  1.00  0.00     0.338 C 
ATOM     24  O   UNL A   1      42.467  18.756  25.510  1.00  0.00    -0.246 OA
BRANCH  23  25
ATOM     25  C   UNL A   1      42.013  20.855  26.492  1.00  0.00     0.060 A 
ATOM     26  C   UNL A   1      42.288  21.826  25.531  1.00  0.00     0.016 A 
ATOM     27  C   UNL A   1      42.179  21.138  27.847  1.00  0.00     0.016 A 
ATOM     28  C   UNL A   1      42.795  23.066  25.913  1.00  0.00     0.010 A 
ATOM     29  C   UNL A   1      42.611  22.408  28.234  1.00  0.00     0.010 A 
ATOM     30  C   UNL A   1      42.952  23.374  27.271  1.00  0.00    -0.014 A 
BRANCH  30  31
ATOM     31  C   UNL A   1      43.485  24.693  27.698  1.00  0.00     0.031 A 
ATOM     32  C   UNL A   1      42.545  25.775  28.154  1.00  0.00     0.074 A 
ATOM     33  C   UNL A   1      44.807  24.939  27.632  1.00  0.00     0.049 A 
ATOM     34  N   UNL A   1      42.786  27.042  28.381  1.00  0.00    -0.248 NA
ATOM     35  C   UNL A   1      41.143  25.383  28.363  1.00  0.00     0.031 C 
ATOM     36  C   UNL A   1      45.828  23.972  27.225  1.00  0.00     0.029 A 
ATOM     37  N   UNL A   1      45.516  26.086  27.885  1.00  0.00    -0.354 N 
ATOM     38  C   UNL A   1      41.562  27.607  28.712  1.00  0.00     0.074 A 
ATOM     39  C   UNL A   1      40.577  26.548  28.649  1.00  0.00     0.031 C 
ATOM     40  C   UNL A   1      47.030  24.566  27.252  1.00  0.00     0.029 A 
ATOM     41  C   UNL A   1      46.858  25.968  27.616  1.00  0.00     0.049 A 
ATOM     42  H   UNL A   1      45.103  26.912  28.228  1.00  0.00     0.167 HD
ATOM     43  C   UNL A   1      41.285  28.894  29.033  1.00  0.00     0.037 A 
ATOM     44  C   UNL A   1      47.835  26.894  27.613  1.00  0.00     0.037 A 
ATOM     45  C   UNL A   1      42.275  29.935  29.136  1.00  0.00     0.049 A 
ATOM     46  C   UNL A   1      47.505  28.316  27.962  1.00  0.00     0.074 A 
ATOM     47  C   UNL A   1      42.102  31.257  29.511  1.00  0.00     0.029 A 
ATOM     48  N   UNL A   1      43.625  29.770  28.865  1.00  0.00    -0.354 N 
ATOM     49  N   UNL A   1      46.344  28.840  28.272  1.00  0.00    -0.248 NA
ATOM     50  C   UNL A   1      48.617  29.274  27.955  1.00  0.00     0.031 C 
ATOM     51  C   UNL A   1      43.342  31.901  29.427  1.00  0.00     0.029 A 
ATOM     52  C   UNL A   1      44.293  30.971  29.041  1.00  0.00     0.049 A 
ATOM     53  H   UNL A   1      44.046  28.925  28.588  1.00  0.00     0.167 HD
ATOM     54  C   UNL A   1      46.585  30.186  28.506  1.00  0.00     0.074 A 
ATOM     55  C   UNL A   1      48.007  30.395  28.319  1.00  0.00     0.031 C 
ATOM     56  C   UNL A   1      45.707  31.163  28.843  1.00  0.00     0.037 A 
BRANCH  43  57
ATOM     57  C   UNL A   1      39.846  29.255  29.263  1.00  0.00     0.057 A 
ATOM     58  C   UNL A   1      38.964  29.525  28.209  1.00  0.00     0.134 A 
ATOM     59  C   UNL A   1      39.331  29.312  30.565  1.00  0.00     0.134 A 
ATOM     60  F   UNL A   1      39.396  29.501  26.939  1.00  0.00    -0.206 F 
ATOM     61  C   UNL A   1      37.630  29.864  28.442  1.00  0.00     0.040 A 
ATOM     62  C   UNL A   1      37.993  29.625  30.810  1.00  0.00     0.040 A 
ATOM     63  F   UNL A   1      40.119  29.059  31.621  1.00  0.00    -0.206 F 
ATOM     64  C   UNL A   1      37.140  29.910  29.747  1.00  0.00     0.006 A 
ENDBRANCH  43  57
BRANCH  44  65
ATOM     65  C   UNL A   1      49.212  26.497  27.231  1.00  0.00     0.057 A 
ATOM     66  C   UNL A   1      50.098  25.960  28.171  1.00  0.00     0.134 A 
ATOM     67  C   UNL A   1      49.661  26.611  25.909  1.00  0.00     0.134 A 
ATOM     68  F   UNL A   1      49.731  25.845  29.455  1.00  0.00    -0.206 F 
ATOM     69  C   UNL A   1      51.383  25.551  27.810  1.00  0.00     0.040 A 
ATOM     70  C   UNL A   1      50.933  26.184  25.530  1.00  0.00     0.040 A 
ATOM     71  F   UNL A   1      48.854  27.113  24.962  1.00  0.00    -0.206 F 
ATOM     72  C   UNL A   1      51.799  25.654  26.484  1.00  0.00     0.006 A 
ENDBRANCH  44  65
BRANCH  56  73
ATOM     73  C   UNL A   1      46.266  32.539  29.049  1.00  0.00     0.057 A 
ATOM     74  C   UNL A   1      46.335  33.468  28.004  1.00  0.00     0.134 A 
ATOM     75  C   UNL A   1      46.711  32.948  30.313  1.00  0.00     0.134 A 
ATOM     76  F   UNL A   1      45.938  33.132  26.768  1.00  0.00    -0.206 F 
ATOM     77  C   UNL A   1      46.845  34.752  28.205  1.00  0.00     0.040 A 
ATOM     78  C   UNL A   1      47.203  34.235  30.531  1.00  0.00     0.040 A 
ATOM     79  F   UNL A   1      46.666  32.105  31.356  1.00  0.00    -0.206 F 
ATOM     80  C   UNL A   1      47.276  35.139  29.473  1.00  0.00     0.006 A 
ENDBRANCH  56  73
ENDBRANCH  30  31
ENDBRANCH  23  25
ENDBRANCH  22  23
ENDBRANCH  21  22
ENDBRANCH   1  21
TORSDOF 15
ENDMDL
