MODEL 1
REMARK VINA RESULT:     -10.6      0.000      0.000
REMARK SMILES CCN(C(=O)C[N@H+]1CCC[C@@H](C(=O)OCCOC(=O)c2ccc(-c3c4nc(c(-c5c(F)cccc5F)c5ccc([nH]5)c(-c5c(F)cccc5F)c5nc(c(-c6c(F)cccc6F)c6ccc3[nH]6)C=C5)C=C4)cc2)C1)C1=CCCCC1
REMARK SMILES IDX 15 1 14 2 12 3 13 4 11 5 7 6 8 7 74 8 9 10 10 11 6 12 4 13
REMARK SMILES IDX 5 14 3 15 2 16 1 17 75 18 76 19 80 20 77 21 79 22 78 23
REMARK SMILES IDX 16 24 17 25 18 26 19 27 20 28 21 29 73 30 22 31 72 32 23 33
REMARK SMILES IDX 24 34 25 35 66 36 26 37 71 38 65 39 67 40 27 41 70 42 64 43
REMARK SMILES IDX 63 44 28 46 54 47 37 48 53 49 38 50 41 51 52 52 68 53 39 54
REMARK SMILES IDX 40 55 51 57 69 58 42 59 29 60 30 61 35 62 31 63 32 64 34 65
REMARK SMILES IDX 36 66 33 67 55 68 56 69 61 70 57 71 58 72 60 73 62 74 59 75
REMARK SMILES IDX 43 76 44 77 49 78 45 79 46 80 48 81 50 82 47 83
REMARK H PARENT 7 9 67 45 41 56
REMARK Flexibility Score: inf
ROOT
ATOM      1  C   UNL A   1      34.012  35.190  28.963  1.00  0.00     0.274 C 
ENDROOT
BRANCH   1   2
ATOM      2  O   UNL A   1      33.631  33.969  28.296  1.00  0.00    -0.462 OA
BRANCH   2   3
ATOM      3  C   UNL A   1      34.667  33.130  28.012  1.00  0.00     0.314 C 
ATOM      4  O   UNL A   1      35.759  33.497  27.598  1.00  0.00    -0.252 OA
BRANCH   3   5
ATOM      5  C   UNL A   1      34.312  31.684  28.328  1.00  0.00     0.154 C 
ATOM      6  N   UNL A   1      33.057  29.810  27.281  1.00  0.00    -0.326 N 
ATOM      7  C   UNL A   1      34.255  29.287  26.634  1.00  0.00     0.262 C 
ATOM      8  C   UNL A   1      33.173  31.270  27.383  1.00  0.00     0.278 C 
ATOM      9  H   UNL A   1      32.997  29.398  28.212  1.00  0.00     0.348 HD
ATOM     10  C   UNL A   1      35.406  29.414  27.627  1.00  0.00     0.062 C 
ATOM     11  C   UNL A   1      35.570  30.802  28.255  1.00  0.00     0.027 C 
BRANCH   6  12
ATOM     12  C   UNL A   1      31.812  29.420  26.597  1.00  0.00     0.364 C 
BRANCH  12  13
ATOM     13  C   UNL A   1      31.530  27.923  26.859  1.00  0.00     0.281 C 
ATOM     14  O   UNL A   1      31.272  27.591  28.024  1.00  0.00    -0.268 OA
BRANCH  13  15
ATOM     15  N   UNL A   1      31.633  27.013  25.768  1.00  0.00    -0.312 N 
BRANCH  15  16
ATOM     16  C   UNL A   1      31.548  27.493  24.370  1.00  0.00     0.122 C 
ATOM     17  C   UNL A   1      30.148  27.880  23.902  1.00  0.00     0.028 C 
ENDBRANCH  15  16
BRANCH  15  18
ATOM     18  C   UNL A   1      31.847  25.628  25.982  1.00  0.00     0.017 C 
ATOM     19  C   UNL A   1      30.834  24.743  26.053  1.00  0.00    -0.005 C 
ATOM     20  C   UNL A   1      33.278  25.135  26.154  1.00  0.00     0.054 C 
ATOM     21  C   UNL A   1      30.989  23.283  26.361  1.00  0.00     0.029 C 
ATOM     22  C   UNL A   1      33.456  23.616  26.222  1.00  0.00     0.007 C 
ATOM     23  C   UNL A   1      32.333  22.955  27.001  1.00  0.00     0.005 C 
ENDBRANCH  15  18
ENDBRANCH  13  15
ENDBRANCH  12  13
ENDBRANCH   6  12
ENDBRANCH   3   5
ENDBRANCH   2   3
ENDBRANCH   1   2
BRANCH   1  24
ATOM     24  C   UNL A   1      32.778  35.943  29.457  1.00  0.00     0.275 C 
BRANCH  24  25
ATOM     25  O   UNL A   1      33.045  36.540  30.739  1.00  0.00    -0.458 OA
BRANCH  25  26
ATOM     26  C   UNL A   1      32.645  35.812  31.808  1.00  0.00     0.338 C 
ATOM     27  O   UNL A   1      31.501  35.683  32.211  1.00  0.00    -0.246 OA
BRANCH  26  28
ATOM     28  C   UNL A   1      33.796  35.139  32.454  1.00  0.00     0.060 A 
ATOM     29  C   UNL A   1      35.056  35.736  32.533  1.00  0.00     0.016 A 
ATOM     30  C   UNL A   1      33.634  33.818  32.882  1.00  0.00     0.016 A 
ATOM     31  C   UNL A   1      36.167  34.977  32.907  1.00  0.00     0.010 A 
ATOM     32  C   UNL A   1      34.729  33.098  33.364  1.00  0.00     0.010 A 
ATOM     33  C   UNL A   1      36.021  33.649  33.335  1.00  0.00    -0.014 A 
BRANCH  33  34
ATOM     34  C   UNL A   1      37.199  32.817  33.714  1.00  0.00     0.031 A 
ATOM     35  C   UNL A   1      37.850  32.996  35.064  1.00  0.00     0.074 A 
ATOM     36  C   UNL A   1      37.708  31.906  32.862  1.00  0.00     0.049 A 
ATOM     37  N   UNL A   1      39.011  32.567  35.489  1.00  0.00    -0.248 NA
ATOM     38  C   UNL A   1      37.099  33.777  36.061  1.00  0.00     0.031 C 
ATOM     39  C   UNL A   1      37.167  31.576  31.543  1.00  0.00     0.029 A 
ATOM     40  N   UNL A   1      38.801  31.082  32.985  1.00  0.00    -0.354 N 
ATOM     41  C   UNL A   1      39.165  33.089  36.768  1.00  0.00     0.074 A 
ATOM     42  C   UNL A   1      37.969  33.852  37.058  1.00  0.00     0.031 C 
ATOM     43  C   UNL A   1      37.898  30.591  31.000  1.00  0.00     0.029 A 
ATOM     44  C   UNL A   1      39.015  30.285  31.886  1.00  0.00     0.049 A 
ATOM     45  H   UNL A   1      39.375  31.064  33.785  1.00  0.00     0.167 HD
ATOM     46  C   UNL A   1      40.210  32.952  37.618  1.00  0.00     0.037 A 
ATOM     47  C   UNL A   1      40.020  29.439  31.597  1.00  0.00     0.037 A 
ATOM     48  C   UNL A   1      41.368  32.135  37.361  1.00  0.00     0.049 A 
ATOM     49  C   UNL A   1      41.171  29.303  32.550  1.00  0.00     0.074 A 
ATOM     50  C   UNL A   1      42.478  31.930  38.163  1.00  0.00     0.029 A 
ATOM     51  N   UNL A   1      41.549  31.364  36.224  1.00  0.00    -0.354 N 
ATOM     52  N   UNL A   1      41.354  29.882  33.711  1.00  0.00    -0.248 NA
ATOM     53  C   UNL A   1      42.270  28.418  32.137  1.00  0.00     0.031 C 
ATOM     54  C   UNL A   1      43.339  31.045  37.503  1.00  0.00     0.029 A 
ATOM     55  C   UNL A   1      42.751  30.679  36.304  1.00  0.00     0.049 A 
ATOM     56  H   UNL A   1      40.917  31.309  35.471  1.00  0.00     0.167 HD
ATOM     57  C   UNL A   1      42.588  29.440  34.165  1.00  0.00     0.074 A 
ATOM     58  C   UNL A   1      43.099  28.523  33.167  1.00  0.00     0.031 C 
ATOM     59  C   UNL A   1      43.245  29.773  35.301  1.00  0.00     0.037 A 
BRANCH  46  60
ATOM     60  C   UNL A   1      40.170  33.736  38.896  1.00  0.00     0.057 A 
ATOM     61  C   UNL A   1      40.792  34.983  39.026  1.00  0.00     0.134 A 
ATOM     62  C   UNL A   1      39.467  33.244  40.004  1.00  0.00     0.134 A 
ATOM     63  F   UNL A   1      41.493  35.502  38.008  1.00  0.00    -0.206 F 
ATOM     64  C   UNL A   1      40.731  35.706  40.220  1.00  0.00     0.040 A 
ATOM     65  C   UNL A   1      39.383  33.965  41.195  1.00  0.00     0.040 A 
ATOM     66  F   UNL A   1      38.845  32.056  39.943  1.00  0.00    -0.206 F 
ATOM     67  C   UNL A   1      40.020  35.198  41.307  1.00  0.00     0.006 A 
ENDBRANCH  46  60
BRANCH  47  68
ATOM     68  C   UNL A   1      40.000  28.686  30.320  1.00  0.00     0.057 A 
ATOM     69  C   UNL A   1      39.327  27.464  30.219  1.00  0.00     0.134 A 
ATOM     70  C   UNL A   1      40.626  29.179  29.170  1.00  0.00     0.134 A 
ATOM     71  F   UNL A   1      38.728  26.933  31.294  1.00  0.00    -0.206 F 
ATOM     72  C   UNL A   1      39.275  26.759  29.016  1.00  0.00     0.040 A 
ATOM     73  C   UNL A   1      40.564  28.495  27.955  1.00  0.00     0.040 A 
ATOM     74  F   UNL A   1      41.286  30.346  29.205  1.00  0.00    -0.206 F 
ATOM     75  C   UNL A   1      39.887  27.280  27.878  1.00  0.00     0.006 A 
ENDBRANCH  47  68
BRANCH  59  76
ATOM     76  C   UNL A   1      44.577  29.129  35.528  1.00  0.00     0.057 A 
ATOM     77  C   UNL A   1      45.762  29.722  35.074  1.00  0.00     0.134 A 
ATOM     78  C   UNL A   1      44.679  27.918  36.221  1.00  0.00     0.134 A 
ATOM     79  F   UNL A   1      45.727  30.876  34.390  1.00  0.00    -0.206 F 
ATOM     80  C   UNL A   1      47.003  29.122  35.288  1.00  0.00     0.040 A 
ATOM     81  C   UNL A   1      45.916  27.316  36.456  1.00  0.00     0.040 A 
ATOM     82  F   UNL A   1      43.579  27.304  36.682  1.00  0.00    -0.206 F 
ATOM     83  C   UNL A   1      47.082  27.917  35.985  1.00  0.00     0.006 A 
ENDBRANCH  59  76
ENDBRANCH  33  34
ENDBRANCH  26  28
ENDBRANCH  25  26
ENDBRANCH  24  25
ENDBRANCH   1  24
TORSDOF 16
ENDMDL
MODEL 2
REMARK VINA RESULT:     -10.6      2.850      7.900
REMARK SMILES CCN(C(=O)C[N@H+]1CCC[C@@H](C(=O)OCCOC(=O)c2ccc(-c3c4nc(c(-c5c(F)cccc5F)c5ccc([nH]5)c(-c5c(F)cccc5F)c5nc(c(-c6c(F)cccc6F)c6ccc3[nH]6)C=C5)C=C4)cc2)C1)C1=CCCCC1
REMARK SMILES IDX 15 1 14 2 12 3 13 4 11 5 7 6 8 7 74 8 9 10 10 11 6 12 4 13
REMARK SMILES IDX 5 14 3 15 2 16 1 17 75 18 76 19 80 20 77 21 79 22 78 23
REMARK SMILES IDX 16 24 17 25 18 26 19 27 20 28 21 29 73 30 22 31 72 32 23 33
REMARK SMILES IDX 24 34 25 35 66 36 26 37 71 38 65 39 67 40 27 41 70 42 64 43
REMARK SMILES IDX 63 44 28 46 54 47 37 48 53 49 38 50 41 51 52 52 68 53 39 54
REMARK SMILES IDX 40 55 51 57 69 58 42 59 29 60 30 61 35 62 31 63 32 64 34 65
REMARK SMILES IDX 36 66 33 67 55 68 56 69 61 70 57 71 58 72 60 73 62 74 59 75
REMARK SMILES IDX 43 76 44 77 49 78 45 79 46 80 48 81 50 82 47 83
REMARK H PARENT 7 9 67 45 41 56
REMARK Flexibility Score: inf
ROOT
ATOM      1  C   UNL A   1      30.829  30.004  24.285  1.00  0.00     0.274 C 
ENDROOT
BRANCH   1   2
ATOM      2  O   UNL A   1      31.596  28.785  24.216  1.00  0.00    -0.462 OA
BRANCH   2   3
ATOM      3  C   UNL A   1      30.856  27.658  24.014  1.00  0.00     0.314 C 
ATOM      4  O   UNL A   1      29.977  27.552  23.169  1.00  0.00    -0.252 OA
BRANCH   3   5
ATOM      5  C   UNL A   1      31.299  26.531  24.936  1.00  0.00     0.154 C 
ATOM      6  N   UNL A   1      32.171  24.211  24.744  1.00  0.00    -0.326 N 
ATOM      7  C   UNL A   1      33.558  24.663  24.768  1.00  0.00     0.262 C 
ATOM      8  C   UNL A   1      31.347  25.242  24.101  1.00  0.00     0.278 C 
ATOM      9  H   UNL A   1      31.869  24.072  25.708  1.00  0.00     0.348 HD
ATOM     10  C   UNL A   1      33.655  25.788  25.794  1.00  0.00     0.062 C 
ATOM     11  C   UNL A   1      32.618  26.905  25.633  1.00  0.00     0.027 C 
BRANCH   6  12
ATOM     12  C   UNL A   1      32.000  22.904  24.086  1.00  0.00     0.364 C 
BRANCH  12  13
ATOM     13  C   UNL A   1      31.777  21.815  25.159  1.00  0.00     0.281 C 
ATOM     14  O   UNL A   1      30.699  21.832  25.768  1.00  0.00    -0.268 OA
BRANCH  13  15
ATOM     15  N   UNL A   1      32.833  20.895  25.420  1.00  0.00    -0.312 N 
BRANCH  15  16
ATOM     16  C   UNL A   1      33.980  21.279  26.274  1.00  0.00     0.122 C 
ATOM     17  C   UNL A   1      33.619  22.076  27.524  1.00  0.00     0.028 C 
ENDBRANCH  15  16
BRANCH  15  18
ATOM     18  C   UNL A   1      32.809  19.578  24.896  1.00  0.00     0.017 C 
ATOM     19  C   UNL A   1      32.896  18.486  25.681  1.00  0.00    -0.005 C 
ATOM     20  C   UNL A   1      32.701  19.401  23.387  1.00  0.00     0.054 C 
ATOM     21  C   UNL A   1      32.962  17.072  25.182  1.00  0.00     0.029 C 
ATOM     22  C   UNL A   1      32.521  17.962  22.895  1.00  0.00     0.007 C 
ATOM     23  C   UNL A   1      33.348  16.985  23.711  1.00  0.00     0.005 C 
ENDBRANCH  15  18
ENDBRANCH  13  15
ENDBRANCH  12  13
ENDBRANCH   6  12
ENDBRANCH   3   5
ENDBRANCH   2   3
ENDBRANCH   1   2
BRANCH   1  24
ATOM     24  C   UNL A   1      31.031  30.693  25.633  1.00  0.00     0.275 C 
BRANCH  24  25
ATOM     25  O   UNL A   1      32.388  30.514  26.079  1.00  0.00    -0.458 OA
BRANCH  25  26
ATOM     26  C   UNL A   1      32.849  31.470  26.919  1.00  0.00     0.338 C 
ATOM     27  O   UNL A   1      32.266  32.488  27.251  1.00  0.00    -0.246 OA
BRANCH  26  28
ATOM     28  C   UNL A   1      34.194  31.122  27.435  1.00  0.00     0.060 A 
ATOM     29  C   UNL A   1      34.571  29.800  27.689  1.00  0.00     0.016 A 
ATOM     30  C   UNL A   1      35.055  32.162  27.793  1.00  0.00     0.016 A 
ATOM     31  C   UNL A   1      35.733  29.533  28.415  1.00  0.00     0.010 A 
ATOM     32  C   UNL A   1      36.273  31.882  28.417  1.00  0.00     0.010 A 
ATOM     33  C   UNL A   1      36.607  30.568  28.784  1.00  0.00    -0.014 A 
BRANCH  33  34
ATOM     34  C   UNL A   1      37.839  30.302  29.579  1.00  0.00     0.031 A 
ATOM     35  C   UNL A   1      38.965  29.492  28.984  1.00  0.00     0.074 A 
ATOM     36  C   UNL A   1      37.966  30.767  30.838  1.00  0.00     0.049 A 
ATOM     37  N   UNL A   1      39.994  28.940  29.577  1.00  0.00    -0.248 NA
ATOM     38  C   UNL A   1      38.914  29.258  27.532  1.00  0.00     0.031 C 
ATOM     39  C   UNL A   1      36.994  31.606  31.540  1.00  0.00     0.029 A 
ATOM     40  N   UNL A   1      38.978  30.599  31.753  1.00  0.00    -0.354 N 
ATOM     41  C   UNL A   1      40.667  28.231  28.588  1.00  0.00     0.074 A 
ATOM     42  C   UNL A   1      39.940  28.438  27.353  1.00  0.00     0.031 C 
ATOM     43  C   UNL A   1      37.474  31.918  32.753  1.00  0.00     0.029 A 
ATOM     44  C   UNL A   1      38.742  31.224  32.953  1.00  0.00     0.049 A 
ATOM     45  H   UNL A   1      39.794  30.081  31.566  1.00  0.00     0.167 HD
ATOM     46  C   UNL A   1      41.782  27.472  28.703  1.00  0.00     0.037 A 
ATOM     47  C   UNL A   1      39.437  31.206  34.105  1.00  0.00     0.037 A 
ATOM     48  C   UNL A   1      42.548  27.325  29.914  1.00  0.00     0.049 A 
ATOM     49  C   UNL A   1      40.670  30.357  34.213  1.00  0.00     0.074 A 
ATOM     50  C   UNL A   1      43.695  26.579  30.128  1.00  0.00     0.029 A 
ATOM     51  N   UNL A   1      42.257  27.961  31.110  1.00  0.00    -0.354 N 
ATOM     52  N   UNL A   1      41.238  29.608  33.300  1.00  0.00    -0.248 NA
ATOM     53  C   UNL A   1      41.338  30.325  35.522  1.00  0.00     0.031 C 
ATOM     54  C   UNL A   1      44.089  26.753  31.459  1.00  0.00     0.029 A 
ATOM     55  C   UNL A   1      43.204  27.628  32.065  1.00  0.00     0.049 A 
ATOM     56  H   UNL A   1      41.491  28.562  31.259  1.00  0.00     0.167 HD
ATOM     57  C   UNL A   1      42.325  29.012  33.923  1.00  0.00     0.074 A 
ATOM     58  C   UNL A   1      42.353  29.506  35.284  1.00  0.00     0.031 C 
ATOM     59  C   UNL A   1      43.215  28.126  33.415  1.00  0.00     0.037 A 
BRANCH  46  60
ATOM     60  C   UNL A   1      42.226  26.706  27.491  1.00  0.00     0.057 A 
ATOM     61  C   UNL A   1      43.068  27.265  26.524  1.00  0.00     0.134 A 
ATOM     62  C   UNL A   1      41.826  25.375  27.313  1.00  0.00     0.134 A 
ATOM     63  F   UNL A   1      43.474  28.539  26.629  1.00  0.00    -0.206 F 
ATOM     64  C   UNL A   1      43.484  26.532  25.410  1.00  0.00     0.040 A 
ATOM     65  C   UNL A   1      42.250  24.627  26.214  1.00  0.00     0.040 A 
ATOM     66  F   UNL A   1      41.023  24.780  28.207  1.00  0.00    -0.206 F 
ATOM     67  C   UNL A   1      43.078  25.207  25.256  1.00  0.00     0.006 A 
ENDBRANCH  46  60
BRANCH  47  68
ATOM     68  C   UNL A   1      38.953  31.990  35.267  1.00  0.00     0.057 A 
ATOM     69  C   UNL A   1      38.216  31.379  36.286  1.00  0.00     0.134 A 
ATOM     70  C   UNL A   1      39.236  33.354  35.398  1.00  0.00     0.134 A 
ATOM     71  F   UNL A   1      37.895  30.080  36.202  1.00  0.00    -0.206 F 
ATOM     72  C   UNL A   1      37.778  32.099  37.399  1.00  0.00     0.040 A 
ATOM     73  C   UNL A   1      38.825  34.080  36.516  1.00  0.00     0.040 A 
ATOM     74  F   UNL A   1      39.941  33.994  34.453  1.00  0.00    -0.206 F 
ATOM     75  C   UNL A   1      38.091  33.451  37.520  1.00  0.00     0.006 A 
ENDBRANCH  47  68
BRANCH  59  76
ATOM     76  C   UNL A   1      44.296  27.649  34.333  1.00  0.00     0.057 A 
ATOM     77  C   UNL A   1      44.148  26.482  35.093  1.00  0.00     0.134 A 
ATOM     78  C   UNL A   1      45.502  28.350  34.445  1.00  0.00     0.134 A 
ATOM     79  F   UNL A   1      43.009  25.775  35.039  1.00  0.00    -0.206 F 
ATOM     80  C   UNL A   1      45.159  26.037  35.946  1.00  0.00     0.040 A 
ATOM     81  C   UNL A   1      46.526  27.907  35.283  1.00  0.00     0.040 A 
ATOM     82  F   UNL A   1      45.703  29.474  33.741  1.00  0.00    -0.206 F 
ATOM     83  C   UNL A   1      46.354  26.750  36.039  1.00  0.00     0.006 A 
ENDBRANCH  59  76
ENDBRANCH  33  34
ENDBRANCH  26  28
ENDBRANCH  25  26
ENDBRANCH  24  25
ENDBRANCH   1  24
TORSDOF 16
ENDMDL
MODEL 3
REMARK VINA RESULT:     -10.6      4.288      9.126
REMARK SMILES CCN(C(=O)C[N@H+]1CCC[C@@H](C(=O)OCCOC(=O)c2ccc(-c3c4nc(c(-c5c(F)cccc5F)c5ccc([nH]5)c(-c5c(F)cccc5F)c5nc(c(-c6c(F)cccc6F)c6ccc3[nH]6)C=C5)C=C4)cc2)C1)C1=CCCCC1
REMARK SMILES IDX 15 1 14 2 12 3 13 4 11 5 7 6 8 7 74 8 9 10 10 11 6 12 4 13
REMARK SMILES IDX 5 14 3 15 2 16 1 17 75 18 76 19 80 20 77 21 79 22 78 23
REMARK SMILES IDX 16 24 17 25 18 26 19 27 20 28 21 29 73 30 22 31 72 32 23 33
REMARK SMILES IDX 24 34 25 35 66 36 26 37 71 38 65 39 67 40 27 41 70 42 64 43
REMARK SMILES IDX 63 44 28 46 54 47 37 48 53 49 38 50 41 51 52 52 68 53 39 54
REMARK SMILES IDX 40 55 51 57 69 58 42 59 29 60 30 61 35 62 31 63 32 64 34 65
REMARK SMILES IDX 36 66 33 67 55 68 56 69 61 70 57 71 58 72 60 73 62 74 59 75
REMARK SMILES IDX 43 76 44 77 49 78 45 79 46 80 48 81 50 82 47 83
REMARK H PARENT 7 9 67 45 41 56
REMARK Flexibility Score: inf
ROOT
ATOM      1  C   UNL A   1      43.007  21.113  26.466  1.00  0.00     0.274 C 
ENDROOT
BRANCH   1   2
ATOM      2  O   UNL A   1      41.677  20.712  26.075  1.00  0.00    -0.462 OA
BRANCH   2   3
ATOM      3  C   UNL A   1      40.674  21.288  26.796  1.00  0.00     0.314 C 
ATOM      4  O   UNL A   1      40.483  21.093  27.990  1.00  0.00    -0.252 OA
BRANCH   3   5
ATOM      5  C   UNL A   1      39.856  22.245  25.942  1.00  0.00     0.154 C 
ATOM      6  N   UNL A   1      37.519  22.467  25.122  1.00  0.00    -0.326 N 
ATOM      7  C   UNL A   1      37.130  23.286  26.265  1.00  0.00     0.262 C 
ATOM      8  C   UNL A   1      38.558  21.522  25.549  1.00  0.00     0.278 C 
ATOM      9  H   UNL A   1      37.885  23.088  24.401  1.00  0.00     0.348 HD
ATOM     10  C   UNL A   1      38.282  24.241  26.558  1.00  0.00     0.062 C 
ATOM     11  C   UNL A   1      39.658  23.579  26.683  1.00  0.00     0.027 C 
BRANCH   6  12
ATOM     12  C   UNL A   1      36.384  21.765  24.499  1.00  0.00     0.364 C 
BRANCH  12  13
ATOM     13  C   UNL A   1      35.676  22.715  23.507  1.00  0.00     0.281 C 
ATOM     14  O   UNL A   1      36.328  23.097  22.525  1.00  0.00    -0.268 OA
BRANCH  13  15
ATOM     15  N   UNL A   1      34.347  23.135  23.801  1.00  0.00    -0.312 N 
BRANCH  15  16
ATOM     16  C   UNL A   1      33.434  22.271  24.582  1.00  0.00     0.122 C 
ATOM     17  C   UNL A   1      32.800  21.124  23.801  1.00  0.00     0.028 C 
ENDBRANCH  15  16
BRANCH  15  18
ATOM     18  C   UNL A   1      33.864  24.401  23.381  1.00  0.00     0.017 C 
ATOM     19  C   UNL A   1      34.064  25.524  24.097  1.00  0.00    -0.005 C 
ATOM     20  C   UNL A   1      33.076  24.479  22.081  1.00  0.00     0.054 C 
ATOM     21  C   UNL A   1      33.508  26.874  23.751  1.00  0.00     0.029 C 
ATOM     22  C   UNL A   1      32.719  25.888  21.600  1.00  0.00     0.007 C 
ATOM     23  C   UNL A   1      32.352  26.798  22.760  1.00  0.00     0.005 C 
ENDBRANCH  15  18
ENDBRANCH  13  15
ENDBRANCH  12  13
ENDBRANCH   6  12
ENDBRANCH   3   5
ENDBRANCH   2   3
ENDBRANCH   1   2
BRANCH   1  24
ATOM     24  C   UNL A   1      43.740  21.767  25.297  1.00  0.00     0.275 C 
BRANCH  24  25
ATOM     25  O   UNL A   1      43.108  23.015  24.955  1.00  0.00    -0.458 OA
BRANCH  25  26
ATOM     26  C   UNL A   1      43.882  24.114  25.114  1.00  0.00     0.338 C 
ATOM     27  O   UNL A   1      44.962  24.325  24.588  1.00  0.00    -0.246 OA
BRANCH  26  28
ATOM     28  C   UNL A   1      43.236  25.093  26.020  1.00  0.00     0.060 A 
ATOM     29  C   UNL A   1      43.250  26.466  25.759  1.00  0.00     0.016 A 
ATOM     30  C   UNL A   1      42.711  24.629  27.229  1.00  0.00     0.016 A 
ATOM     31  C   UNL A   1      42.869  27.370  26.753  1.00  0.00     0.010 A 
ATOM     32  C   UNL A   1      42.224  25.534  28.175  1.00  0.00     0.010 A 
ATOM     33  C   UNL A   1      42.343  26.918  27.974  1.00  0.00    -0.014 A 
BRANCH  33  34
ATOM     34  C   UNL A   1      41.955  27.869  29.054  1.00  0.00     0.031 A 
ATOM     35  C   UNL A   1      42.795  27.979  30.304  1.00  0.00     0.074 A 
ATOM     36  C   UNL A   1      40.851  28.634  28.942  1.00  0.00     0.049 A 
ATOM     37  N   UNL A   1      42.508  28.544  31.450  1.00  0.00    -0.248 NA
ATOM     38  C   UNL A   1      44.128  27.357  30.261  1.00  0.00     0.031 C 
ATOM     39  C   UNL A   1      39.961  28.683  27.782  1.00  0.00     0.029 A 
ATOM     40  N   UNL A   1      40.290  29.526  29.825  1.00  0.00    -0.354 N 
ATOM     41  C   UNL A   1      43.585  28.277  32.286  1.00  0.00     0.074 A 
ATOM     42  C   UNL A   1      44.542  27.516  31.510  1.00  0.00     0.031 C 
ATOM     43  C   UNL A   1      38.998  29.589  28.002  1.00  0.00     0.029 A 
ATOM     44  C   UNL A   1      39.142  30.115  29.355  1.00  0.00     0.049 A 
ATOM     45  H   UNL A   1      40.675  29.723  30.710  1.00  0.00     0.167 HD
ATOM     46  C   UNL A   1      43.757  28.626  33.583  1.00  0.00     0.037 A 
ATOM     47  C   UNL A   1      38.272  30.947  29.956  1.00  0.00     0.037 A 
ATOM     48  C   UNL A   1      42.841  29.445  34.335  1.00  0.00     0.049 A 
ATOM     49  C   UNL A   1      38.478  31.322  31.394  1.00  0.00     0.074 A 
ATOM     50  C   UNL A   1      42.930  29.856  35.654  1.00  0.00     0.029 A 
ATOM     51  N   UNL A   1      41.680  30.001  33.821  1.00  0.00    -0.354 N 
ATOM     52  N   UNL A   1      39.448  30.978  32.205  1.00  0.00    -0.248 NA
ATOM     53  C   UNL A   1      37.450  32.174  32.009  1.00  0.00     0.031 C 
ATOM     54  C   UNL A   1      41.813  30.649  35.943  1.00  0.00     0.029 A 
ATOM     55  C   UNL A   1      41.046  30.754  34.795  1.00  0.00     0.049 A 
ATOM     56  H   UNL A   1      41.355  29.880  32.899  1.00  0.00     0.167 HD
ATOM     57  C   UNL A   1      39.146  31.565  33.426  1.00  0.00     0.074 A 
ATOM     58  C   UNL A   1      37.917  32.308  33.243  1.00  0.00     0.031 C 
ATOM     59  C   UNL A   1      39.822  31.484  34.597  1.00  0.00     0.037 A 
BRANCH  46  60
ATOM     60  C   UNL A   1      44.968  28.092  34.289  1.00  0.00     0.057 A 
ATOM     61  C   UNL A   1      44.966  26.851  34.936  1.00  0.00     0.134 A 
ATOM     62  C   UNL A   1      46.164  28.822  34.290  1.00  0.00     0.134 A 
ATOM     63  F   UNL A   1      43.849  26.111  34.984  1.00  0.00    -0.206 F 
ATOM     64  C   UNL A   1      46.108  26.362  35.576  1.00  0.00     0.040 A 
ATOM     65  C   UNL A   1      47.316  28.336  34.908  1.00  0.00     0.040 A 
ATOM     66  F   UNL A   1      46.232  30.017  33.683  1.00  0.00    -0.206 F 
ATOM     67  C   UNL A   1      47.289  27.104  35.558  1.00  0.00     0.006 A 
ENDBRANCH  46  60
BRANCH  47  68
ATOM     68  C   UNL A   1      37.097  31.449  29.203  1.00  0.00     0.057 A 
ATOM     69  C   UNL A   1      35.961  30.651  29.033  1.00  0.00     0.134 A 
ATOM     70  C   UNL A   1      37.071  32.739  28.662  1.00  0.00     0.134 A 
ATOM     71  F   UNL A   1      35.938  29.398  29.511  1.00  0.00    -0.206 F 
ATOM     72  C   UNL A   1      34.837  31.120  28.351  1.00  0.00     0.040 A 
ATOM     73  C   UNL A   1      35.946  33.229  27.998  1.00  0.00     0.040 A 
ATOM     74  F   UNL A   1      38.131  33.551  28.794  1.00  0.00    -0.206 F 
ATOM     75  C   UNL A   1      34.826  32.416  27.840  1.00  0.00     0.006 A 
ENDBRANCH  47  68
BRANCH  59  76
ATOM     76  C   UNL A   1      39.250  32.232  35.762  1.00  0.00     0.057 A 
ATOM     77  C   UNL A   1      39.602  33.562  36.020  1.00  0.00     0.134 A 
ATOM     78  C   UNL A   1      38.328  31.623  36.621  1.00  0.00     0.134 A 
ATOM     79  F   UNL A   1      40.493  34.194  35.241  1.00  0.00    -0.206 F 
ATOM     80  C   UNL A   1      39.066  34.258  37.105  1.00  0.00     0.040 A 
ATOM     81  C   UNL A   1      37.773  32.313  37.698  1.00  0.00     0.040 A 
ATOM     82  F   UNL A   1      37.951  30.351  36.422  1.00  0.00    -0.206 F 
ATOM     83  C   UNL A   1      38.146  33.633  37.945  1.00  0.00     0.006 A 
ENDBRANCH  59  76
ENDBRANCH  33  34
ENDBRANCH  26  28
ENDBRANCH  25  26
ENDBRANCH  24  25
ENDBRANCH   1  24
TORSDOF 16
ENDMDL
