MODEL 1
REMARK VINA RESULT:     -11.2      0.000      0.000
REMARK SMILES CC[C@@H](C)[C@H](NC(=O)[C@H](C)N1C(=O)N2CCC3=c4cc(OC)ccc4=N[C@@H]3[C@@]2(C)C1=O)C(=O)OCCOC(=O)c1ccc(-c2c3nc(c(-c4c(F)cccc4F)c4ccc([nH]4)c(-c4c(F)cccc4F)c4nc(c(-c5c(F)cccc5F)c5ccc2[nH]5)C=C4)C=C3)cc1
REMARK SMILES IDX 35 1 34 2 32 3 33 4 5 5 3 6 4 7 2 8 1 9 6 10 7 11 8 13 9 14
REMARK SMILES IDX 10 15 11 16 12 17 30 18 14 19 13 20 28 21 31 22 15 23 27 24
REMARK SMILES IDX 29 25 16 26 17 27 26 28 18 29 25 30 19 31 24 32 20 33 23 34
REMARK SMILES IDX 21 35 22 36 36 37 37 38 38 39 39 40 40 41 41 42 93 43 42 44
REMARK SMILES IDX 92 45 43 46 44 47 45 48 86 49 46 50 91 51 85 52 87 53 47 54
REMARK SMILES IDX 90 55 84 56 83 57 48 59 74 60 57 61 73 62 58 63 61 64 72 65
REMARK SMILES IDX 88 66 59 67 60 68 71 70 89 71 62 72 49 73 50 74 55 75 51 76
REMARK SMILES IDX 52 77 54 78 56 79 53 80 75 81 76 82 81 83 77 84 78 85 80 86
REMARK SMILES IDX 82 87 79 88 63 89 64 90 69 91 65 92 66 93 68 94 70 95 67 96
REMARK H PARENT 6 12 87 58 61 69
REMARK Flexibility Score: inf
ROOT
ATOM      1  C   UNL A   1      51.656  26.464  38.524  1.00  0.00     0.274 C 
ENDROOT
BRANCH   1   2
ATOM      2  O   UNL A   1      51.776  25.374  37.361  1.00  0.00    -0.461 OA
BRANCH   2   3
ATOM      3  C   UNL A   1      52.676  25.448  36.287  1.00  0.00     0.329 C 
ATOM      4  O   UNL A   1      53.617  26.244  36.320  1.00  0.00    -0.250 OA
BRANCH   3   5
ATOM      5  C   UNL A   1      52.612  24.246  35.105  1.00  0.00     0.195 C 
BRANCH   5   6
ATOM      6  C   UNL A   1      53.862  24.364  34.136  1.00  0.00     0.019 C 
ATOM      7  C   UNL A   1      53.353  24.383  32.696  1.00  0.00     0.010 C 
BRANCH   6   8
ATOM      8  C   UNL A   1      54.975  23.278  34.313  1.00  0.00     0.002 C 
ATOM      9  C   UNL A   1      54.654  22.184  35.332  1.00  0.00     0.004 C 
ENDBRANCH   6   8
ENDBRANCH   5   6
BRANCH   5  10
ATOM     10  N   UNL A   1      51.422  23.921  34.300  1.00  0.00    -0.341 N 
ATOM     11  C   UNL A   1      50.520  22.906  34.506  1.00  0.00     0.243 C 
ATOM     12  H   UNL A   1      51.254  24.500  33.523  1.00  0.00     0.164 HD
ATOM     13  O   UNL A   1      50.100  22.408  33.440  1.00  0.00    -0.273 OA
BRANCH  11  14
ATOM     14  C   UNL A   1      49.768  22.476  35.830  1.00  0.00     0.181 C 
ATOM     15  C   UNL A   1      48.988  23.886  36.162  1.00  0.00     0.042 C 
BRANCH  14  16
ATOM     16  N   UNL A   1      50.158  21.727  37.149  1.00  0.00    -0.250 N 
ATOM     17  C   UNL A   1      49.970  22.008  38.981  1.00  0.00     0.328 C 
ATOM     18  C   UNL A   1      50.595  20.031  36.619  1.00  0.00     0.259 C 
ATOM     19  N   UNL A   1      50.424  20.431  39.882  1.00  0.00    -0.307 N 
ATOM     20  O   UNL A   1      49.809  23.089  39.538  1.00  0.00    -0.248 OA
ATOM     21  C   UNL A   1      50.464  19.128  38.591  1.00  0.00     0.147 C 
ATOM     22  O   UNL A   1      50.637  19.604  35.476  1.00  0.00    -0.271 OA
ATOM     23  C   UNL A   1      50.109  19.499  41.427  1.00  0.00     0.127 C 
ATOM     24  C   UNL A   1      48.699  19.296  39.565  1.00  0.00     0.168 C 
ATOM     25  C   UNL A   1      51.653  18.332  37.207  1.00  0.00     0.048 C 
ATOM     26  C   UNL A   1      48.844  18.017  41.209  1.00  0.00     0.055 C 
ATOM     27  C   UNL A   1      47.685  18.272  39.795  1.00  0.00    -0.032 C 
ATOM     28  N   UNL A   1      48.295  20.839  40.175  1.00  0.00    -0.274 NA
ATOM     29  C   UNL A   1      46.678  19.080  39.181  1.00  0.00     0.005 A 
ATOM     30  C   UNL A   1      47.059  20.793  39.896  1.00  0.00     0.066 A 
ATOM     31  C   UNL A   1      46.124  19.203  37.363  1.00  0.00     0.056 A 
ATOM     32  C   UNL A   1      46.699  22.384  38.935  1.00  0.00     0.032 A 
ATOM     33  C   UNL A   1      45.798  20.600  36.570  1.00  0.00     0.119 A 
ATOM     34  C   UNL A   1      46.065  22.282  37.398  1.00  0.00     0.048 A 
BRANCH  33  35
ATOM     35  O   UNL A   1      45.398  20.695  35.249  1.00  0.00    -0.497 OA
ATOM     36  C   UNL A   1      46.375  20.573  34.199  1.00  0.00     0.278 C 
ENDBRANCH  33  35
ENDBRANCH  14  16
ENDBRANCH  11  14
ENDBRANCH   5  10
ENDBRANCH   3   5
ENDBRANCH   2   3
ENDBRANCH   1   2
BRANCH   1  37
ATOM     37  C   UNL A   1      50.058  26.956  39.273  1.00  0.00     0.275 C 
BRANCH  37  38
ATOM     38  O   UNL A   1      48.519  25.989  39.034  1.00  0.00    -0.458 OA
BRANCH  38  39
ATOM     39  C   UNL A   1      46.772  26.159  38.299  1.00  0.00     0.338 C 
ATOM     40  O   UNL A   1      45.839  26.530  39.032  1.00  0.00    -0.246 OA
BRANCH  39  41
ATOM     41  C   UNL A   1      45.926  26.151  36.747  1.00  0.00     0.060 A 
ATOM     42  C   UNL A   1      46.448  27.623  35.702  1.00  0.00     0.016 A 
ATOM     43  C   UNL A   1      44.360  25.097  35.832  1.00  0.00     0.016 A 
ATOM     44  C   UNL A   1      45.159  28.393  34.645  1.00  0.00     0.010 A 
ATOM     45  C   UNL A   1      43.246  25.893  34.685  1.00  0.00     0.010 A 
ATOM     46  C   UNL A   1      43.552  27.594  34.278  1.00  0.00    -0.014 A 
BRANCH  46  47
ATOM     47  C   UNL A   1      42.454  28.090  33.436  1.00  0.00     0.031 A 
ATOM     48  C   UNL A   1      42.507  27.935  31.905  1.00  0.00     0.074 A 
ATOM     49  C   UNL A   1      41.598  28.895  34.085  1.00  0.00     0.049 A 
ATOM     50  N   UNL A   1      41.539  28.117  31.046  1.00  0.00    -0.248 NA
ATOM     51  C   UNL A   1      43.736  27.448  31.227  1.00  0.00     0.031 C 
ATOM     52  C   UNL A   1      41.627  29.207  35.523  1.00  0.00     0.029 A 
ATOM     53  N   UNL A   1      40.607  29.694  33.618  1.00  0.00    -0.354 N 
ATOM     54  C   UNL A   1      42.004  27.632  29.818  1.00  0.00     0.074 A 
ATOM     55  C   UNL A   1      43.343  27.170  29.997  1.00  0.00     0.031 C 
ATOM     56  C   UNL A   1      40.772  30.186  35.803  1.00  0.00     0.029 A 
ATOM     57  C   UNL A   1      40.104  30.537  34.578  1.00  0.00     0.049 A 
ATOM     58  H   UNL A   1      40.282  29.671  32.689  1.00  0.00     0.167 HD
ATOM     59  C   UNL A   1      41.373  27.628  28.623  1.00  0.00     0.037 A 
ATOM     60  C   UNL A   1      39.195  31.509  34.469  1.00  0.00     0.037 A 
ATOM     61  C   UNL A   1      40.210  28.449  28.449  1.00  0.00     0.049 A 
ATOM     62  C   UNL A   1      38.566  31.600  33.127  1.00  0.00     0.074 A 
ATOM     63  C   UNL A   1      39.463  28.701  27.321  1.00  0.00     0.029 A 
ATOM     64  N   UNL A   1      39.701  29.257  29.470  1.00  0.00    -0.354 N 
ATOM     65  N   UNL A   1      38.907  30.963  32.026  1.00  0.00    -0.248 NA
ATOM     66  C   UNL A   1      37.408  32.471  33.013  1.00  0.00     0.031 C 
ATOM     67  C   UNL A   1      38.560  29.724  27.643  1.00  0.00     0.029 A 
ATOM     68  C   UNL A   1      38.684  30.049  28.993  1.00  0.00     0.049 A 
ATOM     69  H   UNL A   1      40.026  29.258  30.399  1.00  0.00     0.167 HD
ATOM     70  C   UNL A   1      37.991  31.338  31.070  1.00  0.00     0.074 A 
ATOM     71  C   UNL A   1      37.068  32.246  31.751  1.00  0.00     0.031 C 
ATOM     72  C   UNL A   1      37.893  30.982  29.762  1.00  0.00     0.037 A 
BRANCH  59  73
ATOM     73  C   UNL A   1      42.016  26.860  27.490  1.00  0.00     0.057 A 
ATOM     74  C   UNL A   1      41.812  25.485  27.309  1.00  0.00     0.134 A 
ATOM     75  C   UNL A   1      42.786  27.512  26.507  1.00  0.00     0.134 A 
ATOM     76  F   UNL A   1      41.071  24.787  28.181  1.00  0.00    -0.206 F 
ATOM     77  C   UNL A   1      42.333  24.798  26.204  1.00  0.00     0.040 A 
ATOM     78  C   UNL A   1      43.297  26.839  25.389  1.00  0.00     0.040 A 
ATOM     79  F   UNL A   1      43.007  28.834  26.586  1.00  0.00    -0.206 F 
ATOM     80  C   UNL A   1      43.069  25.476  25.234  1.00  0.00     0.006 A 
ENDBRANCH  59  73
BRANCH  60  81
ATOM     81  C   UNL A   1      38.837  32.283  35.681  1.00  0.00     0.057 A 
ATOM     82  C   UNL A   1      39.395  33.553  35.908  1.00  0.00     0.134 A 
ATOM     83  C   UNL A   1      38.152  31.688  36.744  1.00  0.00     0.134 A 
ATOM     84  F   UNL A   1      40.141  34.140  34.960  1.00  0.00    -0.206 F 
ATOM     85  C   UNL A   1      39.291  34.194  37.144  1.00  0.00     0.040 A 
ATOM     86  C   UNL A   1      38.021  32.328  37.981  1.00  0.00     0.040 A 
ATOM     87  F   UNL A   1      37.652  30.451  36.615  1.00  0.00    -0.206 F 
ATOM     88  C   UNL A   1      38.599  33.581  38.186  1.00  0.00     0.006 A 
ENDBRANCH  60  81
BRANCH  72  89
ATOM     89  C   UNL A   1      36.762  31.627  29.048  1.00  0.00     0.057 A 
ATOM     90  C   UNL A   1      35.579  30.915  28.837  1.00  0.00     0.134 A 
ATOM     91  C   UNL A   1      36.839  32.955  28.615  1.00  0.00     0.134 A 
ATOM     92  F   UNL A   1      35.469  29.636  29.228  1.00  0.00    -0.206 F 
ATOM     93  C   UNL A   1      34.488  31.516  28.225  1.00  0.00     0.040 A 
ATOM     94  C   UNL A   1      35.738  33.579  28.046  1.00  0.00     0.040 A 
ATOM     95  F   UNL A   1      37.952  33.676  28.820  1.00  0.00    -0.206 F 
ATOM     96  C   UNL A   1      34.561  32.858  27.847  1.00  0.00     0.006 A 
ENDBRANCH  72  89
ENDBRANCH  46  47
ENDBRANCH  39  41
ENDBRANCH  38  39
ENDBRANCH  37  38
ENDBRANCH   1  37
TORSDOF 17
ENDMDL
MODEL 2
REMARK VINA RESULT:     -11.2     13.061     20.290
REMARK SMILES CC[C@@H](C)[C@H](NC(=O)[C@H](C)N1C(=O)N2CCC3=c4cc(OC)ccc4=N[C@@H]3[C@@]2(C)C1=O)C(=O)OCCOC(=O)c1ccc(-c2c3nc(c(-c4c(F)cccc4F)c4ccc([nH]4)c(-c4c(F)cccc4F)c4nc(c(-c5c(F)cccc5F)c5ccc2[nH]5)C=C4)C=C3)cc1
REMARK SMILES IDX 35 1 34 2 32 3 33 4 5 5 3 6 4 7 2 8 1 9 6 10 7 11 8 13 9 14
REMARK SMILES IDX 10 15 11 16 12 17 30 18 14 19 13 20 28 21 31 22 15 23 27 24
REMARK SMILES IDX 29 25 16 26 17 27 26 28 18 29 25 30 19 31 24 32 20 33 23 34
REMARK SMILES IDX 21 35 22 36 36 37 37 38 38 39 39 40 40 41 41 42 93 43 42 44
REMARK SMILES IDX 92 45 43 46 44 47 45 48 86 49 46 50 91 51 85 52 87 53 47 54
REMARK SMILES IDX 90 55 84 56 83 57 48 59 74 60 57 61 73 62 58 63 61 64 72 65
REMARK SMILES IDX 88 66 59 67 60 68 71 70 89 71 62 72 49 73 50 74 55 75 51 76
REMARK SMILES IDX 52 77 54 78 56 79 53 80 75 81 76 82 81 83 77 84 78 85 80 86
REMARK SMILES IDX 82 87 79 88 63 89 64 90 69 91 65 92 66 93 68 94 70 95 67 96
REMARK H PARENT 6 12 87 58 61 69
REMARK Flexibility Score: inf
ROOT
ATOM      1  C   UNL A   1      44.626  40.946  26.219  1.00  0.00     0.274 C 
ENDROOT
BRANCH   1   2
ATOM      2  O   UNL A   1      44.637  41.355  24.674  1.00  0.00    -0.461 OA
BRANCH   2   3
ATOM      3  C   UNL A   1      44.356  42.641  24.187  1.00  0.00     0.329 C 
ATOM      4  O   UNL A   1      44.070  43.551  24.967  1.00  0.00    -0.250 OA
BRANCH   3   5
ATOM      5  C   UNL A   1      44.699  42.975  22.568  1.00  0.00     0.195 C 
BRANCH   5   6
ATOM      6  C   UNL A   1      43.423  42.693  21.670  1.00  0.00     0.019 C 
ATOM      7  C   UNL A   1      42.943  44.022  21.088  1.00  0.00     0.010 C 
BRANCH   6   8
ATOM      8  C   UNL A   1      42.242  41.939  22.367  1.00  0.00     0.002 C 
ATOM      9  C   UNL A   1      41.164  42.842  22.965  1.00  0.00     0.004 C 
ENDBRANCH   6   8
ENDBRANCH   5   6
BRANCH   5  10
ATOM     10  N   UNL A   1      45.895  42.506  21.848  1.00  0.00    -0.341 N 
ATOM     11  C   UNL A   1      46.374  42.947  20.639  1.00  0.00     0.243 C 
ATOM     12  H   UNL A   1      46.412  41.793  22.286  1.00  0.00     0.164 HD
ATOM     13  O   UNL A   1      46.871  42.029  19.952  1.00  0.00    -0.273 OA
BRANCH  11  14
ATOM     14  C   UNL A   1      46.618  44.423  20.126  1.00  0.00     0.181 C 
ATOM     15  C   UNL A   1      47.938  44.803  21.031  1.00  0.00     0.042 C 
BRANCH  14  16
ATOM     16  N   UNL A   1      45.726  45.686  19.877  1.00  0.00    -0.250 N 
ATOM     17  C   UNL A   1      45.728  47.477  20.391  1.00  0.00     0.328 C 
ATOM     18  C   UNL A   1      44.657  45.239  18.461  1.00  0.00     0.259 C 
ATOM     19  N   UNL A   1      44.470  48.402  19.357  1.00  0.00    -0.307 N 
ATOM     20  O   UNL A   1      46.271  47.947  21.384  1.00  0.00    -0.248 OA
ATOM     21  C   UNL A   1      44.048  47.269  17.977  1.00  0.00     0.147 C 
ATOM     22  O   UNL A   1      44.607  44.163  17.885  1.00  0.00    -0.271 OA
ATOM     23  C   UNL A   1      44.077  50.061  18.689  1.00  0.00     0.127 C 
ATOM     24  C   UNL A   1      45.517  48.595  17.560  1.00  0.00     0.168 C 
ATOM     25  C   UNL A   1      42.863  45.735  17.517  1.00  0.00     0.048 C 
ATOM     26  C   UNL A   1      44.547  50.281  16.798  1.00  0.00     0.055 C 
ATOM     27  C   UNL A   1      45.903  49.147  16.265  1.00  0.00    -0.032 C 
ATOM     28  N   UNL A   1      46.475  49.127  18.869  1.00  0.00    -0.274 NA
ATOM     29  C   UNL A   1      47.250  48.701  16.437  1.00  0.00     0.005 A 
ATOM     30  C   UNL A   1      47.582  49.141  18.250  1.00  0.00     0.066 A 
ATOM     31  C   UNL A   1      48.080  47.053  15.968  1.00  0.00     0.056 A 
ATOM     32  C   UNL A   1      48.773  48.136  19.325  1.00  0.00     0.032 A 
ATOM     33  C   UNL A   1      49.127  46.221  16.917  1.00  0.00     0.119 A 
ATOM     34  C   UNL A   1      49.527  46.800  18.675  1.00  0.00     0.048 A 
BRANCH  33  35
ATOM     35  O   UNL A   1      49.731  45.023  16.582  1.00  0.00    -0.497 OA
ATOM     36  C   UNL A   1      49.654  44.543  15.227  1.00  0.00     0.278 C 
ENDBRANCH  33  35
ENDBRANCH  14  16
ENDBRANCH  11  14
ENDBRANCH   5  10
ENDBRANCH   3   5
ENDBRANCH   2   3
ENDBRANCH   1   2
BRANCH   1  37
ATOM     37  C   UNL A   1      46.132  40.436  27.130  1.00  0.00     0.275 C 
BRANCH  37  38
ATOM     38  O   UNL A   1      46.574  38.677  27.395  1.00  0.00    -0.458 OA
BRANCH  38  39
ATOM     39  C   UNL A   1      46.255  37.244  28.606  1.00  0.00     0.338 C 
ATOM     40  O   UNL A   1      45.405  37.384  29.501  1.00  0.00    -0.246 OA
BRANCH  39  41
ATOM     41  C   UNL A   1      46.642  35.536  28.848  1.00  0.00     0.060 A 
ATOM     42  C   UNL A   1      47.149  34.737  27.225  1.00  0.00     0.016 A 
ATOM     43  C   UNL A   1      46.492  34.107  30.376  1.00  0.00     0.016 A 
ATOM     44  C   UNL A   1      46.645  32.990  26.963  1.00  0.00     0.010 A 
ATOM     45  C   UNL A   1      46.157  32.389  30.015  1.00  0.00     0.010 A 
ATOM     46  C   UNL A   1      46.033  31.909  28.310  1.00  0.00    -0.014 A 
BRANCH  46  47
ATOM     47  C   UNL A   1      45.623  30.499  28.238  1.00  0.00     0.031 A 
ATOM     48  C   UNL A   1      46.542  29.447  27.590  1.00  0.00     0.074 A 
ATOM     49  C   UNL A   1      44.326  30.300  28.519  1.00  0.00     0.049 A 
ATOM     50  N   UNL A   1      46.430  28.146  27.639  1.00  0.00    -0.248 NA
ATOM     51  C   UNL A   1      47.776  29.849  26.866  1.00  0.00     0.031 C 
ATOM     52  C   UNL A   1      43.373  31.326  28.971  1.00  0.00     0.029 A 
ATOM     53  N   UNL A   1      43.544  29.204  28.360  1.00  0.00    -0.354 N 
ATOM     54  C   UNL A   1      47.616  27.627  27.107  1.00  0.00     0.074 A 
ATOM     55  C   UNL A   1      48.442  28.720  26.704  1.00  0.00     0.031 C 
ATOM     56  C   UNL A   1      42.134  30.844  28.964  1.00  0.00     0.029 A 
ATOM     57  C   UNL A   1      42.210  29.467  28.553  1.00  0.00     0.049 A 
ATOM     58  H   UNL A   1      43.896  28.314  28.131  1.00  0.00     0.167 HD
ATOM     59  C   UNL A   1      47.959  26.333  26.922  1.00  0.00     0.037 A 
ATOM     60  C   UNL A   1      41.152  28.668  28.401  1.00  0.00     0.037 A 
ATOM     61  C   UNL A   1      46.938  25.328  26.987  1.00  0.00     0.049 A 
ATOM     62  C   UNL A   1      41.499  27.259  28.082  1.00  0.00     0.074 A 
ATOM     63  C   UNL A   1      47.006  23.977  26.734  1.00  0.00     0.029 A 
ATOM     64  N   UNL A   1      45.597  25.635  27.235  1.00  0.00    -0.354 N 
ATOM     65  N   UNL A   1      42.682  26.763  27.783  1.00  0.00    -0.248 NA
ATOM     66  C   UNL A   1      40.413  26.296  28.140  1.00  0.00     0.031 C 
ATOM     67  C   UNL A   1      45.692  23.488  26.746  1.00  0.00     0.029 A 
ATOM     68  C   UNL A   1      44.815  24.514  27.092  1.00  0.00     0.049 A 
ATOM     69  H   UNL A   1      45.261  26.527  27.479  1.00  0.00     0.167 HD
ATOM     70  C   UNL A   1      42.497  25.408  27.629  1.00  0.00     0.074 A 
ATOM     71  C   UNL A   1      41.078  25.176  27.897  1.00  0.00     0.031 C 
ATOM     72  C   UNL A   1      43.388  24.434  27.307  1.00  0.00     0.037 A 
BRANCH  59  73
ATOM     73  C   UNL A   1      49.385  26.034  26.515  1.00  0.00     0.057 A 
ATOM     74  C   UNL A   1      49.833  26.184  25.197  1.00  0.00     0.134 A 
ATOM     75  C   UNL A   1      50.357  25.669  27.468  1.00  0.00     0.134 A 
ATOM     76  F   UNL A   1      48.983  26.553  24.228  1.00  0.00    -0.206 F 
ATOM     77  C   UNL A   1      51.176  25.997  24.844  1.00  0.00     0.040 A 
ATOM     78  C   UNL A   1      51.707  25.496  27.131  1.00  0.00     0.040 A 
ATOM     79  F   UNL A   1      50.022  25.531  28.760  1.00  0.00    -0.206 F 
ATOM     80  C   UNL A   1      52.120  25.663  25.813  1.00  0.00     0.006 A 
ENDBRANCH  59  73
BRANCH  60  81
ATOM     81  C   UNL A   1      39.803  29.219  28.672  1.00  0.00     0.057 A 
ATOM     82  C   UNL A   1      39.257  29.168  29.966  1.00  0.00     0.134 A 
ATOM     83  C   UNL A   1      38.940  29.568  27.629  1.00  0.00     0.134 A 
ATOM     84  F   UNL A   1      40.008  28.754  30.998  1.00  0.00    -0.206 F 
ATOM     85  C   UNL A   1      37.908  29.433  30.208  1.00  0.00     0.040 A 
ATOM     86  C   UNL A   1      37.592  29.859  27.860  1.00  0.00     0.040 A 
ATOM     87  F   UNL A   1      39.381  29.573  26.363  1.00  0.00    -0.206 F 
ATOM     88  C   UNL A   1      37.071  29.784  29.151  1.00  0.00     0.006 A 
ENDBRANCH  60  81
BRANCH  72  89
ATOM     89  C   UNL A   1      42.787  23.078  27.216  1.00  0.00     0.057 A 
ATOM     90  C   UNL A   1      42.525  22.356  28.383  1.00  0.00     0.134 A 
ATOM     91  C   UNL A   1      42.437  22.520  25.983  1.00  0.00     0.134 A 
ATOM     92  F   UNL A   1      42.857  22.852  29.585  1.00  0.00    -0.206 F 
ATOM     93  C   UNL A   1      41.910  21.114  28.326  1.00  0.00     0.040 A 
ATOM     94  C   UNL A   1      41.777  21.301  25.918  1.00  0.00     0.040 A 
ATOM     95  F   UNL A   1      42.653  23.195  24.843  1.00  0.00    -0.206 F 
ATOM     96  C   UNL A   1      41.517  20.594  27.092  1.00  0.00     0.006 A 
ENDBRANCH  72  89
ENDBRANCH  46  47
ENDBRANCH  39  41
ENDBRANCH  38  39
ENDBRANCH  37  38
ENDBRANCH   1  37
TORSDOF 17
ENDMDL
MODEL 3
REMARK VINA RESULT:     -11.1      4.284      6.678
REMARK SMILES CC[C@@H](C)[C@H](NC(=O)[C@H](C)N1C(=O)N2CCC3=c4cc(OC)ccc4=N[C@@H]3[C@@]2(C)C1=O)C(=O)OCCOC(=O)c1ccc(-c2c3nc(c(-c4c(F)cccc4F)c4ccc([nH]4)c(-c4c(F)cccc4F)c4nc(c(-c5c(F)cccc5F)c5ccc2[nH]5)C=C4)C=C3)cc1
REMARK SMILES IDX 35 1 34 2 32 3 33 4 5 5 3 6 4 7 2 8 1 9 6 10 7 11 8 13 9 14
REMARK SMILES IDX 10 15 11 16 12 17 30 18 14 19 13 20 28 21 31 22 15 23 27 24
REMARK SMILES IDX 29 25 16 26 17 27 26 28 18 29 25 30 19 31 24 32 20 33 23 34
REMARK SMILES IDX 21 35 22 36 36 37 37 38 38 39 39 40 40 41 41 42 93 43 42 44
REMARK SMILES IDX 92 45 43 46 44 47 45 48 86 49 46 50 91 51 85 52 87 53 47 54
REMARK SMILES IDX 90 55 84 56 83 57 48 59 74 60 57 61 73 62 58 63 61 64 72 65
REMARK SMILES IDX 88 66 59 67 60 68 71 70 89 71 62 72 49 73 50 74 55 75 51 76
REMARK SMILES IDX 52 77 54 78 56 79 53 80 75 81 76 82 81 83 77 84 78 85 80 86
REMARK SMILES IDX 82 87 79 88 63 89 64 90 69 91 65 92 66 93 68 94 70 95 67 96
REMARK H PARENT 6 12 87 58 61 69
REMARK Flexibility Score: inf
ROOT
ATOM      1  C   UNL A   1      47.326  20.204  37.651  1.00  0.00     0.274 C 
ENDROOT
BRANCH   1   2
ATOM      2  O   UNL A   1      46.486  20.094  39.006  1.00  0.00    -0.461 OA
BRANCH   2   3
ATOM      3  C   UNL A   1      46.350  18.924  39.768  1.00  0.00     0.329 C 
ATOM      4  O   UNL A   1      46.143  17.842  39.214  1.00  0.00    -0.250 OA
BRANCH   3   5
ATOM      5  C   UNL A   1      46.761  18.983  41.404  1.00  0.00     0.195 C 
BRANCH   5   6
ATOM      6  C   UNL A   1      48.038  18.085  41.680  1.00  0.00     0.019 C 
ATOM      7  C   UNL A   1      48.650  18.517  43.012  1.00  0.00     0.010 C 
BRANCH   6   8
ATOM      8  C   UNL A   1      49.125  18.068  40.555  1.00  0.00     0.002 C 
ATOM      9  C   UNL A   1      50.473  18.671  40.951  1.00  0.00     0.004 C 
ENDBRANCH   6   8
ENDBRANCH   5   6
BRANCH   5  10
ATOM     10  N   UNL A   1      45.811  18.805  42.516  1.00  0.00    -0.341 N 
ATOM     11  C   UNL A   1      44.822  17.860  42.633  1.00  0.00     0.243 C 
ATOM     12  H   UNL A   1      45.895  19.440  43.263  1.00  0.00     0.164 HD
ATOM     13  O   UNL A   1      43.797  18.300  43.194  1.00  0.00    -0.273 OA
BRANCH  11  14
ATOM     14  C   UNL A   1      44.890  16.295  42.414  1.00  0.00     0.181 C 
ATOM     15  C   UNL A   1      44.100  16.194  40.975  1.00  0.00     0.042 C 
BRANCH  14  16
ATOM     16  N   UNL A   1      44.621  15.026  43.292  1.00  0.00    -0.250 N 
ATOM     17  C   UNL A   1      45.636  13.806  44.269  1.00  0.00     0.328 C 
ATOM     18  C   UNL A   1      42.823  15.057  43.632  1.00  0.00     0.259 C 
ATOM     19  N   UNL A   1      44.484  12.771  45.321  1.00  0.00    -0.307 N 
ATOM     20  O   UNL A   1      46.821  13.546  44.098  1.00  0.00    -0.248 OA
ATOM     21  C   UNL A   1      42.872  13.648  45.285  1.00  0.00     0.147 C 
ATOM     22  O   UNL A   1      42.007  15.859  43.205  1.00  0.00    -0.271 OA
ATOM     23  C   UNL A   1      44.412  11.800  46.872  1.00  0.00     0.127 C 
ATOM     24  C   UNL A   1      44.052  14.117  46.859  1.00  0.00     0.168 C 
ATOM     25  C   UNL A   1      41.221  13.843  44.189  1.00  0.00     0.048 C 
ATOM     26  C   UNL A   1      43.554  12.750  48.358  1.00  0.00     0.055 C 
ATOM     27  C   UNL A   1      43.658  14.585  48.184  1.00  0.00    -0.032 C 
ATOM     28  N   UNL A   1      45.739  13.998  46.625  1.00  0.00    -0.274 NA
ATOM     29  C   UNL A   1      44.480  15.747  48.057  1.00  0.00     0.005 A 
ATOM     30  C   UNL A   1      46.057  15.032  47.288  1.00  0.00     0.066 A 
ATOM     31  C   UNL A   1      44.091  17.470  47.346  1.00  0.00     0.056 A 
ATOM     32  C   UNL A   1      47.162  16.049  46.136  1.00  0.00     0.032 A 
ATOM     33  C   UNL A   1      45.085  18.333  46.368  1.00  0.00     0.119 A 
ATOM     34  C   UNL A   1      46.721  17.609  45.751  1.00  0.00     0.048 A 
BRANCH  33  35
ATOM     35  O   UNL A   1      44.805  19.583  45.848  1.00  0.00    -0.497 OA
ATOM     36  C   UNL A   1      44.996  20.753  46.664  1.00  0.00     0.278 C 
ENDBRANCH  33  35
ENDBRANCH  14  16
ENDBRANCH  11  14
ENDBRANCH   5  10
ENDBRANCH   3   5
ENDBRANCH   2   3
ENDBRANCH   1   2
BRANCH   1  37
ATOM     37  C   UNL A   1      48.566  21.518  37.347  1.00  0.00     0.275 C 
BRANCH  37  38
ATOM     38  O   UNL A   1      48.276  22.892  36.168  1.00  0.00    -0.458 OA
BRANCH  38  39
ATOM     39  C   UNL A   1      48.020  24.777  36.138  1.00  0.00     0.338 C 
ATOM     40  O   UNL A   1      49.012  25.525  36.142  1.00  0.00    -0.246 OA
BRANCH  39  41
ATOM     41  C   UNL A   1      46.754  25.990  35.904  1.00  0.00     0.060 A 
ATOM     42  C   UNL A   1      45.077  25.295  36.390  1.00  0.00     0.016 A 
ATOM     43  C   UNL A   1      46.560  27.894  35.047  1.00  0.00     0.016 A 
ATOM     44  C   UNL A   1      43.630  25.843  35.399  1.00  0.00     0.010 A 
ATOM     45  C   UNL A   1      45.049  28.403  34.239  1.00  0.00     0.010 A 
ATOM     46  C   UNL A   1      43.680  27.272  34.255  1.00  0.00    -0.014 A 
BRANCH  46  47
ATOM     47  C   UNL A   1      42.596  27.822  33.428  1.00  0.00     0.031 A 
ATOM     48  C   UNL A   1      42.630  27.682  31.896  1.00  0.00     0.074 A 
ATOM     49  C   UNL A   1      41.780  28.656  34.094  1.00  0.00     0.049 A 
ATOM     50  N   UNL A   1      41.663  27.914  31.048  1.00  0.00    -0.248 NA
ATOM     51  C   UNL A   1      43.831  27.151  31.200  1.00  0.00     0.031 C 
ATOM     52  C   UNL A   1      41.836  28.950  35.534  1.00  0.00     0.029 A 
ATOM     53  N   UNL A   1      40.820  29.500  33.644  1.00  0.00    -0.354 N 
ATOM     54  C   UNL A   1      42.096  27.423  29.810  1.00  0.00     0.074 A 
ATOM     55  C   UNL A   1      43.416  26.902  29.972  1.00  0.00     0.031 C 
ATOM     56  C   UNL A   1      41.025  29.961  35.832  1.00  0.00     0.029 A 
ATOM     57  C   UNL A   1      40.362  30.353  34.617  1.00  0.00     0.049 A 
ATOM     58  H   UNL A   1      40.487  29.501  32.718  1.00  0.00     0.167 HD
ATOM     59  C   UNL A   1      41.454  27.457  28.621  1.00  0.00     0.037 A 
ATOM     60  C   UNL A   1      39.493  31.364  34.526  1.00  0.00     0.037 A 
ATOM     61  C   UNL A   1      40.326  28.329  28.466  1.00  0.00     0.049 A 
ATOM     62  C   UNL A   1      38.857  31.496  33.191  1.00  0.00     0.074 A 
ATOM     63  C   UNL A   1      39.580  28.623  27.347  1.00  0.00     0.029 A 
ATOM     64  N   UNL A   1      39.861  29.147  29.500  1.00  0.00    -0.354 N 
ATOM     65  N   UNL A   1      39.161  30.856  32.081  1.00  0.00    -0.248 NA
ATOM     66  C   UNL A   1      37.736  32.415  33.096  1.00  0.00     0.031 C 
ATOM     67  C   UNL A   1      38.724  29.681  27.689  1.00  0.00     0.029 A 
ATOM     68  C   UNL A   1      38.873  29.985  29.040  1.00  0.00     0.049 A 
ATOM     69  H   UNL A   1      40.193  29.124  30.426  1.00  0.00     0.167 HD
ATOM     70  C   UNL A   1      38.253  31.280  31.137  1.00  0.00     0.074 A 
ATOM     71  C   UNL A   1      37.376  32.218  31.836  1.00  0.00     0.031 C 
ATOM     72  C   UNL A   1      38.129  30.942  29.827  1.00  0.00     0.037 A 
BRANCH  59  73
ATOM     73  C   UNL A   1      42.055  26.675  27.474  1.00  0.00     0.057 A 
ATOM     74  C   UNL A   1      41.785  25.315  27.276  1.00  0.00     0.134 A 
ATOM     75  C   UNL A   1      42.850  27.303  26.496  1.00  0.00     0.134 A 
ATOM     76  F   UNL A   1      41.016  24.640  28.143  1.00  0.00    -0.206 F 
ATOM     77  C   UNL A   1      42.267  24.618  26.159  1.00  0.00     0.040 A 
ATOM     78  C   UNL A   1      43.323  26.623  25.366  1.00  0.00     0.040 A 
ATOM     79  F   UNL A   1      43.134  28.612  26.591  1.00  0.00    -0.206 F 
ATOM     80  C   UNL A   1      43.029  25.274  25.194  1.00  0.00     0.006 A 
ENDBRANCH  59  73
BRANCH  60  81
ATOM     81  C   UNL A   1      39.179  32.139  35.750  1.00  0.00     0.057 A 
ATOM     82  C   UNL A   1      38.257  31.648  36.690  1.00  0.00     0.134 A 
ATOM     83  C   UNL A   1      39.580  33.471  35.886  1.00  0.00     0.134 A 
ATOM     84  F   UNL A   1      37.763  30.406  36.564  1.00  0.00    -0.206 F 
ATOM     85  C   UNL A   1      37.743  32.453  37.709  1.00  0.00     0.040 A 
ATOM     86  C   UNL A   1      39.091  34.282  36.915  1.00  0.00     0.040 A 
ATOM     87  F   UNL A   1      40.407  34.020  34.985  1.00  0.00    -0.206 F 
ATOM     88  C   UNL A   1      38.163  33.776  37.825  1.00  0.00     0.006 A 
ENDBRANCH  60  81
BRANCH  72  89
ATOM     89  C   UNL A   1      37.020  31.642  29.129  1.00  0.00     0.057 A 
ATOM     90  C   UNL A   1      35.806  30.982  28.922  1.00  0.00     0.134 A 
ATOM     91  C   UNL A   1      37.149  32.970  28.709  1.00  0.00     0.134 A 
ATOM     92  F   UNL A   1      35.646  29.705  29.302  1.00  0.00    -0.206 F 
ATOM     93  C   UNL A   1      34.736  31.636  28.327  1.00  0.00     0.040 A 
ATOM     94  C   UNL A   1      36.070  33.646  28.157  1.00  0.00     0.040 A 
ATOM     95  F   UNL A   1      38.293  33.641  28.911  1.00  0.00    -0.206 F 
ATOM     96  C   UNL A   1      34.862  32.977  27.962  1.00  0.00     0.006 A 
ENDBRANCH  72  89
ENDBRANCH  46  47
ENDBRANCH  39  41
ENDBRANCH  38  39
ENDBRANCH  37  38
ENDBRANCH   1  37
TORSDOF 17
ENDMDL
