MODEL 1
REMARK VINA RESULT:     -11.7      0.000      0.000
REMARK SMILES O=C(OCCOC(=O)[C@H]1Cc2[nH]cnc2CN1S(=O)(=O)c1cccs1)c1ccc(-c2c3nc(c(-c4c(F)cccc4F)c4ccc([nH]4)c(-c4c(F)cccc4F)c4nc(c(-c5c(F)cccc5F)c5ccc2[nH]5)C=C4)C=C3)cc1
REMARK SMILES IDX 4 1 3 2 2 3 1 4 26 5 27 6 79 7 28 8 78 9 29 10 30 11 31 12
REMARK SMILES IDX 72 13 32 14 77 15 71 16 73 17 33 18 76 19 70 20 69 21 34 23
REMARK SMILES IDX 60 24 43 25 59 26 44 27 47 28 58 29 74 30 45 31 46 32 57 34
REMARK SMILES IDX 75 35 48 36 35 37 36 38 41 39 37 40 38 41 40 42 42 43 39 44
REMARK SMILES IDX 61 45 62 46 67 47 63 48 64 49 66 50 68 51 65 52 49 53 50 54
REMARK SMILES IDX 55 55 51 56 52 57 54 58 56 59 53 60 5 61 6 62 7 63 8 64 9 65
REMARK SMILES IDX 10 66 17 67 11 68 16 69 12 70 15 71 13 72 14 74 18 75 19 76
REMARK SMILES IDX 20 77 21 78 22 79 25 80 23 81 24 82
REMARK H PARENT 73 22 47 33 12 73
REMARK Flexibility Score: inf
ROOT
ATOM      1  C   UNL A   1      38.495  21.617  25.734  1.00  0.00     0.275 C 
ENDROOT
BRANCH   1   2
ATOM      2  O   UNL A   1      38.899  22.790  26.437  1.00  0.00    -0.458 OA
BRANCH   2   3
ATOM      3  C   UNL A   1      40.035  22.601  27.096  1.00  0.00     0.338 C 
ATOM      4  O   UNL A   1      40.344  21.594  27.751  1.00  0.00    -0.246 OA
BRANCH   3   5
ATOM      5  C   UNL A   1      40.762  23.852  27.210  1.00  0.00     0.060 A 
ATOM      6  C   UNL A   1      41.735  24.040  28.188  1.00  0.00     0.016 A 
ATOM      7  C   UNL A   1      40.114  24.923  26.631  1.00  0.00     0.016 A 
ATOM      8  C   UNL A   1      41.886  25.314  28.739  1.00  0.00     0.010 A 
ATOM      9  C   UNL A   1      40.144  26.117  27.286  1.00  0.00     0.010 A 
ATOM     10  C   UNL A   1      40.990  26.318  28.367  1.00  0.00    -0.014 A 
BRANCH  10  11
ATOM     11  C   UNL A   1      40.952  27.665  28.908  1.00  0.00     0.031 A 
ATOM     12  C   UNL A   1      42.042  28.520  28.362  1.00  0.00     0.074 A 
ATOM     13  C   UNL A   1      39.908  28.277  29.500  1.00  0.00     0.049 A 
ATOM     14  N   UNL A   1      43.264  28.561  28.780  1.00  0.00    -0.248 NA
ATOM     15  C   UNL A   1      41.836  29.183  27.058  1.00  0.00     0.031 C 
ATOM     16  C   UNL A   1      38.532  27.845  29.722  1.00  0.00     0.029 A 
ATOM     17  N   UNL A   1      39.920  29.535  30.018  1.00  0.00    -0.354 N 
ATOM     18  C   UNL A   1      43.894  29.450  27.921  1.00  0.00     0.074 A 
ATOM     19  C   UNL A   1      43.096  29.479  26.729  1.00  0.00     0.031 C 
ATOM     20  C   UNL A   1      37.804  28.884  30.206  1.00  0.00     0.029 A 
ATOM     21  C   UNL A   1      38.696  30.002  30.468  1.00  0.00     0.049 A 
ATOM     22  H   UNL A   1      40.741  30.075  30.070  1.00  0.00     0.167 HD
ATOM     23  C   UNL A   1      44.793  30.368  28.370  1.00  0.00     0.037 A 
ATOM     24  C   UNL A   1      38.473  31.228  31.003  1.00  0.00     0.037 A 
ATOM     25  C   UNL A   1      45.118  30.138  29.759  1.00  0.00     0.049 A 
ATOM     26  C   UNL A   1      39.790  31.765  31.438  1.00  0.00     0.074 A 
ATOM     27  C   UNL A   1      45.607  29.067  30.483  1.00  0.00     0.029 A 
ATOM     28  N   UNL A   1      44.516  30.962  30.683  1.00  0.00    -0.354 N 
ATOM     29  N   UNL A   1      40.503  31.258  32.406  1.00  0.00    -0.248 NA
ATOM     30  C   UNL A   1      40.526  32.602  30.501  1.00  0.00     0.031 C 
ATOM     31  C   UNL A   1      44.845  29.061  31.692  1.00  0.00     0.029 A 
ATOM     32  C   UNL A   1      43.991  30.165  31.670  1.00  0.00     0.049 A 
ATOM     33  H   UNL A   1      44.469  31.944  30.644  1.00  0.00     0.167 HD
ATOM     34  C   UNL A   1      41.817  31.351  31.972  1.00  0.00     0.074 A 
ATOM     35  C   UNL A   1      41.776  32.279  30.842  1.00  0.00     0.031 C 
ATOM     36  C   UNL A   1      42.761  30.451  32.382  1.00  0.00     0.037 A 
BRANCH  23  37
ATOM     37  C   UNL A   1      45.077  31.684  27.690  1.00  0.00     0.057 A 
ATOM     38  C   UNL A   1      46.328  31.871  27.083  1.00  0.00     0.134 A 
ATOM     39  C   UNL A   1      44.283  32.846  27.792  1.00  0.00     0.134 A 
ATOM     40  F   UNL A   1      47.187  30.848  26.953  1.00  0.00    -0.206 F 
ATOM     41  C   UNL A   1      46.771  33.125  26.648  1.00  0.00     0.040 A 
ATOM     42  C   UNL A   1      44.687  34.089  27.302  1.00  0.00     0.040 A 
ATOM     43  F   UNL A   1      43.123  32.875  28.458  1.00  0.00    -0.206 F 
ATOM     44  C   UNL A   1      45.948  34.240  26.754  1.00  0.00     0.006 A 
ENDBRANCH  23  37
BRANCH  24  45
ATOM     45  C   UNL A   1      37.267  32.082  30.958  1.00  0.00     0.057 A 
ATOM     46  C   UNL A   1      36.917  32.787  29.797  1.00  0.00     0.134 A 
ATOM     47  C   UNL A   1      36.275  31.988  31.948  1.00  0.00     0.134 A 
ATOM     48  F   UNL A   1      37.783  32.896  28.780  1.00  0.00    -0.206 F 
ATOM     49  C   UNL A   1      35.642  33.341  29.616  1.00  0.00     0.040 A 
ATOM     50  C   UNL A   1      34.998  32.539  31.781  1.00  0.00     0.040 A 
ATOM     51  F   UNL A   1      36.482  31.278  33.065  1.00  0.00    -0.206 F 
ATOM     52  C   UNL A   1      34.673  33.204  30.605  1.00  0.00     0.006 A 
ENDBRANCH  24  45
BRANCH  36  53
ATOM     53  C   UNL A   1      42.396  29.516  33.510  1.00  0.00     0.057 A 
ATOM     54  C   UNL A   1      41.886  28.221  33.330  1.00  0.00     0.134 A 
ATOM     55  C   UNL A   1      42.711  29.883  34.822  1.00  0.00     0.134 A 
ATOM     56  F   UNL A   1      41.641  27.735  32.110  1.00  0.00    -0.206 F 
ATOM     57  C   UNL A   1      41.668  27.348  34.400  1.00  0.00     0.040 A 
ATOM     58  C   UNL A   1      42.529  29.009  35.899  1.00  0.00     0.040 A 
ATOM     59  F   UNL A   1      43.250  31.085  35.075  1.00  0.00    -0.206 F 
ATOM     60  C   UNL A   1      41.998  27.739  35.691  1.00  0.00     0.006 A 
ENDBRANCH  36  53
ENDBRANCH  10  11
ENDBRANCH   3   5
ENDBRANCH   2   3
ENDBRANCH   1   2
BRANCH   1  61
ATOM     61  C   UNL A   1      37.016  21.588  25.244  1.00  0.00     0.274 C 
BRANCH  61  62
ATOM     62  O   UNL A   1      36.262  22.828  25.330  1.00  0.00    -0.461 OA
BRANCH  62  63
ATOM     63  C   UNL A   1      35.041  22.843  25.979  1.00  0.00     0.325 C 
ATOM     64  O   UNL A   1      34.799  23.505  26.981  1.00  0.00    -0.250 OA
BRANCH  63  65
ATOM     65  C   UNL A   1      34.103  21.793  25.385  1.00  0.00     0.189 C 
ATOM     66  C   UNL A   1      33.573  20.878  26.535  1.00  0.00     0.088 C 
ATOM     67  N   UNL A   1      33.081  22.068  24.276  1.00  0.00    -0.176 NA
ATOM     68  C   UNL A   1      33.015  19.655  25.907  1.00  0.00     0.041 A 
ATOM     69  C   UNL A   1      32.384  20.802  23.747  1.00  0.00     0.161 C 
ATOM     70  N   UNL A   1      33.008  18.358  26.336  1.00  0.00    -0.348 N 
ATOM     71  C   UNL A   1      32.487  19.628  24.645  1.00  0.00     0.077 A 
ATOM     72  C   UNL A   1      32.471  17.609  25.319  1.00  0.00     0.197 A 
ATOM     73  H   UNL A   1      33.328  18.025  27.206  1.00  0.00     0.167 HD
ATOM     74  N   UNL A   1      32.152  18.352  24.281  1.00  0.00    -0.240 NA
BRANCH  67  75
ATOM     75  S   UNL A   1      32.015  23.398  24.184  1.00  0.00     0.253 S 
ATOM     76  O   UNL A   1      31.149  23.096  23.069  1.00  0.00    -0.206 OA
ATOM     77  O   UNL A   1      31.451  23.560  25.519  1.00  0.00    -0.206 OA
BRANCH  75  78
ATOM     78  C   UNL A   1      32.620  25.010  23.659  1.00  0.00     0.135 A 
ATOM     79  C   UNL A   1      33.361  26.002  24.289  1.00  0.00     0.033 A 
ATOM     80  S   UNL A   1      32.627  25.311  21.961  1.00  0.00    -0.131 S 
ATOM     81  C   UNL A   1      33.731  27.089  23.442  1.00  0.00     0.013 A 
ATOM     82  C   UNL A   1      33.432  26.812  22.131  1.00  0.00     0.066 A 
ENDBRANCH  75  78
ENDBRANCH  67  75
ENDBRANCH  63  65
ENDBRANCH  62  63
ENDBRANCH  61  62
ENDBRANCH   1  61
TORSDOF 13
ENDMDL
MODEL 2
REMARK VINA RESULT:     -11.7      3.204      8.060
REMARK SMILES O=C(OCCOC(=O)[C@H]1Cc2[nH]cnc2CN1S(=O)(=O)c1cccs1)c1ccc(-c2c3nc(c(-c4c(F)cccc4F)c4ccc([nH]4)c(-c4c(F)cccc4F)c4nc(c(-c5c(F)cccc5F)c5ccc2[nH]5)C=C4)C=C3)cc1
REMARK SMILES IDX 4 1 3 2 2 3 1 4 26 5 27 6 79 7 28 8 78 9 29 10 30 11 31 12
REMARK SMILES IDX 72 13 32 14 77 15 71 16 73 17 33 18 76 19 70 20 69 21 34 23
REMARK SMILES IDX 60 24 43 25 59 26 44 27 47 28 58 29 74 30 45 31 46 32 57 34
REMARK SMILES IDX 75 35 48 36 35 37 36 38 41 39 37 40 38 41 40 42 42 43 39 44
REMARK SMILES IDX 61 45 62 46 67 47 63 48 64 49 66 50 68 51 65 52 49 53 50 54
REMARK SMILES IDX 55 55 51 56 52 57 54 58 56 59 53 60 5 61 6 62 7 63 8 64 9 65
REMARK SMILES IDX 10 66 17 67 11 68 16 69 12 70 15 71 13 72 14 74 18 75 19 76
REMARK SMILES IDX 20 77 21 78 22 79 25 80 23 81 24 82
REMARK H PARENT 73 22 47 33 12 73
REMARK Flexibility Score: inf
ROOT
ATOM      1  C   UNL A   1      33.311  31.517  27.537  1.00  0.00     0.275 C 
ENDROOT
BRANCH   1   2
ATOM      2  O   UNL A   1      34.663  31.073  27.617  1.00  0.00    -0.458 OA
BRANCH   2   3
ATOM      3  C   UNL A   1      35.471  32.031  28.051  1.00  0.00     0.338 C 
ATOM      4  O   UNL A   1      35.555  33.182  27.596  1.00  0.00    -0.246 OA
BRANCH   3   5
ATOM      5  C   UNL A   1      36.473  31.476  28.943  1.00  0.00     0.060 A 
ATOM      6  C   UNL A   1      37.638  32.174  29.250  1.00  0.00     0.016 A 
ATOM      7  C   UNL A   1      36.410  30.104  29.059  1.00  0.00     0.016 A 
ATOM      8  C   UNL A   1      38.812  31.448  29.460  1.00  0.00     0.010 A 
ATOM      9  C   UNL A   1      37.583  29.412  29.092  1.00  0.00     0.010 A 
ATOM     10  C   UNL A   1      38.796  30.068  29.250  1.00  0.00    -0.014 A 
BRANCH  10  11
ATOM     11  C   UNL A   1      39.943  29.182  29.336  1.00  0.00     0.031 A 
ATOM     12  C   UNL A   1      40.281  28.839  30.745  1.00  0.00     0.074 A 
ATOM     13  C   UNL A   1      40.448  28.405  28.360  1.00  0.00     0.049 A 
ATOM     14  N   UNL A   1      40.979  29.559  31.561  1.00  0.00    -0.248 NA
ATOM     15  C   UNL A   1      39.550  27.736  31.401  1.00  0.00     0.031 C 
ATOM     16  C   UNL A   1      40.002  28.154  26.993  1.00  0.00     0.029 A 
ATOM     17  N   UNL A   1      41.544  27.606  28.474  1.00  0.00    -0.354 N 
ATOM     18  C   UNL A   1      40.959  28.849  32.753  1.00  0.00     0.074 A 
ATOM     19  C   UNL A   1      39.805  27.998  32.685  1.00  0.00     0.031 C 
ATOM     20  C   UNL A   1      40.743  27.153  26.452  1.00  0.00     0.029 A 
ATOM     21  C   UNL A   1      41.808  26.801  27.378  1.00  0.00     0.049 A 
ATOM     22  H   UNL A   1      42.109  27.599  29.280  1.00  0.00     0.167 HD
ATOM     23  C   UNL A   1      42.065  28.728  33.536  1.00  0.00     0.037 A 
ATOM     24  C   UNL A   1      42.833  25.919  27.280  1.00  0.00     0.037 A 
ATOM     25  C   UNL A   1      43.132  29.578  33.061  1.00  0.00     0.049 A 
ATOM     26  C   UNL A   1      43.839  26.299  28.307  1.00  0.00     0.074 A 
ATOM     27  C   UNL A   1      43.263  30.930  32.806  1.00  0.00     0.029 A 
ATOM     28  N   UNL A   1      44.140  28.971  32.347  1.00  0.00    -0.354 N 
ATOM     29  N   UNL A   1      44.532  27.404  28.278  1.00  0.00    -0.248 NA
ATOM     30  C   UNL A   1      43.759  25.653  29.609  1.00  0.00     0.031 C 
ATOM     31  C   UNL A   1      44.002  31.006  31.585  1.00  0.00     0.029 A 
ATOM     32  C   UNL A   1      44.342  29.706  31.204  1.00  0.00     0.049 A 
ATOM     33  H   UNL A   1      44.628  28.156  32.606  1.00  0.00     0.167 HD
ATOM     34  C   UNL A   1      44.610  27.815  29.601  1.00  0.00     0.074 A 
ATOM     35  C   UNL A   1      44.207  26.646  30.382  1.00  0.00     0.031 C 
ATOM     36  C   UNL A   1      44.713  29.139  29.924  1.00  0.00     0.037 A 
BRANCH  23  37
ATOM     37  C   UNL A   1      42.320  27.577  34.477  1.00  0.00     0.057 A 
ATOM     38  C   UNL A   1      42.008  27.737  35.835  1.00  0.00     0.134 A 
ATOM     39  C   UNL A   1      43.056  26.413  34.166  1.00  0.00     0.134 A 
ATOM     40  F   UNL A   1      41.336  28.817  36.262  1.00  0.00    -0.206 F 
ATOM     41  C   UNL A   1      42.430  26.829  36.814  1.00  0.00     0.040 A 
ATOM     42  C   UNL A   1      43.425  25.468  35.123  1.00  0.00     0.040 A 
ATOM     43  F   UNL A   1      43.549  26.172  32.946  1.00  0.00    -0.206 F 
ATOM     44  C   UNL A   1      43.139  25.688  36.459  1.00  0.00     0.006 A 
ENDBRANCH  23  37
BRANCH  24  45
ATOM     45  C   UNL A   1      42.920  24.636  26.550  1.00  0.00     0.057 A 
ATOM     46  C   UNL A   1      43.785  24.478  25.457  1.00  0.00     0.134 A 
ATOM     47  C   UNL A   1      42.384  23.456  27.090  1.00  0.00     0.134 A 
ATOM     48  F   UNL A   1      44.378  25.543  24.898  1.00  0.00    -0.206 F 
ATOM     49  C   UNL A   1      44.124  23.216  24.950  1.00  0.00     0.040 A 
ATOM     50  C   UNL A   1      42.711  22.190  26.592  1.00  0.00     0.040 A 
ATOM     51  F   UNL A   1      41.601  23.491  28.178  1.00  0.00    -0.206 F 
ATOM     52  C   UNL A   1      43.597  22.065  25.528  1.00  0.00     0.006 A 
ENDBRANCH  24  45
BRANCH  36  53
ATOM     53  C   UNL A   1      44.997  30.113  28.806  1.00  0.00     0.057 A 
ATOM     54  C   UNL A   1      44.008  30.817  28.101  1.00  0.00     0.134 A 
ATOM     55  C   UNL A   1      46.323  30.465  28.534  1.00  0.00     0.134 A 
ATOM     56  F   UNL A   1      42.710  30.629  28.351  1.00  0.00    -0.206 F 
ATOM     57  C   UNL A   1      44.321  31.794  27.150  1.00  0.00     0.040 A 
ATOM     58  C   UNL A   1      46.649  31.462  27.610  1.00  0.00     0.040 A 
ATOM     59  F   UNL A   1      47.327  29.876  29.201  1.00  0.00    -0.206 F 
ATOM     60  C   UNL A   1      45.647  32.125  26.908  1.00  0.00     0.006 A 
ENDBRANCH  36  53
ENDBRANCH  10  11
ENDBRANCH   3   5
ENDBRANCH   2   3
ENDBRANCH   1   2
BRANCH   1  61
ATOM     61  C   UNL A   1      32.295  30.512  26.915  1.00  0.00     0.274 C 
BRANCH  61  62
ATOM     62  O   UNL A   1      32.494  29.102  27.202  1.00  0.00    -0.461 OA
BRANCH  62  63
ATOM     63  C   UNL A   1      32.853  28.239  26.182  1.00  0.00     0.325 C 
ATOM     64  O   UNL A   1      33.953  27.712  26.077  1.00  0.00    -0.250 OA
BRANCH  63  65
ATOM     65  C   UNL A   1      31.756  28.180  25.119  1.00  0.00     0.189 C 
ATOM     66  C   UNL A   1      32.340  28.683  23.759  1.00  0.00     0.088 C 
ATOM     67  N   UNL A   1      30.736  27.044  24.984  1.00  0.00    -0.176 NA
ATOM     68  C   UNL A   1      31.193  28.999  22.873  1.00  0.00     0.041 A 
ATOM     69  C   UNL A   1      29.641  27.314  23.937  1.00  0.00     0.161 C 
ATOM     70  N   UNL A   1      31.039  29.974  21.930  1.00  0.00    -0.348 N 
ATOM     71  C   UNL A   1      29.976  28.381  22.966  1.00  0.00     0.077 A 
ATOM     72  C   UNL A   1      29.742  29.897  21.490  1.00  0.00     0.197 A 
ATOM     73  H   UNL A   1      31.727  30.610  21.625  1.00  0.00     0.167 HD
ATOM     74  N   UNL A   1      29.074  28.945  22.105  1.00  0.00    -0.240 NA
BRANCH  67  75
ATOM     75  S   UNL A   1      31.063  25.370  25.062  1.00  0.00     0.253 S 
ATOM     76  O   UNL A   1      30.853  25.021  26.448  1.00  0.00    -0.206 OA
ATOM     77  O   UNL A   1      30.250  24.748  24.025  1.00  0.00    -0.206 OA
BRANCH  75  78
ATOM     78  C   UNL A   1      32.747  24.765  24.858  1.00  0.00     0.135 A 
ATOM     79  C   UNL A   1      33.732  24.990  23.904  1.00  0.00     0.033 A 
ATOM     80  S   UNL A   1      33.475  24.042  26.243  1.00  0.00    -0.131 S 
ATOM     81  C   UNL A   1      34.991  24.389  24.205  1.00  0.00     0.013 A 
ATOM     82  C   UNL A   1      34.999  23.881  25.480  1.00  0.00     0.066 A 
ENDBRANCH  75  78
ENDBRANCH  67  75
ENDBRANCH  63  65
ENDBRANCH  62  63
ENDBRANCH  61  62
ENDBRANCH   1  61
TORSDOF 13
ENDMDL
MODEL 3
REMARK VINA RESULT:     -11.7      1.342      2.935
REMARK SMILES O=C(OCCOC(=O)[C@H]1Cc2[nH]cnc2CN1S(=O)(=O)c1cccs1)c1ccc(-c2c3nc(c(-c4c(F)cccc4F)c4ccc([nH]4)c(-c4c(F)cccc4F)c4nc(c(-c5c(F)cccc5F)c5ccc2[nH]5)C=C4)C=C3)cc1
REMARK SMILES IDX 4 1 3 2 2 3 1 4 26 5 27 6 79 7 28 8 78 9 29 10 30 11 31 12
REMARK SMILES IDX 72 13 32 14 77 15 71 16 73 17 33 18 76 19 70 20 69 21 34 23
REMARK SMILES IDX 60 24 43 25 59 26 44 27 47 28 58 29 74 30 45 31 46 32 57 34
REMARK SMILES IDX 75 35 48 36 35 37 36 38 41 39 37 40 38 41 40 42 42 43 39 44
REMARK SMILES IDX 61 45 62 46 67 47 63 48 64 49 66 50 68 51 65 52 49 53 50 54
REMARK SMILES IDX 55 55 51 56 52 57 54 58 56 59 53 60 5 61 6 62 7 63 8 64 9 65
REMARK SMILES IDX 10 66 17 67 11 68 16 69 12 70 15 71 13 72 14 74 18 75 19 76
REMARK SMILES IDX 20 77 21 78 22 79 25 80 23 81 24 82
REMARK H PARENT 73 22 47 33 12 73
REMARK Flexibility Score: inf
ROOT
ATOM      1  C   UNL A   1      38.348  21.733  25.777  1.00  0.00     0.275 C 
ENDROOT
BRANCH   1   2
ATOM      2  O   UNL A   1      38.904  22.931  26.313  1.00  0.00    -0.458 OA
BRANCH   2   3
ATOM      3  C   UNL A   1      40.014  22.693  27.000  1.00  0.00     0.338 C 
ATOM      4  O   UNL A   1      40.280  21.658  27.631  1.00  0.00    -0.246 OA
BRANCH   3   5
ATOM      5  C   UNL A   1      40.767  23.922  27.177  1.00  0.00     0.060 A 
ATOM      6  C   UNL A   1      41.670  24.075  28.226  1.00  0.00     0.016 A 
ATOM      7  C   UNL A   1      40.195  25.014  26.561  1.00  0.00     0.016 A 
ATOM      8  C   UNL A   1      41.817  25.341  28.796  1.00  0.00     0.010 A 
ATOM      9  C   UNL A   1      40.210  26.203  27.226  1.00  0.00     0.010 A 
ATOM     10  C   UNL A   1      40.981  26.373  28.367  1.00  0.00    -0.014 A 
BRANCH  10  11
ATOM     11  C   UNL A   1      40.941  27.718  28.914  1.00  0.00     0.031 A 
ATOM     12  C   UNL A   1      42.032  28.575  28.374  1.00  0.00     0.074 A 
ATOM     13  C   UNL A   1      39.897  28.326  29.508  1.00  0.00     0.049 A 
ATOM     14  N   UNL A   1      43.254  28.614  28.794  1.00  0.00    -0.248 NA
ATOM     15  C   UNL A   1      41.829  29.244  27.073  1.00  0.00     0.031 C 
ATOM     16  C   UNL A   1      38.520  27.893  29.726  1.00  0.00     0.029 A 
ATOM     17  N   UNL A   1      39.908  29.582  30.032  1.00  0.00    -0.354 N 
ATOM     18  C   UNL A   1      43.885  29.507  27.940  1.00  0.00     0.074 A 
ATOM     19  C   UNL A   1      43.089  29.541  26.747  1.00  0.00     0.031 C 
ATOM     20  C   UNL A   1      37.792  28.930  30.214  1.00  0.00     0.029 A 
ATOM     21  C   UNL A   1      38.683  30.047  30.482  1.00  0.00     0.049 A 
ATOM     22  H   UNL A   1      40.729  30.122  30.087  1.00  0.00     0.167 HD
ATOM     23  C   UNL A   1      44.783  30.422  28.395  1.00  0.00     0.037 A 
ATOM     24  C   UNL A   1      38.459  31.270  31.023  1.00  0.00     0.037 A 
ATOM     25  C   UNL A   1      45.106  30.186  29.783  1.00  0.00     0.049 A 
ATOM     26  C   UNL A   1      39.776  31.805  31.462  1.00  0.00     0.074 A 
ATOM     27  C   UNL A   1      45.594  29.112  30.503  1.00  0.00     0.029 A 
ATOM     28  N   UNL A   1      44.503  31.005  30.710  1.00  0.00    -0.354 N 
ATOM     29  N   UNL A   1      40.487  31.293  32.429  1.00  0.00    -0.248 NA
ATOM     30  C   UNL A   1      40.513  32.646  30.530  1.00  0.00     0.031 C 
ATOM     31  C   UNL A   1      44.831  29.100  31.710  1.00  0.00     0.029 A 
ATOM     32  C   UNL A   1      43.976  30.205  31.693  1.00  0.00     0.049 A 
ATOM     33  H   UNL A   1      44.456  31.988  30.675  1.00  0.00     0.167 HD
ATOM     34  C   UNL A   1      41.802  31.389  31.997  1.00  0.00     0.074 A 
ATOM     35  C   UNL A   1      41.763  32.322  30.872  1.00  0.00     0.031 C 
ATOM     36  C   UNL A   1      42.745  30.487  32.404  1.00  0.00     0.037 A 
BRANCH  23  37
ATOM     37  C   UNL A   1      45.068  31.742  27.722  1.00  0.00     0.057 A 
ATOM     38  C   UNL A   1      46.324  31.935  27.126  1.00  0.00     0.134 A 
ATOM     39  C   UNL A   1      44.270  32.901  27.821  1.00  0.00     0.134 A 
ATOM     40  F   UNL A   1      47.188  30.916  27.000  1.00  0.00    -0.206 F 
ATOM     41  C   UNL A   1      46.766  33.192  26.698  1.00  0.00     0.040 A 
ATOM     42  C   UNL A   1      44.672  34.146  27.338  1.00  0.00     0.040 A 
ATOM     43  F   UNL A   1      43.104  32.924  28.476  1.00  0.00    -0.206 F 
ATOM     44  C   UNL A   1      45.938  34.303  26.801  1.00  0.00     0.006 A 
ENDBRANCH  23  37
BRANCH  24  45
ATOM     45  C   UNL A   1      37.253  32.124  30.980  1.00  0.00     0.057 A 
ATOM     46  C   UNL A   1      36.901  32.830  29.819  1.00  0.00     0.134 A 
ATOM     47  C   UNL A   1      36.263  32.031  31.971  1.00  0.00     0.134 A 
ATOM     48  F   UNL A   1      37.766  32.938  28.801  1.00  0.00    -0.206 F 
ATOM     49  C   UNL A   1      35.627  33.383  29.641  1.00  0.00     0.040 A 
ATOM     50  C   UNL A   1      34.986  32.581  31.807  1.00  0.00     0.040 A 
ATOM     51  F   UNL A   1      36.473  31.321  33.088  1.00  0.00    -0.206 F 
ATOM     52  C   UNL A   1      34.659  33.247  30.631  1.00  0.00     0.006 A 
ENDBRANCH  24  45
BRANCH  36  53
ATOM     53  C   UNL A   1      42.379  29.547  33.527  1.00  0.00     0.057 A 
ATOM     54  C   UNL A   1      41.876  28.250  33.340  1.00  0.00     0.134 A 
ATOM     55  C   UNL A   1      42.686  29.910  34.842  1.00  0.00     0.134 A 
ATOM     56  F   UNL A   1      41.638  27.767  32.118  1.00  0.00    -0.206 F 
ATOM     57  C   UNL A   1      41.655  27.373  34.407  1.00  0.00     0.040 A 
ATOM     58  C   UNL A   1      42.503  29.032  35.915  1.00  0.00     0.040 A 
ATOM     59  F   UNL A   1      43.219  31.114  35.102  1.00  0.00    -0.206 F 
ATOM     60  C   UNL A   1      41.978  27.761  35.700  1.00  0.00     0.006 A 
ENDBRANCH  36  53
ENDBRANCH  10  11
ENDBRANCH   3   5
ENDBRANCH   2   3
ENDBRANCH   1   2
BRANCH   1  61
ATOM     61  C   UNL A   1      36.798  21.709  25.618  1.00  0.00     0.274 C 
BRANCH  61  62
ATOM     62  O   UNL A   1      36.269  21.564  24.273  1.00  0.00    -0.461 OA
BRANCH  62  63
ATOM     63  C   UNL A   1      35.648  22.639  23.662  1.00  0.00     0.325 C 
ATOM     64  O   UNL A   1      36.074  23.208  22.665  1.00  0.00    -0.250 OA
BRANCH  63  65
ATOM     65  C   UNL A   1      34.467  23.124  24.501  1.00  0.00     0.189 C 
ATOM     66  C   UNL A   1      33.925  24.457  23.892  1.00  0.00     0.088 C 
ATOM     67  N   UNL A   1      33.381  22.212  25.084  1.00  0.00    -0.176 NA
ATOM     68  C   UNL A   1      33.078  25.104  24.923  1.00  0.00     0.041 A 
ATOM     69  C   UNL A   1      32.403  22.935  26.027  1.00  0.00     0.161 C 
ATOM     70  N   UNL A   1      32.887  26.424  25.218  1.00  0.00    -0.348 N 
ATOM     71  C   UNL A   1      32.400  24.409  25.888  1.00  0.00     0.077 A 
ATOM     72  C   UNL A   1      32.098  26.467  26.340  1.00  0.00     0.197 A 
ATOM     73  H   UNL A   1      33.246  27.195  24.721  1.00  0.00     0.167 HD
ATOM     74  N   UNL A   1      31.794  25.262  26.770  1.00  0.00    -0.240 NA
BRANCH  67  75
ATOM     75  S   UNL A   1      32.575  20.945  24.272  1.00  0.00     0.253 S 
ATOM     76  O   UNL A   1      31.526  20.540  25.178  1.00  0.00    -0.206 OA
ATOM     77  O   UNL A   1      32.236  21.459  22.952  1.00  0.00    -0.206 OA
BRANCH  75  78
ATOM     78  C   UNL A   1      33.390  19.357  24.035  1.00  0.00     0.135 A 
ATOM     79  C   UNL A   1      34.475  18.741  24.647  1.00  0.00     0.033 A 
ATOM     80  S   UNL A   1      32.513  18.171  23.143  1.00  0.00    -0.131 S 
ATOM     81  C   UNL A   1      34.708  17.399  24.220  1.00  0.00     0.013 A 
ATOM     82  C   UNL A   1      33.676  16.949  23.434  1.00  0.00     0.066 A 
ENDBRANCH  75  78
ENDBRANCH  67  75
ENDBRANCH  63  65
ENDBRANCH  62  63
ENDBRANCH  61  62
ENDBRANCH   1  61
TORSDOF 13
ENDMDL
