MODEL 1
REMARK VINA RESULT:     -12.0      0.000      0.000
REMARK SMILES COc1ccc([C@H]2[NH2+][C@@H](C(=O)OCCOC(=O)c3ccc(-c4c5nc(c(-c6c(F)cccc6F)c6ccc([nH]6)c(-c6c(F)cccc6F)c6nc(c(-c7c(F)cccc7F)c7ccc4[nH]7)C=C6)C=C5)cc3)CC3=c4ccccc4=N[C@H]32)cc1Cn1cc([N+](=O)[O-])cn1
REMARK SMILES IDX 13 1 12 2 10 3 11 4 9 5 7 6 8 7 81 8 73 11 80 12 72 13 74 14
REMARK SMILES IDX 79 15 75 16 78 17 76 18 77 19 6 20 3 21 4 22 83 23 5 24
REMARK SMILES IDX 82 25 2 26 1 27 84 28 85 29 86 30 92 31 87 32 91 33 88 34
REMARK SMILES IDX 89 35 90 36 14 37 15 38 16 39 17 40 18 41 19 42 71 43 20 44
REMARK SMILES IDX 70 45 21 46 22 47 23 48 64 49 24 50 69 51 63 52 65 53 25 54
REMARK SMILES IDX 68 55 62 56 61 57 26 59 52 60 35 61 51 62 36 63 39 64 50 65
REMARK SMILES IDX 66 66 37 67 38 68 49 70 67 71 40 72 27 73 28 74 33 75 29 76
REMARK SMILES IDX 30 77 32 78 34 79 31 80 53 81 54 82 59 83 55 84 56 85 58 86
REMARK SMILES IDX 60 87 57 88 41 89 42 90 47 91 43 92 44 93 46 94 48 95 45 96
REMARK H PARENT 8 9 8 10 65 58 39 69
REMARK Flexibility Score: inf
ROOT
ATOM      1  C   UNL A   1      32.180  26.867  27.127  1.00  0.00     0.274 C 
ENDROOT
BRANCH   1   2
ATOM      2  O   UNL A   1      32.289  25.580  26.485  1.00  0.00    -0.458 OA
BRANCH   2   3
ATOM      3  C   UNL A   1      31.177  24.808  26.527  1.00  0.00     0.365 C 
ATOM      4  O   UNL A   1      30.988  23.920  27.353  1.00  0.00    -0.245 OA
BRANCH   3   5
ATOM      5  C   UNL A   1      30.196  25.082  25.370  1.00  0.00     0.298 C 
ATOM      6  C   UNL A   1      31.322  24.020  23.411  1.00  0.00     0.243 C 
ATOM      7  N   UNL A   1      30.206  23.953  24.400  1.00  0.00    -0.326 N 
ATOM      8  C   UNL A   1      31.175  25.383  22.613  1.00  0.00     0.196 C 
ATOM      9  H   UNL A   1      30.292  23.080  24.921  1.00  0.00     0.347 HD
ATOM     10  H   UNL A   1      29.336  24.007  23.869  1.00  0.00     0.347 HD
ATOM     11  C   UNL A   1      31.150  26.564  23.538  1.00  0.00    -0.024 C 
ATOM     12  N   UNL A   1      32.264  25.682  21.633  1.00  0.00    -0.270 NA
ATOM     13  C   UNL A   1      30.248  26.486  24.720  1.00  0.00     0.111 C 
ATOM     14  C   UNL A   1      32.045  27.478  23.179  1.00  0.00     0.002 A 
ATOM     15  C   UNL A   1      32.684  26.860  22.004  1.00  0.00     0.066 A 
ATOM     16  C   UNL A   1      32.522  28.700  23.735  1.00  0.00     0.010 A 
ATOM     17  C   UNL A   1      33.858  27.579  21.451  1.00  0.00     0.028 A 
ATOM     18  C   UNL A   1      33.655  29.234  23.253  1.00  0.00     0.001 A 
ATOM     19  C   UNL A   1      34.329  28.656  22.104  1.00  0.00     0.002 A 
BRANCH   6  20
ATOM     20  C   UNL A   1      32.667  23.607  24.038  1.00  0.00     0.012 A 
ATOM     21  C   UNL A   1      35.118  22.833  25.298  1.00  0.00     0.123 A 
ATOM     22  C   UNL A   1      35.003  24.050  24.612  1.00  0.00     0.047 A 
ATOM     23  C   UNL A   1      34.007  22.002  25.387  1.00  0.00     0.016 A 
ATOM     24  C   UNL A   1      33.793  24.441  24.006  1.00  0.00     0.014 A 
ATOM     25  C   UNL A   1      32.836  22.394  24.708  1.00  0.00     0.019 A 
BRANCH  21  26
ATOM     26  O   UNL A   1      36.322  22.589  25.897  1.00  0.00    -0.496 OA
ATOM     27  C   UNL A   1      37.277  21.918  25.077  1.00  0.00     0.278 C 
ENDBRANCH  21  26
BRANCH  23  28
ATOM     28  C   UNL A   1      33.908  20.729  26.187  1.00  0.00     0.183 C 
BRANCH  28  29
ATOM     29  N   UNL A   1      33.566  19.556  25.380  1.00  0.00    -0.261 N 
ATOM     30  C   UNL A   1      34.421  18.737  24.694  1.00  0.00     0.194 A 
ATOM     31  N   UNL A   1      32.313  19.048  25.461  1.00  0.00    -0.174 NA
ATOM     32  C   UNL A   1      33.693  17.621  24.348  1.00  0.00     0.307 A 
ATOM     33  C   UNL A   1      32.396  17.881  24.812  1.00  0.00     0.220 A 
BRANCH  32  34
ATOM     34  N   UNL A   1      34.177  16.448  23.694  1.00  0.00     0.066 N 
ATOM     35  O   UNL A   1      34.605  15.542  24.420  1.00  0.00    -0.258 OA
ATOM     36  O   UNL A   1      34.168  16.445  22.456  1.00  0.00    -0.258 OA
ENDBRANCH  32  34
ENDBRANCH  28  29
ENDBRANCH  23  28
ENDBRANCH   6  20
ENDBRANCH   3   5
ENDBRANCH   2   3
ENDBRANCH   1   2
BRANCH   1  37
ATOM     37  C   UNL A   1      33.398  27.716  26.752  1.00  0.00     0.275 C 
BRANCH  37  38
ATOM     38  O   UNL A   1      33.711  28.550  27.873  1.00  0.00    -0.458 OA
BRANCH  38  39
ATOM     39  C   UNL A   1      34.286  29.713  27.505  1.00  0.00     0.338 C 
ATOM     40  O   UNL A   1      33.734  30.715  27.085  1.00  0.00    -0.246 OA
BRANCH  39  41
ATOM     41  C   UNL A   1      35.667  29.702  27.970  1.00  0.00     0.060 A 
ATOM     42  C   UNL A   1      36.673  30.025  27.049  1.00  0.00     0.016 A 
ATOM     43  C   UNL A   1      35.958  29.358  29.284  1.00  0.00     0.016 A 
ATOM     44  C   UNL A   1      37.999  29.927  27.418  1.00  0.00     0.010 A 
ATOM     45  C   UNL A   1      37.285  29.267  29.661  1.00  0.00     0.010 A 
ATOM     46  C   UNL A   1      38.297  29.504  28.713  1.00  0.00    -0.014 A 
BRANCH  46  47
ATOM     47  C   UNL A   1      39.672  29.131  29.055  1.00  0.00     0.031 A 
ATOM     48  C   UNL A   1      40.529  30.167  29.710  1.00  0.00     0.074 A 
ATOM     49  C   UNL A   1      40.117  27.909  28.738  1.00  0.00     0.049 A 
ATOM     50  N   UNL A   1      41.813  30.162  29.928  1.00  0.00    -0.248 NA
ATOM     51  C   UNL A   1      39.843  31.396  30.153  1.00  0.00     0.031 C 
ATOM     52  C   UNL A   1      39.308  26.840  28.151  1.00  0.00     0.029 A 
ATOM     53  N   UNL A   1      41.368  27.374  28.842  1.00  0.00    -0.354 N 
ATOM     54  C   UNL A   1      42.096  31.392  30.505  1.00  0.00     0.074 A 
ATOM     55  C   UNL A   1      40.857  32.134  30.572  1.00  0.00     0.031 C 
ATOM     56  C   UNL A   1      40.093  25.775  27.930  1.00  0.00     0.029 A 
ATOM     57  C   UNL A   1      41.459  26.114  28.311  1.00  0.00     0.049 A 
ATOM     58  H   UNL A   1      42.127  27.844  29.256  1.00  0.00     0.167 HD
ATOM     59  C   UNL A   1      43.292  31.849  30.938  1.00  0.00     0.037 A 
ATOM     60  C   UNL A   1      42.548  25.347  28.127  1.00  0.00     0.037 A 
ATOM     61  C   UNL A   1      44.501  31.074  30.840  1.00  0.00     0.049 A 
ATOM     62  C   UNL A   1      43.876  25.901  28.555  1.00  0.00     0.074 A 
ATOM     63  C   UNL A   1      45.782  31.407  31.233  1.00  0.00     0.029 A 
ATOM     64  N   UNL A   1      44.564  29.794  30.297  1.00  0.00    -0.354 N 
ATOM     65  N   UNL A   1      44.153  27.068  29.093  1.00  0.00    -0.248 NA
ATOM     66  C   UNL A   1      45.042  25.036  28.355  1.00  0.00     0.031 C 
ATOM     67  C   UNL A   1      46.628  30.349  30.884  1.00  0.00     0.029 A 
ATOM     68  C   UNL A   1      45.866  29.329  30.330  1.00  0.00     0.049 A 
ATOM     69  H   UNL A   1      43.795  29.293  29.941  1.00  0.00     0.167 HD
ATOM     70  C   UNL A   1      45.520  27.065  29.331  1.00  0.00     0.074 A 
ATOM     71  C   UNL A   1      46.009  25.774  28.882  1.00  0.00     0.031 C 
ATOM     72  C   UNL A   1      46.303  28.031  29.875  1.00  0.00     0.037 A 
BRANCH  59  73
ATOM     73  C   UNL A   1      43.337  33.242  31.500  1.00  0.00     0.057 A 
ATOM     74  C   UNL A   1      43.577  34.365  30.696  1.00  0.00     0.134 A 
ATOM     75  C   UNL A   1      43.167  33.462  32.874  1.00  0.00     0.134 A 
ATOM     76  F   UNL A   1      43.773  34.227  29.376  1.00  0.00    -0.206 F 
ATOM     77  C   UNL A   1      43.685  35.648  31.240  1.00  0.00     0.040 A 
ATOM     78  C   UNL A   1      43.240  34.744  33.425  1.00  0.00     0.040 A 
ATOM     79  F   UNL A   1      42.938  32.436  33.707  1.00  0.00    -0.206 F 
ATOM     80  C   UNL A   1      43.512  35.840  32.608  1.00  0.00     0.006 A 
ENDBRANCH  59  73
BRANCH  60  81
ATOM     81  C   UNL A   1      42.407  23.996  27.534  1.00  0.00     0.057 A 
ATOM     82  C   UNL A   1      42.436  23.819  26.148  1.00  0.00     0.134 A 
ATOM     83  C   UNL A   1      42.284  22.850  28.329  1.00  0.00     0.134 A 
ATOM     84  F   UNL A   1      42.545  24.880  25.334  1.00  0.00    -0.206 F 
ATOM     85  C   UNL A   1      42.332  22.553  25.569  1.00  0.00     0.040 A 
ATOM     86  C   UNL A   1      42.207  21.574  27.766  1.00  0.00     0.040 A 
ATOM     87  F   UNL A   1      42.268  22.949  29.667  1.00  0.00    -0.206 F 
ATOM     88  C   UNL A   1      42.225  21.425  26.381  1.00  0.00     0.006 A 
ENDBRANCH  60  81
BRANCH  72  89
ATOM     89  C   UNL A   1      47.753  27.694  30.058  1.00  0.00     0.057 A 
ATOM     90  C   UNL A   1      48.229  27.055  31.209  1.00  0.00     0.134 A 
ATOM     91  C   UNL A   1      48.676  27.989  29.048  1.00  0.00     0.134 A 
ATOM     92  F   UNL A   1      47.395  26.758  32.218  1.00  0.00    -0.206 F 
ATOM     93  C   UNL A   1      49.581  26.750  31.362  1.00  0.00     0.040 A 
ATOM     94  C   UNL A   1      50.025  27.658  29.175  1.00  0.00     0.040 A 
ATOM     95  F   UNL A   1      48.280  28.591  27.916  1.00  0.00    -0.206 F 
ATOM     96  C   UNL A   1      50.482  27.045  30.339  1.00  0.00     0.006 A 
ENDBRANCH  72  89
ENDBRANCH  46  47
ENDBRANCH  39  41
ENDBRANCH  38  39
ENDBRANCH  37  38
ENDBRANCH   1  37
TORSDOF 16
ENDMDL
MODEL 2
REMARK VINA RESULT:     -11.8      0.606      1.078
REMARK SMILES COc1ccc([C@H]2[NH2+][C@@H](C(=O)OCCOC(=O)c3ccc(-c4c5nc(c(-c6c(F)cccc6F)c6ccc([nH]6)c(-c6c(F)cccc6F)c6nc(c(-c7c(F)cccc7F)c7ccc4[nH]7)C=C6)C=C5)cc3)CC3=c4ccccc4=N[C@H]32)cc1Cn1cc([N+](=O)[O-])cn1
REMARK SMILES IDX 13 1 12 2 10 3 11 4 9 5 7 6 8 7 81 8 73 11 80 12 72 13 74 14
REMARK SMILES IDX 79 15 75 16 78 17 76 18 77 19 6 20 3 21 4 22 83 23 5 24
REMARK SMILES IDX 82 25 2 26 1 27 84 28 85 29 86 30 92 31 87 32 91 33 88 34
REMARK SMILES IDX 89 35 90 36 14 37 15 38 16 39 17 40 18 41 19 42 71 43 20 44
REMARK SMILES IDX 70 45 21 46 22 47 23 48 64 49 24 50 69 51 63 52 65 53 25 54
REMARK SMILES IDX 68 55 62 56 61 57 26 59 52 60 35 61 51 62 36 63 39 64 50 65
REMARK SMILES IDX 66 66 37 67 38 68 49 70 67 71 40 72 27 73 28 74 33 75 29 76
REMARK SMILES IDX 30 77 32 78 34 79 31 80 53 81 54 82 59 83 55 84 56 85 58 86
REMARK SMILES IDX 60 87 57 88 41 89 42 90 47 91 43 92 44 93 46 94 48 95 45 96
REMARK H PARENT 8 9 8 10 65 58 39 69
REMARK Flexibility Score: inf
ROOT
ATOM      1  C   UNL A   1      32.368  26.991  27.304  1.00  0.00     0.274 C 
ENDROOT
BRANCH   1   2
ATOM      2  O   UNL A   1      32.437  25.741  26.587  1.00  0.00    -0.458 OA
BRANCH   2   3
ATOM      3  C   UNL A   1      31.322  24.974  26.639  1.00  0.00     0.365 C 
ATOM      4  O   UNL A   1      31.180  24.019  27.397  1.00  0.00    -0.245 OA
BRANCH   3   5
ATOM      5  C   UNL A   1      30.268  25.350  25.579  1.00  0.00     0.298 C 
ATOM      6  C   UNL A   1      31.098  24.200  23.524  1.00  0.00     0.243 C 
ATOM      7  N   UNL A   1      30.079  24.233  24.613  1.00  0.00    -0.326 N 
ATOM      8  C   UNL A   1      31.009  25.577  22.741  1.00  0.00     0.196 C 
ATOM      9  H   UNL A   1      30.128  23.352  25.125  1.00  0.00     0.347 HD
ATOM     10  H   UNL A   1      29.172  24.375  24.167  1.00  0.00     0.347 HD
ATOM     11  C   UNL A   1      31.186  26.748  23.664  1.00  0.00    -0.024 C 
ATOM     12  N   UNL A   1      32.025  25.778  21.663  1.00  0.00    -0.270 NA
ATOM     13  C   UNL A   1      30.394  26.748  24.925  1.00  0.00     0.111 C 
ATOM     14  C   UNL A   1      32.127  27.574  23.221  1.00  0.00     0.002 A 
ATOM     15  C   UNL A   1      32.590  26.907  21.991  1.00  0.00     0.066 A 
ATOM     16  C   UNL A   1      32.770  28.740  23.728  1.00  0.00     0.010 A 
ATOM     17  C   UNL A   1      33.771  27.515  21.330  1.00  0.00     0.028 A 
ATOM     18  C   UNL A   1      33.899  29.167  23.142  1.00  0.00     0.001 A 
ATOM     19  C   UNL A   1      34.403  28.536  21.935  1.00  0.00     0.002 A 
BRANCH   6  20
ATOM     20  C   UNL A   1      32.449  23.655  24.022  1.00  0.00     0.012 A 
ATOM     21  C   UNL A   1      34.922  22.640  25.047  1.00  0.00     0.123 A 
ATOM     22  C   UNL A   1      34.864  23.858  24.354  1.00  0.00     0.047 A 
ATOM     23  C   UNL A   1      33.746  21.930  25.261  1.00  0.00     0.016 A 
ATOM     24  C   UNL A   1      33.646  24.367  23.863  1.00  0.00     0.014 A 
ATOM     25  C   UNL A   1      32.559  22.437  24.694  1.00  0.00     0.019 A 
BRANCH  21  26
ATOM     26  O   UNL A   1      36.149  22.278  25.529  1.00  0.00    -0.496 OA
ATOM     27  C   UNL A   1      36.962  21.545  24.613  1.00  0.00     0.278 C 
ENDBRANCH  21  26
BRANCH  23  28
ATOM     28  C   UNL A   1      33.598  20.681  26.090  1.00  0.00     0.183 C 
BRANCH  28  29
ATOM     29  N   UNL A   1      33.352  19.477  25.295  1.00  0.00    -0.261 N 
ATOM     30  C   UNL A   1      34.275  18.699  24.649  1.00  0.00     0.194 A 
ATOM     31  N   UNL A   1      32.129  18.896  25.347  1.00  0.00    -0.174 NA
ATOM     32  C   UNL A   1      33.626  17.536  24.301  1.00  0.00     0.307 A 
ATOM     33  C   UNL A   1      32.302  17.725  24.722  1.00  0.00     0.220 A 
BRANCH  32  34
ATOM     34  N   UNL A   1      34.199  16.384  23.684  1.00  0.00     0.066 N 
ATOM     35  O   UNL A   1      34.634  15.506  24.438  1.00  0.00    -0.258 OA
ATOM     36  O   UNL A   1      34.251  16.371  22.447  1.00  0.00    -0.258 OA
ENDBRANCH  32  34
ENDBRANCH  28  29
ENDBRANCH  23  28
ENDBRANCH   6  20
ENDBRANCH   3   5
ENDBRANCH   2   3
ENDBRANCH   1   2
BRANCH   1  37
ATOM     37  C   UNL A   1      33.513  27.895  26.841  1.00  0.00     0.275 C 
BRANCH  37  38
ATOM     38  O   UNL A   1      33.879  28.736  27.942  1.00  0.00    -0.458 OA
BRANCH  38  39
ATOM     39  C   UNL A   1      34.560  29.831  27.549  1.00  0.00     0.338 C 
ATOM     40  O   UNL A   1      34.108  30.857  27.072  1.00  0.00    -0.246 OA
BRANCH  39  41
ATOM     41  C   UNL A   1      35.921  29.725  28.062  1.00  0.00     0.060 A 
ATOM     42  C   UNL A   1      36.979  29.914  27.162  1.00  0.00     0.016 A 
ATOM     43  C   UNL A   1      36.140  29.424  29.401  1.00  0.00     0.016 A 
ATOM     44  C   UNL A   1      38.279  29.721  27.582  1.00  0.00     0.010 A 
ATOM     45  C   UNL A   1      37.442  29.239  29.827  1.00  0.00     0.010 A 
ATOM     46  C   UNL A   1      38.500  29.340  28.905  1.00  0.00    -0.014 A 
BRANCH  46  47
ATOM     47  C   UNL A   1      39.826  28.868  29.312  1.00  0.00     0.031 A 
ATOM     48  C   UNL A   1      40.674  29.798  30.120  1.00  0.00     0.074 A 
ATOM     49  C   UNL A   1      40.239  27.658  28.918  1.00  0.00     0.049 A 
ATOM     50  N   UNL A   1      41.936  29.707  30.431  1.00  0.00    -0.248 NA
ATOM     51  C   UNL A   1      40.011  31.016  30.621  1.00  0.00     0.031 C 
ATOM     52  C   UNL A   1      39.431  26.687  28.178  1.00  0.00     0.029 A 
ATOM     53  N   UNL A   1      41.452  27.052  29.065  1.00  0.00    -0.354 N 
ATOM     54  C   UNL A   1      42.227  30.866  31.137  1.00  0.00     0.074 A 
ATOM     55  C   UNL A   1      41.022  31.662  31.180  1.00  0.00     0.031 C 
ATOM     56  C   UNL A   1      40.182  25.606  27.920  1.00  0.00     0.029 A 
ATOM     57  C   UNL A   1      41.528  25.840  28.430  1.00  0.00     0.049 A 
ATOM     58  H   UNL A   1      42.197  27.444  29.576  1.00  0.00     0.167 HD
ATOM     59  C   UNL A   1      43.406  31.221  31.697  1.00  0.00     0.037 A 
ATOM     60  C   UNL A   1      42.593  25.037  28.257  1.00  0.00     0.037 A 
ATOM     61  C   UNL A   1      44.582  30.396  31.618  1.00  0.00     0.049 A 
ATOM     62  C   UNL A   1      43.907  25.482  28.832  1.00  0.00     0.074 A 
ATOM     63  C   UNL A   1      45.842  30.627  32.133  1.00  0.00     0.029 A 
ATOM     64  N   UNL A   1      44.630  29.167  30.967  1.00  0.00    -0.354 N 
ATOM     65  N   UNL A   1      44.193  26.582  29.492  1.00  0.00    -0.248 NA
ATOM     66  C   UNL A   1      45.045  24.579  28.640  1.00  0.00     0.031 C 
ATOM     67  C   UNL A   1      46.665  29.562  31.752  1.00  0.00     0.029 A 
ATOM     68  C   UNL A   1      45.904  28.635  31.053  1.00  0.00     0.049 A 
ATOM     69  H   UNL A   1      43.870  28.740  30.511  1.00  0.00     0.167 HD
ATOM     70  C   UNL A   1      45.535  26.487  29.829  1.00  0.00     0.074 A 
ATOM     71  C   UNL A   1      46.000  25.217  29.302  1.00  0.00     0.031 C 
ATOM     72  C   UNL A   1      46.316  27.361  30.515  1.00  0.00     0.037 A 
BRANCH  59  73
ATOM     73  C   UNL A   1      43.468  32.555  32.385  1.00  0.00     0.057 A 
ATOM     74  C   UNL A   1      43.164  32.709  33.745  1.00  0.00     0.134 A 
ATOM     75  C   UNL A   1      43.809  33.711  31.671  1.00  0.00     0.134 A 
ATOM     76  F   UNL A   1      42.806  31.649  34.487  1.00  0.00    -0.206 F 
ATOM     77  C   UNL A   1      43.158  33.964  34.359  1.00  0.00     0.040 A 
ATOM     78  C   UNL A   1      43.838  34.968  32.281  1.00  0.00     0.040 A 
ATOM     79  F   UNL A   1      44.108  33.644  30.365  1.00  0.00    -0.206 F 
ATOM     80  C   UNL A   1      43.500  35.098  33.626  1.00  0.00     0.006 A 
ENDBRANCH  59  73
BRANCH  60  81
ATOM     81  C   UNL A   1      42.439  23.752  27.535  1.00  0.00     0.057 A 
ATOM     82  C   UNL A   1      42.579  23.693  26.146  1.00  0.00     0.134 A 
ATOM     83  C   UNL A   1      42.192  22.550  28.211  1.00  0.00     0.134 A 
ATOM     84  F   UNL A   1      42.809  24.812  25.443  1.00  0.00    -0.206 F 
ATOM     85  C   UNL A   1      42.464  22.490  25.448  1.00  0.00     0.040 A 
ATOM     86  C   UNL A   1      42.101  21.334  27.530  1.00  0.00     0.040 A 
ATOM     87  F   UNL A   1      42.065  22.535  29.546  1.00  0.00    -0.206 F 
ATOM     88  C   UNL A   1      42.232  21.304  26.143  1.00  0.00     0.006 A 
ENDBRANCH  60  81
BRANCH  72  89
ATOM     89  C   UNL A   1      47.731  26.934  30.773  1.00  0.00     0.057 A 
ATOM     90  C   UNL A   1      48.085  26.163  31.886  1.00  0.00     0.134 A 
ATOM     91  C   UNL A   1      48.745  27.281  29.872  1.00  0.00     0.134 A 
ATOM     92  F   UNL A   1      47.160  25.811  32.793  1.00  0.00    -0.206 F 
ATOM     93  C   UNL A   1      49.406  25.776  32.110  1.00  0.00     0.040 A 
ATOM     94  C   UNL A   1      50.063  26.872  30.067  1.00  0.00     0.040 A 
ATOM     95  F   UNL A   1      48.468  28.010  28.780  1.00  0.00    -0.206 F 
ATOM     96  C   UNL A   1      50.398  26.125  31.194  1.00  0.00     0.006 A 
ENDBRANCH  72  89
ENDBRANCH  46  47
ENDBRANCH  39  41
ENDBRANCH  38  39
ENDBRANCH  37  38
ENDBRANCH   1  37
TORSDOF 16
ENDMDL
MODEL 3
REMARK VINA RESULT:     -11.6      1.838      5.989
REMARK SMILES COc1ccc([C@H]2[NH2+][C@@H](C(=O)OCCOC(=O)c3ccc(-c4c5nc(c(-c6c(F)cccc6F)c6ccc([nH]6)c(-c6c(F)cccc6F)c6nc(c(-c7c(F)cccc7F)c7ccc4[nH]7)C=C6)C=C5)cc3)CC3=c4ccccc4=N[C@H]32)cc1Cn1cc([N+](=O)[O-])cn1
REMARK SMILES IDX 13 1 12 2 10 3 11 4 9 5 7 6 8 7 81 8 73 11 80 12 72 13 74 14
REMARK SMILES IDX 79 15 75 16 78 17 76 18 77 19 6 20 3 21 4 22 83 23 5 24
REMARK SMILES IDX 82 25 2 26 1 27 84 28 85 29 86 30 92 31 87 32 91 33 88 34
REMARK SMILES IDX 89 35 90 36 14 37 15 38 16 39 17 40 18 41 19 42 71 43 20 44
REMARK SMILES IDX 70 45 21 46 22 47 23 48 64 49 24 50 69 51 63 52 65 53 25 54
REMARK SMILES IDX 68 55 62 56 61 57 26 59 52 60 35 61 51 62 36 63 39 64 50 65
REMARK SMILES IDX 66 66 37 67 38 68 49 70 67 71 40 72 27 73 28 74 33 75 29 76
REMARK SMILES IDX 30 77 32 78 34 79 31 80 53 81 54 82 59 83 55 84 56 85 58 86
REMARK SMILES IDX 60 87 57 88 41 89 42 90 47 91 43 92 44 93 46 94 48 95 45 96
REMARK H PARENT 8 9 8 10 65 58 39 69
REMARK Flexibility Score: inf
ROOT
ATOM      1  C   UNL A   1      32.144  26.865  27.053  1.00  0.00     0.274 C 
ENDROOT
BRANCH   1   2
ATOM      2  O   UNL A   1      32.264  25.555  26.460  1.00  0.00    -0.458 OA
BRANCH   2   3
ATOM      3  C   UNL A   1      31.149  24.789  26.502  1.00  0.00     0.365 C 
ATOM      4  O   UNL A   1      30.954  23.904  27.331  1.00  0.00    -0.245 OA
BRANCH   3   5
ATOM      5  C   UNL A   1      30.171  25.062  25.343  1.00  0.00     0.298 C 
ATOM      6  C   UNL A   1      31.306  24.002  23.386  1.00  0.00     0.243 C 
ATOM      7  N   UNL A   1      30.186  23.933  24.371  1.00  0.00    -0.326 N 
ATOM      8  C   UNL A   1      31.159  25.366  22.589  1.00  0.00     0.196 C 
ATOM      9  H   UNL A   1      30.271  23.061  24.892  1.00  0.00     0.347 HD
ATOM     10  H   UNL A   1      29.318  23.988  23.838  1.00  0.00     0.347 HD
ATOM     11  C   UNL A   1      31.130  26.546  23.515  1.00  0.00    -0.024 C 
ATOM     12  N   UNL A   1      32.251  25.667  21.612  1.00  0.00    -0.270 NA
ATOM     13  C   UNL A   1      30.224  26.467  24.694  1.00  0.00     0.111 C 
ATOM     14  C   UNL A   1      32.025  27.462  23.160  1.00  0.00     0.002 A 
ATOM     15  C   UNL A   1      32.668  26.845  21.985  1.00  0.00     0.066 A 
ATOM     16  C   UNL A   1      32.499  28.683  23.718  1.00  0.00     0.010 A 
ATOM     17  C   UNL A   1      33.844  27.566  21.438  1.00  0.00     0.028 A 
ATOM     18  C   UNL A   1      33.633  29.219  23.240  1.00  0.00     0.001 A 
ATOM     19  C   UNL A   1      34.311  28.643  22.093  1.00  0.00     0.002 A 
BRANCH   6  20
ATOM     20  C   UNL A   1      32.648  23.591  24.018  1.00  0.00     0.012 A 
ATOM     21  C   UNL A   1      35.096  22.820  25.285  1.00  0.00     0.123 A 
ATOM     22  C   UNL A   1      34.989  24.027  24.580  1.00  0.00     0.047 A 
ATOM     23  C   UNL A   1      33.980  21.999  25.391  1.00  0.00     0.016 A 
ATOM     24  C   UNL A   1      33.780  24.416  23.969  1.00  0.00     0.014 A 
ATOM     25  C   UNL A   1      32.810  22.388  24.708  1.00  0.00     0.019 A 
BRANCH  21  26
ATOM     26  O   UNL A   1      36.300  22.579  25.886  1.00  0.00    -0.496 OA
ATOM     27  C   UNL A   1      37.300  23.569  25.650  1.00  0.00     0.278 C 
ENDBRANCH  21  26
BRANCH  23  28
ATOM     28  C   UNL A   1      33.873  20.741  26.212  1.00  0.00     0.183 C 
BRANCH  28  29
ATOM     29  N   UNL A   1      33.543  19.553  25.423  1.00  0.00    -0.261 N 
ATOM     30  C   UNL A   1      34.396  18.775  24.687  1.00  0.00     0.194 A 
ATOM     31  N   UNL A   1      32.322  18.986  25.572  1.00  0.00    -0.174 NA
ATOM     32  C   UNL A   1      33.703  17.626  24.379  1.00  0.00     0.307 A 
ATOM     33  C   UNL A   1      32.424  17.824  24.916  1.00  0.00     0.220 A 
BRANCH  32  34
ATOM     34  N   UNL A   1      34.205  16.478  23.696  1.00  0.00     0.066 N 
ATOM     35  O   UNL A   1      34.714  15.592  24.394  1.00  0.00    -0.258 OA
ATOM     36  O   UNL A   1      34.128  16.475  22.460  1.00  0.00    -0.258 OA
ENDBRANCH  32  34
ENDBRANCH  28  29
ENDBRANCH  23  28
ENDBRANCH   6  20
ENDBRANCH   3   5
ENDBRANCH   2   3
ENDBRANCH   1   2
BRANCH   1  37
ATOM     37  C   UNL A   1      33.354  27.709  26.645  1.00  0.00     0.275 C 
BRANCH  37  38
ATOM     38  O   UNL A   1      33.724  28.515  27.771  1.00  0.00    -0.458 OA
BRANCH  38  39
ATOM     39  C   UNL A   1      34.354  29.650  27.407  1.00  0.00     0.338 C 
ATOM     40  O   UNL A   1      33.877  30.612  26.832  1.00  0.00    -0.246 OA
BRANCH  39  41
ATOM     41  C   UNL A   1      35.647  29.685  28.078  1.00  0.00     0.060 A 
ATOM     42  C   UNL A   1      36.765  30.079  27.331  1.00  0.00     0.016 A 
ATOM     43  C   UNL A   1      35.749  29.315  29.414  1.00  0.00     0.016 A 
ATOM     44  C   UNL A   1      38.023  30.028  27.898  1.00  0.00     0.010 A 
ATOM     45  C   UNL A   1      37.007  29.271  29.988  1.00  0.00     0.010 A 
ATOM     46  C   UNL A   1      38.139  29.580  29.214  1.00  0.00    -0.014 A 
BRANCH  46  47
ATOM     47  C   UNL A   1      39.462  29.258  29.755  1.00  0.00     0.031 A 
ATOM     48  C   UNL A   1      40.218  28.138  29.116  1.00  0.00     0.074 A 
ATOM     49  C   UNL A   1      39.921  29.941  30.811  1.00  0.00     0.049 A 
ATOM     50  N   UNL A   1      41.299  27.532  29.520  1.00  0.00    -0.248 NA
ATOM     51  C   UNL A   1      39.659  27.606  27.859  1.00  0.00     0.031 C 
ATOM     52  C   UNL A   1      39.250  31.081  31.437  1.00  0.00     0.029 A 
ATOM     53  N   UNL A   1      41.048  29.755  31.556  1.00  0.00    -0.354 N 
ATOM     54  C   UNL A   1      41.533  26.531  28.588  1.00  0.00     0.074 A 
ATOM     55  C   UNL A   1      40.466  26.586  27.615  1.00  0.00     0.031 C 
ATOM     56  C   UNL A   1      39.976  31.485  32.490  1.00  0.00     0.029 A 
ATOM     57  C   UNL A   1      41.124  30.598  32.634  1.00  0.00     0.049 A 
ATOM     58  H   UNL A   1      41.736  29.085  31.342  1.00  0.00     0.167 HD
ATOM     59  C   UNL A   1      42.558  25.649  28.559  1.00  0.00     0.037 A 
ATOM     60  C   UNL A   1      42.015  30.611  33.640  1.00  0.00     0.037 A 
ATOM     61  C   UNL A   1      43.593  25.629  29.558  1.00  0.00     0.049 A 
ATOM     62  C   UNL A   1      43.108  29.580  33.623  1.00  0.00     0.074 A 
ATOM     63  C   UNL A   1      44.688  24.794  29.659  1.00  0.00     0.029 A 
ATOM     64  N   UNL A   1      43.647  26.499  30.643  1.00  0.00    -0.354 N 
ATOM     65  N   UNL A   1      43.331  28.624  32.749  1.00  0.00    -0.248 NA
ATOM     66  C   UNL A   1      44.072  29.628  34.725  1.00  0.00     0.031 C 
ATOM     67  C   UNL A   1      45.377  25.127  30.830  1.00  0.00     0.029 A 
ATOM     68  C   UNL A   1      44.748  26.210  31.428  1.00  0.00     0.049 A 
ATOM     69  H   UNL A   1      42.996  27.215  30.825  1.00  0.00     0.167 HD
ATOM     70  C   UNL A   1      44.483  27.979  33.174  1.00  0.00     0.074 A 
ATOM     71  C   UNL A   1      44.912  28.661  34.381  1.00  0.00     0.031 C 
ATOM     72  C   UNL A   1      45.136  26.925  32.620  1.00  0.00     0.037 A 
BRANCH  59  73
ATOM     73  C   UNL A   1      42.564  24.636  27.449  1.00  0.00     0.057 A 
ATOM     74  C   UNL A   1      41.964  23.376  27.584  1.00  0.00     0.134 A 
ATOM     75  C   UNL A   1      43.207  24.912  26.235  1.00  0.00     0.134 A 
ATOM     76  F   UNL A   1      41.351  23.033  28.728  1.00  0.00    -0.206 F 
ATOM     77  C   UNL A   1      42.036  22.416  26.572  1.00  0.00     0.040 A 
ATOM     78  C   UNL A   1      43.258  23.972  25.202  1.00  0.00     0.040 A 
ATOM     79  F   UNL A   1      43.808  26.094  26.034  1.00  0.00    -0.206 F 
ATOM     80  C   UNL A   1      42.682  22.715  25.375  1.00  0.00     0.006 A 
ENDBRANCH  59  73
BRANCH  60  81
ATOM     81  C   UNL A   1      41.908  31.632  34.709  1.00  0.00     0.057 A 
ATOM     82  C   UNL A   1      42.598  32.843  34.610  1.00  0.00     0.134 A 
ATOM     83  C   UNL A   1      41.087  31.445  35.829  1.00  0.00     0.134 A 
ATOM     84  F   UNL A   1      43.405  33.077  33.564  1.00  0.00    -0.206 F 
ATOM     85  C   UNL A   1      42.490  33.830  35.592  1.00  0.00     0.040 A 
ATOM     86  C   UNL A   1      40.948  32.433  36.806  1.00  0.00     0.040 A 
ATOM     87  F   UNL A   1      40.384  30.312  35.975  1.00  0.00    -0.206 F 
ATOM     88  C   UNL A   1      41.657  33.628  36.690  1.00  0.00     0.006 A 
ENDBRANCH  60  81
BRANCH  72  89
ATOM     89  C   UNL A   1      46.405  26.494  33.294  1.00  0.00     0.057 A 
ATOM     90  C   UNL A   1      46.422  25.512  34.291  1.00  0.00     0.134 A 
ATOM     91  C   UNL A   1      47.629  27.056  32.912  1.00  0.00     0.134 A 
ATOM     92  F   UNL A   1      45.280  24.946  34.709  1.00  0.00    -0.206 F 
ATOM     93  C   UNL A   1      47.612  25.125  34.907  1.00  0.00     0.040 A 
ATOM     94  C   UNL A   1      48.829  26.653  33.496  1.00  0.00     0.040 A 
ATOM     95  F   UNL A   1      47.680  27.995  31.954  1.00  0.00    -0.206 F 
ATOM     96  C   UNL A   1      48.821  25.691  34.504  1.00  0.00     0.006 A 
ENDBRANCH  72  89
ENDBRANCH  46  47
ENDBRANCH  39  41
ENDBRANCH  38  39
ENDBRANCH  37  38
ENDBRANCH   1  37
TORSDOF 16
ENDMDL
