MODEL 1
REMARK VINA RESULT:     -12.8      0.000      0.000
REMARK SMILES CC1(C)[C@@]2(C(=O)OCCOC(=O)c3ccc(-c4c5nc(c(-c6c(F)cccc6F)c6ccc([nH]6)c(-c6c(F)cccc6F)c6nc(c(-c7c(F)cccc7F)c7ccc4[nH]7)C=C6)C=C5)cc3)CC[C@]1(C)/C(=N/NC(=O)c1ccc(Cl)cc1)C2
REMARK SMILES IDX 8 1 7 2 5 3 6 4 4 5 1 6 2 7 3 8 69 9 67 10 83 11 68 12 70 13
REMARK SMILES IDX 71 14 72 15 73 16 74 17 75 19 76 20 77 21 82 22 78 23 81 24
REMARK SMILES IDX 79 25 80 26 9 27 10 28 11 29 12 30 13 31 14 32 66 33 15 34
REMARK SMILES IDX 65 35 16 36 17 37 18 38 59 39 19 40 64 41 58 42 60 43 20 44
REMARK SMILES IDX 63 45 57 46 56 47 21 49 47 50 30 51 46 52 31 53 34 54 45 55
REMARK SMILES IDX 61 56 32 57 33 58 44 60 62 61 35 62 22 63 23 64 28 65 24 66
REMARK SMILES IDX 25 67 27 68 29 69 26 70 48 71 49 72 54 73 50 74 51 75 53 76
REMARK SMILES IDX 55 77 52 78 36 79 37 80 42 81 38 82 39 83 41 84 43 85 40 86
REMARK H PARENT 73 18 60 48 34 59
REMARK Flexibility Score: inf
ROOT
ATOM      1  C   UNL A   1      34.356  31.069  27.666  1.00  0.00     0.274 C 
ENDROOT
BRANCH   1   2
ATOM      2  O   UNL A   1      33.381  30.295  26.930  1.00  0.00    -0.462 OA
BRANCH   2   3
ATOM      3  C   UNL A   1      33.704  29.017  26.587  1.00  0.00     0.313 C 
ATOM      4  O   UNL A   1      34.780  28.483  26.819  1.00  0.00    -0.252 OA
BRANCH   3   5
ATOM      5  C   UNL A   1      32.609  28.377  25.750  1.00  0.00     0.079 C 
ATOM      6  C   UNL A   1      33.648  28.700  23.381  1.00  0.00     0.013 C 
ATOM      7  C   UNL A   1      32.927  27.755  24.358  1.00  0.00    -0.008 C 
ATOM      8  C   UNL A   1      33.714  26.421  24.399  1.00  0.00     0.013 C 
ATOM      9  C   UNL A   1      31.405  27.522  24.053  1.00  0.00     0.014 C 
ATOM     10  C   UNL A   1      31.564  29.488  25.411  1.00  0.00     0.021 C 
ATOM     11  C   UNL A   1      31.874  27.219  26.462  1.00  0.00     0.073 C 
ATOM     12  C   UNL A   1      30.764  28.904  24.236  1.00  0.00     0.014 C 
ATOM     13  C   UNL A   1      31.075  26.845  22.739  1.00  0.00     0.018 C 
ATOM     14  C   UNL A   1      30.996  26.754  25.334  1.00  0.00     0.046 C 
ATOM     15  N   UNL A   1      30.077  25.846  25.288  1.00  0.00    -0.181 NA
BRANCH  15  16
ATOM     16  N   UNL A   1      29.735  24.998  26.293  1.00  0.00    -0.243 N 
ATOM     17  C   UNL A   1      30.187  23.791  26.777  1.00  0.00     0.271 C 
ATOM     18  H   UNL A   1      28.967  25.334  26.809  1.00  0.00     0.194 HD
ATOM     19  O   UNL A   1      29.523  23.190  27.622  1.00  0.00    -0.267 OA
BRANCH  17  20
ATOM     20  C   UNL A   1      31.459  23.183  26.362  1.00  0.00     0.041 A 
ATOM     21  C   UNL A   1      31.399  22.072  25.505  1.00  0.00     0.015 A 
ATOM     22  C   UNL A   1      32.693  23.696  26.774  1.00  0.00     0.015 A 
ATOM     23  C   UNL A   1      32.574  21.529  24.985  1.00  0.00     0.021 A 
ATOM     24  C   UNL A   1      33.871  23.143  26.257  1.00  0.00     0.021 A 
ATOM     25  C   UNL A   1      33.804  22.080  25.350  1.00  0.00     0.041 A 
ATOM     26  Cl  UNL A   1      35.247  21.467  24.642  1.00  0.00    -0.084 Cl
ENDBRANCH  17  20
ENDBRANCH  15  16
ENDBRANCH   3   5
ENDBRANCH   2   3
ENDBRANCH   1   2
BRANCH   1  27
ATOM     27  C   UNL A   1      33.645  32.075  28.568  1.00  0.00     0.275 C 
BRANCH  27  28
ATOM     28  O   UNL A   1      34.658  32.815  29.265  1.00  0.00    -0.458 OA
BRANCH  28  29
ATOM     29  C   UNL A   1      35.045  32.343  30.472  1.00  0.00     0.338 C 
ATOM     30  O   UNL A   1      34.359  32.212  31.470  1.00  0.00    -0.246 OA
BRANCH  29  31
ATOM     31  C   UNL A   1      36.449  31.887  30.365  1.00  0.00     0.060 A 
ATOM     32  C   UNL A   1      37.279  32.458  29.404  1.00  0.00     0.016 A 
ATOM     33  C   UNL A   1      36.908  30.798  31.104  1.00  0.00     0.016 A 
ATOM     34  C   UNL A   1      38.497  31.872  29.085  1.00  0.00     0.010 A 
ATOM     35  C   UNL A   1      38.197  30.294  30.869  1.00  0.00     0.010 A 
ATOM     36  C   UNL A   1      38.995  30.794  29.822  1.00  0.00    -0.014 A 
BRANCH  36  37
ATOM     37  C   UNL A   1      40.299  30.162  29.455  1.00  0.00     0.031 A 
ATOM     38  C   UNL A   1      41.569  30.973  29.505  1.00  0.00     0.074 A 
ATOM     39  C   UNL A   1      40.385  28.860  29.104  1.00  0.00     0.049 A 
ATOM     40  N   UNL A   1      42.718  30.745  28.923  1.00  0.00    -0.248 NA
ATOM     41  C   UNL A   1      41.535  32.217  30.292  1.00  0.00     0.031 C 
ATOM     42  C   UNL A   1      39.278  27.901  29.077  1.00  0.00     0.029 A 
ATOM     43  N   UNL A   1      41.470  28.112  28.710  1.00  0.00    -0.354 N 
ATOM     44  C   UNL A   1      43.499  31.866  29.173  1.00  0.00     0.074 A 
ATOM     45  C   UNL A   1      42.712  32.756  29.999  1.00  0.00     0.031 C 
ATOM     46  C   UNL A   1      39.748  26.689  28.754  1.00  0.00     0.029 A 
ATOM     47  C   UNL A   1      41.157  26.807  28.408  1.00  0.00     0.049 A 
ATOM     48  H   UNL A   1      42.382  28.476  28.647  1.00  0.00     0.167 HD
ATOM     49  C   UNL A   1      44.749  32.134  28.726  1.00  0.00     0.037 A 
ATOM     50  C   UNL A   1      41.889  25.830  27.842  1.00  0.00     0.037 A 
ATOM     51  C   UNL A   1      45.568  31.195  28.006  1.00  0.00     0.049 A 
ATOM     52  C   UNL A   1      43.283  26.131  27.382  1.00  0.00     0.074 A 
ATOM     53  C   UNL A   1      46.852  31.366  27.515  1.00  0.00     0.029 A 
ATOM     54  N   UNL A   1      45.200  29.892  27.715  1.00  0.00    -0.354 N 
ATOM     55  N   UNL A   1      43.957  27.251  27.474  1.00  0.00    -0.248 NA
ATOM     56  C   UNL A   1      44.003  25.049  26.696  1.00  0.00     0.031 C 
ATOM     57  C   UNL A   1      47.255  30.168  26.916  1.00  0.00     0.029 A 
ATOM     58  C   UNL A   1      46.233  29.244  27.060  1.00  0.00     0.049 A 
ATOM     59  H   UNL A   1      44.332  29.486  27.942  1.00  0.00     0.167 HD
ATOM     60  C   UNL A   1      45.171  27.016  26.846  1.00  0.00     0.074 A 
ATOM     61  C   UNL A   1      45.156  25.635  26.407  1.00  0.00     0.031 C 
ATOM     62  C   UNL A   1      46.198  27.872  26.632  1.00  0.00     0.037 A 
BRANCH  49  63
ATOM     63  C   UNL A   1      45.294  33.511  28.953  1.00  0.00     0.057 A 
ATOM     64  C   UNL A   1      46.102  33.832  30.048  1.00  0.00     0.134 A 
ATOM     65  C   UNL A   1      45.050  34.520  28.011  1.00  0.00     0.134 A 
ATOM     66  F   UNL A   1      46.361  32.917  30.995  1.00  0.00    -0.206 F 
ATOM     67  C   UNL A   1      46.642  35.111  30.203  1.00  0.00     0.040 A 
ATOM     68  C   UNL A   1      45.600  35.795  28.143  1.00  0.00     0.040 A 
ATOM     69  F   UNL A   1      44.286  34.275  26.935  1.00  0.00    -0.206 F 
ATOM     70  C   UNL A   1      46.399  36.093  29.243  1.00  0.00     0.006 A 
ENDBRANCH  49  63
BRANCH  50  71
ATOM     71  C   UNL A   1      41.273  24.503  27.584  1.00  0.00     0.057 A 
ATOM     72  C   UNL A   1      41.577  23.395  28.380  1.00  0.00     0.134 A 
ATOM     73  C   UNL A   1      40.353  24.318  26.543  1.00  0.00     0.134 A 
ATOM     74  F   UNL A   1      42.473  23.502  29.373  1.00  0.00    -0.206 F 
ATOM     75  C   UNL A   1      40.987  22.150  28.153  1.00  0.00     0.040 A 
ATOM     76  C   UNL A   1      39.734  23.088  26.324  1.00  0.00     0.040 A 
ATOM     77  F   UNL A   1      40.020  25.343  25.744  1.00  0.00    -0.206 F 
ATOM     78  C   UNL A   1      40.054  21.998  27.128  1.00  0.00     0.006 A 
ENDBRANCH  50  71
BRANCH  62  79
ATOM     79  C   UNL A   1      47.387  27.331  25.904  1.00  0.00     0.057 A 
ATOM     80  C   UNL A   1      47.490  27.415  24.510  1.00  0.00     0.134 A 
ATOM     81  C   UNL A   1      48.445  26.739  26.603  1.00  0.00     0.134 A 
ATOM     82  F   UNL A   1      46.501  27.959  23.787  1.00  0.00    -0.206 F 
ATOM     83  C   UNL A   1      48.601  26.912  23.833  1.00  0.00     0.040 A 
ATOM     84  C   UNL A   1      49.569  26.247  25.938  1.00  0.00     0.040 A 
ATOM     85  F   UNL A   1      48.404  26.632  27.939  1.00  0.00    -0.206 F 
ATOM     86  C   UNL A   1      49.647  26.329  24.549  1.00  0.00     0.006 A 
ENDBRANCH  62  79
ENDBRANCH  36  37
ENDBRANCH  29  31
ENDBRANCH  28  29
ENDBRANCH  27  28
ENDBRANCH   1  27
TORSDOF 13
ENDMDL
MODEL 2
REMARK VINA RESULT:     -12.7      3.020      7.900
REMARK SMILES CC1(C)[C@@]2(C(=O)OCCOC(=O)c3ccc(-c4c5nc(c(-c6c(F)cccc6F)c6ccc([nH]6)c(-c6c(F)cccc6F)c6nc(c(-c7c(F)cccc7F)c7ccc4[nH]7)C=C6)C=C5)cc3)CC[C@]1(C)/C(=N/NC(=O)c1ccc(Cl)cc1)C2
REMARK SMILES IDX 8 1 7 2 5 3 6 4 4 5 1 6 2 7 3 8 69 9 67 10 83 11 68 12 70 13
REMARK SMILES IDX 71 14 72 15 73 16 74 17 75 19 76 20 77 21 82 22 78 23 81 24
REMARK SMILES IDX 79 25 80 26 9 27 10 28 11 29 12 30 13 31 14 32 66 33 15 34
REMARK SMILES IDX 65 35 16 36 17 37 18 38 59 39 19 40 64 41 58 42 60 43 20 44
REMARK SMILES IDX 63 45 57 46 56 47 21 49 47 50 30 51 46 52 31 53 34 54 45 55
REMARK SMILES IDX 61 56 32 57 33 58 44 60 62 61 35 62 22 63 23 64 28 65 24 66
REMARK SMILES IDX 25 67 27 68 29 69 26 70 48 71 49 72 54 73 50 74 51 75 53 76
REMARK SMILES IDX 55 77 52 78 36 79 37 80 42 81 38 82 39 83 41 84 43 85 40 86
REMARK H PARENT 73 18 60 48 34 59
REMARK Flexibility Score: inf
ROOT
ATOM      1  C   UNL A   1      37.991  19.887  24.730  1.00  0.00     0.274 C 
ENDROOT
BRANCH   1   2
ATOM      2  O   UNL A   1      36.755  20.278  25.370  1.00  0.00    -0.462 OA
BRANCH   2   3
ATOM      3  C   UNL A   1      36.401  21.593  25.330  1.00  0.00     0.313 C 
ATOM      4  O   UNL A   1      37.117  22.520  25.683  1.00  0.00    -0.252 OA
BRANCH   3   5
ATOM      5  C   UNL A   1      34.947  21.760  24.922  1.00  0.00     0.079 C 
ATOM      6  C   UNL A   1      33.840  21.702  27.282  1.00  0.00     0.013 C 
ATOM      7  C   UNL A   1      33.908  22.381  25.903  1.00  0.00    -0.008 C 
ATOM      8  C   UNL A   1      34.049  23.906  26.130  1.00  0.00     0.013 C 
ATOM      9  C   UNL A   1      32.715  22.044  24.940  1.00  0.00     0.014 C 
ATOM     10  C   UNL A   1      34.366  20.335  24.647  1.00  0.00     0.021 C 
ATOM     11  C   UNL A   1      34.748  22.619  23.653  1.00  0.00     0.073 C 
ATOM     12  C   UNL A   1      32.844  20.536  24.685  1.00  0.00     0.014 C 
ATOM     13  C   UNL A   1      31.339  22.492  25.387  1.00  0.00     0.018 C 
ATOM     14  C   UNL A   1      33.246  22.685  23.633  1.00  0.00     0.046 C 
ATOM     15  N   UNL A   1      32.428  23.206  22.779  1.00  0.00    -0.181 NA
BRANCH  15  16
ATOM     16  N   UNL A   1      32.766  23.929  21.680  1.00  0.00    -0.243 N 
ATOM     17  C   UNL A   1      32.788  25.261  21.332  1.00  0.00     0.271 C 
ATOM     18  H   UNL A   1      33.077  23.353  20.945  1.00  0.00     0.194 HD
ATOM     19  O   UNL A   1      32.993  25.577  20.158  1.00  0.00    -0.267 OA
BRANCH  17  20
ATOM     20  C   UNL A   1      32.615  26.350  22.301  1.00  0.00     0.041 A 
ATOM     21  C   UNL A   1      31.413  27.078  22.254  1.00  0.00     0.015 A 
ATOM     22  C   UNL A   1      33.588  26.648  23.261  1.00  0.00     0.015 A 
ATOM     23  C   UNL A   1      31.145  28.042  23.226  1.00  0.00     0.021 A 
ATOM     24  C   UNL A   1      33.318  27.624  24.228  1.00  0.00     0.021 A 
ATOM     25  C   UNL A   1      32.092  28.298  24.219  1.00  0.00     0.041 A 
ATOM     26  Cl  UNL A   1      31.725  29.425  25.466  1.00  0.00    -0.084 Cl
ENDBRANCH  17  20
ENDBRANCH  15  16
ENDBRANCH   3   5
ENDBRANCH   2   3
ENDBRANCH   1   2
BRANCH   1  27
ATOM     27  C   UNL A   1      38.900  19.191  25.741  1.00  0.00     0.275 C 
BRANCH  27  28
ATOM     28  O   UNL A   1      40.256  19.488  25.372  1.00  0.00    -0.458 OA
BRANCH  28  29
ATOM     29  C   UNL A   1      41.162  19.573  26.372  1.00  0.00     0.338 C 
ATOM     30  O   UNL A   1      41.848  18.677  26.828  1.00  0.00    -0.246 OA
BRANCH  29  31
ATOM     31  C   UNL A   1      41.283  20.994  26.770  1.00  0.00     0.060 A 
ATOM     32  C   UNL A   1      40.500  21.950  26.128  1.00  0.00     0.016 A 
ATOM     33  C   UNL A   1      42.269  21.407  27.663  1.00  0.00     0.016 A 
ATOM     34  C   UNL A   1      40.782  23.303  26.268  1.00  0.00     0.010 A 
ATOM     35  C   UNL A   1      42.458  22.777  27.904  1.00  0.00     0.010 A 
ATOM     36  C   UNL A   1      41.748  23.749  27.173  1.00  0.00    -0.014 A 
BRANCH  36  37
ATOM     37  C   UNL A   1      42.053  25.208  27.299  1.00  0.00     0.031 A 
ATOM     38  C   UNL A   1      43.280  25.780  26.637  1.00  0.00     0.074 A 
ATOM     39  C   UNL A   1      41.237  26.049  27.971  1.00  0.00     0.049 A 
ATOM     40  N   UNL A   1      43.907  26.901  26.887  1.00  0.00    -0.248 NA
ATOM     41  C   UNL A   1      43.899  24.975  25.570  1.00  0.00     0.031 C 
ATOM     42  C   UNL A   1      39.967  25.692  28.607  1.00  0.00     0.029 A 
ATOM     43  N   UNL A   1      41.356  27.396  28.223  1.00  0.00    -0.354 N 
ATOM     44  C   UNL A   1      45.051  26.879  26.100  1.00  0.00     0.074 A 
ATOM     45  C   UNL A   1      45.011  25.657  25.326  1.00  0.00     0.031 C 
ATOM     46  C   UNL A   1      39.398  26.794  29.113  1.00  0.00     0.029 A 
ATOM     47  C   UNL A   1      40.323  27.909  28.970  1.00  0.00     0.049 A 
ATOM     48  H   UNL A   1      42.110  27.941  27.900  1.00  0.00     0.167 HD
ATOM     49  C   UNL A   1      46.054  27.789  26.052  1.00  0.00     0.037 A 
ATOM     50  C   UNL A   1      40.162  29.114  29.550  1.00  0.00     0.037 A 
ATOM     51  C   UNL A   1      46.029  29.055  26.735  1.00  0.00     0.049 A 
ATOM     52  C   UNL A   1      41.267  30.122  29.462  1.00  0.00     0.074 A 
ATOM     53  C   UNL A   1      46.992  30.051  26.746  1.00  0.00     0.029 A 
ATOM     54  N   UNL A   1      44.965  29.521  27.489  1.00  0.00    -0.354 N 
ATOM     55  N   UNL A   1      42.422  30.027  28.850  1.00  0.00    -0.248 NA
ATOM     56  C   UNL A   1      41.069  31.386  30.185  1.00  0.00     0.031 C 
ATOM     57  C   UNL A   1      46.513  31.114  27.519  1.00  0.00     0.029 A 
ATOM     58  C   UNL A   1      45.242  30.792  27.963  1.00  0.00     0.049 A 
ATOM     59  H   UNL A   1      44.133  29.022  27.662  1.00  0.00     0.167 HD
ATOM     60  C   UNL A   1      43.094  31.209  29.126  1.00  0.00     0.074 A 
ATOM     61  C   UNL A   1      42.204  32.021  29.931  1.00  0.00     0.031 C 
ATOM     62  C   UNL A   1      44.344  31.581  28.763  1.00  0.00     0.037 A 
BRANCH  49  63
ATOM     63  C   UNL A   1      47.288  27.431  25.282  1.00  0.00     0.057 A 
ATOM     64  C   UNL A   1      47.425  27.686  23.914  1.00  0.00     0.134 A 
ATOM     65  C   UNL A   1      48.388  26.873  25.949  1.00  0.00     0.134 A 
ATOM     66  F   UNL A   1      46.404  28.204  23.214  1.00  0.00    -0.206 F 
ATOM     67  C   UNL A   1      48.609  27.394  23.234  1.00  0.00     0.040 A 
ATOM     68  C   UNL A   1      49.583  26.595  25.286  1.00  0.00     0.040 A 
ATOM     69  F   UNL A   1      48.323  26.607  27.262  1.00  0.00    -0.206 F 
ATOM     70  C   UNL A   1      49.695  26.855  23.923  1.00  0.00     0.006 A 
ENDBRANCH  49  63
BRANCH  50  71
ATOM     71  C   UNL A   1      38.944  29.387  30.356  1.00  0.00     0.057 A 
ATOM     72  C   UNL A   1      38.861  28.999  31.697  1.00  0.00     0.134 A 
ATOM     73  C   UNL A   1      37.842  30.055  29.806  1.00  0.00     0.134 A 
ATOM     74  F   UNL A   1      39.871  28.329  32.271  1.00  0.00    -0.206 F 
ATOM     75  C   UNL A   1      37.726  29.269  32.464  1.00  0.00     0.040 A 
ATOM     76  C   UNL A   1      36.715  30.357  30.569  1.00  0.00     0.040 A 
ATOM     77  F   UNL A   1      37.862  30.452  28.525  1.00  0.00    -0.206 F 
ATOM     78  C   UNL A   1      36.653  29.960  31.902  1.00  0.00     0.006 A 
ENDBRANCH  50  71
BRANCH  62  79
ATOM     79  C   UNL A   1      44.811  32.925  29.225  1.00  0.00     0.057 A 
ATOM     80  C   UNL A   1      44.561  34.081  28.476  1.00  0.00     0.134 A 
ATOM     81  C   UNL A   1      45.497  33.066  30.436  1.00  0.00     0.134 A 
ATOM     82  F   UNL A   1      43.920  34.005  27.302  1.00  0.00    -0.206 F 
ATOM     83  C   UNL A   1      44.995  35.334  28.911  1.00  0.00     0.040 A 
ATOM     84  C   UNL A   1      45.923  34.315  30.888  1.00  0.00     0.040 A 
ATOM     85  F   UNL A   1      45.763  31.994  31.197  1.00  0.00    -0.206 F 
ATOM     86  C   UNL A   1      45.675  35.453  30.122  1.00  0.00     0.006 A 
ENDBRANCH  62  79
ENDBRANCH  36  37
ENDBRANCH  29  31
ENDBRANCH  28  29
ENDBRANCH  27  28
ENDBRANCH   1  27
TORSDOF 13
ENDMDL
MODEL 3
REMARK VINA RESULT:     -12.6      4.531      8.123
REMARK SMILES CC1(C)[C@@]2(C(=O)OCCOC(=O)c3ccc(-c4c5nc(c(-c6c(F)cccc6F)c6ccc([nH]6)c(-c6c(F)cccc6F)c6nc(c(-c7c(F)cccc7F)c7ccc4[nH]7)C=C6)C=C5)cc3)CC[C@]1(C)/C(=N/NC(=O)c1ccc(Cl)cc1)C2
REMARK SMILES IDX 8 1 7 2 5 3 6 4 4 5 1 6 2 7 3 8 69 9 67 10 83 11 68 12 70 13
REMARK SMILES IDX 71 14 72 15 73 16 74 17 75 19 76 20 77 21 82 22 78 23 81 24
REMARK SMILES IDX 79 25 80 26 9 27 10 28 11 29 12 30 13 31 14 32 66 33 15 34
REMARK SMILES IDX 65 35 16 36 17 37 18 38 59 39 19 40 64 41 58 42 60 43 20 44
REMARK SMILES IDX 63 45 57 46 56 47 21 49 47 50 30 51 46 52 31 53 34 54 45 55
REMARK SMILES IDX 61 56 32 57 33 58 44 60 62 61 35 62 22 63 23 64 28 65 24 66
REMARK SMILES IDX 25 67 27 68 29 69 26 70 48 71 49 72 54 73 50 74 51 75 53 76
REMARK SMILES IDX 55 77 52 78 36 79 37 80 42 81 38 82 39 83 41 84 43 85 40 86
REMARK H PARENT 73 18 60 48 34 59
REMARK Flexibility Score: inf
ROOT
ATOM      1  C   UNL A   1      33.567  31.325  27.574  1.00  0.00     0.274 C 
ENDROOT
BRANCH   1   2
ATOM      2  O   UNL A   1      33.296  30.494  26.421  1.00  0.00    -0.462 OA
BRANCH   2   3
ATOM      3  C   UNL A   1      33.474  29.149  26.546  1.00  0.00     0.313 C 
ATOM      4  O   UNL A   1      34.373  28.620  27.184  1.00  0.00    -0.252 OA
BRANCH   3   5
ATOM      5  C   UNL A   1      32.496  28.381  25.672  1.00  0.00     0.079 C 
ATOM      6  C   UNL A   1      33.692  28.647  23.370  1.00  0.00     0.013 C 
ATOM      7  C   UNL A   1      32.966  27.707  24.349  1.00  0.00    -0.008 C 
ATOM      8  C   UNL A   1      33.841  26.442  24.531  1.00  0.00     0.013 C 
ATOM      9  C   UNL A   1      31.493  27.342  23.948  1.00  0.00     0.014 C 
ATOM     10  C   UNL A   1      31.404  29.388  25.188  1.00  0.00     0.021 C 
ATOM     11  C   UNL A   1      31.793  27.213  26.399  1.00  0.00     0.073 C 
ATOM     12  C   UNL A   1      30.742  28.679  23.997  1.00  0.00     0.014 C 
ATOM     13  C   UNL A   1      31.317  26.568  22.658  1.00  0.00     0.018 C 
ATOM     14  C   UNL A   1      31.042  26.619  25.241  1.00  0.00     0.046 C 
ATOM     15  N   UNL A   1      30.197  25.642  25.184  1.00  0.00    -0.181 NA
BRANCH  15  16
ATOM     16  N   UNL A   1      29.839  24.829  26.212  1.00  0.00    -0.243 N 
ATOM     17  C   UNL A   1      30.287  23.643  26.747  1.00  0.00     0.271 C 
ATOM     18  H   UNL A   1      29.059  25.179  26.701  1.00  0.00     0.194 HD
ATOM     19  O   UNL A   1      29.610  23.068  27.601  1.00  0.00    -0.267 OA
BRANCH  17  20
ATOM     20  C   UNL A   1      31.569  23.027  26.380  1.00  0.00     0.041 A 
ATOM     21  C   UNL A   1      31.529  21.859  25.599  1.00  0.00     0.015 A 
ATOM     22  C   UNL A   1      32.794  23.584  26.761  1.00  0.00     0.015 A 
ATOM     23  C   UNL A   1      32.715  21.300  25.122  1.00  0.00     0.021 A 
ATOM     24  C   UNL A   1      33.982  23.014  26.287  1.00  0.00     0.021 A 
ATOM     25  C   UNL A   1      33.934  21.892  25.453  1.00  0.00     0.041 A 
ATOM     26  Cl  UNL A   1      35.390  21.254  24.794  1.00  0.00    -0.084 Cl
ENDBRANCH  17  20
ENDBRANCH  15  16
ENDBRANCH   3   5
ENDBRANCH   2   3
ENDBRANCH   1   2
BRANCH   1  27
ATOM     27  C   UNL A   1      32.593  32.501  27.604  1.00  0.00     0.275 C 
BRANCH  27  28
ATOM     28  O   UNL A   1      33.376  33.704  27.568  1.00  0.00    -0.458 OA
BRANCH  28  29
ATOM     29  C   UNL A   1      33.319  34.509  28.654  1.00  0.00     0.338 C 
ATOM     30  O   UNL A   1      32.423  35.273  28.963  1.00  0.00    -0.246 OA
BRANCH  29  31
ATOM     31  C   UNL A   1      34.499  34.230  29.502  1.00  0.00     0.060 A 
ATOM     32  C   UNL A   1      35.773  34.501  29.007  1.00  0.00     0.016 A 
ATOM     33  C   UNL A   1      34.368  33.566  30.720  1.00  0.00     0.016 A 
ATOM     34  C   UNL A   1      36.900  33.999  29.646  1.00  0.00     0.010 A 
ATOM     35  C   UNL A   1      35.517  33.180  31.428  1.00  0.00     0.010 A 
ATOM     36  C   UNL A   1      36.802  33.349  30.879  1.00  0.00    -0.014 A 
BRANCH  36  37
ATOM     37  C   UNL A   1      38.022  32.799  31.545  1.00  0.00     0.031 A 
ATOM     38  C   UNL A   1      38.774  31.656  30.912  1.00  0.00     0.074 A 
ATOM     39  C   UNL A   1      38.499  33.319  32.697  1.00  0.00     0.049 A 
ATOM     40  N   UNL A   1      39.623  30.823  31.457  1.00  0.00    -0.248 NA
ATOM     41  C   UNL A   1      38.522  31.402  29.483  1.00  0.00     0.031 C 
ATOM     42  C   UNL A   1      37.952  34.474  33.412  1.00  0.00     0.029 A 
ATOM     43  N   UNL A   1      39.572  32.940  33.470  1.00  0.00    -0.354 N 
ATOM     44  C   UNL A   1      39.910  29.880  30.479  1.00  0.00     0.074 A 
ATOM     45  C   UNL A   1      39.185  30.269  29.289  1.00  0.00     0.031 C 
ATOM     46  C   UNL A   1      38.724  34.748  34.472  1.00  0.00     0.029 A 
ATOM     47  C   UNL A   1      39.734  33.707  34.600  1.00  0.00     0.049 A 
ATOM     48  H   UNL A   1      40.167  32.191  33.237  1.00  0.00     0.167 HD
ATOM     49  C   UNL A   1      40.689  28.777  30.580  1.00  0.00     0.037 A 
ATOM     50  C   UNL A   1      40.543  33.555  35.665  1.00  0.00     0.037 A 
ATOM     51  C   UNL A   1      41.500  28.463  31.727  1.00  0.00     0.049 A 
ATOM     52  C   UNL A   1      41.424  32.345  35.749  1.00  0.00     0.074 A 
ATOM     53  C   UNL A   1      42.330  27.372  31.927  1.00  0.00     0.029 A 
ATOM     54  N   UNL A   1      41.618  29.265  32.850  1.00  0.00    -0.354 N 
ATOM     55  N   UNL A   1      41.565  31.368  34.887  1.00  0.00    -0.248 NA
ATOM     56  C   UNL A   1      42.222  32.191  36.973  1.00  0.00     0.031 C 
ATOM     57  C   UNL A   1      42.942  27.511  33.178  1.00  0.00     0.029 A 
ATOM     58  C   UNL A   1      42.513  28.701  33.742  1.00  0.00     0.049 A 
ATOM     59  H   UNL A   1      41.137  30.113  32.992  1.00  0.00     0.167 HD
ATOM     60  C   UNL A   1      42.454  30.476  35.470  1.00  0.00     0.074 A 
ATOM     61  C   UNL A   1      42.847  31.045  36.743  1.00  0.00     0.031 C 
ATOM     62  C   UNL A   1      42.889  29.282  35.003  1.00  0.00     0.037 A 
BRANCH  49  63
ATOM     63  C   UNL A   1      40.667  27.796  29.448  1.00  0.00     0.057 A 
ATOM     64  C   UNL A   1      41.644  27.775  28.448  1.00  0.00     0.134 A 
ATOM     65  C   UNL A   1      39.670  26.811  29.400  1.00  0.00     0.134 A 
ATOM     66  F   UNL A   1      42.615  28.700  28.427  1.00  0.00    -0.206 F 
ATOM     67  C   UNL A   1      41.627  26.812  27.436  1.00  0.00     0.040 A 
ATOM     68  C   UNL A   1      39.653  25.832  28.406  1.00  0.00     0.040 A 
ATOM     69  F   UNL A   1      38.705  26.774  30.332  1.00  0.00    -0.206 F 
ATOM     70  C   UNL A   1      40.635  25.832  27.419  1.00  0.00     0.006 A 
ENDBRANCH  49  63
BRANCH  50  71
ATOM     71  C   UNL A   1      40.474  34.526  36.787  1.00  0.00     0.057 A 
ATOM     72  C   UNL A   1      41.308  35.647  36.828  1.00  0.00     0.134 A 
ATOM     73  C   UNL A   1      39.560  34.361  37.837  1.00  0.00     0.134 A 
ATOM     74  F   UNL A   1      42.224  35.843  35.868  1.00  0.00    -0.206 F 
ATOM     75  C   UNL A   1      41.235  36.572  37.871  1.00  0.00     0.040 A 
ATOM     76  C   UNL A   1      39.456  35.292  38.869  1.00  0.00     0.040 A 
ATOM     77  F   UNL A   1      38.733  33.305  37.854  1.00  0.00    -0.206 F 
ATOM     78  C   UNL A   1      40.299  36.401  38.890  1.00  0.00     0.006 A 
ENDBRANCH  50  71
BRANCH  62  79
ATOM     79  C   UNL A   1      43.845  28.526  35.869  1.00  0.00     0.057 A 
ATOM     80  C   UNL A   1      45.223  28.770  35.822  1.00  0.00     0.134 A 
ATOM     81  C   UNL A   1      43.384  27.559  36.770  1.00  0.00     0.134 A 
ATOM     82  F   UNL A   1      45.724  29.675  34.968  1.00  0.00    -0.206 F 
ATOM     83  C   UNL A   1      46.113  28.065  36.632  1.00  0.00     0.040 A 
ATOM     84  C   UNL A   1      44.262  26.859  37.596  1.00  0.00     0.040 A 
ATOM     85  F   UNL A   1      42.074  27.284  36.861  1.00  0.00    -0.206 F 
ATOM     86  C   UNL A   1      45.632  27.109  37.526  1.00  0.00     0.006 A 
ENDBRANCH  62  79
ENDBRANCH  36  37
ENDBRANCH  29  31
ENDBRANCH  28  29
ENDBRANCH  27  28
ENDBRANCH   1  27
TORSDOF 13
ENDMDL
