MODEL 1
REMARK VINA RESULT:     -12.3      0.000      0.000
REMARK SMILES CC1(C)S[C@H](c2ccc(-c3cccc([N+](=O)[O-])c3)o2)[NH2+][C@@H]1C(=O)OCCOC(=O)c1ccc(-c2c3nc(c(-c4c(F)cccc4F)c4ccc([nH]4)c(-c4c(F)cccc4F)c4nc(c(-c5c(F)cccc5F)c5ccc2[nH]5)C=C4)C=C3)cc1
REMARK SMILES IDX 25 1 24 2 22 3 23 4 21 5 1 6 2 7 3 8 4 9 5 10 20 11 6 14
REMARK SMILES IDX 7 15 19 16 8 17 9 18 10 19 11 20 18 21 12 22 14 23 13 24
REMARK SMILES IDX 15 25 16 26 17 27 26 28 27 29 28 30 29 31 30 32 31 33 83 34
REMARK SMILES IDX 32 35 82 36 33 37 34 38 35 39 76 40 36 41 81 42 75 43 77 44
REMARK SMILES IDX 37 45 80 46 74 47 73 48 38 50 64 51 47 52 63 53 48 54 51 55
REMARK SMILES IDX 62 56 78 57 49 58 50 59 61 61 79 62 52 63 39 64 40 65 45 66
REMARK SMILES IDX 41 67 42 68 44 69 46 70 43 71 65 72 66 73 71 74 67 75 68 76
REMARK SMILES IDX 70 77 72 78 69 79 53 80 54 81 59 82 55 83 56 84 58 85 60 86
REMARK SMILES IDX 57 87
REMARK H PARENT 20 12 20 13 77 49 51 60
REMARK Flexibility Score: inf
ROOT
ATOM      1  C   UNL A   1      31.765  28.461  27.448  1.00  0.00     0.274 C 
ENDROOT
BRANCH   1   2
ATOM      2  O   UNL A   1      31.057  27.292  27.018  1.00  0.00    -0.458 OA
BRANCH   2   3
ATOM      3  C   UNL A   1      31.753  26.422  26.218  1.00  0.00     0.366 C 
ATOM      4  O   UNL A   1      32.828  26.673  25.697  1.00  0.00    -0.245 OA
BRANCH   3   5
ATOM      5  C   UNL A   1      30.986  25.087  26.133  1.00  0.00     0.310 C 
ATOM      6  C   UNL A   1      31.116  22.554  26.084  1.00  0.00     0.030 C 
ATOM      7  C   UNL A   1      31.668  23.860  25.471  1.00  0.00     0.079 C 
ATOM      8  C   UNL A   1      33.196  23.774  25.501  1.00  0.00     0.030 C 
ATOM      9  S   UNL A   1      31.113  23.923  23.731  1.00  0.00    -0.078 SA
ATOM     10  C   UNL A   1      29.887  25.242  24.010  1.00  0.00     0.311 C 
ATOM     11  N   UNL A   1      29.668  25.309  25.459  1.00  0.00    -0.316 N 
ATOM     12  H   UNL A   1      29.007  24.587  25.744  1.00  0.00     0.348 HD
ATOM     13  H   UNL A   1      29.285  26.218  25.719  1.00  0.00     0.348 HD
BRANCH  10  14
ATOM     14  C   UNL A   1      30.298  26.524  23.335  1.00  0.00     0.172 A 
ATOM     15  C   UNL A   1      31.330  26.807  22.455  1.00  0.00     0.054 A 
ATOM     16  O   UNL A   1      29.527  27.655  23.494  1.00  0.00    -0.454 OA
ATOM     17  C   UNL A   1      31.200  28.160  22.078  1.00  0.00     0.051 A 
ATOM     18  C   UNL A   1      30.091  28.641  22.734  1.00  0.00     0.134 A 
BRANCH  18  19
ATOM     19  C   UNL A   1      29.448  29.943  22.744  1.00  0.00     0.024 A 
ATOM     20  C   UNL A   1      29.532  30.765  23.876  1.00  0.00     0.012 A 
ATOM     21  C   UNL A   1      28.815  30.432  21.596  1.00  0.00     0.097 A 
ATOM     22  C   UNL A   1      28.916  32.020  23.906  1.00  0.00     0.008 A 
ATOM     23  C   UNL A   1      28.252  31.718  21.609  1.00  0.00     0.270 A 
ATOM     24  C   UNL A   1      28.273  32.503  22.770  1.00  0.00     0.085 A 
BRANCH  23  25
ATOM     25  N   UNL A   1      27.679  32.272  20.377  1.00  0.00     0.062 N 
ATOM     26  O   UNL A   1      27.650  33.506  20.259  1.00  0.00    -0.258 OA
ATOM     27  O   UNL A   1      27.278  31.474  19.518  1.00  0.00    -0.258 OA
ENDBRANCH  23  25
ENDBRANCH  18  19
ENDBRANCH  10  14
ENDBRANCH   3   5
ENDBRANCH   2   3
ENDBRANCH   1   2
BRANCH   1  28
ATOM     28  C   UNL A   1      31.797  29.565  26.395  1.00  0.00     0.275 C 
BRANCH  28  29
ATOM     29  O   UNL A   1      33.130  30.063  26.216  1.00  0.00    -0.458 OA
BRANCH  29  30
ATOM     30  C   UNL A   1      33.419  31.137  26.988  1.00  0.00     0.338 C 
ATOM     31  O   UNL A   1      32.696  32.080  27.254  1.00  0.00    -0.246 OA
BRANCH  30  32
ATOM     32  C   UNL A   1      34.710  30.918  27.654  1.00  0.00     0.060 A 
ATOM     33  C   UNL A   1      35.018  29.606  28.020  1.00  0.00     0.016 A 
ATOM     34  C   UNL A   1      35.578  31.968  27.956  1.00  0.00     0.016 A 
ATOM     35  C   UNL A   1      36.205  29.328  28.684  1.00  0.00     0.010 A 
ATOM     36  C   UNL A   1      36.760  31.693  28.648  1.00  0.00     0.010 A 
ATOM     37  C   UNL A   1      37.072  30.373  29.018  1.00  0.00    -0.014 A 
BRANCH  37  38
ATOM     38  C   UNL A   1      38.228  30.084  29.887  1.00  0.00     0.031 A 
ATOM     39  C   UNL A   1      39.299  29.173  29.371  1.00  0.00     0.074 A 
ATOM     40  C   UNL A   1      38.348  30.676  31.087  1.00  0.00     0.049 A 
ATOM     41  N   UNL A   1      40.367  28.722  29.974  1.00  0.00    -0.248 NA
ATOM     42  C   UNL A   1      39.152  28.719  27.978  1.00  0.00     0.031 C 
ATOM     43  C   UNL A   1      37.416  31.659  31.642  1.00  0.00     0.029 A 
ATOM     44  N   UNL A   1      39.307  30.533  32.055  1.00  0.00    -0.354 N 
ATOM     45  C   UNL A   1      41.014  27.925  29.041  1.00  0.00     0.074 A 
ATOM     46  C   UNL A   1      40.216  27.943  27.835  1.00  0.00     0.031 C 
ATOM     47  C   UNL A   1      37.842  32.014  32.866  1.00  0.00     0.029 A 
ATOM     48  C   UNL A   1      39.044  31.252  33.195  1.00  0.00     0.049 A 
ATOM     49  H   UNL A   1      40.106  29.968  31.944  1.00  0.00     0.167 HD
ATOM     50  C   UNL A   1      42.169  27.235  29.185  1.00  0.00     0.037 A 
ATOM     51  C   UNL A   1      39.685  31.255  34.379  1.00  0.00     0.037 A 
ATOM     52  C   UNL A   1      42.943  27.210  30.397  1.00  0.00     0.049 A 
ATOM     53  C   UNL A   1      40.900  30.381  34.555  1.00  0.00     0.074 A 
ATOM     54  C   UNL A   1      44.115  26.523  30.659  1.00  0.00     0.029 A 
ATOM     55  N   UNL A   1      42.614  27.898  31.556  1.00  0.00    -0.354 N 
ATOM     56  N   UNL A   1      41.500  29.609  33.679  1.00  0.00    -0.248 NA
ATOM     57  C   UNL A   1      41.523  30.370  35.886  1.00  0.00     0.031 C 
ATOM     58  C   UNL A   1      44.462  26.749  31.994  1.00  0.00     0.029 A 
ATOM     59  C   UNL A   1      43.543  27.628  32.546  1.00  0.00     0.049 A 
ATOM     60  H   UNL A   1      41.833  28.490  31.660  1.00  0.00     0.167 HD
ATOM     61  C   UNL A   1      42.585  29.048  34.342  1.00  0.00     0.074 A 
ATOM     62  C   UNL A   1      42.566  29.577  35.691  1.00  0.00     0.031 C 
ATOM     63  C   UNL A   1      43.513  28.176  33.879  1.00  0.00     0.037 A 
BRANCH  50  64
ATOM     64  C   UNL A   1      42.622  26.407  28.020  1.00  0.00     0.057 A 
ATOM     65  C   UNL A   1      42.217  25.077  27.847  1.00  0.00     0.134 A 
ATOM     66  C   UNL A   1      43.476  26.954  27.055  1.00  0.00     0.134 A 
ATOM     67  F   UNL A   1      41.416  24.487  28.748  1.00  0.00    -0.206 F 
ATOM     68  C   UNL A   1      42.665  24.314  26.767  1.00  0.00     0.040 A 
ATOM     69  C   UNL A   1      43.910  26.209  25.957  1.00  0.00     0.040 A 
ATOM     70  F   UNL A   1      43.905  28.221  27.163  1.00  0.00    -0.206 F 
ATOM     71  C   UNL A   1      43.510  24.882  25.815  1.00  0.00     0.006 A 
ENDBRANCH  50  64
BRANCH  51  72
ATOM     72  C   UNL A   1      39.169  32.070  35.509  1.00  0.00     0.057 A 
ATOM     73  C   UNL A   1      39.616  33.377  35.730  1.00  0.00     0.134 A 
ATOM     74  C   UNL A   1      38.245  31.544  36.423  1.00  0.00     0.134 A 
ATOM     75  F   UNL A   1      40.520  33.929  34.907  1.00  0.00    -0.206 F 
ATOM     76  C   UNL A   1      39.182  34.125  36.827  1.00  0.00     0.040 A 
ATOM     77  C   UNL A   1      37.780  32.290  37.506  1.00  0.00     0.040 A 
ATOM     78  F   UNL A   1      37.778  30.296  36.272  1.00  0.00    -0.206 F 
ATOM     79  C   UNL A   1      38.257  33.582  37.717  1.00  0.00     0.006 A 
ENDBRANCH  51  72
BRANCH  63  80
ATOM     80  C   UNL A   1      44.614  27.774  34.818  1.00  0.00     0.057 A 
ATOM     81  C   UNL A   1      45.802  28.506  34.929  1.00  0.00     0.134 A 
ATOM     82  C   UNL A   1      44.458  26.665  35.661  1.00  0.00     0.134 A 
ATOM     83  F   UNL A   1      46.021  29.571  34.143  1.00  0.00    -0.206 F 
ATOM     84  C   UNL A   1      46.803  28.139  35.831  1.00  0.00     0.040 A 
ATOM     85  C   UNL A   1      45.437  26.307  36.588  1.00  0.00     0.040 A 
ATOM     86  F   UNL A   1      43.339  25.925  35.613  1.00  0.00    -0.206 F 
ATOM     87  C   UNL A   1      46.617  27.042  36.670  1.00  0.00     0.006 A 
ENDBRANCH  63  80
ENDBRANCH  37  38
ENDBRANCH  30  32
ENDBRANCH  29  30
ENDBRANCH  28  29
ENDBRANCH   1  28
TORSDOF 14
ENDMDL
MODEL 2
REMARK VINA RESULT:     -12.2      4.794      9.797
REMARK SMILES CC1(C)S[C@H](c2ccc(-c3cccc([N+](=O)[O-])c3)o2)[NH2+][C@@H]1C(=O)OCCOC(=O)c1ccc(-c2c3nc(c(-c4c(F)cccc4F)c4ccc([nH]4)c(-c4c(F)cccc4F)c4nc(c(-c5c(F)cccc5F)c5ccc2[nH]5)C=C4)C=C3)cc1
REMARK SMILES IDX 25 1 24 2 22 3 23 4 21 5 1 6 2 7 3 8 4 9 5 10 20 11 6 14
REMARK SMILES IDX 7 15 19 16 8 17 9 18 10 19 11 20 18 21 12 22 14 23 13 24
REMARK SMILES IDX 15 25 16 26 17 27 26 28 27 29 28 30 29 31 30 32 31 33 83 34
REMARK SMILES IDX 32 35 82 36 33 37 34 38 35 39 76 40 36 41 81 42 75 43 77 44
REMARK SMILES IDX 37 45 80 46 74 47 73 48 38 50 64 51 47 52 63 53 48 54 51 55
REMARK SMILES IDX 62 56 78 57 49 58 50 59 61 61 79 62 52 63 39 64 40 65 45 66
REMARK SMILES IDX 41 67 42 68 44 69 46 70 43 71 65 72 66 73 71 74 67 75 68 76
REMARK SMILES IDX 70 77 72 78 69 79 53 80 54 81 59 82 55 83 56 84 58 85 60 86
REMARK SMILES IDX 57 87
REMARK H PARENT 20 12 20 13 77 49 51 60
REMARK Flexibility Score: inf
ROOT
ATOM      1  C   UNL A   1      35.710  22.269  23.989  1.00  0.00     0.274 C 
ENDROOT
BRANCH   1   2
ATOM      2  O   UNL A   1      35.896  23.690  23.976  1.00  0.00    -0.458 OA
BRANCH   2   3
ATOM      3  C   UNL A   1      35.060  24.419  24.782  1.00  0.00     0.366 C 
ATOM      4  O   UNL A   1      34.942  24.251  25.986  1.00  0.00    -0.245 OA
BRANCH   3   5
ATOM      5  C   UNL A   1      34.348  25.494  23.935  1.00  0.00     0.310 C 
ATOM      6  C   UNL A   1      33.517  27.885  23.788  1.00  0.00     0.030 C 
ATOM      7  C   UNL A   1      33.528  26.601  24.647  1.00  0.00     0.079 C 
ATOM      8  C   UNL A   1      33.927  27.001  26.069  1.00  0.00     0.030 C 
ATOM      9  S   UNL A   1      31.822  25.949  24.673  1.00  0.00    -0.078 SA
ATOM     10  C   UNL A   1      32.182  24.537  23.578  1.00  0.00     0.311 C 
ATOM     11  N   UNL A   1      33.464  24.830  22.927  1.00  0.00    -0.316 N 
ATOM     12  H   UNL A   1      33.315  25.453  22.133  1.00  0.00     0.348 HD
ATOM     13  H   UNL A   1      33.894  23.971  22.586  1.00  0.00     0.348 HD
BRANCH  10  14
ATOM     14  C   UNL A   1      32.091  23.229  24.320  1.00  0.00     0.172 A 
ATOM     15  C   UNL A   1      31.672  22.934  25.607  1.00  0.00     0.054 A 
ATOM     16  O   UNL A   1      32.380  22.053  23.664  1.00  0.00    -0.454 OA
ATOM     17  C   UNL A   1      31.723  21.531  25.751  1.00  0.00     0.051 A 
ATOM     18  C   UNL A   1      32.162  21.032  24.547  1.00  0.00     0.134 A 
BRANCH  18  19
ATOM     19  C   UNL A   1      32.405  19.680  24.078  1.00  0.00     0.024 A 
ATOM     20  C   UNL A   1      32.302  19.375  22.713  1.00  0.00     0.012 A 
ATOM     21  C   UNL A   1      32.832  18.685  24.964  1.00  0.00     0.097 A 
ATOM     22  C   UNL A   1      32.528  18.078  22.242  1.00  0.00     0.008 A 
ATOM     23  C   UNL A   1      33.118  17.399  24.479  1.00  0.00     0.270 A 
ATOM     24  C   UNL A   1      32.939  17.083  23.125  1.00  0.00     0.085 A 
BRANCH  23  25
ATOM     25  N   UNL A   1      33.663  16.385  25.388  1.00  0.00     0.062 N 
ATOM     26  O   UNL A   1      34.889  16.202  25.378  1.00  0.00    -0.258 OA
ATOM     27  O   UNL A   1      32.868  15.786  26.126  1.00  0.00    -0.258 OA
ENDBRANCH  23  25
ENDBRANCH  18  19
ENDBRANCH  10  14
ENDBRANCH   3   5
ENDBRANCH   2   3
ENDBRANCH   1   2
BRANCH   1  28
ATOM     28  C   UNL A   1      36.992  21.498  24.288  1.00  0.00     0.275 C 
BRANCH  28  29
ATOM     29  O   UNL A   1      37.314  21.562  25.684  1.00  0.00    -0.458 OA
BRANCH  29  30
ATOM     30  C   UNL A   1      38.600  21.242  25.962  1.00  0.00     0.338 C 
ATOM     31  O   UNL A   1      39.190  20.214  25.680  1.00  0.00    -0.246 OA
BRANCH  30  32
ATOM     32  C   UNL A   1      39.285  22.423  26.501  1.00  0.00     0.060 A 
ATOM     33  C   UNL A   1      38.800  23.672  26.104  1.00  0.00     0.016 A 
ATOM     34  C   UNL A   1      40.399  22.320  27.336  1.00  0.00     0.016 A 
ATOM     35  C   UNL A   1      39.419  24.832  26.547  1.00  0.00     0.010 A 
ATOM     36  C   UNL A   1      41.038  23.488  27.760  1.00  0.00     0.010 A 
ATOM     37  C   UNL A   1      40.552  24.745  27.362  1.00  0.00    -0.014 A 
BRANCH  37  38
ATOM     38  C   UNL A   1      41.305  25.978  27.663  1.00  0.00     0.031 A 
ATOM     39  C   UNL A   1      40.626  27.053  28.454  1.00  0.00     0.074 A 
ATOM     40  C   UNL A   1      42.590  26.103  27.291  1.00  0.00     0.049 A 
ATOM     41  N   UNL A   1      41.059  28.243  28.780  1.00  0.00    -0.248 NA
ATOM     42  C   UNL A   1      39.278  26.739  28.958  1.00  0.00     0.031 C 
ATOM     43  C   UNL A   1      43.377  25.076  26.609  1.00  0.00     0.029 A 
ATOM     44  N   UNL A   1      43.456  27.155  27.437  1.00  0.00    -0.354 N 
ATOM     45  C   UNL A   1      40.036  28.822  29.517  1.00  0.00     0.074 A 
ATOM     46  C   UNL A   1      38.958  27.862  29.583  1.00  0.00     0.031 C 
ATOM     47  C   UNL A   1      44.609  25.560  26.377  1.00  0.00     0.029 A 
ATOM     48  C   UNL A   1      44.679  26.940  26.851  1.00  0.00     0.049 A 
ATOM     49  H   UNL A   1      43.224  27.984  27.915  1.00  0.00     0.167 HD
ATOM     50  C   UNL A   1      40.003  30.052  30.083  1.00  0.00     0.037 A 
ATOM     51  C   UNL A   1      45.716  27.783  26.685  1.00  0.00     0.037 A 
ATOM     52  C   UNL A   1      41.077  31.004  29.993  1.00  0.00     0.049 A 
ATOM     53  C   UNL A   1      45.606  29.190  27.215  1.00  0.00     0.074 A 
ATOM     54  C   UNL A   1      41.137  32.288  30.506  1.00  0.00     0.029 A 
ATOM     55  N   UNL A   1      42.278  30.779  29.335  1.00  0.00    -0.354 N 
ATOM     56  N   UNL A   1      44.630  29.746  27.894  1.00  0.00    -0.248 NA
ATOM     57  C   UNL A   1      46.737  30.089  26.950  1.00  0.00     0.031 C 
ATOM     58  C   UNL A   1      42.350  32.859  30.109  1.00  0.00     0.029 A 
ATOM     59  C   UNL A   1      43.073  31.910  29.403  1.00  0.00     0.049 A 
ATOM     60  H   UNL A   1      42.527  29.939  28.884  1.00  0.00     0.167 HD
ATOM     61  C   UNL A   1      45.042  31.045  28.163  1.00  0.00     0.074 A 
ATOM     62  C   UNL A   1      46.362  31.191  27.582  1.00  0.00     0.031 C 
ATOM     63  C   UNL A   1      44.391  32.030  28.829  1.00  0.00     0.037 A 
BRANCH  50  64
ATOM     64  C   UNL A   1      38.743  30.446  30.790  1.00  0.00     0.057 A 
ATOM     65  C   UNL A   1      37.706  31.130  30.142  1.00  0.00     0.134 A 
ATOM     66  C   UNL A   1      38.564  30.132  32.143  1.00  0.00     0.134 A 
ATOM     67  F   UNL A   1      37.824  31.480  28.852  1.00  0.00    -0.206 F 
ATOM     68  C   UNL A   1      36.546  31.509  30.822  1.00  0.00     0.040 A 
ATOM     69  C   UNL A   1      37.399  30.482  32.826  1.00  0.00     0.040 A 
ATOM     70  F   UNL A   1      39.520  29.481  32.823  1.00  0.00    -0.206 F 
ATOM     71  C   UNL A   1      36.389  31.180  32.167  1.00  0.00     0.006 A 
ENDBRANCH  50  64
BRANCH  51  72
ATOM     72  C   UNL A   1      46.927  27.346  25.944  1.00  0.00     0.057 A 
ATOM     73  C   UNL A   1      47.047  27.541  24.563  1.00  0.00     0.134 A 
ATOM     74  C   UNL A   1      47.977  26.683  26.593  1.00  0.00     0.134 A 
ATOM     75  F   UNL A   1      46.065  28.146  23.879  1.00  0.00    -0.206 F 
ATOM     76  C   UNL A   1      48.156  27.076  23.851  1.00  0.00     0.040 A 
ATOM     77  C   UNL A   1      49.104  26.239  25.899  1.00  0.00     0.040 A 
ATOM     78  F   UNL A   1      47.925  26.460  27.914  1.00  0.00    -0.206 F 
ATOM     79  C   UNL A   1      49.190  26.426  24.522  1.00  0.00     0.006 A 
ENDBRANCH  51  72
BRANCH  63  80
ATOM     80  C   UNL A   1      45.109  33.336  29.011  1.00  0.00     0.057 A 
ATOM     81  C   UNL A   1      45.975  33.565  30.087  1.00  0.00     0.134 A 
ATOM     82  C   UNL A   1      44.972  34.359  28.063  1.00  0.00     0.134 A 
ATOM     83  F   UNL A   1      46.143  32.631  31.036  1.00  0.00    -0.206 F 
ATOM     84  C   UNL A   1      46.663  34.772  30.224  1.00  0.00     0.040 A 
ATOM     85  C   UNL A   1      45.677  35.557  28.173  1.00  0.00     0.040 A 
ATOM     86  F   UNL A   1      44.165  34.201  27.002  1.00  0.00    -0.206 F 
ATOM     87  C   UNL A   1      46.521  35.768  29.261  1.00  0.00     0.006 A 
ENDBRANCH  63  80
ENDBRANCH  37  38
ENDBRANCH  30  32
ENDBRANCH  29  30
ENDBRANCH  28  29
ENDBRANCH   1  28
TORSDOF 14
ENDMDL
MODEL 3
REMARK VINA RESULT:     -12.1      2.929      6.708
REMARK SMILES CC1(C)S[C@H](c2ccc(-c3cccc([N+](=O)[O-])c3)o2)[NH2+][C@@H]1C(=O)OCCOC(=O)c1ccc(-c2c3nc(c(-c4c(F)cccc4F)c4ccc([nH]4)c(-c4c(F)cccc4F)c4nc(c(-c5c(F)cccc5F)c5ccc2[nH]5)C=C4)C=C3)cc1
REMARK SMILES IDX 25 1 24 2 22 3 23 4 21 5 1 6 2 7 3 8 4 9 5 10 20 11 6 14
REMARK SMILES IDX 7 15 19 16 8 17 9 18 10 19 11 20 18 21 12 22 14 23 13 24
REMARK SMILES IDX 15 25 16 26 17 27 26 28 27 29 28 30 29 31 30 32 31 33 83 34
REMARK SMILES IDX 32 35 82 36 33 37 34 38 35 39 76 40 36 41 81 42 75 43 77 44
REMARK SMILES IDX 37 45 80 46 74 47 73 48 38 50 64 51 47 52 63 53 48 54 51 55
REMARK SMILES IDX 62 56 78 57 49 58 50 59 61 61 79 62 52 63 39 64 40 65 45 66
REMARK SMILES IDX 41 67 42 68 44 69 46 70 43 71 65 72 66 73 71 74 67 75 68 76
REMARK SMILES IDX 70 77 72 78 69 79 53 80 54 81 59 82 55 83 56 84 58 85 60 86
REMARK SMILES IDX 57 87
REMARK H PARENT 20 12 20 13 77 49 51 60
REMARK Flexibility Score: inf
ROOT
ATOM      1  C   UNL A   1      32.050  28.145  26.241  1.00  0.00     0.274 C 
ENDROOT
BRANCH   1   2
ATOM      2  O   UNL A   1      31.895  26.790  26.682  1.00  0.00    -0.458 OA
BRANCH   2   3
ATOM      3  C   UNL A   1      32.483  25.828  25.902  1.00  0.00     0.366 C 
ATOM      4  O   UNL A   1      33.570  25.949  25.358  1.00  0.00    -0.245 OA
BRANCH   3   5
ATOM      5  C   UNL A   1      31.581  24.577  25.872  1.00  0.00     0.310 C 
ATOM      6  C   UNL A   1      31.439  22.058  25.609  1.00  0.00     0.030 C 
ATOM      7  C   UNL A   1      31.995  23.364  24.997  1.00  0.00     0.079 C 
ATOM      8  C   UNL A   1      33.483  23.144  24.716  1.00  0.00     0.030 C 
ATOM      9  S   UNL A   1      31.127  23.636  23.413  1.00  0.00    -0.078 SA
ATOM     10  C   UNL A   1      30.119  25.024  24.028  1.00  0.00     0.311 C 
ATOM     11  N   UNL A   1      30.189  24.975  25.493  1.00  0.00    -0.316 N 
ATOM     12  H   UNL A   1      29.524  24.288  25.848  1.00  0.00     0.348 HD
ATOM     13  H   UNL A   1      29.958  25.885  25.890  1.00  0.00     0.348 HD
BRANCH  10  14
ATOM     14  C   UNL A   1      30.523  26.324  23.382  1.00  0.00     0.172 A 
ATOM     15  C   UNL A   1      31.524  26.623  22.472  1.00  0.00     0.054 A 
ATOM     16  O   UNL A   1      29.777  27.459  23.613  1.00  0.00    -0.454 OA
ATOM     17  C   UNL A   1      31.400  27.990  22.148  1.00  0.00     0.051 A 
ATOM     18  C   UNL A   1      30.326  28.464  22.866  1.00  0.00     0.134 A 
BRANCH  18  19
ATOM     19  C   UNL A   1      29.705  29.774  22.947  1.00  0.00     0.024 A 
ATOM     20  C   UNL A   1      29.894  30.577  24.081  1.00  0.00     0.012 A 
ATOM     21  C   UNL A   1      28.987  30.289  21.864  1.00  0.00     0.097 A 
ATOM     22  C   UNL A   1      29.302  31.839  24.181  1.00  0.00     0.008 A 
ATOM     23  C   UNL A   1      28.446  31.582  21.942  1.00  0.00     0.270 A 
ATOM     24  C   UNL A   1      28.574  32.349  23.109  1.00  0.00     0.085 A 
BRANCH  23  25
ATOM     25  N   UNL A   1      27.781  32.163  20.769  1.00  0.00     0.062 N 
ATOM     26  O   UNL A   1      27.512  33.373  20.801  1.00  0.00    -0.258 OA
ATOM     27  O   UNL A   1      27.547  31.415  19.809  1.00  0.00    -0.258 OA
ENDBRANCH  23  25
ENDBRANCH  18  19
ENDBRANCH  10  14
ENDBRANCH   3   5
ENDBRANCH   2   3
ENDBRANCH   1   2
BRANCH   1  28
ATOM     28  C   UNL A   1      32.501  29.089  27.353  1.00  0.00     0.275 C 
BRANCH  28  29
ATOM     29  O   UNL A   1      33.910  28.966  27.588  1.00  0.00    -0.458 OA
BRANCH  29  30
ATOM     30  C   UNL A   1      34.525  30.146  27.843  1.00  0.00     0.338 C 
ATOM     31  O   UNL A   1      34.022  31.254  27.890  1.00  0.00    -0.246 OA
BRANCH  30  32
ATOM     32  C   UNL A   1      35.907  29.886  28.267  1.00  0.00     0.060 A 
ATOM     33  C   UNL A   1      36.903  30.023  27.297  1.00  0.00     0.016 A 
ATOM     34  C   UNL A   1      36.222  29.477  29.564  1.00  0.00     0.016 A 
ATOM     35  C   UNL A   1      38.227  29.761  27.617  1.00  0.00     0.010 A 
ATOM     36  C   UNL A   1      37.551  29.187  29.879  1.00  0.00     0.010 A 
ATOM     37  C   UNL A   1      38.555  29.323  28.904  1.00  0.00    -0.014 A 
BRANCH  37  38
ATOM     38  C   UNL A   1      39.934  28.868  29.168  1.00  0.00     0.031 A 
ATOM     39  C   UNL A   1      40.861  29.787  29.902  1.00  0.00     0.074 A 
ATOM     40  C   UNL A   1      40.326  27.633  28.815  1.00  0.00     0.049 A 
ATOM     41  N   UNL A   1      42.127  29.635  30.187  1.00  0.00    -0.248 NA
ATOM     42  C   UNL A   1      40.275  31.046  30.393  1.00  0.00     0.031 C 
ATOM     43  C   UNL A   1      39.474  26.621  28.190  1.00  0.00     0.029 A 
ATOM     44  N   UNL A   1      41.547  27.023  28.933  1.00  0.00    -0.354 N 
ATOM     45  C   UNL A   1      42.493  30.779  30.881  1.00  0.00     0.074 A 
ATOM     46  C   UNL A   1      41.322  31.622  30.967  1.00  0.00     0.031 C 
ATOM     47  C   UNL A   1      40.209  25.519  27.960  1.00  0.00     0.029 A 
ATOM     48  C   UNL A   1      41.587  25.767  28.379  1.00  0.00     0.049 A 
ATOM     49  H   UNL A   1      42.321  27.444  29.372  1.00  0.00     0.167 HD
ATOM     50  C   UNL A   1      43.704  31.097  31.395  1.00  0.00     0.037 A 
ATOM     51  C   UNL A   1      42.631  24.937  28.197  1.00  0.00     0.037 A 
ATOM     52  C   UNL A   1      44.867  30.256  31.286  1.00  0.00     0.049 A 
ATOM     53  C   UNL A   1      43.997  25.367  28.667  1.00  0.00     0.074 A 
ATOM     54  C   UNL A   1      46.149  30.494  31.747  1.00  0.00     0.029 A 
ATOM     55  N   UNL A   1      44.888  29.019  30.659  1.00  0.00    -0.354 N 
ATOM     56  N   UNL A   1      44.348  26.459  29.305  1.00  0.00    -0.248 NA
ATOM     57  C   UNL A   1      45.113  24.454  28.386  1.00  0.00     0.031 C 
ATOM     58  C   UNL A   1      46.959  29.426  31.349  1.00  0.00     0.029 A 
ATOM     59  C   UNL A   1      46.168  28.493  30.696  1.00  0.00     0.049 A 
ATOM     60  H   UNL A   1      44.108  28.579  30.248  1.00  0.00     0.167 HD
ATOM     61  C   UNL A   1      45.715  26.350  29.528  1.00  0.00     0.074 A 
ATOM     62  C   UNL A   1      46.128  25.080  28.965  1.00  0.00     0.031 C 
ATOM     63  C   UNL A   1      46.555  27.219  30.141  1.00  0.00     0.037 A 
BRANCH  50  64
ATOM     64  C   UNL A   1      43.837  32.431  32.062  1.00  0.00     0.057 A 
ATOM     65  C   UNL A   1      44.225  33.581  31.363  1.00  0.00     0.134 A 
ATOM     66  C   UNL A   1      43.566  32.568  33.430  1.00  0.00     0.134 A 
ATOM     67  F   UNL A   1      44.520  33.514  30.055  1.00  0.00    -0.206 F 
ATOM     68  C   UNL A   1      44.364  34.813  32.005  1.00  0.00     0.040 A 
ATOM     69  C   UNL A   1      43.675  33.798  34.077  1.00  0.00     0.040 A 
ATOM     70  F   UNL A   1      43.192  31.505  34.159  1.00  0.00    -0.206 F 
ATOM     71  C   UNL A   1      44.083  34.925  33.365  1.00  0.00     0.006 A 
ENDBRANCH  50  64
BRANCH  51  72
ATOM     72  C   UNL A   1      42.445  23.640  27.496  1.00  0.00     0.057 A 
ATOM     73  C   UNL A   1      42.183  22.461  28.203  1.00  0.00     0.134 A 
ATOM     74  C   UNL A   1      42.569  23.541  26.104  1.00  0.00     0.134 A 
ATOM     75  F   UNL A   1      42.079  22.483  29.540  1.00  0.00    -0.206 F 
ATOM     76  C   UNL A   1      42.070  21.228  27.555  1.00  0.00     0.040 A 
ATOM     77  C   UNL A   1      42.430  22.321  25.441  1.00  0.00     0.040 A 
ATOM     78  F   UNL A   1      42.824  24.632  25.367  1.00  0.00    -0.206 F 
ATOM     79  C   UNL A   1      42.190  21.158  26.168  1.00  0.00     0.006 A 
ENDBRANCH  51  72
BRANCH  63  80
ATOM     80  C   UNL A   1      47.993  26.810  30.282  1.00  0.00     0.057 A 
ATOM     81  C   UNL A   1      48.443  26.032  31.356  1.00  0.00     0.134 A 
ATOM     82  C   UNL A   1      48.929  27.157  29.299  1.00  0.00     0.134 A 
ATOM     83  F   UNL A   1      47.602  25.676  32.338  1.00  0.00    -0.206 F 
ATOM     84  C   UNL A   1      49.777  25.631  31.456  1.00  0.00     0.040 A 
ATOM     85  C   UNL A   1      50.257  26.736  29.372  1.00  0.00     0.040 A 
ATOM     86  F   UNL A   1      48.562  27.892  28.238  1.00  0.00    -0.206 F 
ATOM     87  C   UNL A   1      50.685  25.975  30.457  1.00  0.00     0.006 A 
ENDBRANCH  63  80
ENDBRANCH  37  38
ENDBRANCH  30  32
ENDBRANCH  29  30
ENDBRANCH  28  29
ENDBRANCH   1  28
TORSDOF 14
ENDMDL
