MODEL 1
REMARK VINA RESULT:     -10.9      0.000      0.000
REMARK SMILES Cc1ccc(F)c(C(=O)N[C@@H]2C=C[C@@H](C(=O)OCCOC(=O)c3ccc(-c4c5nc(c(-c6c(F)cccc6F)c6ccc([nH]6)c(-c6c(F)cccc6F)c6nc(c(-c7c(F)cccc7F)c7ccc4[nH]7)C=C6)C=C5)cc3)C2)c1
REMARK SMILES IDX 18 1 17 2 15 3 16 4 14 5 11 6 12 7 77 8 13 9 10 10 8 11 9 12
REMARK SMILES IDX 7 14 1 15 2 16 3 17 78 18 4 19 5 20 6 21 19 22 20 23 21 24
REMARK SMILES IDX 22 25 23 26 24 27 76 28 25 29 75 30 26 31 27 32 28 33 69 34
REMARK SMILES IDX 29 35 74 36 68 37 70 38 30 39 73 40 67 41 66 42 31 44 57 45
REMARK SMILES IDX 40 46 56 47 41 48 44 49 55 50 71 51 42 52 43 53 54 55 72 56
REMARK SMILES IDX 45 57 32 58 33 59 38 60 34 61 35 62 37 63 39 64 36 65 58 66
REMARK SMILES IDX 59 67 64 68 60 69 61 70 63 71 65 72 62 73 46 74 47 75 52 76
REMARK SMILES IDX 48 77 49 78 51 79 53 80 50 81
REMARK H PARENT 10 13 70 43 44 54
REMARK Flexibility Score: inf
ROOT
ATOM      1  C   UNL A   1      33.730  33.770  28.118  1.00  0.00     0.274 C 
ENDROOT
BRANCH   1   2
ATOM      2  O   UNL A   1      34.113  34.952  28.848  1.00  0.00    -0.462 OA
BRANCH   2   3
ATOM      3  C   UNL A   1      33.136  35.642  29.489  1.00  0.00     0.312 C 
ATOM      4  O   UNL A   1      32.314  36.361  28.932  1.00  0.00    -0.252 OA
BRANCH   3   5
ATOM      5  C   UNL A   1      33.134  35.403  31.000  1.00  0.00     0.124 C 
ATOM      6  C   UNL A   1      34.799  35.734  32.809  1.00  0.00     0.106 C 
ATOM      7  C   UNL A   1      33.754  36.802  32.786  1.00  0.00    -0.006 C 
ATOM      8  C   UNL A   1      34.434  34.859  31.610  1.00  0.00     0.048 C 
ATOM      9  C   UNL A   1      32.873  36.645  31.792  1.00  0.00    -0.014 C 
BRANCH   6  10
ATOM     10  N   UNL A   1      34.772  35.059  34.090  1.00  0.00    -0.346 N 
ATOM     11  C   UNL A   1      35.690  34.238  34.711  1.00  0.00     0.254 C 
ATOM     12  O   UNL A   1      35.489  33.930  35.884  1.00  0.00    -0.269 OA
ATOM     13  H   UNL A   1      33.951  35.214  34.612  1.00  0.00     0.164 HD
BRANCH  11  14
ATOM     14  C   UNL A   1      36.867  33.679  34.002  1.00  0.00     0.075 A 
ATOM     15  C   UNL A   1      40.486  34.520  33.173  1.00  0.00     0.044 C 
ATOM     16  C   UNL A   1      39.178  33.786  33.240  1.00  0.00    -0.050 A 
ATOM     17  C   UNL A   1      38.979  32.627  32.479  1.00  0.00     0.006 A 
ATOM     18  C   UNL A   1      38.136  34.266  34.051  1.00  0.00     0.020 A 
ATOM     19  C   UNL A   1      37.741  31.989  32.490  1.00  0.00     0.040 A 
ATOM     20  C   UNL A   1      36.691  32.525  33.233  1.00  0.00     0.135 A 
ATOM     21  F   UNL A   1      35.499  31.916  33.152  1.00  0.00    -0.206 F 
ENDBRANCH  11  14
ENDBRANCH   6  10
ENDBRANCH   3   5
ENDBRANCH   2   3
ENDBRANCH   1   2
BRANCH   1  22
ATOM     22  C   UNL A   1      34.887  32.768  28.132  1.00  0.00     0.275 C 
BRANCH  22  23
ATOM     23  O   UNL A   1      34.504  31.543  28.793  1.00  0.00    -0.458 OA
BRANCH  23  24
ATOM     24  C   UNL A   1      34.862  30.413  28.148  1.00  0.00     0.338 C 
ATOM     25  O   UNL A   1      34.185  29.770  27.354  1.00  0.00    -0.246 OA
BRANCH  24  26
ATOM     26  C   UNL A   1      36.261  30.074  28.433  1.00  0.00     0.060 A 
ATOM     27  C   UNL A   1      37.180  30.120  27.380  1.00  0.00     0.016 A 
ATOM     28  C   UNL A   1      36.652  29.622  29.694  1.00  0.00     0.016 A 
ATOM     29  C   UNL A   1      38.494  29.715  27.579  1.00  0.00     0.010 A 
ATOM     30  C   UNL A   1      37.976  29.219  29.896  1.00  0.00     0.010 A 
ATOM     31  C   UNL A   1      38.902  29.260  28.839  1.00  0.00    -0.014 A 
BRANCH  31  32
ATOM     32  C   UNL A   1      40.307  28.838  29.041  1.00  0.00     0.031 A 
ATOM     33  C   UNL A   1      41.308  29.789  29.624  1.00  0.00     0.074 A 
ATOM     34  C   UNL A   1      40.669  27.588  28.702  1.00  0.00     0.049 A 
ATOM     35  N   UNL A   1      42.594  29.622  29.805  1.00  0.00    -0.248 NA
ATOM     36  C   UNL A   1      40.802  31.100  30.058  1.00  0.00     0.031 C 
ATOM     37  C   UNL A   1      39.772  26.570  28.152  1.00  0.00     0.029 A 
ATOM     38  N   UNL A   1      41.888  26.962  28.763  1.00  0.00    -0.354 N 
ATOM     39  C   UNL A   1      43.056  30.811  30.354  1.00  0.00     0.074 A 
ATOM     40  C   UNL A   1      41.915  31.694  30.471  1.00  0.00     0.031 C 
ATOM     41  C   UNL A   1      40.474  25.450  27.915  1.00  0.00     0.029 A 
ATOM     42  C   UNL A   1      41.872  25.684  28.263  1.00  0.00     0.049 A 
ATOM     43  H   UNL A   1      42.696  27.389  29.130  1.00  0.00     0.167 HD
ATOM     44  C   UNL A   1      44.318  31.130  30.723  1.00  0.00     0.037 A 
ATOM     45  C   UNL A   1      42.879  24.811  28.077  1.00  0.00     0.037 A 
ATOM     46  C   UNL A   1      45.443  30.236  30.631  1.00  0.00     0.049 A 
ATOM     47  C   UNL A   1      44.273  25.201  28.477  1.00  0.00     0.074 A 
ATOM     48  C   UNL A   1      46.754  30.457  31.019  1.00  0.00     0.029 A 
ATOM     49  N   UNL A   1      45.390  28.949  30.117  1.00  0.00    -0.354 N 
ATOM     50  N   UNL A   1      44.695  26.322  29.009  1.00  0.00    -0.248 NA
ATOM     51  C   UNL A   1      45.332  24.208  28.249  1.00  0.00     0.031 C 
ATOM     52  C   UNL A   1      47.501  29.316  30.707  1.00  0.00     0.029 A 
ATOM     53  C   UNL A   1      46.649  28.373  30.157  1.00  0.00     0.049 A 
ATOM     54  H   UNL A   1      44.578  28.511  29.776  1.00  0.00     0.167 HD
ATOM     55  C   UNL A   1      46.061  26.166  29.193  1.00  0.00     0.074 A 
ATOM     56  C   UNL A   1      46.397  24.835  28.732  1.00  0.00     0.031 C 
ATOM     57  C   UNL A   1      46.961  27.046  29.696  1.00  0.00     0.037 A 
BRANCH  44  58
ATOM     58  C   UNL A   1      44.566  32.514  31.241  1.00  0.00     0.057 A 
ATOM     59  C   UNL A   1      44.467  32.823  32.602  1.00  0.00     0.134 A 
ATOM     60  C   UNL A   1      44.977  33.532  30.371  1.00  0.00     0.134 A 
ATOM     61  F   UNL A   1      44.068  31.894  33.483  1.00  0.00    -0.206 F 
ATOM     62  C   UNL A   1      44.763  34.102  33.080  1.00  0.00     0.040 A 
ATOM     63  C   UNL A   1      45.291  34.808  30.839  1.00  0.00     0.040 A 
ATOM     64  F   UNL A   1      45.095  33.297  29.056  1.00  0.00    -0.206 F 
ATOM     65  C   UNL A   1      45.184  35.096  32.199  1.00  0.00     0.006 A 
ENDBRANCH  44  58
BRANCH  45  66
ATOM     66  C   UNL A   1      42.610  23.492  27.453  1.00  0.00     0.057 A 
ATOM     67  C   UNL A   1      42.303  22.370  28.228  1.00  0.00     0.134 A 
ATOM     68  C   UNL A   1      42.666  23.324  26.064  1.00  0.00     0.134 A 
ATOM     69  F   UNL A   1      42.257  22.464  29.565  1.00  0.00    -0.206 F 
ATOM     70  C   UNL A   1      42.077  21.121  27.646  1.00  0.00     0.040 A 
ATOM     71  C   UNL A   1      42.419  22.088  25.467  1.00  0.00     0.040 A 
ATOM     72  F   UNL A   1      42.954  24.364  25.267  1.00  0.00    -0.206 F 
ATOM     73  C   UNL A   1      42.130  20.980  26.260  1.00  0.00     0.006 A 
ENDBRANCH  45  66
BRANCH  57  74
ATOM     74  C   UNL A   1      48.383  26.586  29.789  1.00  0.00     0.057 A 
ATOM     75  C   UNL A   1      49.314  26.875  28.783  1.00  0.00     0.134 A 
ATOM     76  C   UNL A   1      48.833  25.876  30.908  1.00  0.00     0.134 A 
ATOM     77  F   UNL A   1      48.938  27.539  27.680  1.00  0.00    -0.206 F 
ATOM     78  C   UNL A   1      50.641  26.454  28.880  1.00  0.00     0.040 A 
ATOM     79  C   UNL A   1      50.162  25.469  31.025  1.00  0.00     0.040 A 
ATOM     80  F   UNL A   1      47.991  25.576  31.908  1.00  0.00    -0.206 F 
ATOM     81  C   UNL A   1      51.069  25.754  30.006  1.00  0.00     0.006 A 
ENDBRANCH  57  74
ENDBRANCH  31  32
ENDBRANCH  24  26
ENDBRANCH  23  24
ENDBRANCH  22  23
ENDBRANCH   1  22
TORSDOF 13
ENDMDL
MODEL 2
REMARK VINA RESULT:     -10.8      5.088     11.435
REMARK SMILES Cc1ccc(F)c(C(=O)N[C@@H]2C=C[C@@H](C(=O)OCCOC(=O)c3ccc(-c4c5nc(c(-c6c(F)cccc6F)c6ccc([nH]6)c(-c6c(F)cccc6F)c6nc(c(-c7c(F)cccc7F)c7ccc4[nH]7)C=C6)C=C5)cc3)C2)c1
REMARK SMILES IDX 18 1 17 2 15 3 16 4 14 5 11 6 12 7 77 8 13 9 10 10 8 11 9 12
REMARK SMILES IDX 7 14 1 15 2 16 3 17 78 18 4 19 5 20 6 21 19 22 20 23 21 24
REMARK SMILES IDX 22 25 23 26 24 27 76 28 25 29 75 30 26 31 27 32 28 33 69 34
REMARK SMILES IDX 29 35 74 36 68 37 70 38 30 39 73 40 67 41 66 42 31 44 57 45
REMARK SMILES IDX 40 46 56 47 41 48 44 49 55 50 71 51 42 52 43 53 54 55 72 56
REMARK SMILES IDX 45 57 32 58 33 59 38 60 34 61 35 62 37 63 39 64 36 65 58 66
REMARK SMILES IDX 59 67 64 68 60 69 61 70 63 71 65 72 62 73 46 74 47 75 52 76
REMARK SMILES IDX 48 77 49 78 51 79 53 80 50 81
REMARK H PARENT 10 13 70 43 44 54
REMARK Flexibility Score: inf
ROOT
ATOM      1  C   UNL A   1      43.154  20.920  25.747  1.00  0.00     0.274 C 
ENDROOT
BRANCH   1   2
ATOM      2  O   UNL A   1      42.621  21.265  27.039  1.00  0.00    -0.462 OA
BRANCH   2   3
ATOM      3  C   UNL A   1      41.284  21.125  27.229  1.00  0.00     0.312 C 
ATOM      4  O   UNL A   1      40.776  20.494  28.150  1.00  0.00    -0.252 OA
BRANCH   3   5
ATOM      5  C   UNL A   1      40.454  21.878  26.187  1.00  0.00     0.124 C 
ATOM      6  C   UNL A   1      38.054  21.889  25.563  1.00  0.00     0.106 C 
ATOM      7  C   UNL A   1      38.439  23.072  26.390  1.00  0.00    -0.006 C 
ATOM      8  C   UNL A   1      39.349  21.079  25.484  1.00  0.00     0.048 C 
ATOM      9  C   UNL A   1      39.725  23.054  26.756  1.00  0.00    -0.014 C 
BRANCH   6  10
ATOM     10  N   UNL A   1      37.534  22.337  24.287  1.00  0.00    -0.346 N 
ATOM     11  C   UNL A   1      36.253  22.637  23.875  1.00  0.00     0.254 C 
ATOM     12  O   UNL A   1      36.109  23.164  22.774  1.00  0.00    -0.269 OA
ATOM     13  H   UNL A   1      38.219  22.450  23.589  1.00  0.00     0.164 HD
BRANCH  11  14
ATOM     14  C   UNL A   1      35.057  22.298  24.684  1.00  0.00     0.075 A 
ATOM     15  C   UNL A   1      32.502  19.514  25.149  1.00  0.00     0.044 C 
ATOM     16  C   UNL A   1      33.232  20.815  25.320  1.00  0.00    -0.050 A 
ATOM     17  C   UNL A   1      32.696  21.823  26.129  1.00  0.00     0.006 A 
ATOM     18  C   UNL A   1      34.449  21.038  24.655  1.00  0.00     0.020 A 
ATOM     19  C   UNL A   1      33.341  23.054  26.230  1.00  0.00     0.040 A 
ATOM     20  C   UNL A   1      34.502  23.291  25.497  1.00  0.00     0.135 A 
ATOM     21  F   UNL A   1      35.044  24.515  25.570  1.00  0.00    -0.206 F 
ENDBRANCH  11  14
ENDBRANCH   6  10
ENDBRANCH   3   5
ENDBRANCH   2   3
ENDBRANCH   1   2
BRANCH   1  22
ATOM     22  C   UNL A   1      44.060  22.051  25.253  1.00  0.00     0.275 C 
BRANCH  22  23
ATOM     23  O   UNL A   1      43.319  23.282  25.109  1.00  0.00    -0.458 OA
BRANCH  23  24
ATOM     24  C   UNL A   1      44.045  24.406  25.281  1.00  0.00     0.338 C 
ATOM     25  O   UNL A   1      45.006  24.774  24.615  1.00  0.00    -0.246 OA
BRANCH  24  26
ATOM     26  C   UNL A   1      43.468  25.241  26.341  1.00  0.00     0.060 A 
ATOM     27  C   UNL A   1      43.898  26.567  26.448  1.00  0.00     0.016 A 
ATOM     28  C   UNL A   1      42.587  24.705  27.281  1.00  0.00     0.016 A 
ATOM     29  C   UNL A   1      43.452  27.366  27.494  1.00  0.00     0.010 A 
ATOM     30  C   UNL A   1      42.134  25.510  28.331  1.00  0.00     0.010 A 
ATOM     31  C   UNL A   1      42.568  26.843  28.444  1.00  0.00    -0.014 A 
BRANCH  31  32
ATOM     32  C   UNL A   1      42.094  27.706  29.550  1.00  0.00     0.031 A 
ATOM     33  C   UNL A   1      42.788  27.687  30.879  1.00  0.00     0.074 A 
ATOM     34  C   UNL A   1      41.038  28.513  29.344  1.00  0.00     0.049 A 
ATOM     35  N   UNL A   1      42.473  28.316  31.982  1.00  0.00    -0.248 NA
ATOM     36  C   UNL A   1      43.994  26.851  30.984  1.00  0.00     0.031 C 
ATOM     37  C   UNL A   1      40.303  28.634  28.084  1.00  0.00     0.029 A 
ATOM     38  N   UNL A   1      40.395  29.380  30.191  1.00  0.00    -0.354 N 
ATOM     39  C   UNL A   1      43.425  27.937  32.920  1.00  0.00     0.074 A 
ATOM     40  C   UNL A   1      44.327  27.018  32.258  1.00  0.00     0.031 C 
ATOM     41  C   UNL A   1      39.302  29.515  28.243  1.00  0.00     0.029 A 
ATOM     42  C   UNL A   1      39.305  29.991  29.623  1.00  0.00     0.049 A 
ATOM     43  H   UNL A   1      40.688  29.546  31.116  1.00  0.00     0.167 HD
ATOM     44  C   UNL A   1      43.530  28.323  34.213  1.00  0.00     0.037 A 
ATOM     45  C   UNL A   1      38.393  30.819  30.165  1.00  0.00     0.037 A 
ATOM     46  C   UNL A   1      42.647  29.260  34.856  1.00  0.00     0.049 A 
ATOM     47  C   UNL A   1      38.524  31.213  31.608  1.00  0.00     0.074 A 
ATOM     48  C   UNL A   1      42.699  29.744  36.153  1.00  0.00     0.029 A 
ATOM     49  N   UNL A   1      41.552  29.858  34.250  1.00  0.00    -0.354 N 
ATOM     50  N   UNL A   1      39.437  30.860  32.480  1.00  0.00    -0.248 NA
ATOM     51  C   UNL A   1      37.497  32.117  32.145  1.00  0.00     0.031 C 
ATOM     52  C   UNL A   1      41.615  30.607  36.342  1.00  0.00     0.029 A 
ATOM     53  C   UNL A   1      40.908  30.687  35.153  1.00  0.00     0.049 A 
ATOM     54  H   UNL A   1      41.274  29.714  33.317  1.00  0.00     0.167 HD
ATOM     55  C   UNL A   1      39.106  31.508  33.661  1.00  0.00     0.074 A 
ATOM     56  C   UNL A   1      37.918  32.290  33.392  1.00  0.00     0.031 C 
ATOM     57  C   UNL A   1      39.728  31.459  34.864  1.00  0.00     0.037 A 
BRANCH  44  58
ATOM     58  C   UNL A   1      44.626  27.717  35.035  1.00  0.00     0.057 A 
ATOM     59  C   UNL A   1      44.456  26.510  35.721  1.00  0.00     0.134 A 
ATOM     60  C   UNL A   1      45.891  28.318  35.081  1.00  0.00     0.134 A 
ATOM     61  F   UNL A   1      43.265  25.891  35.724  1.00  0.00    -0.206 F 
ATOM     62  C   UNL A   1      45.505  25.923  36.432  1.00  0.00     0.040 A 
ATOM     63  C   UNL A   1      46.951  27.732  35.773  1.00  0.00     0.040 A 
ATOM     64  F   UNL A   1      46.119  29.474  34.440  1.00  0.00    -0.206 F 
ATOM     65  C   UNL A   1      46.759  26.530  36.452  1.00  0.00     0.006 A 
ENDBRANCH  44  58
BRANCH  45  66
ATOM     66  C   UNL A   1      37.255  31.304  29.346  1.00  0.00     0.057 A 
ATOM     67  C   UNL A   1      37.267  32.578  28.768  1.00  0.00     0.134 A 
ATOM     68  C   UNL A   1      36.124  30.507  29.134  1.00  0.00     0.134 A 
ATOM     69  F   UNL A   1      38.314  33.395  28.955  1.00  0.00    -0.206 F 
ATOM     70  C   UNL A   1      36.186  33.049  28.020  1.00  0.00     0.040 A 
ATOM     71  C   UNL A   1      35.048  30.955  28.369  1.00  0.00     0.040 A 
ATOM     72  F   UNL A   1      36.055  29.276  29.660  1.00  0.00    -0.206 F 
ATOM     73  C   UNL A   1      35.074  32.233  27.815  1.00  0.00     0.006 A 
ENDBRANCH  45  66
BRANCH  57  74
ATOM     74  C   UNL A   1      39.143  32.287  35.966  1.00  0.00     0.057 A 
ATOM     75  C   UNL A   1      38.241  31.747  36.890  1.00  0.00     0.134 A 
ATOM     76  C   UNL A   1      39.510  33.629  36.124  1.00  0.00     0.134 A 
ATOM     77  F   UNL A   1      37.840  30.471  36.782  1.00  0.00    -0.206 F 
ATOM     78  C   UNL A   1      37.707  32.520  37.922  1.00  0.00     0.040 A 
ATOM     79  C   UNL A   1      38.999  34.406  37.163  1.00  0.00     0.040 A 
ATOM     80  F   UNL A   1      40.376  34.203  35.274  1.00  0.00    -0.206 F 
ATOM     81  C   UNL A   1      38.091  33.853  38.064  1.00  0.00     0.006 A 
ENDBRANCH  57  74
ENDBRANCH  31  32
ENDBRANCH  24  26
ENDBRANCH  23  24
ENDBRANCH  22  23
ENDBRANCH   1  22
TORSDOF 13
ENDMDL
MODEL 3
REMARK VINA RESULT:     -10.6      4.464      9.823
REMARK SMILES Cc1ccc(F)c(C(=O)N[C@@H]2C=C[C@@H](C(=O)OCCOC(=O)c3ccc(-c4c5nc(c(-c6c(F)cccc6F)c6ccc([nH]6)c(-c6c(F)cccc6F)c6nc(c(-c7c(F)cccc7F)c7ccc4[nH]7)C=C6)C=C5)cc3)C2)c1
REMARK SMILES IDX 18 1 17 2 15 3 16 4 14 5 11 6 12 7 77 8 13 9 10 10 8 11 9 12
REMARK SMILES IDX 7 14 1 15 2 16 3 17 78 18 4 19 5 20 6 21 19 22 20 23 21 24
REMARK SMILES IDX 22 25 23 26 24 27 76 28 25 29 75 30 26 31 27 32 28 33 69 34
REMARK SMILES IDX 29 35 74 36 68 37 70 38 30 39 73 40 67 41 66 42 31 44 57 45
REMARK SMILES IDX 40 46 56 47 41 48 44 49 55 50 71 51 42 52 43 53 54 55 72 56
REMARK SMILES IDX 45 57 32 58 33 59 38 60 34 61 35 62 37 63 39 64 36 65 58 66
REMARK SMILES IDX 59 67 64 68 60 69 61 70 63 71 65 72 62 73 46 74 47 75 52 76
REMARK SMILES IDX 48 77 49 78 51 79 53 80 50 81
REMARK H PARENT 10 13 70 43 44 54
REMARK Flexibility Score: inf
ROOT
ATOM      1  C   UNL A   1      31.733  30.909  26.135  1.00  0.00     0.274 C 
ENDROOT
BRANCH   1   2
ATOM      2  O   UNL A   1      31.793  29.819  27.075  1.00  0.00    -0.462 OA
BRANCH   2   3
ATOM      3  C   UNL A   1      32.772  28.895  26.909  1.00  0.00     0.312 C 
ATOM      4  O   UNL A   1      33.734  28.760  27.658  1.00  0.00    -0.252 OA
BRANCH   3   5
ATOM      5  C   UNL A   1      32.537  27.991  25.697  1.00  0.00     0.124 C 
ATOM      6  C   UNL A   1      33.687  25.997  24.773  1.00  0.00     0.106 C 
ATOM      7  C   UNL A   1      32.437  25.649  25.514  1.00  0.00    -0.006 C 
ATOM      8  C   UNL A   1      33.788  27.513  24.945  1.00  0.00     0.048 C 
ATOM      9  C   UNL A   1      31.831  26.718  26.041  1.00  0.00    -0.014 C 
BRANCH   6  10
ATOM     10  N   UNL A   1      33.581  25.543  23.402  1.00  0.00    -0.346 N 
ATOM     11  C   UNL A   1      33.678  24.286  22.844  1.00  0.00     0.254 C 
ATOM     12  O   UNL A   1      33.375  24.154  21.660  1.00  0.00    -0.269 OA
ATOM     13  H   UNL A   1      33.406  26.261  22.751  1.00  0.00     0.164 HD
BRANCH  11  14
ATOM     14  C   UNL A   1      34.182  23.115  23.602  1.00  0.00     0.075 A 
ATOM     15  C   UNL A   1      37.446  21.444  24.625  1.00  0.00     0.044 C 
ATOM     16  C   UNL A   1      35.978  21.719  24.473  1.00  0.00    -0.050 A 
ATOM     17  C   UNL A   1      35.036  20.774  24.898  1.00  0.00     0.006 A 
ATOM     18  C   UNL A   1      35.537  22.917  23.888  1.00  0.00     0.020 A 
ATOM     19  C   UNL A   1      33.677  21.002  24.692  1.00  0.00     0.040 A 
ATOM     20  C   UNL A   1      33.259  22.156  24.033  1.00  0.00     0.135 A 
ATOM     21  F   UNL A   1      31.947  22.295  23.793  1.00  0.00    -0.206 F 
ENDBRANCH  11  14
ENDBRANCH   6  10
ENDBRANCH   3   5
ENDBRANCH   2   3
ENDBRANCH   1   2
BRANCH   1  22
ATOM     22  C   UNL A   1      31.509  32.221  26.894  1.00  0.00     0.275 C 
BRANCH  22  23
ATOM     23  O   UNL A   1      32.625  33.120  26.713  1.00  0.00    -0.458 OA
BRANCH  23  24
ATOM     24  C   UNL A   1      32.999  33.791  27.822  1.00  0.00     0.338 C 
ATOM     25  O   UNL A   1      32.393  34.704  28.371  1.00  0.00    -0.246 OA
BRANCH  24  26
ATOM     26  C   UNL A   1      34.220  33.212  28.392  1.00  0.00     0.060 A 
ATOM     27  C   UNL A   1      34.130  31.970  29.027  1.00  0.00     0.016 A 
ATOM     28  C   UNL A   1      35.423  33.921  28.392  1.00  0.00     0.016 A 
ATOM     29  C   UNL A   1      35.239  31.427  29.666  1.00  0.00     0.010 A 
ATOM     30  C   UNL A   1      36.540  33.372  29.030  1.00  0.00     0.010 A 
ATOM     31  C   UNL A   1      36.452  32.126  29.674  1.00  0.00    -0.014 A 
BRANCH  31  32
ATOM     32  C   UNL A   1      37.627  31.534  30.352  1.00  0.00     0.031 A 
ATOM     33  C   UNL A   1      38.502  30.550  29.634  1.00  0.00     0.074 A 
ATOM     34  C   UNL A   1      37.905  31.897  31.616  1.00  0.00     0.049 A 
ATOM     35  N   UNL A   1      39.527  29.875  30.087  1.00  0.00    -0.248 NA
ATOM     36  C   UNL A   1      38.183  30.288  28.222  1.00  0.00     0.031 C 
ATOM     37  C   UNL A   1      37.139  32.865  32.403  1.00  0.00     0.029 A 
ATOM     38  N   UNL A   1      38.901  31.490  32.467  1.00  0.00    -0.354 N 
ATOM     39  C   UNL A   1      39.964  29.092  29.027  1.00  0.00     0.074 A 
ATOM     40  C   UNL A   1      39.090  29.370  27.908  1.00  0.00     0.031 C 
ATOM     41  C   UNL A   1      37.687  32.970  33.624  1.00  0.00     0.029 A 
ATOM     42  C   UNL A   1      38.818  32.051  33.716  1.00  0.00     0.049 A 
ATOM     43  H   UNL A   1      39.608  30.856  32.204  1.00  0.00     0.167 HD
ATOM     44  C   UNL A   1      41.000  28.221  28.997  1.00  0.00     0.037 A 
ATOM     45  C   UNL A   1      39.551  31.825  34.821  1.00  0.00     0.037 A 
ATOM     46  C   UNL A   1      41.884  27.971  30.106  1.00  0.00     0.049 A 
ATOM     47  C   UNL A   1      40.682  30.838  34.763  1.00  0.00     0.074 A 
ATOM     48  C   UNL A   1      42.988  27.136  30.157  1.00  0.00     0.029 A 
ATOM     49  N   UNL A   1      41.767  28.557  31.358  1.00  0.00    -0.354 N 
ATOM     50  N   UNL A   1      41.094  30.115  33.751  1.00  0.00    -0.248 NA
ATOM     51  C   UNL A   1      41.447  30.632  36.002  1.00  0.00     0.031 C 
ATOM     52  C   UNL A   1      43.517  27.189  31.451  1.00  0.00     0.029 A 
ATOM     53  C   UNL A   1      42.764  28.083  32.194  1.00  0.00     0.049 A 
ATOM     54  H   UNL A   1      41.078  29.211  31.613  1.00  0.00     0.167 HD
ATOM     55  C   UNL A   1      42.173  29.381  34.222  1.00  0.00     0.074 A 
ATOM     56  C   UNL A   1      42.364  29.758  35.608  1.00  0.00     0.031 C 
ATOM     57  C   UNL A   1      42.938  28.473  33.569  1.00  0.00     0.037 A 
BRANCH  44  58
ATOM     58  C   UNL A   1      41.228  27.450  27.734  1.00  0.00     0.057 A 
ATOM     59  C   UNL A   1      42.029  27.946  26.698  1.00  0.00     0.134 A 
ATOM     60  C   UNL A   1      40.694  26.163  27.583  1.00  0.00     0.134 A 
ATOM     61  F   UNL A   1      42.560  29.175  26.779  1.00  0.00    -0.206 F 
ATOM     62  C   UNL A   1      42.286  27.190  25.552  1.00  0.00     0.040 A 
ATOM     63  C   UNL A   1      40.958  25.393  26.451  1.00  0.00     0.040 A 
ATOM     64  F   UNL A   1      39.923  25.631  28.542  1.00  0.00    -0.206 F 
ATOM     65  C   UNL A   1      41.757  25.907  25.430  1.00  0.00     0.006 A 
ENDBRANCH  44  58
BRANCH  45  66
ATOM     66  C   UNL A   1      39.219  32.525  36.086  1.00  0.00     0.057 A 
ATOM     67  C   UNL A   1      39.759  33.779  36.388  1.00  0.00     0.134 A 
ATOM     68  C   UNL A   1      38.360  31.946  37.029  1.00  0.00     0.134 A 
ATOM     69  F   UNL A   1      40.607  34.372  35.534  1.00  0.00    -0.206 F 
ATOM     70  C   UNL A   1      39.471  34.428  37.590  1.00  0.00     0.040 A 
ATOM     71  C   UNL A   1      38.043  32.594  38.223  1.00  0.00     0.040 A 
ATOM     72  F   UNL A   1      37.808  30.747  36.795  1.00  0.00    -0.206 F 
ATOM     73  C   UNL A   1      38.606  33.836  38.509  1.00  0.00     0.006 A 
ENDBRANCH  45  66
BRANCH  57  74
ATOM     74  C   UNL A   1      44.056  27.845  34.341  1.00  0.00     0.057 A 
ATOM     75  C   UNL A   1      45.319  28.444  34.422  1.00  0.00     0.134 A 
ATOM     76  C   UNL A   1      43.859  26.646  35.036  1.00  0.00     0.134 A 
ATOM     77  F   UNL A   1      45.573  29.586  33.766  1.00  0.00    -0.206 F 
ATOM     78  C   UNL A   1      46.355  27.860  35.153  1.00  0.00     0.040 A 
ATOM     79  C   UNL A   1      44.880  26.063  35.786  1.00  0.00     0.040 A 
ATOM     80  F   UNL A   1      42.669  26.026  35.003  1.00  0.00    -0.206 F 
ATOM     81  C   UNL A   1      46.135  26.668  35.843  1.00  0.00     0.006 A 
ENDBRANCH  57  74
ENDBRANCH  31  32
ENDBRANCH  24  26
ENDBRANCH  23  24
ENDBRANCH  22  23
ENDBRANCH   1  22
TORSDOF 13
ENDMDL
