MODEL 1
REMARK VINA RESULT:      -9.8      0.000      0.000
REMARK SMILES C[N@@H+]1CCC[C@@H](C[NH2+]CC(=O)OCCOC(=O)c2ccc(-c3c4nc(c(-c5c(F)cccc5F)c5ccc([nH]5)c(-c5c(F)cccc5F)c5nc(c(-c6c(F)cccc6F)c6ccc3[nH]6)C=C5)C=C4)cc2)C1
REMARK SMILES IDX 13 1 12 2 10 3 11 4 9 5 8 6 7 9 6 10 1 11 2 12 3 13 72 14
REMARK SMILES IDX 4 16 5 17 14 18 15 19 16 20 17 21 18 22 19 23 71 24 20 25
REMARK SMILES IDX 70 26 21 27 22 28 23 29 64 30 24 31 69 32 63 33 65 34 25 35
REMARK SMILES IDX 68 36 62 37 61 38 26 40 52 41 35 42 51 43 36 44 39 45 50 46
REMARK SMILES IDX 66 47 37 48 38 49 49 51 67 52 40 53 27 54 28 55 33 56 29 57
REMARK SMILES IDX 30 58 32 59 34 60 31 61 53 62 54 63 59 64 55 65 56 66 58 67
REMARK SMILES IDX 60 68 57 69 41 70 42 71 47 72 43 73 44 74 46 75 48 76 45 77
REMARK H PARENT 8 7 8 8 2 15 65 39 39 50
REMARK Flexibility Score: inf
ROOT
ATOM      1  C   UNL A   1      33.279  37.037  30.059  1.00  0.00     0.274 C 
ENDROOT
BRANCH   1   2
ATOM      2  O   UNL A   1      32.259  36.649  30.996  1.00  0.00    -0.458 OA
BRANCH   2   3
ATOM      3  C   UNL A   1      32.627  36.471  32.292  1.00  0.00     0.361 C 
ATOM      4  O   UNL A   1      32.162  37.100  33.237  1.00  0.00    -0.245 OA
BRANCH   3   5
ATOM      5  C   UNL A   1      33.707  35.397  32.450  1.00  0.00     0.384 C 
BRANCH   5   6
ATOM      6  N   UNL A   1      35.091  35.920  32.540  1.00  0.00    -0.337 N 
ATOM      7  H   UNL A   1      35.359  36.299  31.632  1.00  0.00     0.346 HD
ATOM      8  H   UNL A   1      35.107  36.641  33.262  1.00  0.00     0.346 HD
BRANCH   6   9
ATOM      9  C   UNL A   1      36.050  34.880  32.920  1.00  0.00     0.270 C 
BRANCH   9  10
ATOM     10  C   UNL A   1      35.455  33.792  33.842  1.00  0.00     0.099 C 
ATOM     11  C   UNL A   1      37.626  30.724  33.307  1.00  0.00     0.332 C 
ATOM     12  N   UNL A   1      37.292  32.090  33.713  1.00  0.00    -0.337 N 
ATOM     13  C   UNL A   1      37.668  32.320  35.111  1.00  0.00     0.262 C 
ATOM     14  C   UNL A   1      35.861  32.349  33.488  1.00  0.00     0.271 C 
ATOM     15  H   UNL A   1      37.825  32.745  33.142  1.00  0.00     0.347 HD
ATOM     16  C   UNL A   1      37.326  33.742  35.559  1.00  0.00     0.062 C 
ATOM     17  C   UNL A   1      35.856  34.074  35.303  1.00  0.00     0.021 C 
ENDBRANCH   9  10
ENDBRANCH   6   9
ENDBRANCH   5   6
ENDBRANCH   3   5
ENDBRANCH   2   3
ENDBRANCH   1   2
BRANCH   1  18
ATOM     18  C   UNL A   1      33.160  36.240  28.754  1.00  0.00     0.275 C 
BRANCH  18  19
ATOM     19  O   UNL A   1      32.564  34.948  28.978  1.00  0.00    -0.458 OA
BRANCH  19  20
ATOM     20  C   UNL A   1      33.081  33.946  28.233  1.00  0.00     0.338 C 
ATOM     21  O   UNL A   1      32.633  33.483  27.199  1.00  0.00    -0.246 OA
BRANCH  20  22
ATOM     22  C   UNL A   1      34.390  33.528  28.749  1.00  0.00     0.060 A 
ATOM     23  C   UNL A   1      35.511  33.834  27.968  1.00  0.00     0.016 A 
ATOM     24  C   UNL A   1      34.515  32.774  29.917  1.00  0.00     0.016 A 
ATOM     25  C   UNL A   1      36.764  33.368  28.340  1.00  0.00     0.010 A 
ATOM     26  C   UNL A   1      35.776  32.305  30.290  1.00  0.00     0.010 A 
ATOM     27  C   UNL A   1      36.900  32.585  29.492  1.00  0.00    -0.014 A 
BRANCH  27  28
ATOM     28  C   UNL A   1      38.218  32.001  29.814  1.00  0.00     0.031 A 
ATOM     29  C   UNL A   1      39.170  32.760  30.688  1.00  0.00     0.074 A 
ATOM     30  C   UNL A   1      38.535  30.779  29.353  1.00  0.00     0.049 A 
ATOM     31  N   UNL A   1      40.382  32.443  31.064  1.00  0.00    -0.248 NA
ATOM     32  C   UNL A   1      38.694  34.052  31.212  1.00  0.00     0.031 C 
ATOM     33  C   UNL A   1      37.667  29.936  28.531  1.00  0.00     0.029 A 
ATOM     34  N   UNL A   1      39.673  30.035  29.515  1.00  0.00    -0.354 N 
ATOM     35  C   UNL A   1      40.818  33.496  31.855  1.00  0.00     0.074 A 
ATOM     36  C   UNL A   1      39.751  34.472  31.893  1.00  0.00     0.031 C 
ATOM     37  C   UNL A   1      38.305  28.787  28.260  1.00  0.00     0.029 A 
ATOM     38  C   UNL A   1      39.636  28.829  28.860  1.00  0.00     0.049 A 
ATOM     39  H   UNL A   1      40.444  30.335  30.049  1.00  0.00     0.167 HD
ATOM     40  C   UNL A   1      42.002  33.630  32.498  1.00  0.00     0.037 A 
ATOM     41  C   UNL A   1      40.579  27.876  28.746  1.00  0.00     0.037 A 
ATOM     42  C   UNL A   1      43.056  32.650  32.464  1.00  0.00     0.049 A 
ATOM     43  C   UNL A   1      41.903  28.071  29.431  1.00  0.00     0.074 A 
ATOM     44  C   UNL A   1      44.293  32.688  33.083  1.00  0.00     0.029 A 
ATOM     45  N   UNL A   1      42.991  31.450  31.772  1.00  0.00    -0.354 N 
ATOM     46  N   UNL A   1      42.308  29.071  30.177  1.00  0.00    -0.248 NA
ATOM     47  C   UNL A   1      42.900  27.007  29.259  1.00  0.00     0.031 C 
ATOM     48  C   UNL A   1      44.991  31.525  32.737  1.00  0.00     0.029 A 
ATOM     49  C   UNL A   1      44.173  30.746  31.935  1.00  0.00     0.049 A 
ATOM     50  H   UNL A   1      42.220  31.144  31.242  1.00  0.00     0.167 HD
ATOM     51  C   UNL A   1      43.596  28.746  30.582  1.00  0.00     0.074 A 
ATOM     52  C   UNL A   1      43.900  27.452  30.007  1.00  0.00     0.031 C 
ATOM     53  C   UNL A   1      44.449  29.455  31.359  1.00  0.00     0.037 A 
BRANCH  40  54
ATOM     54  C   UNL A   1      42.227  34.896  33.269  1.00  0.00     0.057 A 
ATOM     55  C   UNL A   1      41.732  35.069  34.567  1.00  0.00     0.134 A 
ATOM     56  C   UNL A   1      42.968  35.946  32.712  1.00  0.00     0.134 A 
ATOM     57  F   UNL A   1      41.000  34.106  35.150  1.00  0.00    -0.206 F 
ATOM     58  C   UNL A   1      41.948  36.251  35.278  1.00  0.00     0.040 A 
ATOM     59  C   UNL A   1      43.209  37.124  33.422  1.00  0.00     0.040 A 
ATOM     60  F   UNL A   1      43.472  35.843  31.474  1.00  0.00    -0.206 F 
ATOM     61  C   UNL A   1      42.693  37.281  34.707  1.00  0.00     0.006 A 
ENDBRANCH  40  54
BRANCH  41  62
ATOM     62  C   UNL A   1      40.307  26.660  27.944  1.00  0.00     0.057 A 
ATOM     63  C   UNL A   1      40.836  26.506  26.658  1.00  0.00     0.134 A 
ATOM     64  C   UNL A   1      39.509  25.624  28.444  1.00  0.00     0.134 A 
ATOM     65  F   UNL A   1      41.590  27.474  26.118  1.00  0.00    -0.206 F 
ATOM     66  C   UNL A   1      40.572  25.370  25.893  1.00  0.00     0.040 A 
ATOM     67  C   UNL A   1      39.255  24.472  27.699  1.00  0.00     0.040 A 
ATOM     68  F   UNL A   1      38.975  25.713  29.672  1.00  0.00    -0.206 F 
ATOM     69  C   UNL A   1      39.784  24.346  26.416  1.00  0.00     0.006 A 
ENDBRANCH  41  62
BRANCH  53  70
ATOM     70  C   UNL A   1      45.778  28.828  31.658  1.00  0.00     0.057 A 
ATOM     71  C   UNL A   1      45.962  27.983  32.760  1.00  0.00     0.134 A 
ATOM     72  C   UNL A   1      46.873  29.045  30.814  1.00  0.00     0.134 A 
ATOM     73  F   UNL A   1      44.954  27.747  33.612  1.00  0.00    -0.206 F 
ATOM     74  C   UNL A   1      47.198  27.391  33.022  1.00  0.00     0.040 A 
ATOM     75  C   UNL A   1      48.109  28.442  31.054  1.00  0.00     0.040 A 
ATOM     76  F   UNL A   1      46.758  29.838  29.738  1.00  0.00    -0.206 F 
ATOM     77  C   UNL A   1      48.275  27.616  32.165  1.00  0.00     0.006 A 
ENDBRANCH  53  70
ENDBRANCH  27  28
ENDBRANCH  20  22
ENDBRANCH  19  20
ENDBRANCH  18  19
ENDBRANCH   1  18
TORSDOF 14
ENDMDL
MODEL 2
REMARK VINA RESULT:      -9.7      0.286      6.692
REMARK SMILES C[N@@H+]1CCC[C@@H](C[NH2+]CC(=O)OCCOC(=O)c2ccc(-c3c4nc(c(-c5c(F)cccc5F)c5ccc([nH]5)c(-c5c(F)cccc5F)c5nc(c(-c6c(F)cccc6F)c6ccc3[nH]6)C=C5)C=C4)cc2)C1
REMARK SMILES IDX 13 1 12 2 10 3 11 4 9 5 8 6 7 9 6 10 1 11 2 12 3 13 72 14
REMARK SMILES IDX 4 16 5 17 14 18 15 19 16 20 17 21 18 22 19 23 71 24 20 25
REMARK SMILES IDX 70 26 21 27 22 28 23 29 64 30 24 31 69 32 63 33 65 34 25 35
REMARK SMILES IDX 68 36 62 37 61 38 26 40 52 41 35 42 51 43 36 44 39 45 50 46
REMARK SMILES IDX 66 47 37 48 38 49 49 51 67 52 40 53 27 54 28 55 33 56 29 57
REMARK SMILES IDX 30 58 32 59 34 60 31 61 53 62 54 63 59 64 55 65 56 66 58 67
REMARK SMILES IDX 60 68 57 69 41 70 42 71 47 72 43 73 44 74 46 75 48 76 45 77
REMARK H PARENT 8 7 8 8 2 15 65 39 39 50
REMARK Flexibility Score: inf
ROOT
ATOM      1  C   UNL A   1      33.220  36.896  30.034  1.00  0.00     0.274 C 
ENDROOT
BRANCH   1   2
ATOM      2  O   UNL A   1      32.211  36.483  30.972  1.00  0.00    -0.458 OA
BRANCH   2   3
ATOM      3  C   UNL A   1      32.568  36.383  32.279  1.00  0.00     0.361 C 
ATOM      4  O   UNL A   1      32.073  37.045  33.185  1.00  0.00    -0.245 OA
BRANCH   3   5
ATOM      5  C   UNL A   1      33.679  35.353  32.505  1.00  0.00     0.384 C 
BRANCH   5   6
ATOM      6  N   UNL A   1      35.042  35.926  32.606  1.00  0.00    -0.337 N 
ATOM      7  H   UNL A   1      35.312  36.295  31.695  1.00  0.00     0.346 HD
ATOM      8  H   UNL A   1      35.022  36.662  33.312  1.00  0.00     0.346 HD
BRANCH   6   9
ATOM      9  C   UNL A   1      36.031  34.927  33.023  1.00  0.00     0.270 C 
BRANCH   9  10
ATOM     10  C   UNL A   1      35.452  33.825  33.938  1.00  0.00     0.099 C 
ATOM     11  C   UNL A   1      37.643  30.781  33.351  1.00  0.00     0.332 C 
ATOM     12  N   UNL A   1      37.301  32.139  33.774  1.00  0.00    -0.337 N 
ATOM     13  C   UNL A   1      37.688  32.357  35.172  1.00  0.00     0.262 C 
ATOM     14  C   UNL A   1      35.866  32.389  33.564  1.00  0.00     0.271 C 
ATOM     15  H   UNL A   1      37.824  32.805  33.206  1.00  0.00     0.347 HD
ATOM     16  C   UNL A   1      37.338  33.771  35.638  1.00  0.00     0.062 C 
ATOM     17  C   UNL A   1      35.863  34.094  35.398  1.00  0.00     0.021 C 
ENDBRANCH   9  10
ENDBRANCH   6   9
ENDBRANCH   5   6
ENDBRANCH   3   5
ENDBRANCH   2   3
ENDBRANCH   1   2
BRANCH   1  18
ATOM     18  C   UNL A   1      33.114  36.102  28.726  1.00  0.00     0.275 C 
BRANCH  18  19
ATOM     19  O   UNL A   1      32.538  34.799  28.945  1.00  0.00    -0.458 OA
BRANCH  19  20
ATOM     20  C   UNL A   1      33.113  33.797  28.243  1.00  0.00     0.338 C 
ATOM     21  O   UNL A   1      32.706  33.285  27.215  1.00  0.00    -0.246 OA
BRANCH  20  22
ATOM     22  C   UNL A   1      34.428  33.451  28.796  1.00  0.00     0.060 A 
ATOM     23  C   UNL A   1      35.550  33.792  28.033  1.00  0.00     0.016 A 
ATOM     24  C   UNL A   1      34.559  32.730  29.984  1.00  0.00     0.016 A 
ATOM     25  C   UNL A   1      36.814  33.392  28.443  1.00  0.00     0.010 A 
ATOM     26  C   UNL A   1      35.832  32.329  30.396  1.00  0.00     0.010 A 
ATOM     27  C   UNL A   1      36.960  32.642  29.616  1.00  0.00    -0.014 A 
BRANCH  27  28
ATOM     28  C   UNL A   1      38.295  32.127  29.980  1.00  0.00     0.031 A 
ATOM     29  C   UNL A   1      38.745  30.798  29.451  1.00  0.00     0.074 A 
ATOM     30  C   UNL A   1      39.110  32.872  30.747  1.00  0.00     0.049 A 
ATOM     31  N   UNL A   1      39.861  30.153  29.674  1.00  0.00    -0.248 NA
ATOM     32  C   UNL A   1      37.813  30.100  28.550  1.00  0.00     0.031 C 
ATOM     33  C   UNL A   1      38.790  34.196  31.278  1.00  0.00     0.029 A 
ATOM     34  N   UNL A   1      40.374  32.620  31.208  1.00  0.00    -0.354 N 
ATOM     35  C   UNL A   1      39.763  28.971  28.954  1.00  0.00     0.074 A 
ATOM     36  C   UNL A   1      38.471  28.976  28.300  1.00  0.00     0.031 C 
ATOM     37  C   UNL A   1      39.834  34.642  31.995  1.00  0.00     0.029 A 
ATOM     38  C   UNL A   1      40.878  33.621  31.999  1.00  0.00     0.049 A 
ATOM     39  H   UNL A   1      40.874  31.799  30.994  1.00  0.00     0.167 HD
ATOM     40  C   UNL A   1      40.673  27.976  28.843  1.00  0.00     0.037 A 
ATOM     41  C   UNL A   1      42.045  33.695  32.666  1.00  0.00     0.037 A 
ATOM     42  C   UNL A   1      41.960  27.982  29.488  1.00  0.00     0.049 A 
ATOM     43  C   UNL A   1      43.019  32.555  32.563  1.00  0.00     0.074 A 
ATOM     44  C   UNL A   1      42.957  27.024  29.438  1.00  0.00     0.029 A 
ATOM     45  N   UNL A   1      42.427  29.005  30.300  1.00  0.00    -0.354 N 
ATOM     46  N   UNL A   1      42.918  31.440  31.880  1.00  0.00    -0.248 NA
ATOM     47  C   UNL A   1      44.269  32.683  33.324  1.00  0.00     0.031 C 
ATOM     48  C   UNL A   1      44.015  27.452  30.249  1.00  0.00     0.029 A 
ATOM     49  C   UNL A   1      43.692  28.694  30.771  1.00  0.00     0.049 A 
ATOM     50  H   UNL A   1      41.932  29.830  30.512  1.00  0.00     0.167 HD
ATOM     51  C   UNL A   1      44.098  30.745  32.109  1.00  0.00     0.074 A 
ATOM     52  C   UNL A   1      44.904  31.569  32.986  1.00  0.00     0.031 C 
ATOM     53  C   UNL A   1      44.479  29.534  31.637  1.00  0.00     0.037 A 
BRANCH  40  54
ATOM     54  C   UNL A   1      40.294  26.785  28.014  1.00  0.00     0.057 A 
ATOM     55  C   UNL A   1      40.771  26.611  26.709  1.00  0.00     0.134 A 
ATOM     56  C   UNL A   1      39.459  25.791  28.537  1.00  0.00     0.134 A 
ATOM     57  F   UNL A   1      41.561  27.537  26.144  1.00  0.00    -0.206 F 
ATOM     58  C   UNL A   1      40.414  25.498  25.946  1.00  0.00     0.040 A 
ATOM     59  C   UNL A   1      39.112  24.663  27.791  1.00  0.00     0.040 A 
ATOM     60  F   UNL A   1      38.970  25.897  29.782  1.00  0.00    -0.206 F 
ATOM     61  C   UNL A   1      39.586  24.517  26.489  1.00  0.00     0.006 A 
ENDBRANCH  40  54
BRANCH  41  62
ATOM     62  C   UNL A   1      42.348  34.887  33.493  1.00  0.00     0.057 A 
ATOM     63  C   UNL A   1      41.951  34.960  34.833  1.00  0.00     0.134 A 
ATOM     64  C   UNL A   1      43.042  35.982  32.964  1.00  0.00     0.134 A 
ATOM     65  F   UNL A   1      41.265  33.951  35.389  1.00  0.00    -0.206 F 
ATOM     66  C   UNL A   1      42.221  36.084  35.613  1.00  0.00     0.040 A 
ATOM     67  C   UNL A   1      43.339  37.103  33.738  1.00  0.00     0.040 A 
ATOM     68  F   UNL A   1      43.451  35.970  31.686  1.00  0.00    -0.206 F 
ATOM     69  C   UNL A   1      42.923  37.158  35.067  1.00  0.00     0.006 A 
ENDBRANCH  41  62
BRANCH  53  70
ATOM     70  C   UNL A   1      45.840  29.047  32.032  1.00  0.00     0.057 A 
ATOM     71  C   UNL A   1      46.980  29.355  31.280  1.00  0.00     0.134 A 
ATOM     72  C   UNL A   1      46.015  28.292  33.198  1.00  0.00     0.134 A 
ATOM     73  F   UNL A   1      46.875  30.064  30.146  1.00  0.00    -0.206 F 
ATOM     74  C   UNL A   1      48.246  28.911  31.664  1.00  0.00     0.040 A 
ATOM     75  C   UNL A   1      47.278  27.860  33.604  1.00  0.00     0.040 A 
ATOM     76  F   UNL A   1      44.963  27.971  33.966  1.00  0.00    -0.206 F 
ATOM     77  C   UNL A   1      48.398  28.165  32.832  1.00  0.00     0.006 A 
ENDBRANCH  53  70
ENDBRANCH  27  28
ENDBRANCH  20  22
ENDBRANCH  19  20
ENDBRANCH  18  19
ENDBRANCH   1  18
TORSDOF 14
ENDMDL
MODEL 3
REMARK VINA RESULT:      -9.7      5.165     10.631
REMARK SMILES C[N@@H+]1CCC[C@@H](C[NH2+]CC(=O)OCCOC(=O)c2ccc(-c3c4nc(c(-c5c(F)cccc5F)c5ccc([nH]5)c(-c5c(F)cccc5F)c5nc(c(-c6c(F)cccc6F)c6ccc3[nH]6)C=C5)C=C4)cc2)C1
REMARK SMILES IDX 13 1 12 2 10 3 11 4 9 5 8 6 7 9 6 10 1 11 2 12 3 13 72 14
REMARK SMILES IDX 4 16 5 17 14 18 15 19 16 20 17 21 18 22 19 23 71 24 20 25
REMARK SMILES IDX 70 26 21 27 22 28 23 29 64 30 24 31 69 32 63 33 65 34 25 35
REMARK SMILES IDX 68 36 62 37 61 38 26 40 52 41 35 42 51 43 36 44 39 45 50 46
REMARK SMILES IDX 66 47 37 48 38 49 49 51 67 52 40 53 27 54 28 55 33 56 29 57
REMARK SMILES IDX 30 58 32 59 34 60 31 61 53 62 54 63 59 64 55 65 56 66 58 67
REMARK SMILES IDX 60 68 57 69 41 70 42 71 47 72 43 73 44 74 46 75 48 76 45 77
REMARK H PARENT 8 7 8 8 2 15 65 39 39 50
REMARK Flexibility Score: inf
ROOT
ATOM      1  C   UNL A   1      43.311  21.454  25.868  1.00  0.00     0.274 C 
ENDROOT
BRANCH   1   2
ATOM      2  O   UNL A   1      41.942  21.060  25.667  1.00  0.00    -0.458 OA
BRANCH   2   3
ATOM      3  C   UNL A   1      41.181  20.840  26.771  1.00  0.00     0.361 C 
ATOM      4  O   UNL A   1      41.294  19.868  27.509  1.00  0.00    -0.245 OA
BRANCH   3   5
ATOM      5  C   UNL A   1      40.142  21.945  26.992  1.00  0.00     0.384 C 
BRANCH   5   6
ATOM      6  N   UNL A   1      39.515  22.461  25.752  1.00  0.00    -0.337 N 
ATOM      7  H   UNL A   1      40.167  23.098  25.295  1.00  0.00     0.346 HD
ATOM      8  H   UNL A   1      39.297  21.663  25.155  1.00  0.00     0.346 HD
BRANCH   6   9
ATOM      9  C   UNL A   1      38.266  23.177  26.023  1.00  0.00     0.270 C 
BRANCH   9  10
ATOM     10  C   UNL A   1      36.998  22.329  25.777  1.00  0.00     0.099 C 
ATOM     11  C   UNL A   1      34.159  24.832  25.477  1.00  0.00     0.332 C 
ATOM     12  N   UNL A   1      35.403  24.150  25.120  1.00  0.00    -0.337 N 
ATOM     13  C   UNL A   1      35.351  23.669  23.736  1.00  0.00     0.262 C 
ATOM     14  C   UNL A   1      35.668  23.052  26.064  1.00  0.00     0.271 C 
ATOM     15  H   UNL A   1      36.175  24.813  25.183  1.00  0.00     0.347 HD
ATOM     16  C   UNL A   1      36.642  22.951  23.340  1.00  0.00     0.062 C 
ATOM     17  C   UNL A   1      36.984  21.827  24.320  1.00  0.00     0.021 C 
ENDBRANCH   9  10
ENDBRANCH   6   9
ENDBRANCH   5   6
ENDBRANCH   3   5
ENDBRANCH   2   3
ENDBRANCH   1   2
BRANCH   1  18
ATOM     18  C   UNL A   1      43.847  22.221  24.653  1.00  0.00     0.275 C 
BRANCH  18  19
ATOM     19  O   UNL A   1      43.273  23.540  24.566  1.00  0.00    -0.458 OA
BRANCH  19  20
ATOM     20  C   UNL A   1      44.061  24.535  25.031  1.00  0.00     0.338 C 
ATOM     21  O   UNL A   1      45.169  24.851  24.633  1.00  0.00    -0.246 OA
BRANCH  20  22
ATOM     22  C   UNL A   1      43.358  25.339  26.037  1.00  0.00     0.060 A 
ATOM     23  C   UNL A   1      43.824  26.641  26.254  1.00  0.00     0.016 A 
ATOM     24  C   UNL A   1      42.330  24.807  26.817  1.00  0.00     0.016 A 
ATOM     25  C   UNL A   1      43.278  27.413  27.269  1.00  0.00     0.010 A 
ATOM     26  C   UNL A   1      41.781  25.585  27.839  1.00  0.00     0.010 A 
ATOM     27  C   UNL A   1      42.267  26.882  28.080  1.00  0.00    -0.014 A 
BRANCH  27  28
ATOM     28  C   UNL A   1      41.776  27.671  29.227  1.00  0.00     0.031 A 
ATOM     29  C   UNL A   1      42.491  27.589  30.542  1.00  0.00     0.074 A 
ATOM     30  C   UNL A   1      40.719  28.486  29.070  1.00  0.00     0.049 A 
ATOM     31  N   UNL A   1      42.206  28.172  31.678  1.00  0.00    -0.248 NA
ATOM     32  C   UNL A   1      43.688  26.733  30.587  1.00  0.00     0.031 C 
ATOM     33  C   UNL A   1      39.977  28.675  27.824  1.00  0.00     0.029 A 
ATOM     34  N   UNL A   1      40.090  29.309  29.966  1.00  0.00    -0.354 N 
ATOM     35  C   UNL A   1      43.177  27.748  32.573  1.00  0.00     0.074 A 
ATOM     36  C   UNL A   1      44.050  26.843  31.857  1.00  0.00     0.031 C 
ATOM     37  C   UNL A   1      38.991  29.561  28.034  1.00  0.00     0.029 A 
ATOM     38  C   UNL A   1      39.012  29.973  29.435  1.00  0.00     0.049 A 
ATOM     39  H   UNL A   1      40.381  29.414  30.900  1.00  0.00     0.167 HD
ATOM     40  C   UNL A   1      43.329  28.091  33.874  1.00  0.00     0.037 A 
ATOM     41  C   UNL A   1      38.133  30.806  30.022  1.00  0.00     0.037 A 
ATOM     42  C   UNL A   1      42.462  29.000  34.576  1.00  0.00     0.049 A 
ATOM     43  C   UNL A   1      38.296  31.133  31.479  1.00  0.00     0.074 A 
ATOM     44  C   UNL A   1      42.530  29.416  35.894  1.00  0.00     0.029 A 
ATOM     45  N   UNL A   1      41.367  29.637  34.011  1.00  0.00    -0.354 N 
ATOM     46  N   UNL A   1      39.218  30.727  32.320  1.00  0.00    -0.248 NA
ATOM     47  C   UNL A   1      37.299  32.035  32.071  1.00  0.00     0.031 C 
ATOM     48  C   UNL A   1      41.455  30.279  36.137  1.00  0.00     0.029 A 
ATOM     49  C   UNL A   1      40.741  30.430  34.958  1.00  0.00     0.049 A 
ATOM     50  H   UNL A   1      41.076  29.538  33.076  1.00  0.00     0.167 HD
ATOM     51  C   UNL A   1      38.925  31.340  33.531  1.00  0.00     0.074 A 
ATOM     52  C   UNL A   1      37.747  32.154  33.313  1.00  0.00     0.031 C 
ATOM     53  C   UNL A   1      39.573  31.238  34.716  1.00  0.00     0.037 A 
BRANCH  40  54
ATOM     54  C   UNL A   1      44.460  27.456  34.626  1.00  0.00     0.057 A 
ATOM     55  C   UNL A   1      45.719  28.063  34.718  1.00  0.00     0.134 A 
ATOM     56  C   UNL A   1      44.280  26.232  35.283  1.00  0.00     0.134 A 
ATOM     57  F   UNL A   1      45.960  29.227  34.097  1.00  0.00    -0.206 F 
ATOM     58  C   UNL A   1      46.765  27.465  35.422  1.00  0.00     0.040 A 
ATOM     59  C   UNL A   1      45.313  25.635  36.008  1.00  0.00     0.040 A 
ATOM     60  F   UNL A   1      43.098  25.601  35.234  1.00  0.00    -0.206 F 
ATOM     61  C   UNL A   1      46.562  26.250  36.074  1.00  0.00     0.006 A 
ENDBRANCH  40  54
BRANCH  41  62
ATOM     62  C   UNL A   1      37.017  31.378  29.231  1.00  0.00     0.057 A 
ATOM     63  C   UNL A   1      35.869  30.629  28.951  1.00  0.00     0.134 A 
ATOM     64  C   UNL A   1      37.073  32.686  28.736  1.00  0.00     0.134 A 
ATOM     65  F   UNL A   1      35.766  29.363  29.381  1.00  0.00    -0.206 F 
ATOM     66  C   UNL A   1      34.821  31.157  28.196  1.00  0.00     0.040 A 
ATOM     67  C   UNL A   1      36.024  33.234  27.999  1.00  0.00     0.040 A 
ATOM     68  F   UNL A   1      38.148  33.454  28.974  1.00  0.00    -0.206 F 
ATOM     69  C   UNL A   1      34.895  32.466  27.722  1.00  0.00     0.006 A 
ENDBRANCH  41  62
BRANCH  53  70
ATOM     70  C   UNL A   1      39.040  32.053  35.855  1.00  0.00     0.057 A 
ATOM     71  C   UNL A   1      39.376  33.403  36.016  1.00  0.00     0.134 A 
ATOM     72  C   UNL A   1      38.153  31.489  36.780  1.00  0.00     0.134 A 
ATOM     73  F   UNL A   1      40.231  33.996  35.170  1.00  0.00    -0.206 F 
ATOM     74  C   UNL A   1      38.863  34.159  37.071  1.00  0.00     0.040 A 
ATOM     75  C   UNL A   1      37.617  32.240  37.827  1.00  0.00     0.040 A 
ATOM     76  F   UNL A   1      37.787  30.203  36.676  1.00  0.00    -0.206 F 
ATOM     77  C   UNL A   1      37.976  33.578  37.977  1.00  0.00     0.006 A 
ENDBRANCH  53  70
ENDBRANCH  27  28
ENDBRANCH  20  22
ENDBRANCH  19  20
ENDBRANCH  18  19
ENDBRANCH   1  18
TORSDOF 14
ENDMDL
