MODEL 1
REMARK VINA RESULT:     -11.2      0.000      0.000
REMARK SMILES O=C(OCCOC(=O)[C@@H](Cc1ccccc1)Nc1ccc(Cl)c(Br)c1)c1ccc(-c2c3nc(c(-c4c(F)cccc4F)c4ccc([nH]4)c(-c4c(F)cccc4F)c4nc(c(-c5c(F)cccc5F)c5ccc2[nH]5)C=C4)C=C3)cc1
REMARK SMILES IDX 4 1 3 2 2 3 1 4 26 5 27 6 79 7 28 8 78 9 29 10 30 11 31 12
REMARK SMILES IDX 72 13 32 14 77 15 71 16 73 17 33 18 76 19 70 20 69 21 34 23
REMARK SMILES IDX 60 24 43 25 59 26 44 27 47 28 58 29 74 30 45 31 46 32 57 34
REMARK SMILES IDX 75 35 48 36 35 37 36 38 41 39 37 40 38 41 40 42 42 43 39 44
REMARK SMILES IDX 61 45 62 46 67 47 63 48 64 49 66 50 68 51 65 52 49 53 50 54
REMARK SMILES IDX 55 55 51 56 52 57 54 58 56 59 53 60 5 61 6 62 7 63 8 64 9 65
REMARK SMILES IDX 10 66 11 67 12 68 16 69 13 70 15 71 14 72 17 73 18 75 19 76
REMARK SMILES IDX 25 77 20 78 23 79 21 80 24 81 22 82
REMARK H PARENT 73 22 47 33 17 74
REMARK Flexibility Score: inf
ROOT
ATOM      1  C   UNL A   1      37.049  23.417  26.043  1.00  0.00     0.275 C 
ENDROOT
BRANCH   1   2
ATOM      2  O   UNL A   1      38.459  23.107  25.873  1.00  0.00    -0.458 OA
BRANCH   2   3
ATOM      3  C   UNL A   1      39.571  23.566  26.503  1.00  0.00     0.338 C 
ATOM      4  O   UNL A   1      40.541  22.826  26.640  1.00  0.00    -0.246 OA
BRANCH   3   5
ATOM      5  C   UNL A   1      39.593  24.859  27.246  1.00  0.00     0.060 A 
ATOM      6  C   UNL A   1      38.908  25.089  28.430  1.00  0.00     0.016 A 
ATOM      7  C   UNL A   1      40.308  25.938  26.681  1.00  0.00     0.016 A 
ATOM      8  C   UNL A   1      39.101  26.303  29.120  1.00  0.00     0.010 A 
ATOM      9  C   UNL A   1      40.475  27.168  27.362  1.00  0.00     0.010 A 
ATOM     10  C   UNL A   1      39.938  27.347  28.638  1.00  0.00    -0.014 A 
BRANCH  10  11
ATOM     11  C   UNL A   1      40.214  28.536  29.546  1.00  0.00     0.031 A 
ATOM     12  C   UNL A   1      39.213  29.657  29.562  1.00  0.00     0.074 A 
ATOM     13  C   UNL A   1      41.147  28.544  30.534  1.00  0.00     0.049 A 
ATOM     14  N   UNL A   1      38.934  30.515  30.511  1.00  0.00    -0.248 NA
ATOM     15  C   UNL A   1      38.396  29.796  28.349  1.00  0.00     0.031 C 
ATOM     16  C   UNL A   1      42.228  27.587  30.714  1.00  0.00     0.029 A 
ATOM     17  N   UNL A   1      41.233  29.322  31.683  1.00  0.00    -0.354 N 
ATOM     18  C   UNL A   1      37.873  31.265  30.030  1.00  0.00     0.074 A 
ATOM     19  C   UNL A   1      37.544  30.740  28.718  1.00  0.00     0.031 C 
ATOM     20  C   UNL A   1      42.702  27.668  31.968  1.00  0.00     0.029 A 
ATOM     21  C   UNL A   1      42.076  28.796  32.650  1.00  0.00     0.049 A 
ATOM     22  H   UNL A   1      40.741  30.167  31.799  1.00  0.00     0.167 HD
ATOM     23  C   UNL A   1      37.249  32.326  30.591  1.00  0.00     0.037 A 
ATOM     24  C   UNL A   1      42.328  29.170  33.927  1.00  0.00     0.037 A 
ATOM     25  C   UNL A   1      37.659  33.000  31.789  1.00  0.00     0.049 A 
ATOM     26  C   UNL A   1      41.719  30.446  34.462  1.00  0.00     0.074 A 
ATOM     27  C   UNL A   1      37.211  34.212  32.288  1.00  0.00     0.029 A 
ATOM     28  N   UNL A   1      38.642  32.554  32.654  1.00  0.00    -0.354 N 
ATOM     29  N   UNL A   1      40.728  31.159  33.992  1.00  0.00    -0.248 NA
ATOM     30  C   UNL A   1      42.323  31.006  35.688  1.00  0.00     0.031 C 
ATOM     31  C   UNL A   1      37.960  34.527  33.426  1.00  0.00     0.029 A 
ATOM     32  C   UNL A   1      38.833  33.480  33.669  1.00  0.00     0.049 A 
ATOM     33  H   UNL A   1      39.133  31.706  32.564  1.00  0.00     0.167 HD
ATOM     34  C   UNL A   1      40.604  32.249  34.851  1.00  0.00     0.074 A 
ATOM     35  C   UNL A   1      41.568  32.072  35.909  1.00  0.00     0.031 C 
ATOM     36  C   UNL A   1      39.783  33.322  34.739  1.00  0.00     0.037 A 
BRANCH  23  37
ATOM     37  C   UNL A   1      36.115  32.893  29.804  1.00  0.00     0.057 A 
ATOM     38  C   UNL A   1      36.337  33.692  28.678  1.00  0.00     0.134 A 
ATOM     39  C   UNL A   1      34.795  32.695  30.225  1.00  0.00     0.134 A 
ATOM     40  F   UNL A   1      37.585  33.944  28.257  1.00  0.00    -0.206 F 
ATOM     41  C   UNL A   1      35.276  34.295  28.003  1.00  0.00     0.040 A 
ATOM     42  C   UNL A   1      33.727  33.281  29.552  1.00  0.00     0.040 A 
ATOM     43  F   UNL A   1      34.532  31.953  31.312  1.00  0.00    -0.206 F 
ATOM     44  C   UNL A   1      33.967  34.090  28.441  1.00  0.00     0.006 A 
ENDBRANCH  23  37
BRANCH  24  45
ATOM     45  C   UNL A   1      43.271  28.420  34.822  1.00  0.00     0.057 A 
ATOM     46  C   UNL A   1      44.661  28.623  34.745  1.00  0.00     0.134 A 
ATOM     47  C   UNL A   1      42.837  27.368  35.638  1.00  0.00     0.134 A 
ATOM     48  F   UNL A   1      45.162  29.576  33.945  1.00  0.00    -0.206 F 
ATOM     49  C   UNL A   1      45.570  27.789  35.405  1.00  0.00     0.040 A 
ATOM     50  C   UNL A   1      43.734  26.555  36.340  1.00  0.00     0.040 A 
ATOM     51  F   UNL A   1      41.531  27.080  35.739  1.00  0.00    -0.206 F 
ATOM     52  C   UNL A   1      45.105  26.751  36.208  1.00  0.00     0.006 A 
ENDBRANCH  24  45
BRANCH  36  53
ATOM     53  C   UNL A   1      39.884  34.406  35.777  1.00  0.00     0.057 A 
ATOM     54  C   UNL A   1      39.143  34.363  36.967  1.00  0.00     0.134 A 
ATOM     55  C   UNL A   1      40.776  35.475  35.618  1.00  0.00     0.134 A 
ATOM     56  F   UNL A   1      38.264  33.373  37.185  1.00  0.00    -0.206 F 
ATOM     57  C   UNL A   1      39.269  35.351  37.947  1.00  0.00     0.040 A 
ATOM     58  C   UNL A   1      40.931  36.454  36.603  1.00  0.00     0.040 A 
ATOM     59  F   UNL A   1      41.526  35.579  34.511  1.00  0.00    -0.206 F 
ATOM     60  C   UNL A   1      40.172  36.396  37.770  1.00  0.00     0.006 A 
ENDBRANCH  36  53
ENDBRANCH  10  11
ENDBRANCH   3   5
ENDBRANCH   2   3
ENDBRANCH   1   2
BRANCH   1  61
ATOM     61  C   UNL A   1      36.384  23.703  24.691  1.00  0.00     0.274 C 
BRANCH  61  62
ATOM     62  O   UNL A   1      35.237  24.517  24.949  1.00  0.00    -0.461 OA
BRANCH  62  63
ATOM     63  C   UNL A   1      34.348  24.730  23.943  1.00  0.00     0.329 C 
ATOM     64  O   UNL A   1      34.420  24.230  22.833  1.00  0.00    -0.250 OA
BRANCH  63  65
ATOM     65  C   UNL A   1      33.172  25.577  24.455  1.00  0.00     0.194 C 
BRANCH  65  66
ATOM     66  C   UNL A   1      33.456  26.205  25.828  1.00  0.00     0.072 C 
BRANCH  66  67
ATOM     67  C   UNL A   1      33.298  27.647  26.241  1.00  0.00    -0.045 A 
ATOM     68  C   UNL A   1      32.033  28.032  26.734  1.00  0.00     0.004 A 
ATOM     69  C   UNL A   1      34.309  28.599  26.249  1.00  0.00     0.004 A 
ATOM     70  C   UNL A   1      31.778  29.300  27.242  1.00  0.00     0.000 A 
ATOM     71  C   UNL A   1      34.056  29.884  26.748  1.00  0.00     0.000 A 
ATOM     72  C   UNL A   1      32.800  30.230  27.251  1.00  0.00     0.000 A 
ENDBRANCH  66  67
ENDBRANCH  65  66
BRANCH  65  73
ATOM     73  N   UNL A   1      32.677  26.551  23.483  1.00  0.00    -0.372 N 
ATOM     74  H   UNL A   1      33.332  26.890  22.831  1.00  0.00     0.161 HD
BRANCH  73  75
ATOM     75  C   UNL A   1      31.393  27.048  23.379  1.00  0.00     0.036 A 
ATOM     76  C   UNL A   1      30.349  26.271  23.902  1.00  0.00     0.027 A 
ATOM     77  C   UNL A   1      31.048  28.285  22.821  1.00  0.00     0.043 A 
ATOM     78  C   UNL A   1      29.018  26.702  23.875  1.00  0.00     0.024 A 
ATOM     79  C   UNL A   1      29.711  28.725  22.779  1.00  0.00     0.038 A 
ATOM     80  C   UNL A   1      28.693  27.933  23.313  1.00  0.00     0.055 A 
ATOM     81  Br  UNL A   1      29.365  30.416  21.976  1.00  0.00    -0.049 Br
ATOM     82  Cl  UNL A   1      27.031  28.400  23.318  1.00  0.00    -0.083 Cl
ENDBRANCH  73  75
ENDBRANCH  65  73
ENDBRANCH  63  65
ENDBRANCH  62  63
ENDBRANCH  61  62
ENDBRANCH   1  61
TORSDOF 15
ENDMDL
MODEL 2
REMARK VINA RESULT:     -11.2      2.342      3.883
REMARK SMILES O=C(OCCOC(=O)[C@@H](Cc1ccccc1)Nc1ccc(Cl)c(Br)c1)c1ccc(-c2c3nc(c(-c4c(F)cccc4F)c4ccc([nH]4)c(-c4c(F)cccc4F)c4nc(c(-c5c(F)cccc5F)c5ccc2[nH]5)C=C4)C=C3)cc1
REMARK SMILES IDX 4 1 3 2 2 3 1 4 26 5 27 6 79 7 28 8 78 9 29 10 30 11 31 12
REMARK SMILES IDX 72 13 32 14 77 15 71 16 73 17 33 18 76 19 70 20 69 21 34 23
REMARK SMILES IDX 60 24 43 25 59 26 44 27 47 28 58 29 74 30 45 31 46 32 57 34
REMARK SMILES IDX 75 35 48 36 35 37 36 38 41 39 37 40 38 41 40 42 42 43 39 44
REMARK SMILES IDX 61 45 62 46 67 47 63 48 64 49 66 50 68 51 65 52 49 53 50 54
REMARK SMILES IDX 55 55 51 56 52 57 54 58 56 59 53 60 5 61 6 62 7 63 8 64 9 65
REMARK SMILES IDX 10 66 11 67 12 68 16 69 13 70 15 71 14 72 17 73 18 75 19 76
REMARK SMILES IDX 25 77 20 78 23 79 21 80 24 81 22 82
REMARK H PARENT 73 22 47 33 17 74
REMARK Flexibility Score: inf
ROOT
ATOM      1  C   UNL A   1      38.368  21.918  25.684  1.00  0.00     0.275 C 
ENDROOT
BRANCH   1   2
ATOM      2  O   UNL A   1      38.639  23.151  26.404  1.00  0.00    -0.458 OA
BRANCH   2   3
ATOM      3  C   UNL A   1      39.802  23.762  26.750  1.00  0.00     0.338 C 
ATOM      4  O   UNL A   1      40.867  23.166  26.613  1.00  0.00    -0.246 OA
BRANCH   3   5
ATOM      5  C   UNL A   1      39.836  25.046  27.509  1.00  0.00     0.060 A 
ATOM      6  C   UNL A   1      39.043  25.318  28.614  1.00  0.00     0.016 A 
ATOM      7  C   UNL A   1      40.684  26.073  27.040  1.00  0.00     0.016 A 
ATOM      8  C   UNL A   1      39.247  26.510  29.338  1.00  0.00     0.010 A 
ATOM      9  C   UNL A   1      40.863  27.284  27.751  1.00  0.00     0.010 A 
ATOM     10  C   UNL A   1      40.204  27.494  28.964  1.00  0.00    -0.014 A 
BRANCH  10  11
ATOM     11  C   UNL A   1      40.463  28.654  29.914  1.00  0.00     0.031 A 
ATOM     12  C   UNL A   1      39.470  29.782  29.934  1.00  0.00     0.074 A 
ATOM     13  C   UNL A   1      41.368  28.627  30.926  1.00  0.00     0.049 A 
ATOM     14  N   UNL A   1      39.171  30.615  30.898  1.00  0.00    -0.248 NA
ATOM     15  C   UNL A   1      38.688  29.962  28.703  1.00  0.00     0.031 C 
ATOM     16  C   UNL A   1      42.437  27.655  31.108  1.00  0.00     0.029 A 
ATOM     17  N   UNL A   1      41.428  29.371  32.099  1.00  0.00    -0.354 N 
ATOM     18  C   UNL A   1      38.130  31.387  30.410  1.00  0.00     0.074 A 
ATOM     19  C   UNL A   1      37.834  30.903  29.075  1.00  0.00     0.031 C 
ATOM     20  C   UNL A   1      42.877  27.697  32.377  1.00  0.00     0.029 A 
ATOM     21  C   UNL A   1      42.240  28.810  33.073  1.00  0.00     0.049 A 
ATOM     22  H   UNL A   1      40.939  30.216  32.226  1.00  0.00     0.167 HD
ATOM     23  C   UNL A   1      37.499  32.437  30.984  1.00  0.00     0.037 A 
ATOM     24  C   UNL A   1      42.459  29.146  34.367  1.00  0.00     0.037 A 
ATOM     25  C   UNL A   1      37.881  33.073  32.212  1.00  0.00     0.049 A 
ATOM     26  C   UNL A   1      41.845  30.411  34.922  1.00  0.00     0.074 A 
ATOM     27  C   UNL A   1      37.427  34.274  32.732  1.00  0.00     0.029 A 
ATOM     28  N   UNL A   1      38.835  32.595  33.090  1.00  0.00    -0.354 N 
ATOM     29  N   UNL A   1      40.873  31.146  34.445  1.00  0.00    -0.248 NA
ATOM     30  C   UNL A   1      42.419  30.931  36.179  1.00  0.00     0.031 C 
ATOM     31  C   UNL A   1      38.147  34.550  33.899  1.00  0.00     0.029 A 
ATOM     32  C   UNL A   1      39.005  33.490  34.137  1.00  0.00     0.049 A 
ATOM     33  H   UNL A   1      39.322  31.745  32.989  1.00  0.00     0.167 HD
ATOM     34  C   UNL A   1      40.733  32.211  35.330  1.00  0.00     0.074 A 
ATOM     35  C   UNL A   1      41.666  31.997  36.410  1.00  0.00     0.031 C 
ATOM     36  C   UNL A   1      39.924  33.294  35.227  1.00  0.00     0.037 A 
BRANCH  23  37
ATOM     37  C   UNL A   1      36.391  33.035  30.183  1.00  0.00     0.057 A 
ATOM     38  C   UNL A   1      36.647  33.944  29.150  1.00  0.00     0.134 A 
ATOM     39  C   UNL A   1      35.057  32.753  30.500  1.00  0.00     0.134 A 
ATOM     40  F   UNL A   1      37.907  34.276  28.832  1.00  0.00    -0.206 F 
ATOM     41  C   UNL A   1      35.605  34.570  28.468  1.00  0.00     0.040 A 
ATOM     42  C   UNL A   1      34.009  33.363  29.818  1.00  0.00     0.040 A 
ATOM     43  F   UNL A   1      34.761  31.905  31.496  1.00  0.00    -0.206 F 
ATOM     44  C   UNL A   1      34.281  34.280  28.803  1.00  0.00     0.006 A 
ENDBRANCH  23  37
BRANCH  24  45
ATOM     45  C   UNL A   1      43.371  28.362  35.265  1.00  0.00     0.057 A 
ATOM     46  C   UNL A   1      44.768  28.515  35.192  1.00  0.00     0.134 A 
ATOM     47  C   UNL A   1      42.897  27.329  36.082  1.00  0.00     0.134 A 
ATOM     48  F   UNL A   1      45.306  29.448  34.393  1.00  0.00    -0.206 F 
ATOM     49  C   UNL A   1      45.644  27.649  35.857  1.00  0.00     0.040 A 
ATOM     50  C   UNL A   1      43.761  26.485  36.787  1.00  0.00     0.040 A 
ATOM     51  F   UNL A   1      41.581  27.089  36.180  1.00  0.00    -0.206 F 
ATOM     52  C   UNL A   1      45.139  26.629  36.660  1.00  0.00     0.006 A 
ENDBRANCH  24  45
BRANCH  36  53
ATOM     53  C   UNL A   1      40.004  34.347  36.298  1.00  0.00     0.057 A 
ATOM     54  C   UNL A   1      40.870  35.445  36.193  1.00  0.00     0.134 A 
ATOM     55  C   UNL A   1      39.165  34.301  37.419  1.00  0.00     0.134 A 
ATOM     56  F   UNL A   1      41.708  35.554  35.151  1.00  0.00    -0.206 F 
ATOM     57  C   UNL A   1      40.914  36.442  37.170  1.00  0.00     0.040 A 
ATOM     58  C   UNL A   1      39.179  35.305  38.389  1.00  0.00     0.040 A 
ATOM     59  F   UNL A   1      38.303  33.286  37.584  1.00  0.00    -0.206 F 
ATOM     60  C   UNL A   1      40.059  36.378  38.269  1.00  0.00     0.006 A 
ENDBRANCH  36  53
ENDBRANCH  10  11
ENDBRANCH   3   5
ENDBRANCH   2   3
ENDBRANCH   1   2
BRANCH   1  61
ATOM     61  C   UNL A   1      37.074  22.032  24.870  1.00  0.00     0.274 C 
BRANCH  61  62
ATOM     62  O   UNL A   1      36.049  21.367  25.614  1.00  0.00    -0.461 OA
BRANCH  62  63
ATOM     63  C   UNL A   1      35.007  22.100  26.088  1.00  0.00     0.329 C 
ATOM     64  O   UNL A   1      35.041  22.791  27.093  1.00  0.00    -0.250 OA
BRANCH  63  65
ATOM     65  C   UNL A   1      33.832  22.038  25.099  1.00  0.00     0.194 C 
BRANCH  65  66
ATOM     66  C   UNL A   1      33.066  20.710  25.181  1.00  0.00     0.072 C 
BRANCH  66  67
ATOM     67  C   UNL A   1      33.271  19.465  24.353  1.00  0.00    -0.045 A 
ATOM     68  C   UNL A   1      34.392  18.669  24.669  1.00  0.00     0.004 A 
ATOM     69  C   UNL A   1      32.410  19.003  23.367  1.00  0.00     0.004 A 
ATOM     70  C   UNL A   1      34.644  17.448  24.056  1.00  0.00     0.000 A 
ATOM     71  C   UNL A   1      32.664  17.778  22.734  1.00  0.00     0.000 A 
ATOM     72  C   UNL A   1      33.770  16.999  23.084  1.00  0.00     0.000 A 
ENDBRANCH  66  67
ENDBRANCH  65  66
BRANCH  65  73
ATOM     73  N   UNL A   1      32.948  23.202  25.157  1.00  0.00    -0.372 N 
ATOM     74  H   UNL A   1      32.047  23.049  25.525  1.00  0.00     0.161 HD
BRANCH  73  75
ATOM     75  C   UNL A   1      33.235  24.490  24.753  1.00  0.00     0.036 A 
ATOM     76  C   UNL A   1      33.344  24.732  23.375  1.00  0.00     0.027 A 
ATOM     77  C   UNL A   1      33.397  25.588  25.607  1.00  0.00     0.043 A 
ATOM     78  C   UNL A   1      33.599  26.009  22.864  1.00  0.00     0.024 A 
ATOM     79  C   UNL A   1      33.665  26.877  25.104  1.00  0.00     0.038 A 
ATOM     80  C   UNL A   1      33.761  27.088  23.728  1.00  0.00     0.055 A 
ATOM     81  Br  UNL A   1      33.885  28.285  26.365  1.00  0.00    -0.049 Br
ATOM     82  Cl  UNL A   1      34.071  28.635  23.026  1.00  0.00    -0.083 Cl
ENDBRANCH  73  75
ENDBRANCH  65  73
ENDBRANCH  63  65
ENDBRANCH  62  63
ENDBRANCH  61  62
ENDBRANCH   1  61
TORSDOF 15
ENDMDL
MODEL 3
REMARK VINA RESULT:     -11.1      5.559      9.937
REMARK SMILES O=C(OCCOC(=O)[C@@H](Cc1ccccc1)Nc1ccc(Cl)c(Br)c1)c1ccc(-c2c3nc(c(-c4c(F)cccc4F)c4ccc([nH]4)c(-c4c(F)cccc4F)c4nc(c(-c5c(F)cccc5F)c5ccc2[nH]5)C=C4)C=C3)cc1
REMARK SMILES IDX 4 1 3 2 2 3 1 4 26 5 27 6 79 7 28 8 78 9 29 10 30 11 31 12
REMARK SMILES IDX 72 13 32 14 77 15 71 16 73 17 33 18 76 19 70 20 69 21 34 23
REMARK SMILES IDX 60 24 43 25 59 26 44 27 47 28 58 29 74 30 45 31 46 32 57 34
REMARK SMILES IDX 75 35 48 36 35 37 36 38 41 39 37 40 38 41 40 42 42 43 39 44
REMARK SMILES IDX 61 45 62 46 67 47 63 48 64 49 66 50 68 51 65 52 49 53 50 54
REMARK SMILES IDX 55 55 51 56 52 57 54 58 56 59 53 60 5 61 6 62 7 63 8 64 9 65
REMARK SMILES IDX 10 66 11 67 12 68 16 69 13 70 15 71 14 72 17 73 18 75 19 76
REMARK SMILES IDX 25 77 20 78 23 79 21 80 24 81 22 82
REMARK H PARENT 73 22 47 33 17 74
REMARK Flexibility Score: inf
ROOT
ATOM      1  C   UNL A   1      34.189  28.780  26.685  1.00  0.00     0.275 C 
ENDROOT
BRANCH   1   2
ATOM      2  O   UNL A   1      34.267  29.849  27.667  1.00  0.00    -0.458 OA
BRANCH   2   3
ATOM      3  C   UNL A   1      35.325  30.442  28.279  1.00  0.00     0.338 C 
ATOM      4  O   UNL A   1      35.241  31.615  28.634  1.00  0.00    -0.246 OA
BRANCH   3   5
ATOM      5  C   UNL A   1      36.673  29.809  28.340  1.00  0.00     0.060 A 
ATOM      6  C   UNL A   1      37.528  29.692  27.253  1.00  0.00     0.016 A 
ATOM      7  C   UNL A   1      37.085  29.238  29.564  1.00  0.00     0.016 A 
ATOM      8  C   UNL A   1      38.833  29.196  27.447  1.00  0.00     0.010 A 
ATOM      9  C   UNL A   1      38.386  28.710  29.747  1.00  0.00     0.010 A 
ATOM     10  C   UNL A   1      39.317  28.751  28.708  1.00  0.00    -0.014 A 
BRANCH  10  11
ATOM     11  C   UNL A   1      40.793  28.404  28.839  1.00  0.00     0.031 A 
ATOM     12  C   UNL A   1      41.223  27.011  28.471  1.00  0.00     0.074 A 
ATOM     13  C   UNL A   1      41.784  29.319  29.004  1.00  0.00     0.049 A 
ATOM     14  N   UNL A   1      42.383  26.580  28.042  1.00  0.00    -0.248 NA
ATOM     15  C   UNL A   1      40.183  25.979  28.569  1.00  0.00     0.031 C 
ATOM     16  C   UNL A   1      41.620  30.715  29.383  1.00  0.00     0.029 A 
ATOM     17  N   UNL A   1      43.140  29.237  28.713  1.00  0.00    -0.354 N 
ATOM     18  C   UNL A   1      42.199  25.235  27.771  1.00  0.00     0.074 A 
ATOM     19  C   UNL A   1      40.810  24.930  28.058  1.00  0.00     0.031 C 
ATOM     20  C   UNL A   1      42.735  31.400  29.081  1.00  0.00     0.029 A 
ATOM     21  C   UNL A   1      43.768  30.471  28.632  1.00  0.00     0.049 A 
ATOM     22  H   UNL A   1      43.611  28.384  28.577  1.00  0.00     0.167 HD
ATOM     23  C   UNL A   1      43.101  24.311  27.367  1.00  0.00     0.037 A 
ATOM     24  C   UNL A   1      45.019  30.824  28.253  1.00  0.00     0.037 A 
ATOM     25  C   UNL A   1      44.517  24.516  27.257  1.00  0.00     0.049 A 
ATOM     26  C   UNL A   1      46.036  29.746  27.950  1.00  0.00     0.074 A 
ATOM     27  C   UNL A   1      45.509  23.567  27.074  1.00  0.00     0.029 A 
ATOM     28  N   UNL A   1      45.152  25.739  27.366  1.00  0.00    -0.354 N 
ATOM     29  N   UNL A   1      45.856  28.472  27.713  1.00  0.00    -0.248 NA
ATOM     30  C   UNL A   1      47.454  30.159  27.931  1.00  0.00     0.031 C 
ATOM     31  C   UNL A   1      46.750  24.209  27.126  1.00  0.00     0.029 A 
ATOM     32  C   UNL A   1      46.526  25.566  27.281  1.00  0.00     0.049 A 
ATOM     33  H   UNL A   1      44.698  26.604  27.486  1.00  0.00     0.167 HD
ATOM     34  C   UNL A   1      47.129  27.936  27.533  1.00  0.00     0.074 A 
ATOM     35  C   UNL A   1      48.069  29.028  27.618  1.00  0.00     0.031 C 
ATOM     36  C   UNL A   1      47.482  26.640  27.355  1.00  0.00     0.037 A 
BRANCH  23  37
ATOM     37  C   UNL A   1      42.557  22.939  27.143  1.00  0.00     0.057 A 
ATOM     38  C   UNL A   1      42.239  22.097  28.214  1.00  0.00     0.134 A 
ATOM     39  C   UNL A   1      42.423  22.436  25.844  1.00  0.00     0.134 A 
ATOM     40  F   UNL A   1      42.386  22.519  29.479  1.00  0.00    -0.206 F 
ATOM     41  C   UNL A   1      41.821  20.785  27.999  1.00  0.00     0.040 A 
ATOM     42  C   UNL A   1      41.994  21.132  25.616  1.00  0.00     0.040 A 
ATOM     43  F   UNL A   1      42.736  23.197  24.785  1.00  0.00    -0.206 F 
ATOM     44  C   UNL A   1      41.699  20.300  26.696  1.00  0.00     0.006 A 
ENDBRANCH  23  37
BRANCH  24  45
ATOM     45  C   UNL A   1      45.482  32.251  28.207  1.00  0.00     0.057 A 
ATOM     46  C   UNL A   1      45.934  32.904  29.369  1.00  0.00     0.134 A 
ATOM     47  C   UNL A   1      45.323  33.045  27.065  1.00  0.00     0.134 A 
ATOM     48  F   UNL A   1      46.063  32.227  30.519  1.00  0.00    -0.206 F 
ATOM     49  C   UNL A   1      46.163  34.284  29.401  1.00  0.00     0.040 A 
ATOM     50  C   UNL A   1      45.592  34.417  27.072  1.00  0.00     0.040 A 
ATOM     51  F   UNL A   1      44.861  32.510  25.925  1.00  0.00    -0.206 F 
ATOM     52  C   UNL A   1      45.993  35.045  28.247  1.00  0.00     0.006 A 
ENDBRANCH  24  45
BRANCH  36  53
ATOM     53  C   UNL A   1      48.945  26.309  27.245  1.00  0.00     0.057 A 
ATOM     54  C   UNL A   1      49.719  25.989  28.370  1.00  0.00     0.134 A 
ATOM     55  C   UNL A   1      49.579  26.249  25.996  1.00  0.00     0.134 A 
ATOM     56  F   UNL A   1      49.182  26.032  29.599  1.00  0.00    -0.206 F 
ATOM     57  C   UNL A   1      51.067  25.643  28.261  1.00  0.00     0.040 A 
ATOM     58  C   UNL A   1      50.919  25.878  25.871  1.00  0.00     0.040 A 
ATOM     59  F   UNL A   1      48.901  26.532  24.874  1.00  0.00    -0.206 F 
ATOM     60  C   UNL A   1      51.670  25.578  27.006  1.00  0.00     0.006 A 
ENDBRANCH  36  53
ENDBRANCH  10  11
ENDBRANCH   3   5
ENDBRANCH   2   3
ENDBRANCH   1   2
BRANCH   1  61
ATOM     61  C   UNL A   1      32.929  27.933  26.897  1.00  0.00     0.274 C 
BRANCH  61  62
ATOM     62  O   UNL A   1      32.927  26.921  25.887  1.00  0.00    -0.461 OA
BRANCH  62  63
ATOM     63  C   UNL A   1      32.162  25.813  26.075  1.00  0.00     0.329 C 
ATOM     64  O   UNL A   1      31.222  25.738  26.849  1.00  0.00    -0.250 OA
BRANCH  63  65
ATOM     65  C   UNL A   1      32.568  24.722  25.071  1.00  0.00     0.194 C 
BRANCH  65  66
ATOM     66  C   UNL A   1      33.937  24.994  24.431  1.00  0.00     0.072 C 
BRANCH  66  67
ATOM     67  C   UNL A   1      35.168  24.121  24.464  1.00  0.00    -0.045 A 
ATOM     68  C   UNL A   1      35.871  24.058  25.686  1.00  0.00     0.004 A 
ATOM     69  C   UNL A   1      35.615  23.320  23.422  1.00  0.00     0.004 A 
ATOM     70  C   UNL A   1      36.959  23.219  25.885  1.00  0.00     0.000 A 
ATOM     71  C   UNL A   1      36.720  22.479  23.611  1.00  0.00     0.000 A 
ATOM     72  C   UNL A   1      37.383  22.421  24.839  1.00  0.00     0.000 A 
ENDBRANCH  66  67
ENDBRANCH  65  66
BRANCH  65  73
ATOM     73  N   UNL A   1      32.453  23.362  25.597  1.00  0.00    -0.372 N 
ATOM     74  H   UNL A   1      32.413  23.273  26.577  1.00  0.00     0.161 HD
BRANCH  73  75
ATOM     75  C   UNL A   1      32.395  22.188  24.872  1.00  0.00     0.036 A 
ATOM     76  C   UNL A   1      32.133  22.284  23.498  1.00  0.00     0.027 A 
ATOM     77  C   UNL A   1      32.610  20.906  25.392  1.00  0.00     0.043 A 
ATOM     78  C   UNL A   1      32.087  21.155  22.671  1.00  0.00     0.024 A 
ATOM     79  C   UNL A   1      32.556  19.762  24.571  1.00  0.00     0.038 A 
ATOM     80  C   UNL A   1      32.299  19.889  23.205  1.00  0.00     0.055 A 
ATOM     81  Br  UNL A   1      32.844  18.072  25.397  1.00  0.00    -0.049 Br
ATOM     82  Cl  UNL A   1      32.230  18.543  22.125  1.00  0.00    -0.083 Cl
ENDBRANCH  73  75
ENDBRANCH  65  73
ENDBRANCH  63  65
ENDBRANCH  62  63
ENDBRANCH  61  62
ENDBRANCH   1  61
TORSDOF 15
ENDMDL
