MODEL 1
REMARK VINA RESULT:     -11.3      0.000      0.000
REMARK SMILES O=C(OCCOC(=O)c1oc2cccc3c2c1CCC3)c1ccc(-c2c3nc(c(-c4c(F)cccc4F)c4ccc([nH]4)c(-c4c(F)cccc4F)c4nc(c(-c5c(F)cccc5F)c5ccc2[nH]5)C=C4)C=C3)cc1
REMARK SMILES IDX 4 1 3 2 2 3 1 4 21 5 22 6 74 7 23 8 73 9 24 10 25 11 26 12
REMARK SMILES IDX 67 13 27 14 72 15 66 16 68 17 28 18 71 19 65 20 64 21 29 23
REMARK SMILES IDX 55 24 38 25 54 26 39 27 42 28 53 29 69 30 40 31 41 32 52 34
REMARK SMILES IDX 70 35 43 36 30 37 31 38 36 39 32 40 33 41 35 42 37 43 34 44
REMARK SMILES IDX 56 45 57 46 62 47 58 48 59 49 61 50 63 51 60 52 44 53 45 54
REMARK SMILES IDX 50 55 46 56 47 57 49 58 51 59 48 60 5 61 6 62 7 63 8 64 9 65
REMARK SMILES IDX 10 66 17 67 11 68 16 69 18 70 12 71 15 72 19 73 13 74 14 75
REMARK SMILES IDX 20 76
REMARK H PARENT 68 22 42 33
REMARK Flexibility Score: inf
ROOT
ATOM      1  C   UNL A   1      44.110  18.938  24.693  1.00  0.00     0.275 C 
ENDROOT
BRANCH   1   2
ATOM      2  O   UNL A   1      44.375  20.351  24.563  1.00  0.00    -0.458 OA
BRANCH   2   3
ATOM      3  C   UNL A   1      45.436  20.982  25.117  1.00  0.00     0.338 C 
ATOM      4  O   UNL A   1      46.571  20.538  25.001  1.00  0.00    -0.246 OA
BRANCH   3   5
ATOM      5  C   UNL A   1      45.228  22.385  25.574  1.00  0.00     0.060 A 
ATOM      6  C   UNL A   1      45.989  23.017  26.560  1.00  0.00     0.016 A 
ATOM      7  C   UNL A   1      44.134  23.069  25.011  1.00  0.00     0.016 A 
ATOM      8  C   UNL A   1      45.590  24.243  27.067  1.00  0.00     0.010 A 
ATOM      9  C   UNL A   1      43.730  24.297  25.515  1.00  0.00     0.010 A 
ATOM     10  C   UNL A   1      44.428  24.846  26.583  1.00  0.00    -0.014 A 
BRANCH  10  11
ATOM     11  C   UNL A   1      44.043  26.121  27.161  1.00  0.00     0.031 A 
ATOM     12  C   UNL A   1      44.970  27.232  26.827  1.00  0.00     0.074 A 
ATOM     13  C   UNL A   1      42.916  26.289  27.881  1.00  0.00     0.049 A 
ATOM     14  N   UNL A   1      45.774  27.857  27.624  1.00  0.00    -0.248 NA
ATOM     15  C   UNL A   1      45.141  27.582  25.410  1.00  0.00     0.031 C 
ATOM     16  C   UNL A   1      41.807  25.350  28.060  1.00  0.00     0.029 A 
ATOM     17  N   UNL A   1      42.489  27.394  28.554  1.00  0.00    -0.354 N 
ATOM     18  C   UNL A   1      46.398  28.830  26.847  1.00  0.00     0.074 A 
ATOM     19  C   UNL A   1      46.110  28.497  25.479  1.00  0.00     0.031 C 
ATOM     20  C   UNL A   1      40.752  26.002  28.603  1.00  0.00     0.029 A 
ATOM     21  C   UNL A   1      41.152  27.359  28.931  1.00  0.00     0.049 A 
ATOM     22  H   UNL A   1      43.081  28.153  28.758  1.00  0.00     0.167 HD
ATOM     23  C   UNL A   1      46.871  29.973  27.417  1.00  0.00     0.037 A 
ATOM     24  C   UNL A   1      40.427  28.397  29.422  1.00  0.00     0.037 A 
ATOM     25  C   UNL A   1      47.066  29.796  28.838  1.00  0.00     0.049 A 
ATOM     26  C   UNL A   1      41.383  29.412  29.934  1.00  0.00     0.074 A 
ATOM     27  C   UNL A   1      47.823  28.950  29.624  1.00  0.00     0.029 A 
ATOM     28  N   UNL A   1      46.127  30.339  29.681  1.00  0.00    -0.354 N 
ATOM     29  N   UNL A   1      42.121  29.235  30.994  1.00  0.00    -0.248 NA
ATOM     30  C   UNL A   1      41.868  30.413  28.996  1.00  0.00     0.031 C 
ATOM     31  C   UNL A   1      46.997  28.654  30.750  1.00  0.00     0.029 A 
ATOM     32  C   UNL A   1      45.819  29.390  30.619  1.00  0.00     0.049 A 
ATOM     33  H   UNL A   1      45.746  31.244  29.623  1.00  0.00     0.167 HD
ATOM     34  C   UNL A   1      43.362  29.748  30.647  1.00  0.00     0.074 A 
ATOM     35  C   UNL A   1      43.125  30.531  29.434  1.00  0.00     0.031 C 
ATOM     36  C   UNL A   1      44.508  29.254  31.202  1.00  0.00     0.037 A 
BRANCH  23  37
ATOM     37  C   UNL A   1      46.705  31.350  26.802  1.00  0.00     0.057 A 
ATOM     38  C   UNL A   1      45.466  31.969  26.538  1.00  0.00     0.134 A 
ATOM     39  C   UNL A   1      47.811  32.224  26.812  1.00  0.00     0.134 A 
ATOM     40  F   UNL A   1      44.313  31.296  26.479  1.00  0.00    -0.206 F 
ATOM     41  C   UNL A   1      45.323  33.353  26.406  1.00  0.00     0.040 A 
ATOM     42  C   UNL A   1      47.671  33.615  26.726  1.00  0.00     0.040 A 
ATOM     43  F   UNL A   1      49.054  31.762  27.016  1.00  0.00    -0.206 F 
ATOM     44  C   UNL A   1      46.419  34.185  26.548  1.00  0.00     0.006 A 
ENDBRANCH  23  37
BRANCH  24  45
ATOM     45  C   UNL A   1      38.995  28.710  29.203  1.00  0.00     0.057 A 
ATOM     46  C   UNL A   1      38.550  29.281  27.997  1.00  0.00     0.134 A 
ATOM     47  C   UNL A   1      38.074  28.720  30.260  1.00  0.00     0.134 A 
ATOM     48  F   UNL A   1      39.372  29.402  26.945  1.00  0.00    -0.206 F 
ATOM     49  C   UNL A   1      37.274  29.836  27.853  1.00  0.00     0.040 A 
ATOM     50  C   UNL A   1      36.793  29.278  30.132  1.00  0.00     0.040 A 
ATOM     51  F   UNL A   1      38.417  28.244  31.466  1.00  0.00    -0.206 F 
ATOM     52  C   UNL A   1      36.393  29.847  28.926  1.00  0.00     0.006 A 
ENDBRANCH  24  45
BRANCH  36  53
ATOM     53  C   UNL A   1      44.369  28.319  32.370  1.00  0.00     0.057 A 
ATOM     54  C   UNL A   1      44.564  28.823  33.659  1.00  0.00     0.134 A 
ATOM     55  C   UNL A   1      44.171  26.934  32.253  1.00  0.00     0.134 A 
ATOM     56  F   UNL A   1      44.821  30.128  33.844  1.00  0.00    -0.206 F 
ATOM     57  C   UNL A   1      44.540  27.998  34.785  1.00  0.00     0.040 A 
ATOM     58  C   UNL A   1      44.110  26.101  33.375  1.00  0.00     0.040 A 
ATOM     59  F   UNL A   1      44.083  26.345  31.054  1.00  0.00    -0.206 F 
ATOM     60  C   UNL A   1      44.298  26.634  34.646  1.00  0.00     0.006 A 
ENDBRANCH  36  53
ENDBRANCH  10  11
ENDBRANCH   3   5
ENDBRANCH   2   3
ENDBRANCH   1   2
BRANCH   1  61
ATOM     61  C   UNL A   1      43.160  18.508  25.805  1.00  0.00     0.275 C 
BRANCH  61  62
ATOM     62  O   UNL A   1      41.834  19.005  25.589  1.00  0.00    -0.456 OA
BRANCH  62  63
ATOM     63  C   UNL A   1      41.491  20.119  26.300  1.00  0.00     0.374 C 
ATOM     64  O   UNL A   1      42.219  20.704  27.094  1.00  0.00    -0.242 OA
BRANCH  63  65
ATOM     65  C   UNL A   1      40.127  20.442  26.012  1.00  0.00     0.216 A 
ATOM     66  O   UNL A   1      39.292  19.491  25.456  1.00  0.00    -0.449 OA
ATOM     67  C   UNL A   1      39.435  21.618  26.199  1.00  0.00     0.014 A 
ATOM     68  C   UNL A   1      38.065  20.076  25.298  1.00  0.00     0.135 A 
ATOM     69  C   UNL A   1      38.139  21.379  25.728  1.00  0.00     0.028 A 
ATOM     70  C   UNL A   1      39.785  22.961  26.727  1.00  0.00     0.041 C 
ATOM     71  C   UNL A   1      36.894  19.531  24.792  1.00  0.00     0.048 A 
ATOM     72  C   UNL A   1      37.070  22.269  25.654  1.00  0.00    -0.037 A 
ATOM     73  C   UNL A   1      38.845  24.029  26.095  1.00  0.00     0.010 C 
ATOM     74  C   UNL A   1      35.785  20.403  24.751  1.00  0.00     0.004 A 
ATOM     75  C   UNL A   1      35.867  21.747  25.173  1.00  0.00     0.004 A 
ATOM     76  C   UNL A   1      37.322  23.671  26.142  1.00  0.00     0.036 C 
ENDBRANCH  63  65
ENDBRANCH  62  63
ENDBRANCH  61  62
ENDBRANCH   1  61
TORSDOF 11
ENDMDL
MODEL 2
REMARK VINA RESULT:     -11.0      4.705     10.247
REMARK SMILES O=C(OCCOC(=O)c1oc2cccc3c2c1CCC3)c1ccc(-c2c3nc(c(-c4c(F)cccc4F)c4ccc([nH]4)c(-c4c(F)cccc4F)c4nc(c(-c5c(F)cccc5F)c5ccc2[nH]5)C=C4)C=C3)cc1
REMARK SMILES IDX 4 1 3 2 2 3 1 4 21 5 22 6 74 7 23 8 73 9 24 10 25 11 26 12
REMARK SMILES IDX 67 13 27 14 72 15 66 16 68 17 28 18 71 19 65 20 64 21 29 23
REMARK SMILES IDX 55 24 38 25 54 26 39 27 42 28 53 29 69 30 40 31 41 32 52 34
REMARK SMILES IDX 70 35 43 36 30 37 31 38 36 39 32 40 33 41 35 42 37 43 34 44
REMARK SMILES IDX 56 45 57 46 62 47 58 48 59 49 61 50 63 51 60 52 44 53 45 54
REMARK SMILES IDX 50 55 46 56 47 57 49 58 51 59 48 60 5 61 6 62 7 63 8 64 9 65
REMARK SMILES IDX 10 66 17 67 11 68 16 69 18 70 12 71 15 72 19 73 13 74 14 75
REMARK SMILES IDX 20 76
REMARK H PARENT 68 22 42 33
REMARK Flexibility Score: inf
ROOT
ATOM      1  C   UNL A   1      33.471  33.323  27.972  1.00  0.00     0.275 C 
ENDROOT
BRANCH   1   2
ATOM      2  O   UNL A   1      34.725  32.645  28.192  1.00  0.00    -0.458 OA
BRANCH   2   3
ATOM      3  C   UNL A   1      34.848  31.310  28.374  1.00  0.00     0.338 C 
ATOM      4  O   UNL A   1      33.997  30.531  27.961  1.00  0.00    -0.246 OA
BRANCH   3   5
ATOM      5  C   UNL A   1      36.187  30.800  28.783  1.00  0.00     0.060 A 
ATOM      6  C   UNL A   1      37.402  31.358  28.383  1.00  0.00     0.016 A 
ATOM      7  C   UNL A   1      36.196  29.629  29.565  1.00  0.00     0.016 A 
ATOM      8  C   UNL A   1      38.591  30.693  28.639  1.00  0.00     0.010 A 
ATOM      9  C   UNL A   1      37.383  28.959  29.824  1.00  0.00     0.010 A 
ATOM     10  C   UNL A   1      38.567  29.467  29.305  1.00  0.00    -0.014 A 
BRANCH  10  11
ATOM     11  C   UNL A   1      39.837  28.802  29.532  1.00  0.00     0.031 A 
ATOM     12  C   UNL A   1      40.237  28.749  30.961  1.00  0.00     0.074 A 
ATOM     13  C   UNL A   1      40.553  28.232  28.542  1.00  0.00     0.049 A 
ATOM     14  N   UNL A   1      41.210  29.378  31.533  1.00  0.00    -0.248 NA
ATOM     15  C   UNL A   1      39.353  28.039  31.896  1.00  0.00     0.031 C 
ATOM     16  C   UNL A   1      40.151  27.994  27.154  1.00  0.00     0.029 A 
ATOM     17  N   UNL A   1      41.792  27.668  28.600  1.00  0.00    -0.354 N 
ATOM     18  C   UNL A   1      41.194  28.971  32.865  1.00  0.00     0.074 A 
ATOM     19  C   UNL A   1      39.937  28.302  33.065  1.00  0.00     0.031 C 
ATOM     20  C   UNL A   1      41.032  27.146  26.572  1.00  0.00     0.029 A 
ATOM     21  C   UNL A   1      42.124  26.892  27.496  1.00  0.00     0.049 A 
ATOM     22  H   UNL A   1      42.401  27.800  29.361  1.00  0.00     0.167 HD
ATOM     23  C   UNL A   1      42.335  28.991  33.610  1.00  0.00     0.037 A 
ATOM     24  C   UNL A   1      43.194  26.061  27.388  1.00  0.00     0.037 A 
ATOM     25  C   UNL A   1      43.313  29.879  33.026  1.00  0.00     0.049 A 
ATOM     26  C   UNL A   1      44.185  26.469  28.416  1.00  0.00     0.074 A 
ATOM     27  C   UNL A   1      43.352  31.224  32.715  1.00  0.00     0.029 A 
ATOM     28  N   UNL A   1      44.353  29.311  32.331  1.00  0.00    -0.354 N 
ATOM     29  N   UNL A   1      44.860  27.583  28.362  1.00  0.00    -0.248 NA
ATOM     30  C   UNL A   1      44.068  25.873  29.738  1.00  0.00     0.031 C 
ATOM     31  C   UNL A   1      44.076  31.298  31.486  1.00  0.00     0.029 A 
ATOM     32  C   UNL A   1      44.495  30.008  31.160  1.00  0.00     0.049 A 
ATOM     33  H   UNL A   1      44.897  28.544  32.620  1.00  0.00     0.167 HD
ATOM     34  C   UNL A   1      44.857  28.058  29.665  1.00  0.00     0.074 A 
ATOM     35  C   UNL A   1      44.423  26.926  30.482  1.00  0.00     0.031 C 
ATOM     36  C   UNL A   1      44.921  29.398  29.926  1.00  0.00     0.037 A 
BRANCH  23  37
ATOM     37  C   UNL A   1      42.735  27.881  34.563  1.00  0.00     0.057 A 
ATOM     38  C   UNL A   1      42.587  27.931  35.964  1.00  0.00     0.134 A 
ATOM     39  C   UNL A   1      42.937  26.589  34.036  1.00  0.00     0.134 A 
ATOM     40  F   UNL A   1      42.398  29.070  36.638  1.00  0.00    -0.206 F 
ATOM     41  C   UNL A   1      42.531  26.784  36.761  1.00  0.00     0.040 A 
ATOM     42  C   UNL A   1      42.837  25.433  34.820  1.00  0.00     0.040 A 
ATOM     43  F   UNL A   1      43.128  26.402  32.721  1.00  0.00    -0.206 F 
ATOM     44  C   UNL A   1      42.607  25.528  36.185  1.00  0.00     0.006 A 
ENDBRANCH  23  37
BRANCH  24  45
ATOM     45  C   UNL A   1      43.288  24.763  26.679  1.00  0.00     0.057 A 
ATOM     46  C   UNL A   1      43.963  24.651  25.451  1.00  0.00     0.134 A 
ATOM     47  C   UNL A   1      42.490  23.668  27.041  1.00  0.00     0.134 A 
ATOM     48  F   UNL A   1      44.687  25.669  24.965  1.00  0.00    -0.206 F 
ATOM     49  C   UNL A   1      43.844  23.527  24.627  1.00  0.00     0.040 A 
ATOM     50  C   UNL A   1      42.357  22.536  26.222  1.00  0.00     0.040 A 
ATOM     51  F   UNL A   1      41.767  23.695  28.170  1.00  0.00    -0.206 F 
ATOM     52  C   UNL A   1      43.029  22.468  25.005  1.00  0.00     0.006 A 
ENDBRANCH  24  45
BRANCH  36  53
ATOM     53  C   UNL A   1      45.242  30.316  28.781  1.00  0.00     0.057 A 
ATOM     54  C   UNL A   1      44.188  30.825  28.015  1.00  0.00     0.134 A 
ATOM     55  C   UNL A   1      46.543  30.611  28.346  1.00  0.00     0.134 A 
ATOM     56  F   UNL A   1      42.917  30.533  28.334  1.00  0.00    -0.206 F 
ATOM     57  C   UNL A   1      44.413  31.610  26.883  1.00  0.00     0.040 A 
ATOM     58  C   UNL A   1      46.781  31.425  27.234  1.00  0.00     0.040 A 
ATOM     59  F   UNL A   1      47.613  30.080  28.951  1.00  0.00    -0.206 F 
ATOM     60  C   UNL A   1      45.713  31.925  26.498  1.00  0.00     0.006 A 
ENDBRANCH  36  53
ENDBRANCH  10  11
ENDBRANCH   3   5
ENDBRANCH   2   3
ENDBRANCH   1   2
BRANCH   1  61
ATOM     61  C   UNL A   1      33.197  34.568  28.810  1.00  0.00     0.275 C 
BRANCH  61  62
ATOM     62  O   UNL A   1      34.354  34.969  29.554  1.00  0.00    -0.456 OA
BRANCH  62  63
ATOM     63  C   UNL A   1      34.528  34.356  30.762  1.00  0.00     0.374 C 
ATOM     64  O   UNL A   1      33.658  34.203  31.610  1.00  0.00    -0.242 OA
BRANCH  63  65
ATOM     65  C   UNL A   1      35.905  33.988  30.892  1.00  0.00     0.216 A 
ATOM     66  O   UNL A   1      36.856  34.555  30.064  1.00  0.00    -0.449 OA
ATOM     67  C   UNL A   1      36.509  33.102  31.756  1.00  0.00     0.014 A 
ATOM     68  C   UNL A   1      38.066  34.022  30.416  1.00  0.00     0.135 A 
ATOM     69  C   UNL A   1      37.871  33.120  31.434  1.00  0.00     0.028 A 
ATOM     70  C   UNL A   1      36.025  32.204  32.835  1.00  0.00     0.041 C 
ATOM     71  C   UNL A   1      39.323  34.280  29.889  1.00  0.00     0.048 A 
ATOM     72  C   UNL A   1      38.899  32.362  31.989  1.00  0.00    -0.037 A 
ATOM     73  C   UNL A   1      37.003  31.003  32.989  1.00  0.00     0.010 C 
ATOM     74  C   UNL A   1      40.386  33.556  30.469  1.00  0.00     0.004 A 
ATOM     75  C   UNL A   1      40.183  32.614  31.500  1.00  0.00     0.004 A 
ATOM     76  C   UNL A   1      38.514  31.397  33.080  1.00  0.00     0.036 C 
ENDBRANCH  63  65
ENDBRANCH  62  63
ENDBRANCH  61  62
ENDBRANCH   1  61
TORSDOF 11
ENDMDL
MODEL 3
REMARK VINA RESULT:     -11.0      4.779     10.295
REMARK SMILES O=C(OCCOC(=O)c1oc2cccc3c2c1CCC3)c1ccc(-c2c3nc(c(-c4c(F)cccc4F)c4ccc([nH]4)c(-c4c(F)cccc4F)c4nc(c(-c5c(F)cccc5F)c5ccc2[nH]5)C=C4)C=C3)cc1
REMARK SMILES IDX 4 1 3 2 2 3 1 4 21 5 22 6 74 7 23 8 73 9 24 10 25 11 26 12
REMARK SMILES IDX 67 13 27 14 72 15 66 16 68 17 28 18 71 19 65 20 64 21 29 23
REMARK SMILES IDX 55 24 38 25 54 26 39 27 42 28 53 29 69 30 40 31 41 32 52 34
REMARK SMILES IDX 70 35 43 36 30 37 31 38 36 39 32 40 33 41 35 42 37 43 34 44
REMARK SMILES IDX 56 45 57 46 62 47 58 48 59 49 61 50 63 51 60 52 44 53 45 54
REMARK SMILES IDX 50 55 46 56 47 57 49 58 51 59 48 60 5 61 6 62 7 63 8 64 9 65
REMARK SMILES IDX 10 66 17 67 11 68 16 69 18 70 12 71 15 72 19 73 13 74 14 75
REMARK SMILES IDX 20 76
REMARK H PARENT 68 22 42 33
REMARK Flexibility Score: inf
ROOT
ATOM      1  C   UNL A   1      35.025  34.258  28.359  1.00  0.00     0.275 C 
ENDROOT
BRANCH   1   2
ATOM      2  O   UNL A   1      35.294  33.041  27.632  1.00  0.00    -0.458 OA
BRANCH   2   3
ATOM      3  C   UNL A   1      35.180  31.799  28.156  1.00  0.00     0.338 C 
ATOM      4  O   UNL A   1      34.150  31.148  28.032  1.00  0.00    -0.246 OA
BRANCH   3   5
ATOM      5  C   UNL A   1      36.437  31.126  28.588  1.00  0.00     0.060 A 
ATOM      6  C   UNL A   1      37.602  31.795  28.971  1.00  0.00     0.016 A 
ATOM      7  C   UNL A   1      36.446  29.720  28.522  1.00  0.00     0.016 A 
ATOM      8  C   UNL A   1      38.781  31.090  29.151  1.00  0.00     0.010 A 
ATOM      9  C   UNL A   1      37.624  29.009  28.701  1.00  0.00     0.010 A 
ATOM     10  C   UNL A   1      38.797  29.709  28.955  1.00  0.00    -0.014 A 
BRANCH  10  11
ATOM     11  C   UNL A   1      40.062  29.020  29.137  1.00  0.00     0.031 A 
ATOM     12  C   UNL A   1      40.457  28.864  30.560  1.00  0.00     0.074 A 
ATOM     13  C   UNL A   1      40.777  28.516  28.111  1.00  0.00     0.049 A 
ATOM     14  N   UNL A   1      41.434  29.444  31.177  1.00  0.00    -0.248 NA
ATOM     15  C   UNL A   1      39.566  28.096  31.441  1.00  0.00     0.031 C 
ATOM     16  C   UNL A   1      40.377  28.378  26.710  1.00  0.00     0.029 A 
ATOM     17  N   UNL A   1      42.012  27.940  28.133  1.00  0.00    -0.354 N 
ATOM     18  C   UNL A   1      41.411  28.946  32.478  1.00  0.00     0.074 A 
ATOM     19  C   UNL A   1      40.149  28.273  32.628  1.00  0.00     0.031 C 
ATOM     20  C   UNL A   1      41.254  27.567  26.072  1.00  0.00     0.029 A 
ATOM     21  C   UNL A   1      42.341  27.241  26.978  1.00  0.00     0.049 A 
ATOM     22  H   UNL A   1      42.620  28.015  28.903  1.00  0.00     0.167 HD
ATOM     23  C   UNL A   1      42.550  28.906  33.225  1.00  0.00     0.037 A 
ATOM     24  C   UNL A   1      43.406  26.412  26.815  1.00  0.00     0.037 A 
ATOM     25  C   UNL A   1      43.536  29.825  32.706  1.00  0.00     0.049 A 
ATOM     26  C   UNL A   1      44.397  26.740  27.870  1.00  0.00     0.074 A 
ATOM     27  C   UNL A   1      43.585  31.188  32.491  1.00  0.00     0.029 A 
ATOM     28  N   UNL A   1      44.573  29.299  31.975  1.00  0.00    -0.354 N 
ATOM     29  N   UNL A   1      45.080  27.851  27.896  1.00  0.00    -0.248 NA
ATOM     30  C   UNL A   1      44.273  26.054  29.147  1.00  0.00     0.031 C 
ATOM     31  C   UNL A   1      44.313  31.343  31.272  1.00  0.00     0.029 A 
ATOM     32  C   UNL A   1      44.723  30.076  30.857  1.00  0.00     0.049 A 
ATOM     33  H   UNL A   1      45.111  28.510  32.212  1.00  0.00     0.167 HD
ATOM     34  C   UNL A   1      45.077  28.233  29.230  1.00  0.00     0.074 A 
ATOM     35  C   UNL A   1      44.633  27.049  29.965  1.00  0.00     0.031 C 
ATOM     36  C   UNL A   1      45.149  29.551  29.584  1.00  0.00     0.037 A 
BRANCH  23  37
ATOM     37  C   UNL A   1      42.940  27.728  34.098  1.00  0.00     0.057 A 
ATOM     38  C   UNL A   1      43.535  26.540  33.628  1.00  0.00     0.134 A 
ATOM     39  C   UNL A   1      43.056  27.937  35.487  1.00  0.00     0.134 A 
ATOM     40  F   UNL A   1      43.514  26.173  32.343  1.00  0.00    -0.206 F 
ATOM     41  C   UNL A   1      44.279  25.688  34.449  1.00  0.00     0.040 A 
ATOM     42  C   UNL A   1      43.837  27.115  36.309  1.00  0.00     0.040 A 
ATOM     43  F   UNL A   1      42.505  29.011  36.073  1.00  0.00    -0.206 F 
ATOM     44  C   UNL A   1      44.473  25.999  35.784  1.00  0.00     0.006 A 
ENDBRANCH  23  37
BRANCH  24  45
ATOM     45  C   UNL A   1      43.493  25.166  26.017  1.00  0.00     0.057 A 
ATOM     46  C   UNL A   1      42.691  24.051  26.317  1.00  0.00     0.134 A 
ATOM     47  C   UNL A   1      44.552  24.937  25.126  1.00  0.00     0.134 A 
ATOM     48  F   UNL A   1      41.703  24.133  27.219  1.00  0.00    -0.206 F 
ATOM     49  C   UNL A   1      42.931  22.785  25.774  1.00  0.00     0.040 A 
ATOM     50  C   UNL A   1      44.807  23.670  24.579  1.00  0.00     0.040 A 
ATOM     51  F   UNL A   1      45.405  25.923  24.813  1.00  0.00    -0.206 F 
ATOM     52  C   UNL A   1      44.000  22.586  24.911  1.00  0.00     0.006 A 
ENDBRANCH  24  45
BRANCH  36  53
ATOM     53  C   UNL A   1      45.479  30.545  28.507  1.00  0.00     0.057 A 
ATOM     54  C   UNL A   1      46.792  31.017  28.410  1.00  0.00     0.134 A 
ATOM     55  C   UNL A   1      44.530  31.129  27.655  1.00  0.00     0.134 A 
ATOM     56  F   UNL A   1      47.742  30.549  29.235  1.00  0.00    -0.206 F 
ATOM     57  C   UNL A   1      47.153  32.007  27.494  1.00  0.00     0.040 A 
ATOM     58  C   UNL A   1      44.885  32.096  26.709  1.00  0.00     0.040 A 
ATOM     59  F   UNL A   1      43.231  30.820  27.748  1.00  0.00    -0.206 F 
ATOM     60  C   UNL A   1      46.201  32.539  26.629  1.00  0.00     0.006 A 
ENDBRANCH  36  53
ENDBRANCH  10  11
ENDBRANCH   3   5
ENDBRANCH   2   3
ENDBRANCH   1   2
BRANCH   1  61
ATOM     61  C   UNL A   1      33.774  34.285  29.230  1.00  0.00     0.275 C 
BRANCH  61  62
ATOM     62  O   UNL A   1      34.024  33.740  30.531  1.00  0.00    -0.456 OA
BRANCH  62  63
ATOM     63  C   UNL A   1      34.595  34.590  31.434  1.00  0.00     0.374 C 
ATOM     64  O   UNL A   1      34.107  35.647  31.818  1.00  0.00    -0.242 OA
BRANCH  63  65
ATOM     65  C   UNL A   1      35.878  34.073  31.800  1.00  0.00     0.216 A 
ATOM     66  O   UNL A   1      36.989  34.895  31.780  1.00  0.00    -0.449 OA
ATOM     67  C   UNL A   1      36.242  32.807  32.200  1.00  0.00     0.014 A 
ATOM     68  C   UNL A   1      38.058  34.137  32.175  1.00  0.00     0.135 A 
ATOM     69  C   UNL A   1      37.625  32.856  32.417  1.00  0.00     0.028 A 
ATOM     70  C   UNL A   1      35.518  31.525  32.395  1.00  0.00     0.041 C 
ATOM     71  C   UNL A   1      39.386  34.509  32.326  1.00  0.00     0.048 A 
ATOM     72  C   UNL A   1      38.477  31.820  32.788  1.00  0.00    -0.037 A 
ATOM     73  C   UNL A   1      36.503  30.336  32.201  1.00  0.00     0.010 C 
ATOM     74  C   UNL A   1      40.260  33.483  32.747  1.00  0.00     0.004 A 
ATOM     75  C   UNL A   1      39.819  32.163  32.975  1.00  0.00     0.004 A 
ATOM     76  C   UNL A   1      37.849  30.466  32.989  1.00  0.00     0.036 C 
ENDBRANCH  63  65
ENDBRANCH  62  63
ENDBRANCH  61  62
ENDBRANCH   1  61
TORSDOF 11
ENDMDL
