MODEL 1
REMARK VINA RESULT:     -11.5      0.000      0.000
REMARK SMILES O=C(OCCOC(=O)c1cc(/C=C/c2cc(O)cc(O)c2)ccc1O)c1ccc(-c2c3nc(c(-c4c(F)cccc4F)c4ccc([nH]4)c(-c4c(F)cccc4F)c4nc(c(-c5c(F)cccc5F)c5ccc2[nH]5)C=C4)C=C3)cc1
REMARK SMILES IDX 5 1 4 2 3 3 2 4 1 5 26 6 27 7 79 8 28 9 78 10 29 11 30 12
REMARK SMILES IDX 31 13 72 14 32 15 77 16 71 17 73 18 33 19 76 20 70 21 69 22
REMARK SMILES IDX 34 24 60 25 43 26 59 27 44 28 47 29 58 30 74 31 45 32 46 33
REMARK SMILES IDX 57 35 75 36 48 37 35 38 36 39 41 40 37 41 38 42 40 43 42 44
REMARK SMILES IDX 39 45 61 46 62 47 67 48 63 49 64 50 66 51 68 52 65 53 49 54
REMARK SMILES IDX 50 55 55 56 51 57 52 58 54 59 56 60 53 61 6 62 7 63 8 64
REMARK SMILES IDX 9 65 10 66 24 67 11 68 23 69 22 70 25 71 12 73 13 74 14 75
REMARK SMILES IDX 15 76 21 77 16 78 19 79 18 80 17 81 20 83
REMARK H PARENT 73 23 47 34 25 72 17 82 20 84
REMARK Flexibility Score: inf
ROOT
ATOM      1  C   UNL A   1      43.062  21.066  26.050  1.00  0.00     0.275 C 
ENDROOT
BRANCH   1   2
ATOM      2  C   UNL A   1      44.183  21.874  25.397  1.00  0.00     0.275 C 
BRANCH   2   3
ATOM      3  O   UNL A   1      43.791  23.174  24.919  1.00  0.00    -0.458 OA
BRANCH   3   4
ATOM      4  C   UNL A   1      44.294  24.400  25.191  1.00  0.00     0.338 C 
ATOM      5  O   UNL A   1      45.310  24.764  24.598  1.00  0.00    -0.246 OA
BRANCH   4   6
ATOM      6  C   UNL A   1      43.769  25.308  26.260  1.00  0.00     0.060 A 
ATOM      7  C   UNL A   1      44.214  26.599  26.544  1.00  0.00     0.016 A 
ATOM      8  C   UNL A   1      42.735  24.783  27.060  1.00  0.00     0.016 A 
ATOM      9  C   UNL A   1      43.603  27.372  27.537  1.00  0.00     0.010 A 
ATOM     10  C   UNL A   1      42.109  25.552  28.043  1.00  0.00     0.010 A 
ATOM     11  C   UNL A   1      42.543  26.857  28.286  1.00  0.00    -0.014 A 
BRANCH  11  12
ATOM     12  C   UNL A   1      41.982  27.647  29.403  1.00  0.00     0.031 A 
ATOM     13  C   UNL A   1      42.617  27.533  30.754  1.00  0.00     0.074 A 
ATOM     14  C   UNL A   1      40.952  28.486  29.196  1.00  0.00     0.049 A 
ATOM     15  N   UNL A   1      42.329  28.177  31.853  1.00  0.00    -0.248 NA
ATOM     16  C   UNL A   1      43.745  26.595  30.875  1.00  0.00     0.031 C 
ATOM     17  C   UNL A   1      40.317  28.735  27.904  1.00  0.00     0.029 A 
ATOM     18  N   UNL A   1      40.250  29.279  30.066  1.00  0.00    -0.354 N 
ATOM     19  C   UNL A   1      43.275  27.764  32.781  1.00  0.00     0.074 A 
ATOM     20  C   UNL A   1      44.092  26.757  32.142  1.00  0.00     0.031 C 
ATOM     21  C   UNL A   1      39.276  29.567  28.074  1.00  0.00     0.029 A 
ATOM     22  C   UNL A   1      39.185  29.924  29.485  1.00  0.00     0.049 A 
ATOM     23  H   UNL A   1      40.487  29.378  31.016  1.00  0.00     0.167 HD
ATOM     24  C   UNL A   1      43.466  28.217  34.040  1.00  0.00     0.037 A 
ATOM     25  C   UNL A   1      38.243  30.712  30.036  1.00  0.00     0.037 A 
ATOM     26  C   UNL A   1      42.621  29.187  34.678  1.00  0.00     0.049 A 
ATOM     27  C   UNL A   1      38.378  31.077  31.489  1.00  0.00     0.074 A 
ATOM     28  C   UNL A   1      42.709  29.706  35.956  1.00  0.00     0.029 A 
ATOM     29  N   UNL A   1      41.511  29.771  34.081  1.00  0.00    -0.354 N 
ATOM     30  N   UNL A   1      39.311  30.725  32.342  1.00  0.00    -0.248 NA
ATOM     31  C   UNL A   1      37.359  31.974  32.048  1.00  0.00     0.031 C 
ATOM     32  C   UNL A   1      41.624  30.570  36.148  1.00  0.00     0.029 A 
ATOM     33  C   UNL A   1      40.886  30.622  34.976  1.00  0.00     0.049 A 
ATOM     34  H   UNL A   1      41.212  29.603  33.159  1.00  0.00     0.167 HD
ATOM     35  C   UNL A   1      39.023  31.398  33.521  1.00  0.00     0.074 A 
ATOM     36  C   UNL A   1      37.823  32.173  33.273  1.00  0.00     0.031 C 
ATOM     37  C   UNL A   1      39.697  31.388  34.697  1.00  0.00     0.037 A 
BRANCH  24  38
ATOM     38  C   UNL A   1      44.632  27.646  34.789  1.00  0.00     0.057 A 
ATOM     39  C   UNL A   1      45.897  28.247  34.741  1.00  0.00     0.134 A 
ATOM     40  C   UNL A   1      44.501  26.471  35.536  1.00  0.00     0.134 A 
ATOM     41  F   UNL A   1      46.093  29.363  34.020  1.00  0.00    -0.206 F 
ATOM     42  C   UNL A   1      46.999  27.682  35.385  1.00  0.00     0.040 A 
ATOM     43  C   UNL A   1      45.591  25.907  36.202  1.00  0.00     0.040 A 
ATOM     44  F   UNL A   1      43.319  25.843  35.618  1.00  0.00    -0.206 F 
ATOM     45  C   UNL A   1      46.846  26.509  36.121  1.00  0.00     0.006 A 
ENDBRANCH  24  38
BRANCH  25  46
ATOM     46  C   UNL A   1      37.112  31.217  29.218  1.00  0.00     0.057 A 
ATOM     47  C   UNL A   1      37.097  32.519  28.709  1.00  0.00     0.134 A 
ATOM     48  C   UNL A   1      35.999  30.409  28.947  1.00  0.00     0.134 A 
ATOM     49  F   UNL A   1      38.127  33.346  28.942  1.00  0.00    -0.206 F 
ATOM     50  C   UNL A   1      36.010  33.011  27.982  1.00  0.00     0.040 A 
ATOM     51  C   UNL A   1      34.913  30.880  28.207  1.00  0.00     0.040 A 
ATOM     52  F   UNL A   1      35.956  29.144  29.393  1.00  0.00    -0.206 F 
ATOM     53  C   UNL A   1      34.913  32.188  27.730  1.00  0.00     0.006 A 
ENDBRANCH  25  46
BRANCH  37  54
ATOM     54  C   UNL A   1      39.173  32.275  35.786  1.00  0.00     0.057 A 
ATOM     55  C   UNL A   1      38.293  31.801  36.765  1.00  0.00     0.134 A 
ATOM     56  C   UNL A   1      39.586  33.611  35.873  1.00  0.00     0.134 A 
ATOM     57  F   UNL A   1      37.848  30.536  36.725  1.00  0.00    -0.206 F 
ATOM     58  C   UNL A   1      37.827  32.631  37.785  1.00  0.00     0.040 A 
ATOM     59  C   UNL A   1      39.148  34.442  36.902  1.00  0.00     0.040 A 
ATOM     60  F   UNL A   1      40.434  34.122  34.966  1.00  0.00    -0.206 F 
ATOM     61  C   UNL A   1      38.261  33.954  37.859  1.00  0.00     0.006 A 
ENDBRANCH  37  54
ENDBRANCH  11  12
ENDBRANCH   4   6
ENDBRANCH   3   4
ENDBRANCH   2   3
ENDBRANCH   1   2
BRANCH   1  62
ATOM     62  O   UNL A   1      41.755  21.478  25.633  1.00  0.00    -0.458 OA
BRANCH  62  63
ATOM     63  C   UNL A   1      40.815  21.500  26.615  1.00  0.00     0.342 C 
ATOM     64  O   UNL A   1      40.964  21.892  27.761  1.00  0.00    -0.246 OA
BRANCH  63  65
ATOM     65  C   UNL A   1      39.501  21.143  26.053  1.00  0.00     0.102 A 
ATOM     66  C   UNL A   1      38.517  22.145  26.032  1.00  0.00     0.027 A 
ATOM     67  C   UNL A   1      39.218  19.873  25.554  1.00  0.00     0.130 A 
ATOM     68  C   UNL A   1      37.272  21.911  25.433  1.00  0.00    -0.025 A 
ATOM     69  C   UNL A   1      37.964  19.612  25.004  1.00  0.00     0.048 A 
ATOM     70  C   UNL A   1      37.009  20.629  24.927  1.00  0.00     0.012 A 
BRANCH  67  71
ATOM     71  O   UNL A   1      40.157  18.882  25.604  1.00  0.00    -0.507 OA
ATOM     72  H   UNL A   1      40.430  18.455  24.816  1.00  0.00     0.293 HD
ENDBRANCH  67  71
BRANCH  68  73
ATOM     73  C   UNL A   1      36.216  22.932  25.328  1.00  0.00     0.009 C 
ATOM     74  C   UNL A   1      35.175  23.082  26.165  1.00  0.00     0.009 C 
BRANCH  74  75
ATOM     75  C   UNL A   1      34.126  24.099  25.977  1.00  0.00    -0.018 A 
ATOM     76  C   UNL A   1      32.825  23.910  26.469  1.00  0.00     0.054 A 
ATOM     77  C   UNL A   1      34.452  25.319  25.369  1.00  0.00     0.054 A 
ATOM     78  C   UNL A   1      31.872  24.916  26.329  1.00  0.00     0.119 A 
ATOM     79  C   UNL A   1      33.482  26.314  25.240  1.00  0.00     0.119 A 
ATOM     80  C   UNL A   1      32.190  26.118  25.714  1.00  0.00     0.092 A 
BRANCH  78  81
ATOM     81  O   UNL A   1      30.602  24.757  26.804  1.00  0.00    -0.508 OA
ATOM     82  H   UNL A   1      30.459  24.615  27.720  1.00  0.00     0.293 HD
ENDBRANCH  78  81
BRANCH  79  83
ATOM     83  O   UNL A   1      33.766  27.513  24.655  1.00  0.00    -0.508 OA
ATOM     84  H   UNL A   1      34.646  27.716  24.406  1.00  0.00     0.293 HD
ENDBRANCH  79  83
ENDBRANCH  74  75
ENDBRANCH  68  73
ENDBRANCH  63  65
ENDBRANCH  62  63
ENDBRANCH   1  62
TORSDOF 16
ENDMDL
MODEL 2
REMARK VINA RESULT:     -11.4      2.303      8.591
REMARK SMILES O=C(OCCOC(=O)c1cc(/C=C/c2cc(O)cc(O)c2)ccc1O)c1ccc(-c2c3nc(c(-c4c(F)cccc4F)c4ccc([nH]4)c(-c4c(F)cccc4F)c4nc(c(-c5c(F)cccc5F)c5ccc2[nH]5)C=C4)C=C3)cc1
REMARK SMILES IDX 5 1 4 2 3 3 2 4 1 5 26 6 27 7 79 8 28 9 78 10 29 11 30 12
REMARK SMILES IDX 31 13 72 14 32 15 77 16 71 17 73 18 33 19 76 20 70 21 69 22
REMARK SMILES IDX 34 24 60 25 43 26 59 27 44 28 47 29 58 30 74 31 45 32 46 33
REMARK SMILES IDX 57 35 75 36 48 37 35 38 36 39 41 40 37 41 38 42 40 43 42 44
REMARK SMILES IDX 39 45 61 46 62 47 67 48 63 49 64 50 66 51 68 52 65 53 49 54
REMARK SMILES IDX 50 55 55 56 51 57 52 58 54 59 56 60 53 61 6 62 7 63 8 64
REMARK SMILES IDX 9 65 10 66 24 67 11 68 23 69 22 70 25 71 12 73 13 74 14 75
REMARK SMILES IDX 15 76 21 77 16 78 19 79 18 80 17 81 20 83
REMARK H PARENT 73 23 47 34 25 72 17 82 20 84
REMARK Flexibility Score: inf
ROOT
ATOM      1  C   UNL A   1      32.399  31.288  26.880  1.00  0.00     0.275 C 
ENDROOT
BRANCH   1   2
ATOM      2  C   UNL A   1      31.561  32.562  26.977  1.00  0.00     0.275 C 
BRANCH   2   3
ATOM      3  O   UNL A   1      32.321  33.774  27.141  1.00  0.00    -0.458 OA
BRANCH   3   4
ATOM      4  C   UNL A   1      33.013  34.242  28.204  1.00  0.00     0.338 C 
ATOM      5  O   UNL A   1      32.649  35.295  28.727  1.00  0.00    -0.246 OA
BRANCH   4   6
ATOM      6  C   UNL A   1      34.276  33.626  28.723  1.00  0.00     0.060 A 
ATOM      7  C   UNL A   1      35.570  33.877  28.266  1.00  0.00     0.016 A 
ATOM      8  C   UNL A   1      34.122  32.690  29.764  1.00  0.00     0.016 A 
ATOM      9  C   UNL A   1      36.679  33.279  28.872  1.00  0.00     0.010 A 
ATOM     10  C   UNL A   1      35.224  32.098  30.385  1.00  0.00     0.010 A 
ATOM     11  C   UNL A   1      36.514  32.392  29.938  1.00  0.00    -0.014 A 
BRANCH  11  12
ATOM     12  C   UNL A   1      37.688  31.686  30.494  1.00  0.00     0.031 A 
ATOM     13  C   UNL A   1      38.142  32.029  31.879  1.00  0.00     0.074 A 
ATOM     14  C   UNL A   1      38.304  30.722  29.788  1.00  0.00     0.049 A 
ATOM     15  N   UNL A   1      39.103  31.495  32.584  1.00  0.00    -0.248 NA
ATOM     16  C   UNL A   1      37.396  33.091  32.574  1.00  0.00     0.031 C 
ATOM     17  C   UNL A   1      37.890  30.252  28.468  1.00  0.00     0.029 A 
ATOM     18  N   UNL A   1      39.412  29.969  30.073  1.00  0.00    -0.354 N 
ATOM     19  C   UNL A   1      39.041  32.116  33.823  1.00  0.00     0.074 A 
ATOM     20  C   UNL A   1      38.004  33.121  33.749  1.00  0.00     0.031 C 
ATOM     21  C   UNL A   1      38.770  29.340  28.025  1.00  0.00     0.029 A 
ATOM     22  C   UNL A   1      39.799  29.148  29.042  1.00  0.00     0.049 A 
ATOM     23  H   UNL A   1      39.886  30.010  30.935  1.00  0.00     0.167 HD
ATOM     24  C   UNL A   1      39.759  31.841  34.935  1.00  0.00     0.037 A 
ATOM     25  C   UNL A   1      40.866  28.334  28.934  1.00  0.00     0.037 A 
ATOM     26  C   UNL A   1      40.816  30.869  34.984  1.00  0.00     0.049 A 
ATOM     27  C   UNL A   1      41.757  28.164  30.133  1.00  0.00     0.074 A 
ATOM     28  C   UNL A   1      41.623  30.520  36.051  1.00  0.00     0.029 A 
ATOM     29  N   UNL A   1      41.224  30.102  33.901  1.00  0.00    -0.354 N 
ATOM     30  N   UNL A   1      41.653  28.714  31.320  1.00  0.00    -0.248 NA
ATOM     31  C   UNL A   1      42.887  27.235  29.997  1.00  0.00     0.031 C 
ATOM     32  C   UNL A   1      42.551  29.573  35.600  1.00  0.00     0.029 A 
ATOM     33  C   UNL A   1      42.293  29.302  34.265  1.00  0.00     0.049 A 
ATOM     34  H   UNL A   1      40.814  30.125  33.007  1.00  0.00     0.167 HD
ATOM     35  C   UNL A   1      42.670  28.160  32.086  1.00  0.00     0.074 A 
ATOM     36  C   UNL A   1      43.382  27.236  31.226  1.00  0.00     0.031 C 
ATOM     37  C   UNL A   1      42.977  28.384  33.388  1.00  0.00     0.037 A 
BRANCH  24  38
ATOM     38  C   UNL A   1      39.414  32.621  36.168  1.00  0.00     0.057 A 
ATOM     39  C   UNL A   1      40.053  33.832  36.469  1.00  0.00     0.134 A 
ATOM     40  C   UNL A   1      38.466  32.144  37.078  1.00  0.00     0.134 A 
ATOM     41  F   UNL A   1      40.991  34.329  35.647  1.00  0.00    -0.206 F 
ATOM     42  C   UNL A   1      39.780  34.527  37.648  1.00  0.00     0.040 A 
ATOM     43  C   UNL A   1      38.169  32.841  38.251  1.00  0.00     0.040 A 
ATOM     44  F   UNL A   1      37.824  30.989  36.851  1.00  0.00    -0.206 F 
ATOM     45  C   UNL A   1      38.833  34.033  38.542  1.00  0.00     0.006 A 
ENDBRANCH  24  38
BRANCH  25  46
ATOM     46  C   UNL A   1      41.139  27.615  27.664  1.00  0.00     0.057 A 
ATOM     47  C   UNL A   1      40.634  26.334  27.421  1.00  0.00     0.134 A 
ATOM     48  C   UNL A   1      41.941  28.189  26.667  1.00  0.00     0.134 A 
ATOM     49  F   UNL A   1      39.869  25.726  28.340  1.00  0.00    -0.206 F 
ATOM     50  C   UNL A   1      40.933  25.638  26.248  1.00  0.00     0.040 A 
ATOM     51  C   UNL A   1      42.234  27.513  25.481  1.00  0.00     0.040 A 
ATOM     52  F   UNL A   1      42.445  29.422  26.830  1.00  0.00    -0.206 F 
ATOM     53  C   UNL A   1      41.736  26.229  25.273  1.00  0.00     0.006 A 
ENDBRANCH  25  46
BRANCH  37  54
ATOM     54  C   UNL A   1      44.105  27.583  33.965  1.00  0.00     0.057 A 
ATOM     55  C   UNL A   1      45.420  28.060  33.974  1.00  0.00     0.134 A 
ATOM     56  C   UNL A   1      43.859  26.335  34.553  1.00  0.00     0.134 A 
ATOM     57  F   UNL A   1      45.720  29.240  33.412  1.00  0.00    -0.206 F 
ATOM     58  C   UNL A   1      46.459  27.313  34.532  1.00  0.00     0.040 A 
ATOM     59  C   UNL A   1      44.884  25.592  35.136  1.00  0.00     0.040 A 
ATOM     60  F   UNL A   1      42.618  25.827  34.580  1.00  0.00    -0.206 F 
ATOM     61  C   UNL A   1      46.190  26.079  35.122  1.00  0.00     0.006 A 
ENDBRANCH  37  54
ENDBRANCH  11  12
ENDBRANCH   4   6
ENDBRANCH   3   4
ENDBRANCH   2   3
ENDBRANCH   1   2
BRANCH   1  62
ATOM     62  O   UNL A   1      31.968  30.410  25.833  1.00  0.00    -0.458 OA
BRANCH  62  63
ATOM     63  C   UNL A   1      31.950  29.090  26.157  1.00  0.00     0.342 C 
ATOM     64  O   UNL A   1      31.627  28.604  27.229  1.00  0.00    -0.246 OA
BRANCH  63  65
ATOM     65  C   UNL A   1      32.208  28.279  24.955  1.00  0.00     0.102 A 
ATOM     66  C   UNL A   1      33.089  27.194  25.087  1.00  0.00     0.027 A 
ATOM     67  C   UNL A   1      31.613  28.552  23.724  1.00  0.00     0.130 A 
ATOM     68  C   UNL A   1      33.316  26.323  24.014  1.00  0.00    -0.025 A 
ATOM     69  C   UNL A   1      31.874  27.724  22.634  1.00  0.00     0.048 A 
ATOM     70  C   UNL A   1      32.702  26.608  22.785  1.00  0.00     0.012 A 
BRANCH  67  71
ATOM     71  O   UNL A   1      30.783  29.627  23.577  1.00  0.00    -0.507 OA
ATOM     72  H   UNL A   1      30.010  29.553  23.054  1.00  0.00     0.293 HD
ENDBRANCH  67  71
BRANCH  68  73
ATOM     73  C   UNL A   1      34.185  25.137  24.099  1.00  0.00     0.009 C 
ATOM     74  C   UNL A   1      34.738  24.639  25.219  1.00  0.00     0.009 C 
BRANCH  74  75
ATOM     75  C   UNL A   1      35.636  23.472  25.229  1.00  0.00    -0.018 A 
ATOM     76  C   UNL A   1      37.017  23.612  25.435  1.00  0.00     0.054 A 
ATOM     77  C   UNL A   1      35.092  22.185  25.116  1.00  0.00     0.054 A 
ATOM     78  C   UNL A   1      37.832  22.484  25.500  1.00  0.00     0.119 A 
ATOM     79  C   UNL A   1      35.927  21.069  25.185  1.00  0.00     0.119 A 
ATOM     80  C   UNL A   1      37.297  21.211  25.373  1.00  0.00     0.092 A 
BRANCH  78  81
ATOM     81  O   UNL A   1      39.177  22.594  25.704  1.00  0.00    -0.508 OA
ATOM     82  H   UNL A   1      39.559  23.436  25.859  1.00  0.00     0.293 HD
ENDBRANCH  78  81
BRANCH  79  83
ATOM     83  O   UNL A   1      35.430  19.802  25.080  1.00  0.00    -0.508 OA
ATOM     84  H   UNL A   1      34.866  19.577  24.367  1.00  0.00     0.293 HD
ENDBRANCH  79  83
ENDBRANCH  74  75
ENDBRANCH  68  73
ENDBRANCH  63  65
ENDBRANCH  62  63
ENDBRANCH   1  62
TORSDOF 16
ENDMDL
MODEL 3
REMARK VINA RESULT:     -11.2      3.390      8.535
REMARK SMILES O=C(OCCOC(=O)c1cc(/C=C/c2cc(O)cc(O)c2)ccc1O)c1ccc(-c2c3nc(c(-c4c(F)cccc4F)c4ccc([nH]4)c(-c4c(F)cccc4F)c4nc(c(-c5c(F)cccc5F)c5ccc2[nH]5)C=C4)C=C3)cc1
REMARK SMILES IDX 5 1 4 2 3 3 2 4 1 5 26 6 27 7 79 8 28 9 78 10 29 11 30 12
REMARK SMILES IDX 31 13 72 14 32 15 77 16 71 17 73 18 33 19 76 20 70 21 69 22
REMARK SMILES IDX 34 24 60 25 43 26 59 27 44 28 47 29 58 30 74 31 45 32 46 33
REMARK SMILES IDX 57 35 75 36 48 37 35 38 36 39 41 40 37 41 38 42 40 43 42 44
REMARK SMILES IDX 39 45 61 46 62 47 67 48 63 49 64 50 66 51 68 52 65 53 49 54
REMARK SMILES IDX 50 55 55 56 51 57 52 58 54 59 56 60 53 61 6 62 7 63 8 64
REMARK SMILES IDX 9 65 10 66 24 67 11 68 23 69 22 70 25 71 12 73 13 74 14 75
REMARK SMILES IDX 15 76 21 77 16 78 19 79 18 80 17 81 20 83
REMARK H PARENT 73 23 47 34 25 72 17 82 20 84
REMARK Flexibility Score: inf
ROOT
ATOM      1  C   UNL A   1      32.562  31.280  26.981  1.00  0.00     0.275 C 
ENDROOT
BRANCH   1   2
ATOM      2  C   UNL A   1      31.616  32.480  27.000  1.00  0.00     0.275 C 
BRANCH   2   3
ATOM      3  O   UNL A   1      32.257  33.752  27.209  1.00  0.00    -0.458 OA
BRANCH   3   4
ATOM      4  C   UNL A   1      32.942  34.227  28.274  1.00  0.00     0.338 C 
ATOM      5  O   UNL A   1      32.571  35.282  28.790  1.00  0.00    -0.246 OA
BRANCH   4   6
ATOM      6  C   UNL A   1      34.205  33.620  28.802  1.00  0.00     0.060 A 
ATOM      7  C   UNL A   1      35.497  33.849  28.328  1.00  0.00     0.016 A 
ATOM      8  C   UNL A   1      34.053  32.715  29.871  1.00  0.00     0.016 A 
ATOM      9  C   UNL A   1      36.607  33.262  28.944  1.00  0.00     0.010 A 
ATOM     10  C   UNL A   1      35.156  32.135  30.502  1.00  0.00     0.010 A 
ATOM     11  C   UNL A   1      36.444  32.408  30.037  1.00  0.00    -0.014 A 
BRANCH  11  12
ATOM     12  C   UNL A   1      37.618  31.712  30.606  1.00  0.00     0.031 A 
ATOM     13  C   UNL A   1      38.075  32.081  31.983  1.00  0.00     0.074 A 
ATOM     14  C   UNL A   1      38.231  30.733  29.918  1.00  0.00     0.049 A 
ATOM     15  N   UNL A   1      39.036  31.560  32.697  1.00  0.00    -0.248 NA
ATOM     16  C   UNL A   1      37.331  33.158  32.657  1.00  0.00     0.031 C 
ATOM     17  C   UNL A   1      37.815  30.237  28.609  1.00  0.00     0.029 A 
ATOM     18  N   UNL A   1      39.339  29.983  30.217  1.00  0.00    -0.354 N 
ATOM     19  C   UNL A   1      38.976  32.206  33.924  1.00  0.00     0.074 A 
ATOM     20  C   UNL A   1      37.941  33.211  33.830  1.00  0.00     0.031 C 
ATOM     21  C   UNL A   1      38.693  29.314  28.183  1.00  0.00     0.029 A 
ATOM     22  C   UNL A   1      39.723  29.141  29.201  1.00  0.00     0.049 A 
ATOM     23  H   UNL A   1      39.814  30.041  31.077  1.00  0.00     0.167 HD
ATOM     24  C   UNL A   1      39.696  31.952  35.040  1.00  0.00     0.037 A 
ATOM     25  C   UNL A   1      40.788  28.324  29.109  1.00  0.00     0.037 A 
ATOM     26  C   UNL A   1      40.751  30.979  35.107  1.00  0.00     0.049 A 
ATOM     27  C   UNL A   1      41.681  28.176  30.310  1.00  0.00     0.074 A 
ATOM     28  C   UNL A   1      41.559  30.650  36.179  1.00  0.00     0.029 A 
ATOM     29  N   UNL A   1      41.156  30.190  34.039  1.00  0.00    -0.354 N 
ATOM     30  N   UNL A   1      41.580  28.750  31.485  1.00  0.00    -0.248 NA
ATOM     31  C   UNL A   1      42.809  27.243  30.190  1.00  0.00     0.031 C 
ATOM     32  C   UNL A   1      42.484  29.693  35.746  1.00  0.00     0.029 A 
ATOM     33  C   UNL A   1      42.224  29.396  34.417  1.00  0.00     0.049 A 
ATOM     34  H   UNL A   1      40.745  30.195  33.145  1.00  0.00     0.167 HD
ATOM     35  C   UNL A   1      42.596  28.210  32.261  1.00  0.00     0.074 A 
ATOM     36  C   UNL A   1      43.306  27.268  31.419  1.00  0.00     0.031 C 
ATOM     37  C   UNL A   1      42.906  28.459  33.558  1.00  0.00     0.037 A 
BRANCH  24  38
ATOM     38  C   UNL A   1      39.354  32.757  36.257  1.00  0.00     0.057 A 
ATOM     39  C   UNL A   1      39.990  33.975  36.530  1.00  0.00     0.134 A 
ATOM     40  C   UNL A   1      38.409  32.297  37.181  1.00  0.00     0.134 A 
ATOM     41  F   UNL A   1      40.924  34.457  35.695  1.00  0.00    -0.206 F 
ATOM     42  C   UNL A   1      39.720  34.695  37.695  1.00  0.00     0.040 A 
ATOM     43  C   UNL A   1      38.115  33.018  38.340  1.00  0.00     0.040 A 
ATOM     44  F   UNL A   1      37.770  31.136  36.981  1.00  0.00    -0.206 F 
ATOM     45  C   UNL A   1      38.778  34.217  38.603  1.00  0.00     0.006 A 
ENDBRANCH  24  38
BRANCH  25  46
ATOM     46  C   UNL A   1      41.059  27.579  27.852  1.00  0.00     0.057 A 
ATOM     47  C   UNL A   1      41.806  28.140  26.812  1.00  0.00     0.134 A 
ATOM     48  C   UNL A   1      40.548  26.289  27.654  1.00  0.00     0.134 A 
ATOM     49  F   UNL A   1      42.313  29.375  26.937  1.00  0.00    -0.206 F 
ATOM     50  C   UNL A   1      42.016  27.459  25.611  1.00  0.00     0.040 A 
ATOM     51  C   UNL A   1      40.765  25.589  26.465  1.00  0.00     0.040 A 
ATOM     52  F   UNL A   1      39.835  25.687  28.618  1.00  0.00    -0.206 F 
ATOM     53  C   UNL A   1      41.495  26.178  25.436  1.00  0.00     0.006 A 
ENDBRANCH  25  46
BRANCH  37  54
ATOM     54  C   UNL A   1      44.033  27.669  34.149  1.00  0.00     0.057 A 
ATOM     55  C   UNL A   1      43.840  26.386  34.674  1.00  0.00     0.134 A 
ATOM     56  C   UNL A   1      45.335  28.187  34.156  1.00  0.00     0.134 A 
ATOM     57  F   UNL A   1      42.614  25.844  34.711  1.00  0.00    -0.206 F 
ATOM     58  C   UNL A   1      44.901  25.652  35.205  1.00  0.00     0.040 A 
ATOM     59  C   UNL A   1      46.407  27.452  34.660  1.00  0.00     0.040 A 
ATOM     60  F   UNL A   1      45.584  29.409  33.661  1.00  0.00    -0.206 F 
ATOM     61  C   UNL A   1      46.191  26.183  35.191  1.00  0.00     0.006 A 
ENDBRANCH  37  54
ENDBRANCH  11  12
ENDBRANCH   4   6
ENDBRANCH   3   4
ENDBRANCH   2   3
ENDBRANCH   1   2
BRANCH   1  62
ATOM     62  O   UNL A   1      31.909  30.055  26.629  1.00  0.00    -0.458 OA
BRANCH  62  63
ATOM     63  C   UNL A   1      32.670  29.178  25.922  1.00  0.00     0.342 C 
ATOM     64  O   UNL A   1      33.861  28.959  26.068  1.00  0.00    -0.246 OA
BRANCH  63  65
ATOM     65  C   UNL A   1      31.808  28.367  25.044  1.00  0.00     0.102 A 
ATOM     66  C   UNL A   1      32.021  26.979  25.036  1.00  0.00     0.027 A 
ATOM     67  C   UNL A   1      30.811  28.927  24.247  1.00  0.00     0.130 A 
ATOM     68  C   UNL A   1      31.184  26.132  24.297  1.00  0.00    -0.025 A 
ATOM     69  C   UNL A   1      30.007  28.100  23.465  1.00  0.00     0.048 A 
ATOM     70  C   UNL A   1      30.180  26.713  23.508  1.00  0.00     0.012 A 
BRANCH  67  71
ATOM     71  O   UNL A   1      30.621  30.280  24.221  1.00  0.00    -0.507 OA
ATOM     72  H   UNL A   1      29.925  30.645  23.711  1.00  0.00     0.293 HD
ENDBRANCH  67  71
BRANCH  68  73
ATOM     73  C   UNL A   1      31.317  24.666  24.286  1.00  0.00     0.009 C 
ATOM     74  C   UNL A   1      32.461  23.974  24.433  1.00  0.00     0.009 C 
BRANCH  74  75
ATOM     75  C   UNL A   1      32.531  22.504  24.366  1.00  0.00    -0.018 A 
ATOM     76  C   UNL A   1      32.884  21.736  25.487  1.00  0.00     0.054 A 
ATOM     77  C   UNL A   1      32.156  21.850  23.184  1.00  0.00     0.054 A 
ATOM     78  C   UNL A   1      32.882  20.345  25.409  1.00  0.00     0.119 A 
ATOM     79  C   UNL A   1      32.161  20.456  23.129  1.00  0.00     0.119 A 
ATOM     80  C   UNL A   1      32.526  19.698  24.236  1.00  0.00     0.092 A 
BRANCH  78  81
ATOM     81  O   UNL A   1      33.216  19.577  26.487  1.00  0.00    -0.508 OA
ATOM     82  H   UNL A   1      33.783  19.921  27.150  1.00  0.00     0.293 HD
ENDBRANCH  78  81
BRANCH  79  83
ATOM     83  O   UNL A   1      31.799  19.788  21.996  1.00  0.00    -0.508 OA
ATOM     84  H   UNL A   1      32.188  18.959  21.796  1.00  0.00     0.293 HD
ENDBRANCH  79  83
ENDBRANCH  74  75
ENDBRANCH  68  73
ENDBRANCH  63  65
ENDBRANCH  62  63
ENDBRANCH   1  62
TORSDOF 16
ENDMDL
