MODEL 1
REMARK VINA RESULT:     -10.1      0.000      0.000
REMARK SMILES CC[C@H](CCO)CNc1cc(C(=O)OCCOC(=O)c2ccc(-c3c4nc(c(-c5c(F)cccc5F)c5ccc([nH]5)c(-c5c(F)cccc5F)c5nc(c(-c6c(F)cccc6F)c6ccc3[nH]6)C=C5)C=C4)cc2)ccn1
REMARK SMILES IDX 12 1 13 2 11 3 9 4 10 5 76 6 75 7 74 8 8 9 7 11 3 12 2 13
REMARK SMILES IDX 1 14 4 15 5 16 6 17 14 19 15 20 16 21 17 22 18 23 19 24
REMARK SMILES IDX 20 25 21 26 73 27 22 28 72 29 23 30 24 31 25 32 66 33 26 34
REMARK SMILES IDX 71 35 65 36 67 37 27 38 70 39 64 40 63 41 28 43 54 44 37 45
REMARK SMILES IDX 53 46 38 47 41 48 52 49 68 50 39 51 40 52 51 54 69 55 42 56
REMARK SMILES IDX 29 57 30 58 35 59 31 60 32 61 34 62 36 63 33 64 55 65 56 66
REMARK SMILES IDX 61 67 57 68 58 69 60 70 62 71 59 72 43 73 44 74 49 75 45 76
REMARK SMILES IDX 46 77 48 78 50 79 47 80
REMARK H PARENT 8 10 6 18 67 42 41 53
REMARK Flexibility Score: inf
ROOT
ATOM      1  C   UNL A   1      40.371  21.336  26.806  1.00  0.00     0.338 C 
ATOM      2  O   UNL A   1      40.576  21.169  27.999  1.00  0.00    -0.246 OA
ENDROOT
BRANCH   1   3
ATOM      3  C   UNL A   1      39.205  22.089  26.296  1.00  0.00     0.065 A 
ATOM      4  C   UNL A   1      37.197  22.217  25.022  1.00  0.00     0.126 A 
ATOM      5  C   UNL A   1      38.325  21.505  25.394  1.00  0.00     0.062 A 
ATOM      6  N   UNL A   1      36.986  23.491  25.397  1.00  0.00    -0.240 NA
ATOM      7  C   UNL A   1      37.854  24.043  26.264  1.00  0.00     0.114 A 
ATOM      8  C   UNL A   1      38.939  23.368  26.780  1.00  0.00     0.036 A 
BRANCH   4   9
ATOM      9  N   UNL A   1      36.167  21.642  24.307  1.00  0.00    -0.370 N 
ATOM     10  H   UNL A   1      36.348  21.125  23.488  1.00  0.00     0.162 HD
BRANCH   9  11
ATOM     11  C   UNL A   1      34.807  21.818  24.793  1.00  0.00     0.118 C 
BRANCH  11  12
ATOM     12  C   UNL A   1      33.818  22.131  23.637  1.00  0.00     0.010 C 
BRANCH  12  13
ATOM     13  C   UNL A   1      34.156  23.536  23.077  1.00  0.00     0.002 C 
ATOM     14  C   UNL A   1      32.970  24.491  23.021  1.00  0.00     0.004 C 
ENDBRANCH  12  13
BRANCH  12  15
ATOM     15  C   UNL A   1      32.368  22.012  24.178  1.00  0.00     0.033 C 
BRANCH  15  16
ATOM     16  C   UNL A   1      32.194  21.521  25.608  1.00  0.00     0.156 C 
BRANCH  16  17
ATOM     17  O   UNL A   1      30.911  21.844  26.117  1.00  0.00    -0.396 OA
ATOM     18  H   UNL A   1      30.239  21.653  25.444  1.00  0.00     0.210 HD
ENDBRANCH  16  17
ENDBRANCH  15  16
ENDBRANCH  12  15
ENDBRANCH  11  12
ENDBRANCH   9  11
ENDBRANCH   4   9
ENDBRANCH   1   3
BRANCH   1  19
ATOM     19  O   UNL A   1      41.170  20.948  25.783  1.00  0.00    -0.458 OA
BRANCH  19  20
ATOM     20  C   UNL A   1      42.520  20.577  26.127  1.00  0.00     0.275 C 
BRANCH  20  21
ATOM     21  C   UNL A   1      43.536  21.522  25.485  1.00  0.00     0.275 C 
BRANCH  21  22
ATOM     22  O   UNL A   1      42.874  22.703  24.994  1.00  0.00    -0.458 OA
BRANCH  22  23
ATOM     23  C   UNL A   1      43.582  23.849  25.098  1.00  0.00     0.338 C 
ATOM     24  O   UNL A   1      44.570  24.181  24.467  1.00  0.00    -0.246 OA
BRANCH  23  25
ATOM     25  C   UNL A   1      42.923  24.748  26.057  1.00  0.00     0.060 A 
ATOM     26  C   UNL A   1      43.173  26.110  25.949  1.00  0.00     0.016 A 
ATOM     27  C   UNL A   1      42.209  24.255  27.145  1.00  0.00     0.016 A 
ATOM     28  C   UNL A   1      42.811  26.981  26.968  1.00  0.00     0.010 A 
ATOM     29  C   UNL A   1      41.747  25.148  28.121  1.00  0.00     0.010 A 
ATOM     30  C   UNL A   1      42.076  26.518  28.065  1.00  0.00    -0.014 A 
BRANCH  30  31
ATOM     31  C   UNL A   1      41.697  27.454  29.160  1.00  0.00     0.031 A 
ATOM     32  C   UNL A   1      42.484  27.471  30.445  1.00  0.00     0.074 A 
ATOM     33  C   UNL A   1      40.668  28.313  29.005  1.00  0.00     0.049 A 
ATOM     34  N   UNL A   1      42.207  28.061  31.581  1.00  0.00    -0.248 NA
ATOM     35  C   UNL A   1      43.750  26.718  30.457  1.00  0.00     0.031 C 
ATOM     36  C   UNL A   1      39.854  28.459  27.796  1.00  0.00     0.029 A 
ATOM     37  N   UNL A   1      40.130  29.235  29.872  1.00  0.00    -0.354 N 
ATOM     38  C   UNL A   1      43.230  27.709  32.453  1.00  0.00     0.074 A 
ATOM     39  C   UNL A   1      44.132  26.847  31.720  1.00  0.00     0.031 C 
ATOM     40  C   UNL A   1      38.949  29.431  27.984  1.00  0.00     0.029 A 
ATOM     41  C   UNL A   1      39.049  29.910  29.356  1.00  0.00     0.049 A 
ATOM     42  H   UNL A   1      40.486  29.396  30.776  1.00  0.00     0.167 HD
ATOM     43  C   UNL A   1      43.401  28.071  33.747  1.00  0.00     0.037 A 
ATOM     44  C   UNL A   1      38.197  30.779  29.935  1.00  0.00     0.037 A 
ATOM     45  C   UNL A   1      42.529  28.970  34.458  1.00  0.00     0.049 A 
ATOM     46  C   UNL A   1      38.374  31.117  31.388  1.00  0.00     0.074 A 
ATOM     47  C   UNL A   1      42.611  29.391  35.776  1.00  0.00     0.029 A 
ATOM     48  N   UNL A   1      41.427  29.605  33.905  1.00  0.00    -0.354 N 
ATOM     49  N   UNL A   1      39.304  30.720  32.223  1.00  0.00    -0.248 NA
ATOM     50  C   UNL A   1      37.371  32.009  31.986  1.00  0.00     0.031 C 
ATOM     51  C   UNL A   1      41.541  30.256  36.027  1.00  0.00     0.029 A 
ATOM     52  C   UNL A   1      40.819  30.407  34.855  1.00  0.00     0.049 A 
ATOM     53  H   UNL A   1      41.123  29.499  32.974  1.00  0.00     0.167 HD
ATOM     54  C   UNL A   1      39.010  31.329  33.435  1.00  0.00     0.074 A 
ATOM     55  C   UNL A   1      37.827  32.138  33.223  1.00  0.00     0.031 C 
ATOM     56  C   UNL A   1      39.656  31.223  34.621  1.00  0.00     0.037 A 
BRANCH  43  57
ATOM     57  C   UNL A   1      44.563  27.482  34.493  1.00  0.00     0.057 A 
ATOM     58  C   UNL A   1      44.479  26.244  35.142  1.00  0.00     0.134 A 
ATOM     59  C   UNL A   1      45.800  28.138  34.511  1.00  0.00     0.134 A 
ATOM     60  F   UNL A   1      43.320  25.570  35.173  1.00  0.00    -0.206 F 
ATOM     61  C   UNL A   1      45.580  25.687  35.795  1.00  0.00     0.040 A 
ATOM     62  C   UNL A   1      46.915  27.580  35.139  1.00  0.00     0.040 A 
ATOM     63  F   UNL A   1      45.951  29.325  33.903  1.00  0.00    -0.206 F 
ATOM     64  C   UNL A   1      46.805  26.352  35.787  1.00  0.00     0.006 A 
ENDBRANCH  43  57
BRANCH  44  65
ATOM     65  C   UNL A   1      37.062  31.346  29.161  1.00  0.00     0.057 A 
ATOM     66  C   UNL A   1      37.090  32.665  28.694  1.00  0.00     0.134 A 
ATOM     67  C   UNL A   1      35.908  30.594  28.900  1.00  0.00     0.134 A 
ATOM     68  F   UNL A   1      38.155  33.443  28.935  1.00  0.00    -0.206 F 
ATOM     69  C   UNL A   1      36.006  33.223  28.012  1.00  0.00     0.040 A 
ATOM     70  C   UNL A   1      34.831  31.129  28.191  1.00  0.00     0.040 A 
ATOM     71  F   UNL A   1      35.816  29.325  29.320  1.00  0.00    -0.206 F 
ATOM     72  C   UNL A   1      34.875  32.451  27.755  1.00  0.00     0.006 A 
ENDBRANCH  44  65
BRANCH  56  73
ATOM     73  C   UNL A   1      39.129  32.040  35.762  1.00  0.00     0.057 A 
ATOM     74  C   UNL A   1      38.241  31.508  36.705  1.00  0.00     0.134 A 
ATOM     75  C   UNL A   1      39.538  33.370  35.931  1.00  0.00     0.134 A 
ATOM     76  F   UNL A   1      37.800  30.247  36.589  1.00  0.00    -0.206 F 
ATOM     77  C   UNL A   1      37.760  32.278  37.765  1.00  0.00     0.040 A 
ATOM     78  C   UNL A   1      39.083  34.140  37.001  1.00  0.00     0.040 A 
ATOM     79  F   UNL A   1      40.392  33.936  35.065  1.00  0.00    -0.206 F 
ATOM     80  C   UNL A   1      38.187  33.597  37.918  1.00  0.00     0.006 A 
ENDBRANCH  56  73
ENDBRANCH  30  31
ENDBRANCH  23  25
ENDBRANCH  22  23
ENDBRANCH  21  22
ENDBRANCH  20  21
ENDBRANCH  19  20
ENDBRANCH   1  19
TORSDOF 18
ENDMDL
MODEL 2
REMARK VINA RESULT:     -10.0      4.631      9.472
REMARK SMILES CC[C@H](CCO)CNc1cc(C(=O)OCCOC(=O)c2ccc(-c3c4nc(c(-c5c(F)cccc5F)c5ccc([nH]5)c(-c5c(F)cccc5F)c5nc(c(-c6c(F)cccc6F)c6ccc3[nH]6)C=C5)C=C4)cc2)ccn1
REMARK SMILES IDX 12 1 13 2 11 3 9 4 10 5 76 6 75 7 74 8 8 9 7 11 3 12 2 13
REMARK SMILES IDX 1 14 4 15 5 16 6 17 14 19 15 20 16 21 17 22 18 23 19 24
REMARK SMILES IDX 20 25 21 26 73 27 22 28 72 29 23 30 24 31 25 32 66 33 26 34
REMARK SMILES IDX 71 35 65 36 67 37 27 38 70 39 64 40 63 41 28 43 54 44 37 45
REMARK SMILES IDX 53 46 38 47 41 48 52 49 68 50 39 51 40 52 51 54 69 55 42 56
REMARK SMILES IDX 29 57 30 58 35 59 31 60 32 61 34 62 36 63 33 64 55 65 56 66
REMARK SMILES IDX 61 67 57 68 58 69 60 70 62 71 59 72 43 73 44 74 49 75 45 76
REMARK SMILES IDX 46 77 48 78 50 79 47 80
REMARK H PARENT 8 10 6 18 67 42 41 53
REMARK Flexibility Score: inf
ROOT
ATOM      1  C   UNL A   1      35.122  33.409  28.526  1.00  0.00     0.338 C 
ATOM      2  O   UNL A   1      36.212  33.832  28.880  1.00  0.00    -0.246 OA
ENDROOT
BRANCH   1   3
ATOM      3  C   UNL A   1      34.915  32.013  28.084  1.00  0.00     0.065 A 
ATOM      4  C   UNL A   1      33.541  30.294  27.175  1.00  0.00     0.126 A 
ATOM      5  C   UNL A   1      33.661  31.581  27.671  1.00  0.00     0.062 A 
ATOM      6  N   UNL A   1      34.554  29.410  27.196  1.00  0.00    -0.240 NA
ATOM      7  C   UNL A   1      35.759  29.844  27.608  1.00  0.00     0.114 A 
ATOM      8  C   UNL A   1      35.999  31.142  28.005  1.00  0.00     0.036 A 
BRANCH   4   9
ATOM      9  N   UNL A   1      32.394  29.851  26.548  1.00  0.00    -0.370 N 
ATOM     10  H   UNL A   1      31.576  29.666  27.064  1.00  0.00     0.162 HD
BRANCH   9  11
ATOM     11  C   UNL A   1      32.424  29.666  25.105  1.00  0.00     0.118 C 
BRANCH  11  12
ATOM     12  C   UNL A   1      31.239  28.793  24.611  1.00  0.00     0.010 C 
BRANCH  12  13
ATOM     13  C   UNL A   1      31.401  27.372  25.206  1.00  0.00     0.002 C 
ATOM     14  C   UNL A   1      32.723  26.696  24.862  1.00  0.00     0.004 C 
ENDBRANCH  12  13
BRANCH  12  15
ATOM     15  C   UNL A   1      31.217  28.817  23.060  1.00  0.00     0.033 C 
BRANCH  15  16
ATOM     16  C   UNL A   1      29.929  29.269  22.386  1.00  0.00     0.156 C 
BRANCH  16  17
ATOM     17  O   UNL A   1      30.191  30.078  21.251  1.00  0.00    -0.396 OA
ATOM     18  H   UNL A   1      30.932  30.673  21.442  1.00  0.00     0.210 HD
ENDBRANCH  16  17
ENDBRANCH  15  16
ENDBRANCH  12  15
ENDBRANCH  11  12
ENDBRANCH   9  11
ENDBRANCH   4   9
ENDBRANCH   1   3
BRANCH   1  19
ATOM     19  O   UNL A   1      33.946  34.081  28.541  1.00  0.00    -0.458 OA
BRANCH  19  20
ATOM     20  C   UNL A   1      34.027  35.521  28.477  1.00  0.00     0.275 C 
BRANCH  20  21
ATOM     21  C   UNL A   1      32.933  36.175  29.320  1.00  0.00     0.275 C 
BRANCH  21  22
ATOM     22  O   UNL A   1      32.502  35.277  30.359  1.00  0.00    -0.458 OA
BRANCH  22  23
ATOM     23  C   UNL A   1      32.622  35.748  31.620  1.00  0.00     0.338 C 
ATOM     24  O   UNL A   1      31.921  36.569  32.184  1.00  0.00    -0.246 OA
BRANCH  23  25
ATOM     25  C   UNL A   1      33.712  35.039  32.308  1.00  0.00     0.060 A 
ATOM     26  C   UNL A   1      34.989  35.580  32.228  1.00  0.00     0.016 A 
ATOM     27  C   UNL A   1      33.519  33.784  32.875  1.00  0.00     0.016 A 
ATOM     28  C   UNL A   1      36.099  34.837  32.613  1.00  0.00     0.010 A 
ATOM     29  C   UNL A   1      34.628  33.079  33.364  1.00  0.00     0.010 A 
ATOM     30  C   UNL A   1      35.935  33.580  33.205  1.00  0.00    -0.014 A 
BRANCH  30  31
ATOM     31  C   UNL A   1      37.128  32.783  33.609  1.00  0.00     0.031 A 
ATOM     32  C   UNL A   1      37.790  33.037  34.939  1.00  0.00     0.074 A 
ATOM     33  C   UNL A   1      37.609  31.810  32.807  1.00  0.00     0.049 A 
ATOM     34  N   UNL A   1      38.937  32.597  35.392  1.00  0.00    -0.248 NA
ATOM     35  C   UNL A   1      37.069  33.908  35.883  1.00  0.00     0.031 C 
ATOM     36  C   UNL A   1      37.036  31.405  31.521  1.00  0.00     0.029 A 
ATOM     37  N   UNL A   1      38.692  30.978  32.958  1.00  0.00    -0.354 N 
ATOM     38  C   UNL A   1      39.099  33.177  36.645  1.00  0.00     0.074 A 
ATOM     39  C   UNL A   1      37.938  34.008  36.879  1.00  0.00     0.031 C 
ATOM     40  C   UNL A   1      37.748  30.384  31.020  1.00  0.00     0.029 A 
ATOM     41  C   UNL A   1      38.884  30.127  31.895  1.00  0.00     0.049 A 
ATOM     42  H   UNL A   1      39.275  30.989  33.751  1.00  0.00     0.167 HD
ATOM     43  C   UNL A   1      40.124  33.030  37.519  1.00  0.00     0.037 A 
ATOM     44  C   UNL A   1      39.889  29.272  31.623  1.00  0.00     0.037 A 
ATOM     45  C   UNL A   1      41.254  32.163  37.305  1.00  0.00     0.049 A 
ATOM     46  C   UNL A   1      41.043  29.173  32.581  1.00  0.00     0.074 A 
ATOM     47  C   UNL A   1      42.349  31.953  38.126  1.00  0.00     0.029 A 
ATOM     48  N   UNL A   1      41.422  31.345  36.198  1.00  0.00    -0.354 N 
ATOM     49  N   UNL A   1      41.221  29.783  33.728  1.00  0.00    -0.248 NA
ATOM     50  C   UNL A   1      42.147  28.282  32.196  1.00  0.00     0.031 C 
ATOM     51  C   UNL A   1      43.195  31.030  37.501  1.00  0.00     0.029 A 
ATOM     52  C   UNL A   1      42.605  30.635  36.313  1.00  0.00     0.049 A 
ATOM     53  H   UNL A   1      40.793  31.279  35.443  1.00  0.00     0.167 HD
ATOM     54  C   UNL A   1      42.442  29.333  34.210  1.00  0.00     0.074 A 
ATOM     55  C   UNL A   1      42.955  28.386  33.241  1.00  0.00     0.031 C 
ATOM     56  C   UNL A   1      43.088  29.679  35.350  1.00  0.00     0.037 A 
BRANCH  43  57
ATOM     57  C   UNL A   1      40.088  33.839  38.783  1.00  0.00     0.057 A 
ATOM     58  C   UNL A   1      40.750  35.067  38.899  1.00  0.00     0.134 A 
ATOM     59  C   UNL A   1      39.332  33.407  39.881  1.00  0.00     0.134 A 
ATOM     60  F   UNL A   1      41.501  35.532  37.890  1.00  0.00    -0.206 F 
ATOM     61  C   UNL A   1      40.673  35.830  40.066  1.00  0.00     0.040 A 
ATOM     62  C   UNL A   1      39.227  34.172  41.043  1.00  0.00     0.040 A 
ATOM     63  F   UNL A   1      38.668  32.242  39.834  1.00  0.00    -0.206 F 
ATOM     64  C   UNL A   1      39.902  35.386  41.140  1.00  0.00     0.006 A 
ENDBRANCH  43  57
BRANCH  44  65
ATOM     65  C   UNL A   1      39.886  28.484  30.363  1.00  0.00     0.057 A 
ATOM     66  C   UNL A   1      39.202  27.266  30.271  1.00  0.00     0.134 A 
ATOM     67  C   UNL A   1      40.593  28.912  29.231  1.00  0.00     0.134 A 
ATOM     68  F   UNL A   1      38.528  26.790  31.328  1.00  0.00    -0.206 F 
ATOM     69  C   UNL A   1      39.237  26.493  29.108  1.00  0.00     0.040 A 
ATOM     70  C   UNL A   1      40.609  28.166  28.052  1.00  0.00     0.040 A 
ATOM     71  F   UNL A   1      41.270  30.069  29.252  1.00  0.00    -0.206 F 
ATOM     72  C   UNL A   1      39.938  26.947  27.993  1.00  0.00     0.006 A 
ENDBRANCH  44  65
BRANCH  56  73
ATOM     73  C   UNL A   1      44.389  28.991  35.634  1.00  0.00     0.057 A 
ATOM     74  C   UNL A   1      45.614  29.516  35.202  1.00  0.00     0.134 A 
ATOM     75  C   UNL A   1      44.416  27.801  36.372  1.00  0.00     0.134 A 
ATOM     76  F   UNL A   1      45.653  30.644  34.478  1.00  0.00    -0.206 F 
ATOM     77  C   UNL A   1      46.819  28.868  35.476  1.00  0.00     0.040 A 
ATOM     78  C   UNL A   1      45.617  27.158  36.674  1.00  0.00     0.040 A 
ATOM     79  F   UNL A   1      43.278  27.250  36.820  1.00  0.00    -0.206 F 
ATOM     80  C   UNL A   1      46.823  27.688  36.219  1.00  0.00     0.006 A 
ENDBRANCH  56  73
ENDBRANCH  30  31
ENDBRANCH  23  25
ENDBRANCH  22  23
ENDBRANCH  21  22
ENDBRANCH  20  21
ENDBRANCH  19  20
ENDBRANCH   1  19
TORSDOF 18
ENDMDL
MODEL 3
REMARK VINA RESULT:      -9.9      1.900      6.869
REMARK SMILES CC[C@H](CCO)CNc1cc(C(=O)OCCOC(=O)c2ccc(-c3c4nc(c(-c5c(F)cccc5F)c5ccc([nH]5)c(-c5c(F)cccc5F)c5nc(c(-c6c(F)cccc6F)c6ccc3[nH]6)C=C5)C=C4)cc2)ccn1
REMARK SMILES IDX 12 1 13 2 11 3 9 4 10 5 76 6 75 7 74 8 8 9 7 11 3 12 2 13
REMARK SMILES IDX 1 14 4 15 5 16 6 17 14 19 15 20 16 21 17 22 18 23 19 24
REMARK SMILES IDX 20 25 21 26 73 27 22 28 72 29 23 30 24 31 25 32 66 33 26 34
REMARK SMILES IDX 71 35 65 36 67 37 27 38 70 39 64 40 63 41 28 43 54 44 37 45
REMARK SMILES IDX 53 46 38 47 41 48 52 49 68 50 39 51 40 52 51 54 69 55 42 56
REMARK SMILES IDX 29 57 30 58 35 59 31 60 32 61 34 62 36 63 33 64 55 65 56 66
REMARK SMILES IDX 61 67 57 68 58 69 60 70 62 71 59 72 43 73 44 74 49 75 45 76
REMARK SMILES IDX 46 77 48 78 50 79 47 80
REMARK H PARENT 8 10 6 18 67 42 41 53
REMARK Flexibility Score: inf
ROOT
ATOM      1  C   UNL A   1      40.130  21.835  26.592  1.00  0.00     0.338 C 
ATOM      2  O   UNL A   1      40.406  21.795  27.781  1.00  0.00    -0.246 OA
ENDROOT
BRANCH   1   3
ATOM      3  C   UNL A   1      38.746  22.014  26.101  1.00  0.00     0.065 A 
ATOM      4  C   UNL A   1      36.677  21.129  25.322  1.00  0.00     0.126 A 
ATOM      5  C   UNL A   1      37.999  20.922  25.681  1.00  0.00     0.062 A 
ATOM      6  N   UNL A   1      36.130  22.355  25.243  1.00  0.00    -0.240 NA
ATOM      7  C   UNL A   1      36.873  23.402  25.646  1.00  0.00     0.114 A 
ATOM      8  C   UNL A   1      38.156  23.276  26.131  1.00  0.00     0.036 A 
BRANCH   4   9
ATOM      9  N   UNL A   1      35.802  20.085  25.099  1.00  0.00    -0.370 N 
ATOM     10  H   UNL A   1      36.116  19.152  25.113  1.00  0.00     0.162 HD
BRANCH   9  11
ATOM     11  C   UNL A   1      34.404  20.399  24.845  1.00  0.00     0.118 C 
BRANCH  11  12
ATOM     12  C   UNL A   1      33.562  19.118  24.596  1.00  0.00     0.010 C 
BRANCH  12  13
ATOM     13  C   UNL A   1      34.532  17.960  24.250  1.00  0.00     0.002 C 
ATOM     14  C   UNL A   1      33.949  16.917  23.305  1.00  0.00     0.004 C 
ENDBRANCH  12  13
BRANCH  12  15
ATOM     15  C   UNL A   1      32.526  19.414  23.480  1.00  0.00     0.033 C 
BRANCH  15  16
ATOM     16  C   UNL A   1      32.346  20.866  23.061  1.00  0.00     0.156 C 
BRANCH  16  17
ATOM     17  O   UNL A   1      31.598  20.973  21.861  1.00  0.00    -0.396 OA
ATOM     18  H   UNL A   1      30.651  20.968  22.068  1.00  0.00     0.210 HD
ENDBRANCH  16  17
ENDBRANCH  15  16
ENDBRANCH  12  15
ENDBRANCH  11  12
ENDBRANCH   9  11
ENDBRANCH   4   9
ENDBRANCH   1   3
BRANCH   1  19
ATOM     19  O   UNL A   1      41.000  21.801  25.554  1.00  0.00    -0.458 OA
BRANCH  19  20
ATOM     20  C   UNL A   1      42.394  21.983  25.879  1.00  0.00     0.275 C 
BRANCH  20  21
ATOM     21  C   UNL A   1      42.891  23.357  25.429  1.00  0.00     0.275 C 
BRANCH  21  22
ATOM     22  O   UNL A   1      42.516  24.361  26.391  1.00  0.00    -0.458 OA
BRANCH  22  23
ATOM     23  C   UNL A   1      42.203  25.570  25.874  1.00  0.00     0.338 C 
ATOM     24  O   UNL A   1      42.274  25.930  24.713  1.00  0.00    -0.246 OA
BRANCH  23  25
ATOM     25  C   UNL A   1      41.643  26.425  26.931  1.00  0.00     0.060 A 
ATOM     26  C   UNL A   1      42.069  27.746  26.991  1.00  0.00     0.016 A 
ATOM     27  C   UNL A   1      40.846  25.903  27.944  1.00  0.00     0.016 A 
ATOM     28  C   UNL A   1      41.799  28.529  28.106  1.00  0.00     0.010 A 
ATOM     29  C   UNL A   1      40.481  26.725  29.019  1.00  0.00     0.010 A 
ATOM     30  C   UNL A   1      40.985  28.036  29.133  1.00  0.00    -0.014 A 
BRANCH  30  31
ATOM     31  C   UNL A   1      40.704  28.876  30.332  1.00  0.00     0.031 A 
ATOM     32  C   UNL A   1      39.575  29.874  30.306  1.00  0.00     0.074 A 
ATOM     33  C   UNL A   1      41.433  28.733  31.458  1.00  0.00     0.049 A 
ATOM     34  N   UNL A   1      39.289  30.826  31.159  1.00  0.00    -0.248 NA
ATOM     35  C   UNL A   1      38.648  29.798  29.164  1.00  0.00     0.031 C 
ATOM     36  C   UNL A   1      42.514  27.763  31.655  1.00  0.00     0.029 A 
ATOM     37  N   UNL A   1      41.372  29.401  32.657  1.00  0.00    -0.354 N 
ATOM     38  C   UNL A   1      38.188  31.491  30.635  1.00  0.00     0.074 A 
ATOM     39  C   UNL A   1      37.860  30.842  29.384  1.00  0.00     0.031 C 
ATOM     40  C   UNL A   1      42.988  27.876  32.905  1.00  0.00     0.029 A 
ATOM     41  C   UNL A   1      42.318  28.988  33.566  1.00  0.00     0.049 A 
ATOM     42  H   UNL A   1      40.714  30.109  32.847  1.00  0.00     0.167 HD
ATOM     43  C   UNL A   1      37.513  32.547  31.149  1.00  0.00     0.037 A 
ATOM     44  C   UNL A   1      42.649  29.480  34.776  1.00  0.00     0.037 A 
ATOM     45  C   UNL A   1      37.810  33.158  32.418  1.00  0.00     0.049 A 
ATOM     46  C   UNL A   1      41.924  30.690  35.296  1.00  0.00     0.074 A 
ATOM     47  C   UNL A   1      37.191  34.240  33.022  1.00  0.00     0.029 A 
ATOM     48  N   UNL A   1      38.798  32.727  33.290  1.00  0.00    -0.354 N 
ATOM     49  N   UNL A   1      40.932  31.356  34.755  1.00  0.00    -0.248 NA
ATOM     50  C   UNL A   1      42.378  31.229  36.585  1.00  0.00     0.031 C 
ATOM     51  C   UNL A   1      37.825  34.482  34.245  1.00  0.00     0.029 A 
ATOM     52  C   UNL A   1      38.809  33.525  34.422  1.00  0.00     0.049 A 
ATOM     53  H   UNL A   1      39.403  31.967  33.127  1.00  0.00     0.167 HD
ATOM     54  C   UNL A   1      40.631  32.376  35.647  1.00  0.00     0.074 A 
ATOM     55  C   UNL A   1      41.532  32.231  36.772  1.00  0.00     0.031 C 
ATOM     56  C   UNL A   1      39.698  33.352  35.542  1.00  0.00     0.037 A 
BRANCH  43  57
ATOM     57  C   UNL A   1      36.396  33.129  30.332  1.00  0.00     0.057 A 
ATOM     58  C   UNL A   1      35.050  32.919  30.656  1.00  0.00     0.134 A 
ATOM     59  C   UNL A   1      36.675  33.959  29.238  1.00  0.00     0.134 A 
ATOM     60  F   UNL A   1      34.714  32.125  31.683  1.00  0.00    -0.206 F 
ATOM     61  C   UNL A   1      34.021  33.503  29.913  1.00  0.00     0.040 A 
ATOM     62  C   UNL A   1      35.657  34.569  28.503  1.00  0.00     0.040 A 
ATOM     63  F   UNL A   1      37.943  34.207  28.878  1.00  0.00    -0.206 F 
ATOM     64  C   UNL A   1      34.325  34.337  28.838  1.00  0.00     0.006 A 
ENDBRANCH  43  57
BRANCH  44  65
ATOM     65  C   UNL A   1      43.757  28.872  35.556  1.00  0.00     0.057 A 
ATOM     66  C   UNL A   1      43.512  27.876  36.509  1.00  0.00     0.134 A 
ATOM     67  C   UNL A   1      45.084  29.295  35.394  1.00  0.00     0.134 A 
ATOM     68  F   UNL A   1      42.261  27.448  36.730  1.00  0.00    -0.206 F 
ATOM     69  C   UNL A   1      44.541  27.337  37.285  1.00  0.00     0.040 A 
ATOM     70  C   UNL A   1      46.126  28.741  36.139  1.00  0.00     0.040 A 
ATOM     71  F   UNL A   1      45.387  30.246  34.499  1.00  0.00    -0.206 F 
ATOM     72  C   UNL A   1      45.853  27.766  37.096  1.00  0.00     0.006 A 
ENDBRANCH  44  65
BRANCH  56  73
ATOM     73  C   UNL A   1      39.570  34.303  36.694  1.00  0.00     0.057 A 
ATOM     74  C   UNL A   1      40.187  35.560  36.688  1.00  0.00     0.134 A 
ATOM     75  C   UNL A   1      38.796  33.963  37.811  1.00  0.00     0.134 A 
ATOM     76  F   UNL A   1      40.953  35.937  35.654  1.00  0.00    -0.206 F 
ATOM     77  C   UNL A   1      40.057  36.438  37.765  1.00  0.00     0.040 A 
ATOM     78  C   UNL A   1      38.639  34.843  38.882  1.00  0.00     0.040 A 
ATOM     79  F   UNL A   1      38.174  32.777  37.875  1.00  0.00    -0.206 F 
ATOM     80  C   UNL A   1      39.276  36.082  38.863  1.00  0.00     0.006 A 
ENDBRANCH  56  73
ENDBRANCH  30  31
ENDBRANCH  23  25
ENDBRANCH  22  23
ENDBRANCH  21  22
ENDBRANCH  20  21
ENDBRANCH  19  20
ENDBRANCH   1  19
TORSDOF 18
ENDMDL
