MODEL 1
REMARK VINA RESULT:     -12.3      0.000      0.000
REMARK SMILES COC(=O)c1c(NC(=O)[C@@H]2C[C@@H]2C(=O)OCCOC(=O)c2ccc(-c3c4nc(c(-c5c(F)cccc5F)c5ccc([nH]5)c(-c5c(F)cccc5F)c5nc(c(-c6c(F)cccc6F)c6ccc3[nH]6)C=C5)C=C4)cc2)sc2c1CC[N@@H+](Cc1ccccc1)C2
REMARK SMILES IDX 16 1 15 2 13 3 14 4 12 5 10 6 11 7 8 8 7 9 9 11 6 12 5 13
REMARK SMILES IDX 77 14 75 15 76 16 78 17 88 18 79 19 80 20 3 22 4 23 2 24
REMARK SMILES IDX 1 25 81 26 82 27 83 28 87 29 84 30 86 31 85 32 17 33 18 34
REMARK SMILES IDX 19 35 20 36 21 37 22 38 74 39 23 40 73 41 24 42 25 43 26 44
REMARK SMILES IDX 67 45 27 46 72 47 66 48 68 49 28 50 71 51 65 52 64 53 29 55
REMARK SMILES IDX 55 56 38 57 54 58 39 59 42 60 53 61 69 62 40 63 41 64 52 66
REMARK SMILES IDX 70 67 43 68 30 69 31 70 36 71 32 72 33 73 35 74 37 75 34 76
REMARK SMILES IDX 56 77 57 78 62 79 58 80 59 81 61 82 63 83 60 84 44 85 45 86
REMARK SMILES IDX 50 87 46 88 47 89 49 90 51 91 48 92
REMARK H PARENT 7 10 80 21 68 54 42 65
REMARK Flexibility Score: inf
ROOT
ATOM      1  C   UNL A   1      40.036  21.480  26.694  1.00  0.00     0.274 C 
ENDROOT
BRANCH   1   2
ATOM      2  O   UNL A   1      39.318  21.891  25.512  1.00  0.00    -0.462 OA
BRANCH   2   3
ATOM      3  C   UNL A   1      38.060  21.389  25.381  1.00  0.00     0.309 C 
ATOM      4  O   UNL A   1      37.786  20.298  24.883  1.00  0.00    -0.252 OA
BRANCH   3   5
ATOM      5  C   UNL A   1      37.004  22.363  25.763  1.00  0.00     0.112 C 
ATOM      6  C   UNL A   1      36.033  23.148  24.900  1.00  0.00     0.094 C 
ATOM      7  C   UNL A   1      37.303  23.798  25.379  1.00  0.00     0.030 C 
BRANCH   6   8
ATOM      8  C   UNL A   1      35.779  22.976  23.470  1.00  0.00     0.229 C 
ATOM      9  N   UNL A   1      34.521  22.949  22.940  1.00  0.00    -0.317 N 
ATOM     10  H   UNL A   1      34.473  22.474  22.079  1.00  0.00     0.170 HD
ATOM     11  O   UNL A   1      36.748  22.951  22.710  1.00  0.00    -0.274 OA
BRANCH   9  12
ATOM     12  C   UNL A   1      33.305  23.443  23.351  1.00  0.00     0.110 A 
ATOM     13  C   UNL A   1      32.214  23.086  24.125  1.00  0.00     0.098 A 
ATOM     14  C   UNL A   1      31.426  24.265  24.445  1.00  0.00    -0.006 A 
ATOM     15  S   UNL A   1      33.181  25.065  22.778  1.00  0.00    -0.116 S 
ATOM     16  C   UNL A   1      31.941  25.409  23.872  1.00  0.00     0.065 A 
ATOM     17  C   UNL A   1      30.310  24.359  25.447  1.00  0.00     0.099 C 
ATOM     18  C   UNL A   1      31.536  26.809  24.223  1.00  0.00     0.310 C 
ATOM     19  C   UNL A   1      29.888  25.828  25.727  1.00  0.00     0.267 C 
ATOM     20  N   UNL A   1      30.917  26.872  25.561  1.00  0.00    -0.326 N 
ATOM     21  H   UNL A   1      30.415  27.760  25.604  1.00  0.00     0.348 HD
BRANCH  13  22
ATOM     22  C   UNL A   1      31.920  21.777  24.677  1.00  0.00     0.341 C 
ATOM     23  O   UNL A   1      31.250  21.612  25.687  1.00  0.00    -0.246 OA
BRANCH  22  24
ATOM     24  O   UNL A   1      32.509  20.771  23.969  1.00  0.00    -0.465 OA
ATOM     25  C   UNL A   1      33.147  19.740  24.736  1.00  0.00     0.282 C 
ENDBRANCH  22  24
ENDBRANCH  13  22
BRANCH  20  26
ATOM     26  C   UNL A   1      31.854  27.041  26.685  1.00  0.00     0.299 C 
BRANCH  26  27
ATOM     27  C   UNL A   1      32.604  28.351  26.811  1.00  0.00     0.006 A 
ATOM     28  C   UNL A   1      31.915  29.573  26.811  1.00  0.00     0.009 A 
ATOM     29  C   UNL A   1      33.998  28.373  26.968  1.00  0.00     0.009 A 
ATOM     30  C   UNL A   1      32.589  30.772  27.054  1.00  0.00     0.001 A 
ATOM     31  C   UNL A   1      34.670  29.569  27.234  1.00  0.00     0.001 A 
ATOM     32  C   UNL A   1      33.963  30.766  27.288  1.00  0.00     0.000 A 
ENDBRANCH  26  27
ENDBRANCH  20  26
ENDBRANCH   9  12
ENDBRANCH   6   8
ENDBRANCH   3   5
ENDBRANCH   2   3
ENDBRANCH   1   2
BRANCH   1  33
ATOM     33  C   UNL A   1      40.649  22.632  27.491  1.00  0.00     0.275 C 
BRANCH  33  34
ATOM     34  O   UNL A   1      39.766  23.739  27.668  1.00  0.00    -0.458 OA
BRANCH  34  35
ATOM     35  C   UNL A   1      40.279  24.878  27.163  1.00  0.00     0.338 C 
ATOM     36  O   UNL A   1      41.250  24.994  26.431  1.00  0.00    -0.246 OA
BRANCH  35  37
ATOM     37  C   UNL A   1      39.719  26.048  27.817  1.00  0.00     0.060 A 
ATOM     38  C   UNL A   1      39.874  27.253  27.141  1.00  0.00     0.016 A 
ATOM     39  C   UNL A   1      39.506  25.995  29.190  1.00  0.00     0.016 A 
ATOM     40  C   UNL A   1      40.074  28.404  27.853  1.00  0.00     0.010 A 
ATOM     41  C   UNL A   1      39.603  27.165  29.906  1.00  0.00     0.010 A 
ATOM     42  C   UNL A   1      39.961  28.346  29.242  1.00  0.00    -0.014 A 
BRANCH  42  43
ATOM     43  C   UNL A   1      39.896  29.617  29.946  1.00  0.00     0.031 A 
ATOM     44  C   UNL A   1      41.229  30.296  29.936  1.00  0.00     0.074 A 
ATOM     45  C   UNL A   1      38.716  30.129  30.353  1.00  0.00     0.049 A 
ATOM     46  N   UNL A   1      41.883  30.778  30.940  1.00  0.00    -0.248 NA
ATOM     47  C   UNL A   1      42.032  30.238  28.690  1.00  0.00     0.031 C 
ATOM     48  C   UNL A   1      37.392  29.518  30.184  1.00  0.00     0.029 A 
ATOM     49  N   UNL A   1      38.411  31.358  30.856  1.00  0.00    -0.354 N 
ATOM     50  C   UNL A   1      43.061  31.297  30.400  1.00  0.00     0.074 A 
ATOM     51  C   UNL A   1      43.195  30.751  29.083  1.00  0.00     0.031 C 
ATOM     52  C   UNL A   1      36.440  30.467  30.308  1.00  0.00     0.029 A 
ATOM     53  C   UNL A   1      37.074  31.717  30.679  1.00  0.00     0.049 A 
ATOM     54  H   UNL A   1      39.071  31.937  31.300  1.00  0.00     0.167 HD
ATOM     55  C   UNL A   1      43.618  32.409  30.947  1.00  0.00     0.037 A 
ATOM     56  C   UNL A   1      36.559  32.973  30.737  1.00  0.00     0.037 A 
ATOM     57  C   UNL A   1      43.210  32.540  32.322  1.00  0.00     0.049 A 
ATOM     58  C   UNL A   1      37.561  33.819  31.424  1.00  0.00     0.074 A 
ATOM     59  C   UNL A   1      43.385  31.815  33.482  1.00  0.00     0.029 A 
ATOM     60  N   UNL A   1      42.134  33.361  32.521  1.00  0.00    -0.354 N 
ATOM     61  N   UNL A   1      37.852  33.719  32.689  1.00  0.00    -0.248 NA
ATOM     62  C   UNL A   1      38.546  34.510  30.607  1.00  0.00     0.031 C 
ATOM     63  C   UNL A   1      42.188  32.006  34.234  1.00  0.00     0.029 A 
ATOM     64  C   UNL A   1      41.363  32.897  33.546  1.00  0.00     0.049 A 
ATOM     65  H   UNL A   1      41.943  34.172  31.999  1.00  0.00     0.167 HD
ATOM     66  C   UNL A   1      39.224  33.899  32.739  1.00  0.00     0.074 A 
ATOM     67  C   UNL A   1      39.568  34.526  31.465  1.00  0.00     0.031 C 
ATOM     68  C   UNL A   1      39.965  33.238  33.678  1.00  0.00     0.037 A 
BRANCH  55  69
ATOM     69  C   UNL A   1      43.988  33.622  30.104  1.00  0.00     0.057 A 
ATOM     70  C   UNL A   1      43.012  34.161  29.245  1.00  0.00     0.134 A 
ATOM     71  C   UNL A   1      45.307  34.060  29.842  1.00  0.00     0.134 A 
ATOM     72  F   UNL A   1      41.720  33.819  29.373  1.00  0.00    -0.206 F 
ATOM     73  C   UNL A   1      43.334  34.986  28.159  1.00  0.00     0.040 A 
ATOM     74  C   UNL A   1      45.632  34.919  28.788  1.00  0.00     0.040 A 
ATOM     75  F   UNL A   1      46.373  33.617  30.514  1.00  0.00    -0.206 F 
ATOM     76  C   UNL A   1      44.650  35.359  27.921  1.00  0.00     0.006 A 
ENDBRANCH  55  69
BRANCH  56  77
ATOM     77  C   UNL A   1      35.429  33.575  29.986  1.00  0.00     0.057 A 
ATOM     78  C   UNL A   1      34.394  34.246  30.657  1.00  0.00     0.134 A 
ATOM     79  C   UNL A   1      35.476  33.762  28.593  1.00  0.00     0.134 A 
ATOM     80  F   UNL A   1      34.283  34.166  31.991  1.00  0.00    -0.206 F 
ATOM     81  C   UNL A   1      33.484  35.079  29.992  1.00  0.00     0.040 A 
ATOM     82  C   UNL A   1      34.568  34.584  27.916  1.00  0.00     0.040 A 
ATOM     83  F   UNL A   1      36.459  33.233  27.853  1.00  0.00    -0.206 F 
ATOM     84  C   UNL A   1      33.577  35.260  28.616  1.00  0.00     0.006 A 
ENDBRANCH  56  77
BRANCH  68  85
ATOM     85  C   UNL A   1      39.237  32.686  34.871  1.00  0.00     0.057 A 
ATOM     86  C   UNL A   1      38.728  31.385  34.980  1.00  0.00     0.134 A 
ATOM     87  C   UNL A   1      39.136  33.504  36.004  1.00  0.00     0.134 A 
ATOM     88  F   UNL A   1      38.860  30.497  33.985  1.00  0.00    -0.206 F 
ATOM     89  C   UNL A   1      38.100  30.940  36.150  1.00  0.00     0.040 A 
ATOM     90  C   UNL A   1      38.550  33.058  37.188  1.00  0.00     0.040 A 
ATOM     91  F   UNL A   1      39.643  34.746  35.987  1.00  0.00    -0.206 F 
ATOM     92  C   UNL A   1      38.015  31.776  37.259  1.00  0.00     0.006 A 
ENDBRANCH  68  85
ENDBRANCH  42  43
ENDBRANCH  35  37
ENDBRANCH  34  35
ENDBRANCH  33  34
ENDBRANCH   1  33
TORSDOF 17
ENDMDL
MODEL 2
REMARK VINA RESULT:     -12.2      3.691      7.743
REMARK SMILES COC(=O)c1c(NC(=O)[C@@H]2C[C@@H]2C(=O)OCCOC(=O)c2ccc(-c3c4nc(c(-c5c(F)cccc5F)c5ccc([nH]5)c(-c5c(F)cccc5F)c5nc(c(-c6c(F)cccc6F)c6ccc3[nH]6)C=C5)C=C4)cc2)sc2c1CC[N@@H+](Cc1ccccc1)C2
REMARK SMILES IDX 16 1 15 2 13 3 14 4 12 5 10 6 11 7 8 8 7 9 9 11 6 12 5 13
REMARK SMILES IDX 77 14 75 15 76 16 78 17 88 18 79 19 80 20 3 22 4 23 2 24
REMARK SMILES IDX 1 25 81 26 82 27 83 28 87 29 84 30 86 31 85 32 17 33 18 34
REMARK SMILES IDX 19 35 20 36 21 37 22 38 74 39 23 40 73 41 24 42 25 43 26 44
REMARK SMILES IDX 67 45 27 46 72 47 66 48 68 49 28 50 71 51 65 52 64 53 29 55
REMARK SMILES IDX 55 56 38 57 54 58 39 59 42 60 53 61 69 62 40 63 41 64 52 66
REMARK SMILES IDX 70 67 43 68 30 69 31 70 36 71 32 72 33 73 35 74 37 75 34 76
REMARK SMILES IDX 56 77 57 78 62 79 58 80 59 81 61 82 63 83 60 84 44 85 45 86
REMARK SMILES IDX 50 87 46 88 47 89 49 90 51 91 48 92
REMARK H PARENT 7 10 80 21 68 54 42 65
REMARK Flexibility Score: inf
ROOT
ATOM      1  C   UNL A   1      38.160  20.054  25.370  1.00  0.00     0.274 C 
ENDROOT
BRANCH   1   2
ATOM      2  O   UNL A   1      38.339  21.482  25.279  1.00  0.00    -0.462 OA
BRANCH   2   3
ATOM      3  C   UNL A   1      37.251  22.188  24.869  1.00  0.00     0.309 C 
ATOM      4  O   UNL A   1      37.110  22.676  23.748  1.00  0.00    -0.252 OA
BRANCH   3   5
ATOM      5  C   UNL A   1      36.287  22.458  25.967  1.00  0.00     0.112 C 
ATOM      6  C   UNL A   1      34.830  22.056  26.117  1.00  0.00     0.094 C 
ATOM      7  C   UNL A   1      35.179  23.428  25.607  1.00  0.00     0.030 C 
BRANCH   6   8
ATOM      8  C   UNL A   1      34.078  21.121  25.281  1.00  0.00     0.229 C 
ATOM      9  N   UNL A   1      32.772  21.324  24.935  1.00  0.00    -0.317 N 
ATOM     10  H   UNL A   1      32.298  20.492  24.708  1.00  0.00     0.170 HD
ATOM     11  O   UNL A   1      34.682  20.165  24.797  1.00  0.00    -0.274 OA
BRANCH   9  12
ATOM     12  C   UNL A   1      31.977  22.442  24.837  1.00  0.00     0.110 A 
ATOM     13  C   UNL A   1      31.301  23.346  25.638  1.00  0.00     0.098 A 
ATOM     14  C   UNL A   1      30.963  24.533  24.871  1.00  0.00    -0.006 A 
ATOM     15  S   UNL A   1      31.903  22.882  23.171  1.00  0.00    -0.116 S 
ATOM     16  C   UNL A   1      31.364  24.436  23.554  1.00  0.00     0.065 A 
ATOM     17  C   UNL A   1      30.448  25.839  25.408  1.00  0.00     0.099 C 
ATOM     18  C   UNL A   1      31.415  25.575  22.580  1.00  0.00     0.310 C 
ATOM     19  C   UNL A   1      30.465  26.967  24.341  1.00  0.00     0.267 C 
ATOM     20  N   UNL A   1      31.480  26.876  23.274  1.00  0.00    -0.326 N 
ATOM     21  H   UNL A   1      31.217  27.582  22.585  1.00  0.00     0.348 HD
BRANCH  13  22
ATOM     22  C   UNL A   1      31.055  23.242  27.064  1.00  0.00     0.341 C 
ATOM     23  O   UNL A   1      31.918  22.923  27.870  1.00  0.00    -0.246 OA
BRANCH  22  24
ATOM     24  O   UNL A   1      29.754  23.494  27.386  1.00  0.00    -0.465 OA
ATOM     25  C   UNL A   1      28.865  22.369  27.377  1.00  0.00     0.282 C 
ENDBRANCH  22  24
ENDBRANCH  13  22
BRANCH  20  26
ATOM     26  C   UNL A   1      32.833  27.338  23.627  1.00  0.00     0.299 C 
BRANCH  26  27
ATOM     27  C   UNL A   1      33.011  28.157  24.889  1.00  0.00     0.006 A 
ATOM     28  C   UNL A   1      33.742  27.651  25.974  1.00  0.00     0.009 A 
ATOM     29  C   UNL A   1      32.483  29.453  24.989  1.00  0.00     0.009 A 
ATOM     30  C   UNL A   1      34.014  28.451  27.086  1.00  0.00     0.001 A 
ATOM     31  C   UNL A   1      32.774  30.262  26.090  1.00  0.00     0.001 A 
ATOM     32  C   UNL A   1      33.550  29.764  27.133  1.00  0.00     0.000 A 
ENDBRANCH  26  27
ENDBRANCH  20  26
ENDBRANCH   9  12
ENDBRANCH   6   8
ENDBRANCH   3   5
ENDBRANCH   2   3
ENDBRANCH   1   2
BRANCH   1  33
ATOM     33  C   UNL A   1      39.426  19.283  25.745  1.00  0.00     0.275 C 
BRANCH  33  34
ATOM     34  O   UNL A   1      40.618  19.832  25.183  1.00  0.00    -0.458 OA
BRANCH  34  35
ATOM     35  C   UNL A   1      41.720  19.419  25.840  1.00  0.00     0.338 C 
ATOM     36  O   UNL A   1      42.079  18.269  26.037  1.00  0.00    -0.246 OA
BRANCH  35  37
ATOM     37  C   UNL A   1      42.339  20.509  26.574  1.00  0.00     0.060 A 
ATOM     38  C   UNL A   1      41.891  20.694  27.876  1.00  0.00     0.016 A 
ATOM     39  C   UNL A   1      42.941  21.532  25.849  1.00  0.00     0.016 A 
ATOM     40  C   UNL A   1      41.803  21.961  28.386  1.00  0.00     0.010 A 
ATOM     41  C   UNL A   1      42.952  22.794  26.396  1.00  0.00     0.010 A 
ATOM     42  C   UNL A   1      42.315  23.012  27.625  1.00  0.00    -0.014 A 
BRANCH  42  43
ATOM     43  C   UNL A   1      42.467  24.293  28.298  1.00  0.00     0.031 A 
ATOM     44  C   UNL A   1      41.312  25.192  27.991  1.00  0.00     0.074 A 
ATOM     45  C   UNL A   1      43.444  24.490  29.208  1.00  0.00     0.049 A 
ATOM     46  N   UNL A   1      41.345  26.410  27.564  1.00  0.00    -0.248 NA
ATOM     47  C   UNL A   1      39.955  24.594  27.945  1.00  0.00     0.031 C 
ATOM     48  C   UNL A   1      44.461  23.517  29.626  1.00  0.00     0.029 A 
ATOM     49  N   UNL A   1      43.653  25.524  30.070  1.00  0.00    -0.354 N 
ATOM     50  C   UNL A   1      40.010  26.795  27.436  1.00  0.00     0.074 A 
ATOM     51  C   UNL A   1      39.224  25.598  27.468  1.00  0.00     0.031 C 
ATOM     52  C   UNL A   1      44.974  23.888  30.818  1.00  0.00     0.029 A 
ATOM     53  C   UNL A   1      44.415  25.173  31.187  1.00  0.00     0.049 A 
ATOM     54  H   UNL A   1      43.302  26.430  29.920  1.00  0.00     0.167 HD
ATOM     55  C   UNL A   1      39.653  28.081  27.686  1.00  0.00     0.037 A 
ATOM     56  C   UNL A   1      44.487  25.852  32.361  1.00  0.00     0.037 A 
ATOM     57  C   UNL A   1      40.787  28.952  27.501  1.00  0.00     0.049 A 
ATOM     58  C   UNL A   1      43.969  27.215  32.106  1.00  0.00     0.074 A 
ATOM     59  C   UNL A   1      41.589  29.322  26.442  1.00  0.00     0.029 A 
ATOM     60  N   UNL A   1      41.473  29.246  28.647  1.00  0.00    -0.354 N 
ATOM     61  N   UNL A   1      44.587  28.103  31.383  1.00  0.00    -0.248 NA
ATOM     62  C   UNL A   1      42.551  27.457  32.320  1.00  0.00     0.031 C 
ATOM     63  C   UNL A   1      42.884  29.536  27.004  1.00  0.00     0.029 A 
ATOM     64  C   UNL A   1      42.806  29.367  28.387  1.00  0.00     0.049 A 
ATOM     65  H   UNL A   1      41.062  29.357  29.534  1.00  0.00     0.167 HD
ATOM     66  C   UNL A   1      43.576  28.732  30.676  1.00  0.00     0.074 A 
ATOM     67  C   UNL A   1      42.350  28.402  31.399  1.00  0.00     0.031 C 
ATOM     68  C   UNL A   1      43.812  29.191  29.410  1.00  0.00     0.037 A 
BRANCH  55  69
ATOM     69  C   UNL A   1      38.524  28.433  28.647  1.00  0.00     0.057 A 
ATOM     70  C   UNL A   1      37.603  29.425  28.259  1.00  0.00     0.134 A 
ATOM     71  C   UNL A   1      38.496  28.111  30.023  1.00  0.00     0.134 A 
ATOM     72  F   UNL A   1      37.533  29.837  26.984  1.00  0.00    -0.206 F 
ATOM     73  C   UNL A   1      36.795  30.105  29.180  1.00  0.00     0.040 A 
ATOM     74  C   UNL A   1      37.661  28.753  30.941  1.00  0.00     0.040 A 
ATOM     75  F   UNL A   1      39.333  27.235  30.587  1.00  0.00    -0.206 F 
ATOM     76  C   UNL A   1      36.830  29.778  30.529  1.00  0.00     0.006 A 
ENDBRANCH  55  69
BRANCH  56  77
ATOM     77  C   UNL A   1      44.668  25.345  33.745  1.00  0.00     0.057 A 
ATOM     78  C   UNL A   1      45.423  26.067  34.684  1.00  0.00     0.134 A 
ATOM     79  C   UNL A   1      43.880  24.304  34.266  1.00  0.00     0.134 A 
ATOM     80  F   UNL A   1      46.178  27.106  34.297  1.00  0.00    -0.206 F 
ATOM     81  C   UNL A   1      45.372  25.794  36.058  1.00  0.00     0.040 A 
ATOM     82  C   UNL A   1      43.828  24.016  35.635  1.00  0.00     0.040 A 
ATOM     83  F   UNL A   1      43.062  23.591  33.480  1.00  0.00    -0.206 F 
ATOM     84  C   UNL A   1      44.562  24.772  36.539  1.00  0.00     0.006 A 
ENDBRANCH  56  77
BRANCH  68  85
ATOM     85  C   UNL A   1      45.244  29.383  28.999  1.00  0.00     0.057 A 
ATOM     86  C   UNL A   1      46.055  28.406  28.403  1.00  0.00     0.134 A 
ATOM     87  C   UNL A   1      45.792  30.664  29.137  1.00  0.00     0.134 A 
ATOM     88  F   UNL A   1      45.590  27.176  28.143  1.00  0.00    -0.206 F 
ATOM     89  C   UNL A   1      47.369  28.685  28.011  1.00  0.00     0.040 A 
ATOM     90  C   UNL A   1      47.085  30.964  28.711  1.00  0.00     0.040 A 
ATOM     91  F   UNL A   1      45.058  31.660  29.656  1.00  0.00    -0.206 F 
ATOM     92  C   UNL A   1      47.885  29.969  28.160  1.00  0.00     0.006 A 
ENDBRANCH  68  85
ENDBRANCH  42  43
ENDBRANCH  35  37
ENDBRANCH  34  35
ENDBRANCH  33  34
ENDBRANCH   1  33
TORSDOF 17
ENDMDL
MODEL 3
REMARK VINA RESULT:     -12.1      4.663      9.541
REMARK SMILES COC(=O)c1c(NC(=O)[C@@H]2C[C@@H]2C(=O)OCCOC(=O)c2ccc(-c3c4nc(c(-c5c(F)cccc5F)c5ccc([nH]5)c(-c5c(F)cccc5F)c5nc(c(-c6c(F)cccc6F)c6ccc3[nH]6)C=C5)C=C4)cc2)sc2c1CC[N@@H+](Cc1ccccc1)C2
REMARK SMILES IDX 16 1 15 2 13 3 14 4 12 5 10 6 11 7 8 8 7 9 9 11 6 12 5 13
REMARK SMILES IDX 77 14 75 15 76 16 78 17 88 18 79 19 80 20 3 22 4 23 2 24
REMARK SMILES IDX 1 25 81 26 82 27 83 28 87 29 84 30 86 31 85 32 17 33 18 34
REMARK SMILES IDX 19 35 20 36 21 37 22 38 74 39 23 40 73 41 24 42 25 43 26 44
REMARK SMILES IDX 67 45 27 46 72 47 66 48 68 49 28 50 71 51 65 52 64 53 29 55
REMARK SMILES IDX 55 56 38 57 54 58 39 59 42 60 53 61 69 62 40 63 41 64 52 66
REMARK SMILES IDX 70 67 43 68 30 69 31 70 36 71 32 72 33 73 35 74 37 75 34 76
REMARK SMILES IDX 56 77 57 78 62 79 58 80 59 81 61 82 63 83 60 84 44 85 45 86
REMARK SMILES IDX 50 87 46 88 47 89 49 90 51 91 48 92
REMARK H PARENT 7 10 80 21 68 54 42 65
REMARK Flexibility Score: inf
ROOT
ATOM      1  C   UNL A   1      33.892  31.885  27.955  1.00  0.00     0.274 C 
ENDROOT
BRANCH   1   2
ATOM      2  O   UNL A   1      33.276  30.685  27.443  1.00  0.00    -0.462 OA
BRANCH   2   3
ATOM      3  C   UNL A   1      32.185  30.873  26.653  1.00  0.00     0.309 C 
ATOM      4  O   UNL A   1      31.316  31.723  26.844  1.00  0.00    -0.252 OA
BRANCH   3   5
ATOM      5  C   UNL A   1      32.047  29.837  25.597  1.00  0.00     0.112 C 
ATOM      6  C   UNL A   1      31.751  28.352  25.710  1.00  0.00     0.094 C 
ATOM      7  C   UNL A   1      33.172  28.823  25.559  1.00  0.00     0.030 C 
BRANCH   6   8
ATOM      8  C   UNL A   1      31.333  27.619  26.904  1.00  0.00     0.229 C 
ATOM      9  N   UNL A   1      30.828  26.352  26.856  1.00  0.00    -0.317 N 
ATOM     10  H   UNL A   1      30.263  26.130  27.631  1.00  0.00     0.170 HD
ATOM     11  O   UNL A   1      31.538  28.139  28.001  1.00  0.00    -0.274 OA
BRANCH   9  12
ATOM     12  C   UNL A   1      30.937  25.318  25.956  1.00  0.00     0.110 A 
ATOM     13  C   UNL A   1      30.723  25.041  24.616  1.00  0.00     0.098 A 
ATOM     14  C   UNL A   1      31.423  23.823  24.243  1.00  0.00    -0.006 A 
ATOM     15  S   UNL A   1      31.672  23.990  26.775  1.00  0.00    -0.116 S 
ATOM     16  C   UNL A   1      32.078  23.249  25.313  1.00  0.00     0.065 A 
ATOM     17  C   UNL A   1      31.650  23.302  22.852  1.00  0.00     0.099 C 
ATOM     18  C   UNL A   1      33.102  22.158  25.215  1.00  0.00     0.310 C 
ATOM     19  C   UNL A   1      32.673  22.133  22.816  1.00  0.00     0.267 C 
ATOM     20  N   UNL A   1      33.705  22.103  23.869  1.00  0.00    -0.326 N 
ATOM     21  H   UNL A   1      34.150  21.188  23.790  1.00  0.00     0.348 HD
BRANCH  13  22
ATOM     22  C   UNL A   1      30.028  25.869  23.649  1.00  0.00     0.341 C 
ATOM     23  O   UNL A   1      28.849  26.176  23.756  1.00  0.00    -0.246 OA
BRANCH  22  24
ATOM     24  O   UNL A   1      30.824  26.219  22.598  1.00  0.00    -0.465 OA
ATOM     25  C   UNL A   1      30.987  27.624  22.361  1.00  0.00     0.282 C 
ENDBRANCH  22  24
ENDBRANCH  13  22
BRANCH  20  26
ATOM     26  C   UNL A   1      34.868  22.984  23.660  1.00  0.00     0.299 C 
BRANCH  26  27
ATOM     27  C   UNL A   1      36.081  22.803  24.548  1.00  0.00     0.006 A 
ATOM     28  C   UNL A   1      36.797  21.596  24.545  1.00  0.00     0.009 A 
ATOM     29  C   UNL A   1      36.540  23.846  25.366  1.00  0.00     0.009 A 
ATOM     30  C   UNL A   1      37.987  21.471  25.265  1.00  0.00     0.001 A 
ATOM     31  C   UNL A   1      37.742  23.730  26.068  1.00  0.00     0.001 A 
ATOM     32  C   UNL A   1      38.471  22.546  26.008  1.00  0.00     0.000 A 
ENDBRANCH  26  27
ENDBRANCH  20  26
ENDBRANCH   9  12
ENDBRANCH   6   8
ENDBRANCH   3   5
ENDBRANCH   2   3
ENDBRANCH   1   2
BRANCH   1  33
ATOM     33  C   UNL A   1      35.420  31.880  27.903  1.00  0.00     0.275 C 
BRANCH  33  34
ATOM     34  O   UNL A   1      36.022  30.991  28.843  1.00  0.00    -0.458 OA
BRANCH  34  35
ATOM     35  C   UNL A   1      36.467  29.863  28.255  1.00  0.00     0.338 C 
ATOM     36  O   UNL A   1      35.822  29.069  27.588  1.00  0.00    -0.246 OA
BRANCH  35  37
ATOM     37  C   UNL A   1      37.790  29.501  28.734  1.00  0.00     0.060 A 
ATOM     38  C   UNL A   1      38.858  29.996  27.995  1.00  0.00     0.016 A 
ATOM     39  C   UNL A   1      37.911  28.378  29.545  1.00  0.00     0.016 A 
ATOM     40  C   UNL A   1      39.989  29.237  27.853  1.00  0.00     0.010 A 
ATOM     41  C   UNL A   1      39.084  27.662  29.488  1.00  0.00     0.010 A 
ATOM     42  C   UNL A   1      40.082  28.054  28.586  1.00  0.00    -0.014 A 
BRANCH  42  43
ATOM     43  C   UNL A   1      41.390  27.419  28.637  1.00  0.00     0.031 A 
ATOM     44  C   UNL A   1      42.127  27.824  29.874  1.00  0.00     0.074 A 
ATOM     45  C   UNL A   1      41.734  26.461  27.752  1.00  0.00     0.049 A 
ATOM     46  N   UNL A   1      43.327  28.292  29.967  1.00  0.00    -0.248 NA
ATOM     47  C   UNL A   1      41.360  27.928  31.140  1.00  0.00     0.031 C 
ATOM     48  C   UNL A   1      40.910  25.950  26.650  1.00  0.00     0.029 A 
ATOM     49  N   UNL A   1      42.810  25.625  27.727  1.00  0.00    -0.354 N 
ATOM     50  C   UNL A   1      43.536  28.511  31.329  1.00  0.00     0.074 A 
ATOM     51  C   UNL A   1      42.250  28.483  31.960  1.00  0.00     0.031 C 
ATOM     52  C   UNL A   1      41.376  24.744  26.262  1.00  0.00     0.029 A 
ATOM     53  C   UNL A   1      42.590  24.454  27.000  1.00  0.00     0.049 A 
ATOM     54  H   UNL A   1      43.660  25.827  28.180  1.00  0.00     0.167 HD
ATOM     55  C   UNL A   1      44.773  28.328  31.858  1.00  0.00     0.037 A 
ATOM     56  C   UNL A   1      43.304  23.302  27.086  1.00  0.00     0.037 A 
ATOM     57  C   UNL A   1      45.775  28.477  30.833  1.00  0.00     0.049 A 
ATOM     58  C   UNL A   1      44.583  23.635  27.753  1.00  0.00     0.074 A 
ATOM     59  C   UNL A   1      46.214  29.499  30.018  1.00  0.00     0.029 A 
ATOM     60  N   UNL A   1      46.186  27.304  30.262  1.00  0.00    -0.354 N 
ATOM     61  N   UNL A   1      45.522  24.352  27.207  1.00  0.00    -0.248 NA
ATOM     62  C   UNL A   1      44.650  23.513  29.201  1.00  0.00     0.031 C 
ATOM     63  C   UNL A   1      46.606  28.870  28.798  1.00  0.00     0.029 A 
ATOM     64  C   UNL A   1      46.466  27.489  28.941  1.00  0.00     0.049 A 
ATOM     65  H   UNL A   1      46.267  26.447  30.738  1.00  0.00     0.167 HD
ATOM     66  C   UNL A   1      45.998  25.138  28.242  1.00  0.00     0.074 A 
ATOM     67  C   UNL A   1      45.535  24.477  29.460  1.00  0.00     0.031 C 
ATOM     68  C   UNL A   1      46.448  26.403  27.987  1.00  0.00     0.037 A 
BRANCH  55  69
ATOM     69  C   UNL A   1      45.006  27.448  33.080  1.00  0.00     0.057 A 
ATOM     70  C   UNL A   1      44.431  26.163  33.096  1.00  0.00     0.134 A 
ATOM     71  C   UNL A   1      45.454  27.907  34.340  1.00  0.00     0.134 A 
ATOM     72  F   UNL A   1      43.950  25.611  31.971  1.00  0.00    -0.206 F 
ATOM     73  C   UNL A   1      44.232  25.441  34.280  1.00  0.00     0.040 A 
ATOM     74  C   UNL A   1      45.301  27.173  35.519  1.00  0.00     0.040 A 
ATOM     75  F   UNL A   1      45.976  29.122  34.534  1.00  0.00    -0.206 F 
ATOM     76  C   UNL A   1      44.657  25.950  35.500  1.00  0.00     0.006 A 
ENDBRANCH  55  69
BRANCH  56  77
ATOM     77  C   UNL A   1      42.863  21.893  26.931  1.00  0.00     0.057 A 
ATOM     78  C   UNL A   1      41.731  21.413  27.610  1.00  0.00     0.134 A 
ATOM     79  C   UNL A   1      43.354  21.067  25.905  1.00  0.00     0.134 A 
ATOM     80  F   UNL A   1      41.159  22.142  28.580  1.00  0.00    -0.206 F 
ATOM     81  C   UNL A   1      41.106  20.205  27.270  1.00  0.00     0.040 A 
ATOM     82  C   UNL A   1      42.745  19.854  25.561  1.00  0.00     0.040 A 
ATOM     83  F   UNL A   1      44.384  21.449  25.138  1.00  0.00    -0.206 F 
ATOM     84  C   UNL A   1      41.607  19.427  26.232  1.00  0.00     0.006 A 
ENDBRANCH  56  77
BRANCH  68  85
ATOM     85  C   UNL A   1      46.808  26.736  26.567  1.00  0.00     0.057 A 
ATOM     86  C   UNL A   1      45.957  27.351  25.637  1.00  0.00     0.134 A 
ATOM     87  C   UNL A   1      48.127  26.498  26.159  1.00  0.00     0.134 A 
ATOM     88  F   UNL A   1      44.706  27.704  25.962  1.00  0.00    -0.206 F 
ATOM     89  C   UNL A   1      46.391  27.665  24.343  1.00  0.00     0.040 A 
ATOM     90  C   UNL A   1      48.582  26.845  24.888  1.00  0.00     0.040 A 
ATOM     91  F   UNL A   1      49.009  25.956  27.012  1.00  0.00    -0.206 F 
ATOM     92  C   UNL A   1      47.709  27.417  23.969  1.00  0.00     0.006 A 
ENDBRANCH  68  85
ENDBRANCH  42  43
ENDBRANCH  35  37
ENDBRANCH  34  35
ENDBRANCH  33  34
ENDBRANCH   1  33
TORSDOF 17
ENDMDL
