MODEL 1
REMARK VINA RESULT:     -11.1      0.000      0.000
REMARK SMILES CCOC(=O)CS[C@H]1CC(=O)N(c2ccc(C(=O)OCCOC(=O)c3ccc(-c4c5nc(c(-c6c(F)cccc6F)c6ccc([nH]6)c(-c6c(F)cccc6F)c6nc(c(-c7c(F)cccc7F)c7ccc4[nH]7)C=C6)C=C5)cc3)c(O)c2)C1=O
REMARK SMILES IDX 17 1 18 2 16 3 13 4 14 5 81 6 15 7 79 8 12 9 8 10 9 11 82 12
REMARK SMILES IDX 10 13 83 14 11 15 7 16 6 17 4 18 5 19 3 20 2 21 1 22 80 23
REMARK SMILES IDX 19 25 20 26 21 27 22 28 23 29 24 30 25 31 26 32 78 33 27 34
REMARK SMILES IDX 77 35 28 36 29 37 30 38 71 39 31 40 76 41 70 42 72 43 32 44
REMARK SMILES IDX 75 45 69 46 68 47 33 49 59 50 42 51 58 52 43 53 46 54 57 55
REMARK SMILES IDX 73 56 44 57 45 58 56 60 74 61 47 62 34 63 35 64 40 65 36 66
REMARK SMILES IDX 37 67 39 68 41 69 38 70 60 71 61 72 66 73 62 74 63 75 65 76
REMARK SMILES IDX 67 77 64 78 48 79 49 80 54 81 50 82 51 83 53 84 55 85 52 86
REMARK H PARENT 80 24 72 48 46 59
REMARK Flexibility Score: inf
ROOT
ATOM      1  C   UNL A   1      40.411  21.462  26.671  1.00  0.00     0.342 C 
ATOM      2  O   UNL A   1      40.692  21.400  27.852  1.00  0.00    -0.246 OA
ENDROOT
BRANCH   1   3
ATOM      3  C   UNL A   1      39.030  21.715  26.194  1.00  0.00     0.101 A 
ATOM      4  C   UNL A   1      36.438  22.022  25.132  1.00  0.00     0.055 A 
ATOM      5  C   UNL A   1      37.171  20.859  24.899  1.00  0.00     0.028 A 
ATOM      6  C   UNL A   1      37.010  23.039  25.907  1.00  0.00     0.074 A 
ATOM      7  C   UNL A   1      38.480  20.749  25.347  1.00  0.00     0.022 A 
ATOM      8  C   UNL A   1      38.274  22.853  26.493  1.00  0.00     0.132 A 
BRANCH   4   9
ATOM      9  N   UNL A   1      35.159  22.136  24.548  1.00  0.00    -0.249 N 
ATOM     10  C   UNL A   1      32.851  22.071  24.235  1.00  0.00     0.146 C 
ATOM     11  C   UNL A   1      33.463  22.916  23.134  1.00  0.00     0.125 C 
ATOM     12  C   UNL A   1      33.995  21.714  25.152  1.00  0.00     0.247 C 
ATOM     13  C   UNL A   1      34.933  22.832  23.385  1.00  0.00     0.235 C 
ATOM     14  O   UNL A   1      33.878  21.162  26.237  1.00  0.00    -0.273 OA
ATOM     15  O   UNL A   1      35.763  23.324  22.632  1.00  0.00    -0.274 OA
BRANCH  10  16
ATOM     16  S   UNL A   1      31.376  22.882  24.939  1.00  0.00    -0.136 SA
BRANCH  16  17
ATOM     17  C   UNL A   1      31.994  23.966  26.259  1.00  0.00     0.192 C 
BRANCH  17  18
ATOM     18  C   UNL A   1      31.649  25.427  26.097  1.00  0.00     0.315 C 
ATOM     19  O   UNL A   1      30.950  26.062  26.875  1.00  0.00    -0.251 OA
BRANCH  18  20
ATOM     20  O   UNL A   1      32.289  25.959  25.018  1.00  0.00    -0.465 OA
BRANCH  20  21
ATOM     21  C   UNL A   1      33.659  26.332  25.235  1.00  0.00     0.229 C 
ATOM     22  C   UNL A   1      33.768  27.634  26.005  1.00  0.00     0.049 C 
ENDBRANCH  20  21
ENDBRANCH  18  20
ENDBRANCH  17  18
ENDBRANCH  16  17
ENDBRANCH  10  16
ENDBRANCH   4   9
BRANCH   8  23
ATOM     23  O   UNL A   1      38.708  23.835  27.339  1.00  0.00    -0.507 OA
ATOM     24  H   UNL A   1      38.113  24.229  27.945  1.00  0.00     0.293 HD
ENDBRANCH   8  23
ENDBRANCH   1   3
BRANCH   1  25
ATOM     25  O   UNL A   1      41.286  21.424  25.630  1.00  0.00    -0.458 OA
BRANCH  25  26
ATOM     26  C   UNL A   1      42.609  20.937  25.960  1.00  0.00     0.275 C 
BRANCH  26  27
ATOM     27  C   UNL A   1      43.707  21.827  25.374  1.00  0.00     0.275 C 
BRANCH  27  28
ATOM     28  O   UNL A   1      43.135  23.014  24.793  1.00  0.00    -0.458 OA
BRANCH  28  29
ATOM     29  C   UNL A   1      43.803  24.165  25.030  1.00  0.00     0.338 C 
ATOM     30  O   UNL A   1      44.885  24.503  24.580  1.00  0.00    -0.246 OA
BRANCH  29  31
ATOM     31  C   UNL A   1      42.994  25.058  25.878  1.00  0.00     0.060 A 
ATOM     32  C   UNL A   1      43.314  26.409  25.890  1.00  0.00     0.016 A 
ATOM     33  C   UNL A   1      42.080  24.556  26.800  1.00  0.00     0.016 A 
ATOM     34  C   UNL A   1      42.837  27.244  26.897  1.00  0.00     0.010 A 
ATOM     35  C   UNL A   1      41.510  25.421  27.747  1.00  0.00     0.010 A 
ATOM     36  C   UNL A   1      41.931  26.762  27.851  1.00  0.00    -0.014 A 
BRANCH  36  37
ATOM     37  C   UNL A   1      41.515  27.628  28.999  1.00  0.00     0.031 A 
ATOM     38  C   UNL A   1      42.320  27.628  30.279  1.00  0.00     0.074 A 
ATOM     39  C   UNL A   1      40.461  28.465  28.897  1.00  0.00     0.049 A 
ATOM     40  N   UNL A   1      42.051  28.196  31.429  1.00  0.00    -0.248 NA
ATOM     41  C   UNL A   1      43.585  26.879  30.268  1.00  0.00     0.031 C 
ATOM     42  C   UNL A   1      39.613  28.626  27.715  1.00  0.00     0.029 A 
ATOM     43  N   UNL A   1      39.934  29.357  29.802  1.00  0.00    -0.354 N 
ATOM     44  C   UNL A   1      43.078  27.821  32.289  1.00  0.00     0.074 A 
ATOM     45  C   UNL A   1      43.969  26.968  31.532  1.00  0.00     0.031 C 
ATOM     46  C   UNL A   1      38.711  29.593  27.947  1.00  0.00     0.029 A 
ATOM     47  C   UNL A   1      38.856  30.061  29.322  1.00  0.00     0.049 A 
ATOM     48  H   UNL A   1      40.296  29.480  30.709  1.00  0.00     0.167 HD
ATOM     49  C   UNL A   1      43.271  28.158  33.588  1.00  0.00     0.037 A 
ATOM     50  C   UNL A   1      38.048  30.956  29.923  1.00  0.00     0.037 A 
ATOM     51  C   UNL A   1      42.435  29.067  34.328  1.00  0.00     0.049 A 
ATOM     52  C   UNL A   1      38.267  31.298  31.370  1.00  0.00     0.074 A 
ATOM     53  C   UNL A   1      42.561  29.479  35.645  1.00  0.00     0.029 A 
ATOM     54  N   UNL A   1      41.330  29.725  33.810  1.00  0.00    -0.354 N 
ATOM     55  N   UNL A   1      39.203  30.882  32.186  1.00  0.00    -0.248 NA
ATOM     56  C   UNL A   1      37.301  32.221  31.984  1.00  0.00     0.031 C 
ATOM     57  C   UNL A   1      41.517  30.365  35.931  1.00  0.00     0.029 A 
ATOM     58  C   UNL A   1      40.763  30.534  34.782  1.00  0.00     0.049 A 
ATOM     59  H   UNL A   1      40.999  29.632  32.887  1.00  0.00     0.167 HD
ATOM     60  C   UNL A   1      38.944  31.496  33.405  1.00  0.00     0.074 A 
ATOM     61  C   UNL A   1      37.780  32.334  33.215  1.00  0.00     0.031 C 
ATOM     62  C   UNL A   1      39.607  31.368  34.580  1.00  0.00     0.037 A 
BRANCH  49  63
ATOM     63  C   UNL A   1      44.424  27.520  34.307  1.00  0.00     0.057 A 
ATOM     64  C   UNL A   1      45.694  28.106  34.350  1.00  0.00     0.134 A 
ATOM     65  C   UNL A   1      44.246  26.312  34.996  1.00  0.00     0.134 A 
ATOM     66  F   UNL A   1      45.935  29.256  33.702  1.00  0.00    -0.206 F 
ATOM     67  C   UNL A   1      46.754  27.503  35.032  1.00  0.00     0.040 A 
ATOM     68  C   UNL A   1      45.291  25.712  35.702  1.00  0.00     0.040 A 
ATOM     69  F   UNL A   1      43.053  25.701  35.003  1.00  0.00    -0.206 F 
ATOM     70  C   UNL A   1      46.551  26.305  35.715  1.00  0.00     0.006 A 
ENDBRANCH  49  63
BRANCH  50  71
ATOM     71  C   UNL A   1      36.924  31.571  29.170  1.00  0.00     0.057 A 
ATOM     72  C   UNL A   1      36.991  32.895  28.723  1.00  0.00     0.134 A 
ATOM     73  C   UNL A   1      35.751  30.856  28.897  1.00  0.00     0.134 A 
ATOM     74  F   UNL A   1      38.076  33.640  28.978  1.00  0.00    -0.206 F 
ATOM     75  C   UNL A   1      35.926  33.492  28.044  1.00  0.00     0.040 A 
ATOM     76  C   UNL A   1      34.691  31.431  28.194  1.00  0.00     0.040 A 
ATOM     77  F   UNL A   1      35.624  29.584  29.299  1.00  0.00    -0.206 F 
ATOM     78  C   UNL A   1      34.775  32.755  27.772  1.00  0.00     0.006 A 
ENDBRANCH  50  71
BRANCH  62  79
ATOM     79  C   UNL A   1      39.102  32.172  35.740  1.00  0.00     0.057 A 
ATOM     80  C   UNL A   1      38.222  31.629  36.685  1.00  0.00     0.134 A 
ATOM     81  C   UNL A   1      39.514  33.497  35.926  1.00  0.00     0.134 A 
ATOM     82  F   UNL A   1      37.778  30.369  36.556  1.00  0.00    -0.206 F 
ATOM     83  C   UNL A   1      37.750  32.384  37.760  1.00  0.00     0.040 A 
ATOM     84  C   UNL A   1      39.068  34.255  37.010  1.00  0.00     0.040 A 
ATOM     85  F   UNL A   1      40.361  34.074  35.059  1.00  0.00    -0.206 F 
ATOM     86  C   UNL A   1      38.178  33.700  37.927  1.00  0.00     0.006 A 
ENDBRANCH  62  79
ENDBRANCH  36  37
ENDBRANCH  29  31
ENDBRANCH  28  29
ENDBRANCH  27  28
ENDBRANCH  26  27
ENDBRANCH  25  26
ENDBRANCH   1  25
TORSDOF 18
ENDMDL
MODEL 2
REMARK VINA RESULT:     -11.1      1.118      2.612
REMARK SMILES CCOC(=O)CS[C@H]1CC(=O)N(c2ccc(C(=O)OCCOC(=O)c3ccc(-c4c5nc(c(-c6c(F)cccc6F)c6ccc([nH]6)c(-c6c(F)cccc6F)c6nc(c(-c7c(F)cccc7F)c7ccc4[nH]7)C=C6)C=C5)cc3)c(O)c2)C1=O
REMARK SMILES IDX 17 1 18 2 16 3 13 4 14 5 81 6 15 7 79 8 12 9 8 10 9 11 82 12
REMARK SMILES IDX 10 13 83 14 11 15 7 16 6 17 4 18 5 19 3 20 2 21 1 22 80 23
REMARK SMILES IDX 19 25 20 26 21 27 22 28 23 29 24 30 25 31 26 32 78 33 27 34
REMARK SMILES IDX 77 35 28 36 29 37 30 38 71 39 31 40 76 41 70 42 72 43 32 44
REMARK SMILES IDX 75 45 69 46 68 47 33 49 59 50 42 51 58 52 43 53 46 54 57 55
REMARK SMILES IDX 73 56 44 57 45 58 56 60 74 61 47 62 34 63 35 64 40 65 36 66
REMARK SMILES IDX 37 67 39 68 41 69 38 70 60 71 61 72 66 73 62 74 63 75 65 76
REMARK SMILES IDX 67 77 64 78 48 79 49 80 54 81 50 82 51 83 53 84 55 85 52 86
REMARK H PARENT 80 24 72 48 46 59
REMARK Flexibility Score: inf
ROOT
ATOM      1  C   UNL A   1      40.503  21.224  26.525  1.00  0.00     0.342 C 
ATOM      2  O   UNL A   1      40.831  21.120  27.690  1.00  0.00    -0.246 OA
ENDROOT
BRANCH   1   3
ATOM      3  C   UNL A   1      39.138  21.634  26.116  1.00  0.00     0.101 A 
ATOM      4  C   UNL A   1      36.570  22.601  25.478  1.00  0.00     0.055 A 
ATOM      5  C   UNL A   1      37.523  23.437  26.057  1.00  0.00     0.028 A 
ATOM      6  C   UNL A   1      36.909  21.268  25.214  1.00  0.00     0.074 A 
ATOM      7  C   UNL A   1      38.754  22.934  26.453  1.00  0.00     0.022 A 
ATOM      8  C   UNL A   1      38.213  20.809  25.468  1.00  0.00     0.132 A 
BRANCH   4   9
ATOM      9  N   UNL A   1      35.289  23.129  25.211  1.00  0.00    -0.249 N 
ATOM     10  C   UNL A   1      33.374  23.841  24.091  1.00  0.00     0.146 C 
ATOM     11  C   UNL A   1      33.055  23.733  25.570  1.00  0.00     0.125 C 
ATOM     12  C   UNL A   1      34.785  23.327  23.944  1.00  0.00     0.247 C 
ATOM     13  C   UNL A   1      34.355  23.345  26.195  1.00  0.00     0.235 C 
ATOM     14  O   UNL A   1      35.347  23.117  22.879  1.00  0.00    -0.273 OA
ATOM     15  O   UNL A   1      34.506  23.252  27.407  1.00  0.00    -0.274 OA
BRANCH  10  16
ATOM     16  S   UNL A   1      32.053  23.093  23.080  1.00  0.00    -0.136 SA
BRANCH  16  17
ATOM     17  C   UNL A   1      32.508  21.346  22.889  1.00  0.00     0.192 C 
BRANCH  17  18
ATOM     18  C   UNL A   1      32.422  20.523  24.152  1.00  0.00     0.315 C 
ATOM     19  O   UNL A   1      31.699  20.791  25.102  1.00  0.00    -0.251 OA
BRANCH  18  20
ATOM     20  O   UNL A   1      33.190  19.402  24.054  1.00  0.00    -0.465 OA
BRANCH  20  21
ATOM     21  C   UNL A   1      32.608  18.318  23.313  1.00  0.00     0.229 C 
ATOM     22  C   UNL A   1      33.413  17.042  23.466  1.00  0.00     0.049 C 
ENDBRANCH  20  21
ENDBRANCH  18  20
ENDBRANCH  17  18
ENDBRANCH  16  17
ENDBRANCH  10  16
ENDBRANCH   4   9
BRANCH   8  23
ATOM     23  O   UNL A   1      38.504  19.536  25.065  1.00  0.00    -0.507 OA
ATOM     24  H   UNL A   1      38.155  19.207  24.260  1.00  0.00     0.293 HD
ENDBRANCH   8  23
ENDBRANCH   1   3
BRANCH   1  25
ATOM     25  O   UNL A   1      41.318  21.097  25.442  1.00  0.00    -0.458 OA
BRANCH  25  26
ATOM     26  C   UNL A   1      42.667  20.664  25.739  1.00  0.00     0.275 C 
BRANCH  26  27
ATOM     27  C   UNL A   1      43.677  21.804  25.589  1.00  0.00     0.275 C 
BRANCH  27  28
ATOM     28  O   UNL A   1      43.088  22.908  24.876  1.00  0.00    -0.458 OA
BRANCH  28  29
ATOM     29  C   UNL A   1      43.718  24.096  25.007  1.00  0.00     0.338 C 
ATOM     30  O   UNL A   1      44.755  24.449  24.472  1.00  0.00    -0.246 OA
BRANCH  29  31
ATOM     31  C   UNL A   1      42.923  25.004  25.852  1.00  0.00     0.060 A 
ATOM     32  C   UNL A   1      43.288  26.344  25.889  1.00  0.00     0.016 A 
ATOM     33  C   UNL A   1      41.975  24.521  26.749  1.00  0.00     0.016 A 
ATOM     34  C   UNL A   1      42.820  27.180  26.899  1.00  0.00     0.010 A 
ATOM     35  C   UNL A   1      41.417  25.391  27.698  1.00  0.00     0.010 A 
ATOM     36  C   UNL A   1      41.880  26.716  27.829  1.00  0.00    -0.014 A 
BRANCH  36  37
ATOM     37  C   UNL A   1      41.472  27.580  28.981  1.00  0.00     0.031 A 
ATOM     38  C   UNL A   1      42.274  27.562  30.263  1.00  0.00     0.074 A 
ATOM     39  C   UNL A   1      40.428  28.429  28.882  1.00  0.00     0.049 A 
ATOM     40  N   UNL A   1      42.009  28.127  31.416  1.00  0.00    -0.248 NA
ATOM     41  C   UNL A   1      43.530  26.798  30.250  1.00  0.00     0.031 C 
ATOM     42  C   UNL A   1      39.585  28.608  27.699  1.00  0.00     0.029 A 
ATOM     43  N   UNL A   1      39.910  29.322  29.791  1.00  0.00    -0.354 N 
ATOM     44  C   UNL A   1      43.030  27.734  32.276  1.00  0.00     0.074 A 
ATOM     45  C   UNL A   1      43.912  26.876  31.516  1.00  0.00     0.031 C 
ATOM     46  C   UNL A   1      38.694  29.584  27.935  1.00  0.00     0.029 A 
ATOM     47  C   UNL A   1      38.841  30.042  29.313  1.00  0.00     0.049 A 
ATOM     48  H   UNL A   1      40.271  29.435  30.700  1.00  0.00     0.167 HD
ATOM     49  C   UNL A   1      43.223  28.061  33.578  1.00  0.00     0.037 A 
ATOM     50  C   UNL A   1      38.043  30.943  29.917  1.00  0.00     0.037 A 
ATOM     51  C   UNL A   1      42.396  28.975  34.321  1.00  0.00     0.049 A 
ATOM     52  C   UNL A   1      38.261  31.274  31.367  1.00  0.00     0.074 A 
ATOM     53  C   UNL A   1      42.524  29.378  35.641  1.00  0.00     0.029 A 
ATOM     54  N   UNL A   1      41.300  29.649  33.805  1.00  0.00    -0.354 N 
ATOM     55  N   UNL A   1      39.191  30.841  32.183  1.00  0.00    -0.248 NA
ATOM     56  C   UNL A   1      37.305  32.204  31.985  1.00  0.00     0.031 C 
ATOM     57  C   UNL A   1      41.490  30.275  35.930  1.00  0.00     0.029 A 
ATOM     58  C   UNL A   1      40.740  30.459  34.780  1.00  0.00     0.049 A 
ATOM     59  H   UNL A   1      40.970  29.566  32.880  1.00  0.00     0.167 HD
ATOM     60  C   UNL A   1      38.936  31.451  33.405  1.00  0.00     0.074 A 
ATOM     61  C   UNL A   1      37.782  32.304  33.217  1.00  0.00     0.031 C 
ATOM     62  C   UNL A   1      39.595  31.307  34.580  1.00  0.00     0.037 A 
BRANCH  49  63
ATOM     63  C   UNL A   1      44.367  27.405  34.296  1.00  0.00     0.057 A 
ATOM     64  C   UNL A   1      44.242  26.160  34.921  1.00  0.00     0.134 A 
ATOM     65  C   UNL A   1      45.626  28.023  34.331  1.00  0.00     0.134 A 
ATOM     66  F   UNL A   1      43.062  25.522  34.934  1.00  0.00    -0.206 F 
ATOM     67  C   UNL A   1      45.320  25.560  35.577  1.00  0.00     0.040 A 
ATOM     68  C   UNL A   1      46.717  27.422  34.962  1.00  0.00     0.040 A 
ATOM     69  F   UNL A   1      45.817  29.214  33.745  1.00  0.00    -0.206 F 
ATOM     70  C   UNL A   1      46.564  26.190  35.592  1.00  0.00     0.006 A 
ENDBRANCH  49  63
BRANCH  50  71
ATOM     71  C   UNL A   1      36.928  31.575  29.165  1.00  0.00     0.057 A 
ATOM     72  C   UNL A   1      37.019  32.895  28.709  1.00  0.00     0.134 A 
ATOM     73  C   UNL A   1      35.739  30.883  28.904  1.00  0.00     0.134 A 
ATOM     74  F   UNL A   1      38.120  33.619  28.953  1.00  0.00    -0.206 F 
ATOM     75  C   UNL A   1      35.964  33.509  28.031  1.00  0.00     0.040 A 
ATOM     76  C   UNL A   1      34.687  31.474  28.202  1.00  0.00     0.040 A 
ATOM     77  F   UNL A   1      35.587  29.617  29.316  1.00  0.00    -0.206 F 
ATOM     78  C   UNL A   1      34.796  32.794  27.770  1.00  0.00     0.006 A 
ENDBRANCH  50  71
BRANCH  62  79
ATOM     79  C   UNL A   1      39.097  32.111  35.745  1.00  0.00     0.057 A 
ATOM     80  C   UNL A   1      39.468  33.449  35.929  1.00  0.00     0.134 A 
ATOM     81  C   UNL A   1      38.222  31.547  36.681  1.00  0.00     0.134 A 
ATOM     82  F   UNL A   1      40.315  34.043  35.075  1.00  0.00    -0.206 F 
ATOM     83  C   UNL A   1      39.006  34.190  37.018  1.00  0.00     0.040 A 
ATOM     84  C   UNL A   1      37.734  32.284  37.761  1.00  0.00     0.040 A 
ATOM     85  F   UNL A   1      37.822  30.271  36.558  1.00  0.00    -0.206 F 
ATOM     86  C   UNL A   1      38.132  33.609  37.935  1.00  0.00     0.006 A 
ENDBRANCH  62  79
ENDBRANCH  36  37
ENDBRANCH  29  31
ENDBRANCH  28  29
ENDBRANCH  27  28
ENDBRANCH  26  27
ENDBRANCH  25  26
ENDBRANCH   1  25
TORSDOF 18
ENDMDL
MODEL 3
REMARK VINA RESULT:     -10.9      0.962      1.544
REMARK SMILES CCOC(=O)CS[C@H]1CC(=O)N(c2ccc(C(=O)OCCOC(=O)c3ccc(-c4c5nc(c(-c6c(F)cccc6F)c6ccc([nH]6)c(-c6c(F)cccc6F)c6nc(c(-c7c(F)cccc7F)c7ccc4[nH]7)C=C6)C=C5)cc3)c(O)c2)C1=O
REMARK SMILES IDX 17 1 18 2 16 3 13 4 14 5 81 6 15 7 79 8 12 9 8 10 9 11 82 12
REMARK SMILES IDX 10 13 83 14 11 15 7 16 6 17 4 18 5 19 3 20 2 21 1 22 80 23
REMARK SMILES IDX 19 25 20 26 21 27 22 28 23 29 24 30 25 31 26 32 78 33 27 34
REMARK SMILES IDX 77 35 28 36 29 37 30 38 71 39 31 40 76 41 70 42 72 43 32 44
REMARK SMILES IDX 75 45 69 46 68 47 33 49 59 50 42 51 58 52 43 53 46 54 57 55
REMARK SMILES IDX 73 56 44 57 45 58 56 60 74 61 47 62 34 63 35 64 40 65 36 66
REMARK SMILES IDX 37 67 39 68 41 69 38 70 60 71 61 72 66 73 62 74 63 75 65 76
REMARK SMILES IDX 67 77 64 78 48 79 49 80 54 81 50 82 51 83 53 84 55 85 52 86
REMARK H PARENT 80 24 72 48 46 59
REMARK Flexibility Score: inf
ROOT
ATOM      1  C   UNL A   1      41.248  20.723  26.999  1.00  0.00     0.342 C 
ATOM      2  O   UNL A   1      41.375  19.881  27.866  1.00  0.00    -0.246 OA
ENDROOT
BRANCH   1   3
ATOM      3  C   UNL A   1      39.939  21.030  26.373  1.00  0.00     0.101 A 
ATOM      4  C   UNL A   1      37.454  21.816  25.304  1.00  0.00     0.055 A 
ATOM      5  C   UNL A   1      38.297  22.748  25.909  1.00  0.00     0.028 A 
ATOM      6  C   UNL A   1      37.863  20.478  25.233  1.00  0.00     0.074 A 
ATOM      7  C   UNL A   1      39.478  22.341  26.514  1.00  0.00     0.022 A 
ATOM      8  C   UNL A   1      39.134  20.104  25.704  1.00  0.00     0.132 A 
BRANCH   4   9
ATOM      9  N   UNL A   1      36.206  22.259  24.816  1.00  0.00    -0.249 N 
ATOM     10  C   UNL A   1      33.957  22.855  24.697  1.00  0.00     0.146 C 
ATOM     11  C   UNL A   1      34.666  23.402  23.473  1.00  0.00     0.125 C 
ATOM     12  C   UNL A   1      35.041  22.241  25.549  1.00  0.00     0.247 C 
ATOM     13  C   UNL A   1      36.069  22.907  23.612  1.00  0.00     0.235 C 
ATOM     14  O   UNL A   1      34.885  21.826  26.689  1.00  0.00    -0.273 OA
ATOM     15  O   UNL A   1      36.921  23.080  22.751  1.00  0.00    -0.274 OA
BRANCH  10  16
ATOM     16  S   UNL A   1      32.859  24.110  25.434  1.00  0.00    -0.136 SA
BRANCH  16  17
ATOM     17  C   UNL A   1      33.566  25.717  24.969  1.00  0.00     0.192 C 
BRANCH  17  18
ATOM     18  C   UNL A   1      32.697  26.558  24.065  1.00  0.00     0.315 C 
ATOM     19  O   UNL A   1      31.937  26.104  23.220  1.00  0.00    -0.251 OA
BRANCH  18  20
ATOM     20  O   UNL A   1      32.810  27.879  24.376  1.00  0.00    -0.465 OA
BRANCH  20  21
ATOM     21  C   UNL A   1      32.025  28.320  25.495  1.00  0.00     0.229 C 
ATOM     22  C   UNL A   1      31.811  29.821  25.471  1.00  0.00     0.049 C 
ENDBRANCH  20  21
ENDBRANCH  18  20
ENDBRANCH  17  18
ENDBRANCH  16  17
ENDBRANCH  10  16
ENDBRANCH   4   9
BRANCH   8  23
ATOM     23  O   UNL A   1      39.512  18.809  25.482  1.00  0.00    -0.507 OA
ATOM     24  H   UNL A   1      40.420  18.577  25.497  1.00  0.00     0.293 HD
ENDBRANCH   8  23
ENDBRANCH   1   3
BRANCH   1  25
ATOM     25  O   UNL A   1      42.214  21.569  26.548  1.00  0.00    -0.458 OA
BRANCH  25  26
ATOM     26  C   UNL A   1      43.215  20.958  25.700  1.00  0.00     0.275 C 
BRANCH  26  27
ATOM     27  C   UNL A   1      44.103  22.004  25.021  1.00  0.00     0.275 C 
BRANCH  27  28
ATOM     28  O   UNL A   1      43.349  23.198  24.742  1.00  0.00    -0.458 OA
BRANCH  28  29
ATOM     29  C   UNL A   1      43.982  24.366  24.994  1.00  0.00     0.338 C 
ATOM     30  O   UNL A   1      45.053  24.741  24.549  1.00  0.00    -0.246 OA
BRANCH  29  31
ATOM     31  C   UNL A   1      43.145  25.222  25.852  1.00  0.00     0.060 A 
ATOM     32  C   UNL A   1      43.419  26.584  25.875  1.00  0.00     0.016 A 
ATOM     33  C   UNL A   1      42.252  24.682  26.772  1.00  0.00     0.016 A 
ATOM     34  C   UNL A   1      42.917  27.393  26.891  1.00  0.00     0.010 A 
ATOM     35  C   UNL A   1      41.656  25.518  27.729  1.00  0.00     0.010 A 
ATOM     36  C   UNL A   1      42.031  26.872  27.844  1.00  0.00    -0.014 A 
BRANCH  36  37
ATOM     37  C   UNL A   1      41.590  27.714  29.001  1.00  0.00     0.031 A 
ATOM     38  C   UNL A   1      42.393  27.721  30.282  1.00  0.00     0.074 A 
ATOM     39  C   UNL A   1      40.514  28.522  28.906  1.00  0.00     0.049 A 
ATOM     40  N   UNL A   1      42.107  28.268  31.438  1.00  0.00    -0.248 NA
ATOM     41  C   UNL A   1      43.679  27.007  30.265  1.00  0.00     0.031 C 
ATOM     42  C   UNL A   1      39.663  28.673  27.725  1.00  0.00     0.029 A 
ATOM     43  N   UNL A   1      39.961  29.389  29.820  1.00  0.00    -0.354 N 
ATOM     44  C   UNL A   1      43.143  27.912  32.296  1.00  0.00     0.074 A 
ATOM     45  C   UNL A   1      44.058  27.093  31.531  1.00  0.00     0.031 C 
ATOM     46  C   UNL A   1      38.735  29.612  27.966  1.00  0.00     0.029 A 
ATOM     47  C   UNL A   1      38.864  30.068  29.346  1.00  0.00     0.049 A 
ATOM     48  H   UNL A   1      40.318  29.511  30.730  1.00  0.00     0.167 HD
ATOM     49  C   UNL A   1      43.324  28.239  33.599  1.00  0.00     0.037 A 
ATOM     50  C   UNL A   1      38.032  30.934  29.956  1.00  0.00     0.037 A 
ATOM     51  C   UNL A   1      42.462  29.116  34.347  1.00  0.00     0.049 A 
ATOM     52  C   UNL A   1      38.238  31.266  31.407  1.00  0.00     0.074 A 
ATOM     53  C   UNL A   1      42.575  29.517  35.669  1.00  0.00     0.029 A 
ATOM     54  N   UNL A   1      41.341  29.750  33.835  1.00  0.00    -0.354 N 
ATOM     55  N   UNL A   1      39.184  30.866  32.221  1.00  0.00    -0.248 NA
ATOM     56  C   UNL A   1      37.247  32.155  32.030  1.00  0.00     0.031 C 
ATOM     57  C   UNL A   1      41.506  30.371  35.963  1.00  0.00     0.029 A 
ATOM     58  C   UNL A   1      40.750  30.532  34.814  1.00  0.00     0.049 A 
ATOM     59  H   UNL A   1      41.013  29.658  32.910  1.00  0.00     0.167 HD
ATOM     60  C   UNL A   1      38.907  31.459  33.446  1.00  0.00     0.074 A 
ATOM     61  C   UNL A   1      37.720  32.267  33.263  1.00  0.00     0.031 C 
ATOM     62  C   UNL A   1      39.572  31.335  34.620  1.00  0.00     0.037 A 
BRANCH  49  63
ATOM     63  C   UNL A   1      44.494  27.625  34.313  1.00  0.00     0.057 A 
ATOM     64  C   UNL A   1      45.735  28.266  34.402  1.00  0.00     0.134 A 
ATOM     65  C   UNL A   1      44.360  26.383  34.950  1.00  0.00     0.134 A 
ATOM     66  F   UNL A   1      45.933  29.450  33.804  1.00  0.00    -0.206 F 
ATOM     67  C   UNL A   1      46.810  27.684  35.078  1.00  0.00     0.040 A 
ATOM     68  C   UNL A   1      45.419  25.803  35.650  1.00  0.00     0.040 A 
ATOM     69  F   UNL A   1      43.195  25.720  34.910  1.00  0.00    -0.206 F 
ATOM     70  C   UNL A   1      46.650  26.451  35.710  1.00  0.00     0.006 A 
ENDBRANCH  49  63
BRANCH  50  71
ATOM     71  C   UNL A   1      36.892  31.526  29.208  1.00  0.00     0.057 A 
ATOM     72  C   UNL A   1      35.733  30.785  28.949  1.00  0.00     0.134 A 
ATOM     73  C   UNL A   1      36.943  32.836  28.717  1.00  0.00     0.134 A 
ATOM     74  F   UNL A   1      35.635  29.516  29.368  1.00  0.00    -0.206 F 
ATOM     75  C   UNL A   1      34.671  31.321  28.218  1.00  0.00     0.040 A 
ATOM     76  C   UNL A   1      35.877  33.395  28.010  1.00  0.00     0.040 A 
ATOM     77  F   UNL A   1      38.026  33.598  28.929  1.00  0.00    -0.206 F 
ATOM     78  C   UNL A   1      34.740  32.634  27.753  1.00  0.00     0.006 A 
ENDBRANCH  50  71
BRANCH  62  79
ATOM     79  C   UNL A   1      39.043  32.112  35.789  1.00  0.00     0.057 A 
ATOM     80  C   UNL A   1      38.192  31.529  36.736  1.00  0.00     0.134 A 
ATOM     81  C   UNL A   1      39.402  33.452  35.979  1.00  0.00     0.134 A 
ATOM     82  F   UNL A   1      37.798  30.253  36.603  1.00  0.00    -0.206 F 
ATOM     83  C   UNL A   1      37.698  32.258  37.819  1.00  0.00     0.040 A 
ATOM     84  C   UNL A   1      38.935  34.185  37.070  1.00  0.00     0.040 A 
ATOM     85  F   UNL A   1      40.220  34.068  35.110  1.00  0.00    -0.206 F 
ATOM     86  C   UNL A   1      38.074  33.590  37.991  1.00  0.00     0.006 A 
ENDBRANCH  62  79
ENDBRANCH  36  37
ENDBRANCH  29  31
ENDBRANCH  28  29
ENDBRANCH  27  28
ENDBRANCH  26  27
ENDBRANCH  25  26
ENDBRANCH   1  25
TORSDOF 18
ENDMDL
