MODEL 1
REMARK VINA RESULT:     -11.3      0.000      0.000
REMARK SMILES Cc1ccc(S(C)(=O)=O)cc1C(=O)NCCOCC(=O)OCCOC(=O)c1ccc(-c2c3nc(c(-c4c(F)cccc4F)c4ccc([nH]4)c(-c4c(F)cccc4F)c4nc(c(-c5c(F)cccc5F)c5ccc2[nH]5)C=C4)C=C3)cc1
REMARK SMILES IDX 19 1 20 2 18 3 17 4 16 5 15 6 14 7 12 8 13 9 11 11 1 12 2 13
REMARK SMILES IDX 3 14 4 15 10 16 5 17 6 18 7 19 8 20 9 21 21 22 22 23 23 24
REMARK SMILES IDX 24 25 25 26 26 27 27 28 28 29 80 30 29 31 79 32 30 33 31 34
REMARK SMILES IDX 32 35 73 36 33 37 78 38 72 39 74 40 34 41 77 42 71 43 70 44
REMARK SMILES IDX 35 46 61 47 44 48 60 49 45 50 48 51 59 52 75 53 46 54 47 55
REMARK SMILES IDX 58 57 76 58 49 59 36 60 37 61 42 62 38 63 39 64 41 65 43 66
REMARK SMILES IDX 40 67 62 68 63 69 68 70 64 71 65 72 67 73 69 74 66 75 50 76
REMARK SMILES IDX 51 77 56 78 52 79 53 80 55 81 57 82 54 83
REMARK H PARENT 14 10 74 45 48 56
REMARK Flexibility Score: inf
ROOT
ATOM      1  C   UNL A   1      32.904  28.457  24.395  1.00  0.00     0.332 C 
ATOM      2  O   UNL A   1      33.645  27.710  23.763  1.00  0.00    -0.250 OA
ENDROOT
BRANCH   1   3
ATOM      3  C   UNL A   1      31.431  28.131  24.696  1.00  0.00     0.282 C 
BRANCH   3   4
ATOM      4  O   UNL A   1      31.011  26.818  25.020  1.00  0.00    -0.368 OA
BRANCH   4   5
ATOM      5  C   UNL A   1      31.561  26.286  26.226  1.00  0.00     0.182 C 
BRANCH   5   6
ATOM      6  C   UNL A   1      32.399  25.016  25.991  1.00  0.00     0.144 C 
BRANCH   6   7
ATOM      7  N   UNL A   1      32.320  24.534  24.617  1.00  0.00    -0.350 N 
ATOM      8  C   UNL A   1      32.788  23.499  23.851  1.00  0.00     0.251 C 
ATOM      9  O   UNL A   1      32.372  23.567  22.683  1.00  0.00    -0.269 OA
ATOM     10  H   UNL A   1      31.760  25.136  24.075  1.00  0.00     0.163 HD
BRANCH   8  11
ATOM     11  C   UNL A   1      33.662  22.313  24.214  1.00  0.00     0.044 A 
ATOM     12  C   UNL A   1      36.030  23.341  24.357  1.00  0.00     0.045 C 
ATOM     13  C   UNL A   1      35.037  22.240  24.522  1.00  0.00    -0.038 A 
ATOM     14  C   UNL A   1      35.616  21.005  24.909  1.00  0.00     0.005 A 
ATOM     15  C   UNL A   1      34.910  19.813  24.845  1.00  0.00     0.020 A 
ATOM     16  C   UNL A   1      32.974  21.070  24.125  1.00  0.00     0.034 A 
ATOM     17  C   UNL A   1      33.606  19.846  24.383  1.00  0.00     0.067 A 
BRANCH  17  18
ATOM     18  S   UNL A   1      32.787  18.306  24.048  1.00  0.00     0.175 S 
ATOM     19  C   UNL A   1      34.118  17.146  23.823  1.00  0.00     0.163 C 
ATOM     20  O   UNL A   1      32.069  17.942  25.255  1.00  0.00    -0.224 OA
ATOM     21  O   UNL A   1      32.106  18.424  22.774  1.00  0.00    -0.224 OA
ENDBRANCH  17  18
ENDBRANCH   8  11
ENDBRANCH   6   7
ENDBRANCH   5   6
ENDBRANCH   4   5
ENDBRANCH   3   4
ENDBRANCH   1   3
BRANCH   1  22
ATOM     22  O   UNL A   1      33.318  29.607  25.000  1.00  0.00    -0.460 OA
BRANCH  22  23
ATOM     23  C   UNL A   1      33.356  29.544  26.429  1.00  0.00     0.274 C 
BRANCH  23  24
ATOM     24  C   UNL A   1      34.784  29.325  26.947  1.00  0.00     0.275 C 
BRANCH  24  25
ATOM     25  O   UNL A   1      35.523  30.488  27.423  1.00  0.00    -0.458 OA
BRANCH  25  26
ATOM     26  C   UNL A   1      36.270  30.642  28.548  1.00  0.00     0.338 C 
ATOM     27  O   UNL A   1      35.975  31.426  29.425  1.00  0.00    -0.246 OA
BRANCH  26  28
ATOM     28  C   UNL A   1      37.435  29.768  28.695  1.00  0.00     0.060 A 
ATOM     29  C   UNL A   1      37.574  28.937  29.819  1.00  0.00     0.016 A 
ATOM     30  C   UNL A   1      38.356  29.749  27.663  1.00  0.00     0.016 A 
ATOM     31  C   UNL A   1      38.601  27.999  29.857  1.00  0.00     0.010 A 
ATOM     32  C   UNL A   1      39.274  28.733  27.630  1.00  0.00     0.010 A 
ATOM     33  C   UNL A   1      39.432  27.891  28.743  1.00  0.00    -0.014 A 
BRANCH  33  34
ATOM     34  C   UNL A   1      40.675  27.140  28.733  1.00  0.00     0.031 A 
ATOM     35  C   UNL A   1      40.759  25.710  28.408  1.00  0.00     0.074 A 
ATOM     36  C   UNL A   1      41.759  27.884  29.045  1.00  0.00     0.049 A 
ATOM     37  N   UNL A   1      41.595  24.903  28.966  1.00  0.00    -0.248 NA
ATOM     38  C   UNL A   1      39.892  25.058  27.430  1.00  0.00     0.031 C 
ATOM     39  C   UNL A   1      43.170  27.578  28.949  1.00  0.00     0.029 A 
ATOM     40  N   UNL A   1      41.725  29.122  29.683  1.00  0.00    -0.354 N 
ATOM     41  C   UNL A   1      41.604  23.752  28.211  1.00  0.00     0.074 A 
ATOM     42  C   UNL A   1      40.440  23.837  27.359  1.00  0.00     0.031 C 
ATOM     43  C   UNL A   1      43.849  28.456  29.714  1.00  0.00     0.029 A 
ATOM     44  C   UNL A   1      42.875  29.264  30.442  1.00  0.00     0.049 A 
ATOM     45  H   UNL A   1      41.002  29.786  29.606  1.00  0.00     0.167 HD
ATOM     46  C   UNL A   1      42.707  22.950  28.215  1.00  0.00     0.037 A 
ATOM     47  C   UNL A   1      42.739  29.341  31.799  1.00  0.00     0.037 A 
ATOM     48  C   UNL A   1      43.760  23.531  29.038  1.00  0.00     0.049 A 
ATOM     49  C   UNL A   1      43.347  28.135  32.469  1.00  0.00     0.074 A 
ATOM     50  C   UNL A   1      44.811  24.369  28.699  1.00  0.00     0.029 A 
ATOM     51  N   UNL A   1      43.604  23.631  30.415  1.00  0.00    -0.354 N 
ATOM     52  N   UNL A   1      43.464  26.968  31.897  1.00  0.00    -0.248 NA
ATOM     53  C   UNL A   1      43.913  28.168  33.812  1.00  0.00     0.031 C 
ATOM     54  C   UNL A   1      45.239  25.033  29.871  1.00  0.00     0.029 A 
ATOM     55  C   UNL A   1      44.466  24.583  30.926  1.00  0.00     0.049 A 
ATOM     56  H   UNL A   1      42.969  23.102  30.951  1.00  0.00     0.167 HD
ATOM     57  C   UNL A   1      44.162  26.130  32.723  1.00  0.00     0.074 A 
ATOM     58  C   UNL A   1      44.405  26.920  33.917  1.00  0.00     0.031 C 
ATOM     59  C   UNL A   1      44.521  24.868  32.349  1.00  0.00     0.037 A 
BRANCH  46  60
ATOM     60  C   UNL A   1      42.933  21.878  27.179  1.00  0.00     0.057 A 
ATOM     61  C   UNL A   1      42.204  20.673  27.192  1.00  0.00     0.134 A 
ATOM     62  C   UNL A   1      43.887  21.982  26.152  1.00  0.00     0.134 A 
ATOM     63  F   UNL A   1      41.227  20.446  28.076  1.00  0.00    -0.206 F 
ATOM     64  C   UNL A   1      42.454  19.621  26.303  1.00  0.00     0.040 A 
ATOM     65  C   UNL A   1      44.166  20.925  25.271  1.00  0.00     0.040 A 
ATOM     66  F   UNL A   1      44.579  23.117  25.967  1.00  0.00    -0.206 F 
ATOM     67  C   UNL A   1      43.454  19.734  25.350  1.00  0.00     0.006 A 
ENDBRANCH  46  60
BRANCH  47  68
ATOM     68  C   UNL A   1      41.488  30.040  32.241  1.00  0.00     0.057 A 
ATOM     69  C   UNL A   1      40.416  29.264  32.731  1.00  0.00     0.134 A 
ATOM     70  C   UNL A   1      41.434  31.413  32.511  1.00  0.00     0.134 A 
ATOM     71  F   UNL A   1      40.400  27.936  32.526  1.00  0.00    -0.206 F 
ATOM     72  C   UNL A   1      39.400  29.803  33.528  1.00  0.00     0.040 A 
ATOM     73  C   UNL A   1      40.412  31.967  33.296  1.00  0.00     0.040 A 
ATOM     74  F   UNL A   1      42.412  32.229  32.094  1.00  0.00    -0.206 F 
ATOM     75  C   UNL A   1      39.411  31.159  33.835  1.00  0.00     0.006 A 
ENDBRANCH  47  68
BRANCH  59  76
ATOM     76  C   UNL A   1      45.083  23.812  33.259  1.00  0.00     0.057 A 
ATOM     77  C   UNL A   1      46.381  23.851  33.782  1.00  0.00     0.134 A 
ATOM     78  C   UNL A   1      44.250  22.794  33.777  1.00  0.00     0.134 A 
ATOM     79  F   UNL A   1      47.240  24.826  33.457  1.00  0.00    -0.206 F 
ATOM     80  C   UNL A   1      46.836  22.913  34.716  1.00  0.00     0.040 A 
ATOM     81  C   UNL A   1      44.675  21.893  34.753  1.00  0.00     0.040 A 
ATOM     82  F   UNL A   1      42.977  22.649  33.381  1.00  0.00    -0.206 F 
ATOM     83  C   UNL A   1      45.978  21.941  35.216  1.00  0.00     0.006 A 
ENDBRANCH  59  76
ENDBRANCH  33  34
ENDBRANCH  26  28
ENDBRANCH  25  26
ENDBRANCH  24  25
ENDBRANCH  23  24
ENDBRANCH  22  23
ENDBRANCH   1  22
TORSDOF 17
ENDMDL
MODEL 2
REMARK VINA RESULT:     -11.3      4.389      9.843
REMARK SMILES Cc1ccc(S(C)(=O)=O)cc1C(=O)NCCOCC(=O)OCCOC(=O)c1ccc(-c2c3nc(c(-c4c(F)cccc4F)c4ccc([nH]4)c(-c4c(F)cccc4F)c4nc(c(-c5c(F)cccc5F)c5ccc2[nH]5)C=C4)C=C3)cc1
REMARK SMILES IDX 19 1 20 2 18 3 17 4 16 5 15 6 14 7 12 8 13 9 11 11 1 12 2 13
REMARK SMILES IDX 3 14 4 15 10 16 5 17 6 18 7 19 8 20 9 21 21 22 22 23 23 24
REMARK SMILES IDX 24 25 25 26 26 27 27 28 28 29 80 30 29 31 79 32 30 33 31 34
REMARK SMILES IDX 32 35 73 36 33 37 78 38 72 39 74 40 34 41 77 42 71 43 70 44
REMARK SMILES IDX 35 46 61 47 44 48 60 49 45 50 48 51 59 52 75 53 46 54 47 55
REMARK SMILES IDX 58 57 76 58 49 59 36 60 37 61 42 62 38 63 39 64 41 65 43 66
REMARK SMILES IDX 40 67 62 68 63 69 68 70 64 71 65 72 67 73 69 74 66 75 50 76
REMARK SMILES IDX 51 77 56 78 52 79 53 80 55 81 57 82 54 83
REMARK H PARENT 14 10 74 45 48 56
REMARK Flexibility Score: inf
ROOT
ATOM      1  C   UNL A   1      41.626  20.103  26.124  1.00  0.00     0.332 C 
ATOM      2  O   UNL A   1      42.451  19.283  26.516  1.00  0.00    -0.250 OA
ENDROOT
BRANCH   1   3
ATOM      3  C   UNL A   1      40.108  19.929  26.307  1.00  0.00     0.282 C 
BRANCH   3   4
ATOM      4  O   UNL A   1      39.332  19.167  25.399  1.00  0.00    -0.368 OA
BRANCH   4   5
ATOM      5  C   UNL A   1      38.133  19.799  24.948  1.00  0.00     0.182 C 
BRANCH   5   6
ATOM      6  C   UNL A   1      38.112  21.312  25.233  1.00  0.00     0.144 C 
BRANCH   6   7
ATOM      7  N   UNL A   1      37.433  22.073  24.191  1.00  0.00    -0.350 N 
ATOM      8  C   UNL A   1      36.204  22.627  23.942  1.00  0.00     0.251 C 
ATOM      9  O   UNL A   1      36.179  23.214  22.848  1.00  0.00    -0.269 OA
ATOM     10  H   UNL A   1      38.043  22.240  23.436  1.00  0.00     0.163 HD
BRANCH   8  11
ATOM     11  C   UNL A   1      34.945  22.664  24.786  1.00  0.00     0.044 A 
ATOM     12  C   UNL A   1      34.195  20.189  24.845  1.00  0.00     0.045 C 
ATOM     13  C   UNL A   1      34.119  21.621  25.258  1.00  0.00    -0.038 A 
ATOM     14  C   UNL A   1      33.021  21.911  26.108  1.00  0.00     0.005 A 
ATOM     15  C   UNL A   1      32.624  23.213  26.372  1.00  0.00     0.020 A 
ATOM     16  C   UNL A   1      34.491  23.988  25.047  1.00  0.00     0.034 A 
ATOM     17  C   UNL A   1      33.324  24.247  25.778  1.00  0.00     0.067 A 
BRANCH  17  18
ATOM     18  S   UNL A   1      32.667  25.893  25.895  1.00  0.00     0.175 S 
ATOM     19  C   UNL A   1      31.947  26.188  24.295  1.00  0.00     0.163 C 
ATOM     20  O   UNL A   1      31.596  25.848  26.872  1.00  0.00    -0.224 OA
ATOM     21  O   UNL A   1      33.778  26.814  26.037  1.00  0.00    -0.224 OA
ENDBRANCH  17  18
ENDBRANCH   8  11
ENDBRANCH   6   7
ENDBRANCH   5   6
ENDBRANCH   4   5
ENDBRANCH   3   4
ENDBRANCH   1   3
BRANCH   1  22
ATOM     22  O   UNL A   1      41.951  21.313  25.585  1.00  0.00    -0.460 OA
BRANCH  22  23
ATOM     23  C   UNL A   1      42.972  22.023  26.292  1.00  0.00     0.274 C 
BRANCH  23  24
ATOM     24  C   UNL A   1      42.703  23.534  26.302  1.00  0.00     0.275 C 
BRANCH  24  25
ATOM     25  O   UNL A   1      41.327  23.984  26.129  1.00  0.00    -0.458 OA
BRANCH  25  26
ATOM     26  C   UNL A   1      40.366  24.221  27.061  1.00  0.00     0.338 C 
ATOM     27  O   UNL A   1      39.656  23.343  27.502  1.00  0.00    -0.246 OA
BRANCH  26  28
ATOM     28  C   UNL A   1      40.257  25.589  27.568  1.00  0.00     0.060 A 
ATOM     29  C   UNL A   1      40.617  26.684  26.767  1.00  0.00     0.016 A 
ATOM     30  C   UNL A   1      39.732  25.762  28.837  1.00  0.00     0.016 A 
ATOM     31  C   UNL A   1      40.349  27.977  27.209  1.00  0.00     0.010 A 
ATOM     32  C   UNL A   1      39.334  27.019  29.209  1.00  0.00     0.010 A 
ATOM     33  C   UNL A   1      39.685  28.129  28.424  1.00  0.00    -0.014 A 
BRANCH  33  34
ATOM     34  C   UNL A   1      39.556  29.398  29.120  1.00  0.00     0.031 A 
ATOM     35  C   UNL A   1      38.488  30.369  28.848  1.00  0.00     0.074 A 
ATOM     36  C   UNL A   1      40.509  29.602  30.054  1.00  0.00     0.049 A 
ATOM     37  N   UNL A   1      38.658  31.646  28.909  1.00  0.00    -0.248 NA
ATOM     38  C   UNL A   1      37.132  29.984  28.466  1.00  0.00     0.031 C 
ATOM     39  C   UNL A   1      40.619  30.614  31.083  1.00  0.00     0.029 A 
ATOM     40  N   UNL A   1      41.717  28.912  30.132  1.00  0.00    -0.354 N 
ATOM     41  C   UNL A   1      37.405  32.216  28.907  1.00  0.00     0.074 A 
ATOM     42  C   UNL A   1      36.501  31.168  28.491  1.00  0.00     0.031 C 
ATOM     43  C   UNL A   1      41.896  30.647  31.514  1.00  0.00     0.029 A 
ATOM     44  C   UNL A   1      42.679  29.753  30.666  1.00  0.00     0.049 A 
ATOM     45  H   UNL A   1      41.863  27.979  29.852  1.00  0.00     0.167 HD
ATOM     46  C   UNL A   1      37.220  33.445  29.468  1.00  0.00     0.037 A 
ATOM     47  C   UNL A   1      43.732  30.107  29.871  1.00  0.00     0.037 A 
ATOM     48  C   UNL A   1      38.464  33.934  30.051  1.00  0.00     0.049 A 
ATOM     49  C   UNL A   1      43.694  31.581  29.555  1.00  0.00     0.074 A 
ATOM     50  C   UNL A   1      38.965  33.816  31.338  1.00  0.00     0.029 A 
ATOM     51  N   UNL A   1      39.540  34.267  29.237  1.00  0.00    -0.354 N 
ATOM     52  N   UNL A   1      42.600  32.292  29.533  1.00  0.00    -0.248 NA
ATOM     53  C   UNL A   1      44.890  32.372  29.292  1.00  0.00     0.031 C 
ATOM     54  C   UNL A   1      40.365  34.005  31.284  1.00  0.00     0.029 A 
ATOM     55  C   UNL A   1      40.713  34.262  29.970  1.00  0.00     0.049 A 
ATOM     56  H   UNL A   1      39.478  34.474  28.276  1.00  0.00     0.167 HD
ATOM     57  C   UNL A   1      42.922  33.607  29.335  1.00  0.00     0.074 A 
ATOM     58  C   UNL A   1      44.365  33.604  29.171  1.00  0.00     0.031 C 
ATOM     59  C   UNL A   1      41.987  34.600  29.360  1.00  0.00     0.037 A 
BRANCH  46  60
ATOM     60  C   UNL A   1      35.854  33.983  29.810  1.00  0.00     0.057 A 
ATOM     61  C   UNL A   1      34.980  34.466  28.815  1.00  0.00     0.134 A 
ATOM     62  C   UNL A   1      35.360  34.068  31.123  1.00  0.00     0.134 A 
ATOM     63  F   UNL A   1      35.287  34.406  27.515  1.00  0.00    -0.206 F 
ATOM     64  C   UNL A   1      33.745  35.056  29.106  1.00  0.00     0.040 A 
ATOM     65  C   UNL A   1      34.135  34.682  31.431  1.00  0.00     0.040 A 
ATOM     66  F   UNL A   1      36.049  33.553  32.152  1.00  0.00    -0.206 F 
ATOM     67  C   UNL A   1      33.327  35.188  30.420  1.00  0.00     0.006 A 
ENDBRANCH  46  60
BRANCH  47  68
ATOM     68  C   UNL A   1      44.160  29.028  28.921  1.00  0.00     0.057 A 
ATOM     69  C   UNL A   1      43.804  29.142  27.561  1.00  0.00     0.134 A 
ATOM     70  C   UNL A   1      45.160  28.096  29.225  1.00  0.00     0.134 A 
ATOM     71  F   UNL A   1      42.861  30.024  27.185  1.00  0.00    -0.206 F 
ATOM     72  C   UNL A   1      44.471  28.445  26.547  1.00  0.00     0.040 A 
ATOM     73  C   UNL A   1      45.826  27.380  28.219  1.00  0.00     0.040 A 
ATOM     74  F   UNL A   1      45.572  27.925  30.489  1.00  0.00    -0.206 F 
ATOM     75  C   UNL A   1      45.506  27.577  26.875  1.00  0.00     0.006 A 
ENDBRANCH  47  68
BRANCH  59  76
ATOM     76  C   UNL A   1      42.210  36.024  28.936  1.00  0.00     0.057 A 
ATOM     77  C   UNL A   1      42.966  36.943  29.674  1.00  0.00     0.134 A 
ATOM     78  C   UNL A   1      41.799  36.465  27.657  1.00  0.00     0.134 A 
ATOM     79  F   UNL A   1      43.507  36.618  30.855  1.00  0.00    -0.206 F 
ATOM     80  C   UNL A   1      43.250  38.227  29.197  1.00  0.00     0.040 A 
ATOM     81  C   UNL A   1      42.128  37.720  27.148  1.00  0.00     0.040 A 
ATOM     82  F   UNL A   1      41.084  35.683  26.833  1.00  0.00    -0.206 F 
ATOM     83  C   UNL A   1      42.845  38.614  27.925  1.00  0.00     0.006 A 
ENDBRANCH  59  76
ENDBRANCH  33  34
ENDBRANCH  26  28
ENDBRANCH  25  26
ENDBRANCH  24  25
ENDBRANCH  23  24
ENDBRANCH  22  23
ENDBRANCH   1  22
TORSDOF 17
ENDMDL
MODEL 3
REMARK VINA RESULT:     -11.2      4.020      9.530
REMARK SMILES Cc1ccc(S(C)(=O)=O)cc1C(=O)NCCOCC(=O)OCCOC(=O)c1ccc(-c2c3nc(c(-c4c(F)cccc4F)c4ccc([nH]4)c(-c4c(F)cccc4F)c4nc(c(-c5c(F)cccc5F)c5ccc2[nH]5)C=C4)C=C3)cc1
REMARK SMILES IDX 19 1 20 2 18 3 17 4 16 5 15 6 14 7 12 8 13 9 11 11 1 12 2 13
REMARK SMILES IDX 3 14 4 15 10 16 5 17 6 18 7 19 8 20 9 21 21 22 22 23 23 24
REMARK SMILES IDX 24 25 25 26 26 27 27 28 28 29 80 30 29 31 79 32 30 33 31 34
REMARK SMILES IDX 32 35 73 36 33 37 78 38 72 39 74 40 34 41 77 42 71 43 70 44
REMARK SMILES IDX 35 46 61 47 44 48 60 49 45 50 48 51 59 52 75 53 46 54 47 55
REMARK SMILES IDX 58 57 76 58 49 59 36 60 37 61 42 62 38 63 39 64 41 65 43 66
REMARK SMILES IDX 40 67 62 68 63 69 68 70 64 71 65 72 67 73 69 74 66 75 50 76
REMARK SMILES IDX 51 77 56 78 52 79 53 80 55 81 57 82 54 83
REMARK H PARENT 14 10 74 45 48 56
REMARK Flexibility Score: inf
ROOT
ATOM      1  C   UNL A   1      35.424  21.061  25.504  1.00  0.00     0.332 C 
ATOM      2  O   UNL A   1      35.947  20.190  24.817  1.00  0.00    -0.250 OA
ENDROOT
BRANCH   1   3
ATOM      3  C   UNL A   1      33.924  21.080  25.849  1.00  0.00     0.282 C 
BRANCH   3   4
ATOM      4  O   UNL A   1      32.929  21.042  24.842  1.00  0.00    -0.368 OA
BRANCH   4   5
ATOM      5  C   UNL A   1      31.872  21.990  24.998  1.00  0.00     0.182 C 
BRANCH   5   6
ATOM      6  C   UNL A   1      31.818  22.595  26.412  1.00  0.00     0.144 C 
BRANCH   6   7
ATOM      7  N   UNL A   1      30.804  23.636  26.542  1.00  0.00    -0.350 N 
ATOM      8  C   UNL A   1      30.670  24.986  26.345  1.00  0.00     0.251 C 
ATOM      9  O   UNL A   1      29.520  25.375  26.607  1.00  0.00    -0.269 OA
ATOM     10  H   UNL A   1      29.960  23.252  26.872  1.00  0.00     0.163 HD
BRANCH   8  11
ATOM     11  C   UNL A   1      31.659  26.016  25.835  1.00  0.00     0.044 A 
ATOM     12  C   UNL A   1      31.537  27.890  27.613  1.00  0.00     0.045 C 
ATOM     13  C   UNL A   1      32.110  27.225  26.406  1.00  0.00    -0.038 A 
ATOM     14  C   UNL A   1      33.113  27.989  25.757  1.00  0.00     0.005 A 
ATOM     15  C   UNL A   1      33.564  27.675  24.484  1.00  0.00     0.020 A 
ATOM     16  C   UNL A   1      32.115  25.740  24.515  1.00  0.00     0.034 A 
ATOM     17  C   UNL A   1      33.006  26.585  23.840  1.00  0.00     0.067 A 
BRANCH  17  18
ATOM     18  S   UNL A   1      33.381  26.333  22.122  1.00  0.00     0.175 S 
ATOM     19  C   UNL A   1      31.785  26.208  21.343  1.00  0.00     0.163 C 
ATOM     20  O   UNL A   1      34.020  27.546  21.650  1.00  0.00    -0.224 OA
ATOM     21  O   UNL A   1      34.022  25.040  21.984  1.00  0.00    -0.224 OA
ENDBRANCH  17  18
ENDBRANCH   8  11
ENDBRANCH   6   7
ENDBRANCH   5   6
ENDBRANCH   4   5
ENDBRANCH   3   4
ENDBRANCH   1   3
BRANCH   1  22
ATOM     22  O   UNL A   1      36.117  22.051  26.136  1.00  0.00    -0.460 OA
BRANCH  22  23
ATOM     23  C   UNL A   1      37.240  22.550  25.404  1.00  0.00     0.274 C 
BRANCH  23  24
ATOM     24  C   UNL A   1      37.896  23.739  26.118  1.00  0.00     0.275 C 
BRANCH  24  25
ATOM     25  O   UNL A   1      39.105  23.488  26.894  1.00  0.00    -0.458 OA
BRANCH  25  26
ATOM     26  C   UNL A   1      40.261  24.200  26.956  1.00  0.00     0.338 C 
ATOM     27  O   UNL A   1      41.318  23.764  26.553  1.00  0.00    -0.246 OA
BRANCH  26  28
ATOM     28  C   UNL A   1      40.173  25.562  27.483  1.00  0.00     0.060 A 
ATOM     29  C   UNL A   1      40.550  26.663  26.698  1.00  0.00     0.016 A 
ATOM     30  C   UNL A   1      39.652  25.725  28.755  1.00  0.00     0.016 A 
ATOM     31  C   UNL A   1      40.303  27.953  27.159  1.00  0.00     0.010 A 
ATOM     32  C   UNL A   1      39.274  26.982  29.145  1.00  0.00     0.010 A 
ATOM     33  C   UNL A   1      39.642  28.098  28.376  1.00  0.00    -0.014 A 
BRANCH  33  34
ATOM     34  C   UNL A   1      39.533  29.359  29.091  1.00  0.00     0.031 A 
ATOM     35  C   UNL A   1      38.473  30.344  28.843  1.00  0.00     0.074 A 
ATOM     36  C   UNL A   1      40.499  29.540  30.018  1.00  0.00     0.049 A 
ATOM     37  N   UNL A   1      38.657  31.618  28.920  1.00  0.00    -0.248 NA
ATOM     38  C   UNL A   1      37.109  29.979  28.470  1.00  0.00     0.031 C 
ATOM     39  C   UNL A   1      40.629  30.536  31.060  1.00  0.00     0.029 A 
ATOM     40  N   UNL A   1      41.700  28.836  30.073  1.00  0.00    -0.354 N 
ATOM     41  C   UNL A   1      37.410  32.201  28.939  1.00  0.00     0.074 A 
ATOM     42  C   UNL A   1      36.491  31.168  28.518  1.00  0.00     0.031 C 
ATOM     43  C   UNL A   1      41.911  30.550  31.477  1.00  0.00     0.029 A 
ATOM     44  C   UNL A   1      42.676  29.660  30.609  1.00  0.00     0.049 A 
ATOM     45  H   UNL A   1      41.833  27.906  29.779  1.00  0.00     0.167 HD
ATOM     46  C   UNL A   1      37.244  33.424  29.519  1.00  0.00     0.037 A 
ATOM     47  C   UNL A   1      43.724  30.015  29.807  1.00  0.00     0.037 A 
ATOM     48  C   UNL A   1      38.498  33.892  30.095  1.00  0.00     0.049 A 
ATOM     49  C   UNL A   1      43.699  31.493  29.513  1.00  0.00     0.074 A 
ATOM     50  C   UNL A   1      39.011  33.751  31.375  1.00  0.00     0.029 A 
ATOM     51  N   UNL A   1      39.569  34.225  29.275  1.00  0.00    -0.354 N 
ATOM     52  N   UNL A   1      42.612  32.215  29.512  1.00  0.00    -0.248 NA
ATOM     53  C   UNL A   1      44.899  32.276  29.248  1.00  0.00     0.031 C 
ATOM     54  C   UNL A   1      40.412  33.927  31.309  1.00  0.00     0.029 A 
ATOM     55  C   UNL A   1      40.749  34.198  29.995  1.00  0.00     0.049 A 
ATOM     56  H   UNL A   1      39.499  34.446  28.318  1.00  0.00     0.167 HD
ATOM     57  C   UNL A   1      42.945  33.530  29.329  1.00  0.00     0.074 A 
ATOM     58  C   UNL A   1      44.386  33.515  29.149  1.00  0.00     0.031 C 
ATOM     59  C   UNL A   1      42.020  34.531  29.377  1.00  0.00     0.037 A 
BRANCH  46  60
ATOM     60  C   UNL A   1      35.887  33.971  29.882  1.00  0.00     0.057 A 
ATOM     61  C   UNL A   1      35.007  34.474  28.903  1.00  0.00     0.134 A 
ATOM     62  C   UNL A   1      35.408  34.045  31.201  1.00  0.00     0.134 A 
ATOM     63  F   UNL A   1      35.298  34.427  27.599  1.00  0.00    -0.206 F 
ATOM     64  C   UNL A   1      33.781  35.073  29.215  1.00  0.00     0.040 A 
ATOM     65  C   UNL A   1      34.193  34.667  31.530  1.00  0.00     0.040 A 
ATOM     66  F   UNL A   1      36.104  33.511  32.216  1.00  0.00    -0.206 F 
ATOM     67  C   UNL A   1      33.378  35.193  30.535  1.00  0.00     0.006 A 
ENDBRANCH  46  60
BRANCH  47  68
ATOM     68  C   UNL A   1      44.131  28.944  28.839  1.00  0.00     0.057 A 
ATOM     69  C   UNL A   1      43.772  29.087  27.482  1.00  0.00     0.134 A 
ATOM     70  C   UNL A   1      45.117  27.992  29.124  1.00  0.00     0.134 A 
ATOM     71  F   UNL A   1      42.843  29.990  27.124  1.00  0.00    -0.206 F 
ATOM     72  C   UNL A   1      44.425  28.395  26.455  1.00  0.00     0.040 A 
ATOM     73  C   UNL A   1      45.767  27.281  28.103  1.00  0.00     0.040 A 
ATOM     74  F   UNL A   1      45.530  27.792  30.383  1.00  0.00    -0.206 F 
ATOM     75  C   UNL A   1      45.446  27.505  26.765  1.00  0.00     0.006 A 
ENDBRANCH  47  68
BRANCH  59  76
ATOM     76  C   UNL A   1      42.254  35.959  28.970  1.00  0.00     0.057 A 
ATOM     77  C   UNL A   1      43.017  36.863  29.718  1.00  0.00     0.134 A 
ATOM     78  C   UNL A   1      41.846  36.418  27.697  1.00  0.00     0.134 A 
ATOM     79  F   UNL A   1      43.555  36.520  30.896  1.00  0.00    -0.206 F 
ATOM     80  C   UNL A   1      43.310  38.151  29.257  1.00  0.00     0.040 A 
ATOM     81  C   UNL A   1      42.184  37.677  27.202  1.00  0.00     0.040 A 
ATOM     82  F   UNL A   1      41.125  35.652  26.863  1.00  0.00    -0.206 F 
ATOM     83  C   UNL A   1      42.908  38.556  27.990  1.00  0.00     0.006 A 
ENDBRANCH  59  76
ENDBRANCH  33  34
ENDBRANCH  26  28
ENDBRANCH  25  26
ENDBRANCH  24  25
ENDBRANCH  23  24
ENDBRANCH  22  23
ENDBRANCH   1  22
TORSDOF 17
ENDMDL
