MODEL 1
REMARK VINA RESULT:     -12.3      0.000      0.000
REMARK SMILES CC(C)Cc1cc2c(cc1Cl)C=C(C(=O)OCCOC(=O)c1ccc(-c3c4nc(c(-c5c(F)cccc5F)c5ccc([nH]5)c(-c5c(F)cccc5F)c5nc(c(-c6c(F)cccc6F)c6ccc3[nH]6)C=C5)C=C4)cc1)[C@H](C(F)(F)F)O2
REMARK SMILES IDX 17 1 16 2 14 3 15 4 13 5 5 6 6 7 10 8 7 9 9 10 11 11 8 12
REMARK SMILES IDX 81 13 12 14 76 15 4 16 2 17 1 18 3 19 77 20 78 21 79 22
REMARK SMILES IDX 80 23 18 24 19 25 20 26 21 27 22 28 23 29 75 30 24 31 74 32
REMARK SMILES IDX 25 33 26 34 27 35 68 36 28 37 73 38 67 39 69 40 29 41 72 42
REMARK SMILES IDX 66 43 65 44 30 46 56 47 39 48 55 49 40 50 43 51 54 52 70 53
REMARK SMILES IDX 41 54 42 55 53 57 71 58 44 59 31 60 32 61 37 62 33 63 34 64
REMARK SMILES IDX 36 65 38 66 35 67 57 68 58 69 63 70 59 71 60 72 62 73 64 74
REMARK SMILES IDX 61 75 45 76 46 77 51 78 47 79 48 80 50 81 52 82 49 83
REMARK H PARENT 69 45 43 56
REMARK Flexibility Score: inf
ROOT
ATOM      1  C   UNL A   1      35.310  20.733  25.157  1.00  0.00     0.275 C 
ENDROOT
BRANCH   1   2
ATOM      2  O   UNL A   1      35.184  22.025  25.794  1.00  0.00    -0.459 OA
BRANCH   2   3
ATOM      3  C   UNL A   1      34.176  22.134  26.687  1.00  0.00     0.338 C 
ATOM      4  O   UNL A   1      33.975  21.396  27.640  1.00  0.00    -0.246 OA
BRANCH   3   5
ATOM      5  C   UNL A   1      33.388  23.352  26.438  1.00  0.00     0.087 C 
ATOM      6  C   UNL A   1      32.086  28.041  25.213  1.00  0.00    -0.025 A 
ATOM      7  C   UNL A   1      31.528  27.069  26.074  1.00  0.00     0.052 A 
ATOM      8  C   UNL A   1      33.162  27.673  24.389  1.00  0.00     0.045 A 
ATOM      9  C   UNL A   1      32.106  25.805  26.184  1.00  0.00     0.128 A 
ATOM     10  C   UNL A   1      33.791  26.445  24.572  1.00  0.00     0.032 A 
ATOM     11  Cl  UNL A   1      33.797  28.704  23.158  1.00  0.00    -0.084 Cl
ATOM     12  C   UNL A   1      33.297  25.545  25.514  1.00  0.00     0.019 A 
ATOM     13  O   UNL A   1      31.525  24.881  27.016  1.00  0.00    -0.475 OA
ATOM     14  C   UNL A   1      34.051  24.364  25.867  1.00  0.00     0.027 C 
ATOM     15  C   UNL A   1      31.939  23.481  26.826  1.00  0.00     0.316 C 
BRANCH   6  16
ATOM     16  C   UNL A   1      31.596  29.472  25.296  1.00  0.00     0.040 C 
BRANCH  16  17
ATOM     17  C   UNL A   1      31.945  30.144  26.648  1.00  0.00    -0.013 C 
ATOM     18  C   UNL A   1      33.439  30.112  26.992  1.00  0.00     0.008 C 
ATOM     19  C   UNL A   1      31.476  31.601  26.647  1.00  0.00     0.008 C 
ENDBRANCH  16  17
ENDBRANCH   6  16
BRANCH  15  20
ATOM     20  C   UNL A   1      30.956  22.717  25.914  1.00  0.00     0.430 C 
ATOM     21  F   UNL A   1      29.802  22.395  26.538  1.00  0.00    -0.167 F 
ATOM     22  F   UNL A   1      30.631  23.469  24.831  1.00  0.00    -0.167 F 
ATOM     23  F   UNL A   1      31.484  21.562  25.443  1.00  0.00    -0.167 F 
ENDBRANCH  15  20
ENDBRANCH   3   5
ENDBRANCH   2   3
ENDBRANCH   1   2
BRANCH   1  24
ATOM     24  C   UNL A   1      36.780  20.340  24.982  1.00  0.00     0.275 C 
BRANCH  24  25
ATOM     25  O   UNL A   1      37.652  21.429  25.348  1.00  0.00    -0.458 OA
BRANCH  25  26
ATOM     26  C   UNL A   1      38.832  21.082  25.911  1.00  0.00     0.338 C 
ATOM     27  O   UNL A   1      39.364  19.986  25.917  1.00  0.00    -0.246 OA
BRANCH  26  28
ATOM     28  C   UNL A   1      39.478  22.281  26.468  1.00  0.00     0.060 A 
ATOM     29  C   UNL A   1      40.631  22.207  27.244  1.00  0.00     0.016 A 
ATOM     30  C   UNL A   1      38.968  23.522  26.095  1.00  0.00     0.016 A 
ATOM     31  C   UNL A   1      41.238  23.394  27.682  1.00  0.00     0.010 A 
ATOM     32  C   UNL A   1      39.581  24.704  26.510  1.00  0.00     0.010 A 
ATOM     33  C   UNL A   1      40.719  24.655  27.322  1.00  0.00    -0.014 A 
BRANCH  33  34
ATOM     34  C   UNL A   1      41.393  25.912  27.750  1.00  0.00     0.031 A 
ATOM     35  C   UNL A   1      42.797  26.241  27.313  1.00  0.00     0.074 A 
ATOM     36  C   UNL A   1      40.747  26.757  28.577  1.00  0.00     0.049 A 
ATOM     37  N   UNL A   1      43.481  27.345  27.492  1.00  0.00    -0.248 NA
ATOM     38  C   UNL A   1      43.544  25.183  26.617  1.00  0.00     0.031 C 
ATOM     39  C   UNL A   1      39.438  26.511  29.185  1.00  0.00     0.029 A 
ATOM     40  N   UNL A   1      41.097  28.003  29.037  1.00  0.00    -0.354 N 
ATOM     41  C   UNL A   1      44.733  27.115  26.934  1.00  0.00     0.074 A 
ATOM     42  C   UNL A   1      44.738  25.743  26.472  1.00  0.00     0.031 C 
ATOM     43  C   UNL A   1      39.066  27.597  29.880  1.00  0.00     0.029 A 
ATOM     44  C   UNL A   1      40.109  28.612  29.773  1.00  0.00     0.049 A 
ATOM     45  H   UNL A   1      41.971  28.420  28.855  1.00  0.00     0.167 HD
ATOM     46  C   UNL A   1      45.771  27.973  26.783  1.00  0.00     0.037 A 
ATOM     47  C   UNL A   1      40.034  29.862  30.265  1.00  0.00     0.037 A 
ATOM     48  C   UNL A   1      45.762  29.346  27.221  1.00  0.00     0.049 A 
ATOM     49  C   UNL A   1      41.157  30.828  30.010  1.00  0.00     0.074 A 
ATOM     50  C   UNL A   1      46.734  30.317  27.055  1.00  0.00     0.029 A 
ATOM     51  N   UNL A   1      44.719  29.941  27.914  1.00  0.00    -0.354 N 
ATOM     52  N   UNL A   1      42.284  30.637  29.369  1.00  0.00    -0.248 NA
ATOM     53  C   UNL A   1      40.983  32.193  30.528  1.00  0.00     0.031 C 
ATOM     54  C   UNL A   1      46.287  31.497  27.663  1.00  0.00     0.029 A 
ATOM     55  C   UNL A   1      45.023  31.267  28.181  1.00  0.00     0.049 A 
ATOM     56  H   UNL A   1      43.885  29.489  28.178  1.00  0.00     0.167 HD
ATOM     57  C   UNL A   1      42.939  31.861  29.380  1.00  0.00     0.074 A 
ATOM     58  C   UNL A   1      42.074  32.792  30.076  1.00  0.00     0.031 C 
ATOM     59  C   UNL A   1      44.149  32.186  28.862  1.00  0.00     0.037 A 
BRANCH  46  60
ATOM     60  C   UNL A   1      46.996  27.455  26.083  1.00  0.00     0.057 A 
ATOM     61  C   UNL A   1      48.060  26.895  26.801  1.00  0.00     0.134 A 
ATOM     62  C   UNL A   1      47.127  27.533  24.690  1.00  0.00     0.134 A 
ATOM     63  F   UNL A   1      48.009  26.802  28.137  1.00  0.00    -0.206 F 
ATOM     64  C   UNL A   1      49.204  26.420  26.155  1.00  0.00     0.040 A 
ATOM     65  C   UNL A   1      48.254  27.037  24.031  1.00  0.00     0.040 A 
ATOM     66  F   UNL A   1      46.142  28.054  23.942  1.00  0.00    -0.206 F 
ATOM     67  C   UNL A   1      49.299  26.481  24.766  1.00  0.00     0.006 A 
ENDBRANCH  46  60
BRANCH  47  68
ATOM     68  C   UNL A   1      38.805  30.310  30.965  1.00  0.00     0.057 A 
ATOM     69  C   UNL A   1      37.745  30.912  30.280  1.00  0.00     0.134 A 
ATOM     70  C   UNL A   1      38.663  30.127  32.347  1.00  0.00     0.134 A 
ATOM     71  F   UNL A   1      37.826  31.122  28.958  1.00  0.00    -0.206 F 
ATOM     72  C   UNL A   1      36.585  31.315  30.943  1.00  0.00     0.040 A 
ATOM     73  C   UNL A   1      37.500  30.505  33.019  1.00  0.00     0.040 A 
ATOM     74  F   UNL A   1      39.640  29.540  33.054  1.00  0.00    -0.206 F 
ATOM     75  C   UNL A   1      36.457  31.103  32.316  1.00  0.00     0.006 A 
ENDBRANCH  47  68
BRANCH  59  76
ATOM     76  C   UNL A   1      44.585  33.614  28.998  1.00  0.00     0.057 A 
ATOM     77  C   UNL A   1      44.263  34.553  28.013  1.00  0.00     0.134 A 
ATOM     78  C   UNL A   1      45.327  34.058  30.100  1.00  0.00     0.134 A 
ATOM     79  F   UNL A   1      43.560  34.191  26.929  1.00  0.00    -0.206 F 
ATOM     80  C   UNL A   1      44.656  35.888  28.121  1.00  0.00     0.040 A 
ATOM     81  C   UNL A   1      45.706  35.396  30.232  1.00  0.00     0.040 A 
ATOM     82  F   UNL A   1      45.655  33.210  31.086  1.00  0.00    -0.206 F 
ATOM     83  C   UNL A   1      45.372  36.314  29.237  1.00  0.00     0.006 A 
ENDBRANCH  59  76
ENDBRANCH  33  34
ENDBRANCH  26  28
ENDBRANCH  25  26
ENDBRANCH  24  25
ENDBRANCH   1  24
TORSDOF 14
ENDMDL
MODEL 2
REMARK VINA RESULT:     -12.3      4.035      9.078
REMARK SMILES CC(C)Cc1cc2c(cc1Cl)C=C(C(=O)OCCOC(=O)c1ccc(-c3c4nc(c(-c5c(F)cccc5F)c5ccc([nH]5)c(-c5c(F)cccc5F)c5nc(c(-c6c(F)cccc6F)c6ccc3[nH]6)C=C5)C=C4)cc1)[C@H](C(F)(F)F)O2
REMARK SMILES IDX 17 1 16 2 14 3 15 4 13 5 5 6 6 7 10 8 7 9 9 10 11 11 8 12
REMARK SMILES IDX 81 13 12 14 76 15 4 16 2 17 1 18 3 19 77 20 78 21 79 22
REMARK SMILES IDX 80 23 18 24 19 25 20 26 21 27 22 28 23 29 75 30 24 31 74 32
REMARK SMILES IDX 25 33 26 34 27 35 68 36 28 37 73 38 67 39 69 40 29 41 72 42
REMARK SMILES IDX 66 43 65 44 30 46 56 47 39 48 55 49 40 50 43 51 54 52 70 53
REMARK SMILES IDX 41 54 42 55 53 57 71 58 44 59 31 60 32 61 37 62 33 63 34 64
REMARK SMILES IDX 36 65 38 66 35 67 57 68 58 69 63 70 59 71 60 72 62 73 64 74
REMARK SMILES IDX 61 75 45 76 46 77 51 78 47 79 48 80 50 81 52 82 49 83
REMARK H PARENT 69 45 43 56
REMARK Flexibility Score: inf
ROOT
ATOM      1  C   UNL A   1      31.611  29.177  24.625  1.00  0.00     0.275 C 
ENDROOT
BRANCH   1   2
ATOM      2  O   UNL A   1      32.964  28.688  24.760  1.00  0.00    -0.459 OA
BRANCH   2   3
ATOM      3  C   UNL A   1      33.537  28.250  23.618  1.00  0.00     0.338 C 
ATOM      4  O   UNL A   1      34.041  28.949  22.750  1.00  0.00    -0.246 OA
BRANCH   3   5
ATOM      5  C   UNL A   1      33.590  26.779  23.591  1.00  0.00     0.087 C 
ATOM      6  C   UNL A   1      34.284  21.992  24.928  1.00  0.00    -0.025 A 
ATOM      7  C   UNL A   1      34.283  22.666  23.686  1.00  0.00     0.052 A 
ATOM      8  C   UNL A   1      33.899  22.700  26.078  1.00  0.00     0.045 A 
ATOM      9  C   UNL A   1      34.014  24.033  23.621  1.00  0.00     0.128 A 
ATOM     10  C   UNL A   1      33.726  24.080  26.022  1.00  0.00     0.032 A 
ATOM     11  Cl  UNL A   1      33.668  21.942  27.613  1.00  0.00    -0.084 Cl
ATOM     12  C   UNL A   1      33.848  24.745  24.804  1.00  0.00     0.019 A 
ATOM     13  O   UNL A   1      34.003  24.648  22.394  1.00  0.00    -0.475 OA
ATOM     14  C   UNL A   1      33.880  26.190  24.757  1.00  0.00     0.027 C 
ATOM     15  C   UNL A   1      33.370  25.976  22.337  1.00  0.00     0.316 C 
BRANCH   6  16
ATOM     16  C   UNL A   1      34.817  20.576  25.001  1.00  0.00     0.040 C 
BRANCH  16  17
ATOM     17  C   UNL A   1      33.849  19.543  24.370  1.00  0.00    -0.013 C 
ATOM     18  C   UNL A   1      34.423  18.123  24.282  1.00  0.00     0.008 C 
ATOM     19  C   UNL A   1      32.543  19.492  25.168  1.00  0.00     0.008 C 
ENDBRANCH  16  17
ENDBRANCH   6  16
BRANCH  15  20
ATOM     20  C   UNL A   1      31.898  25.883  21.880  1.00  0.00     0.430 C 
ATOM     21  F   UNL A   1      31.210  27.026  22.089  1.00  0.00    -0.167 F 
ATOM     22  F   UNL A   1      31.830  25.609  20.552  1.00  0.00    -0.167 F 
ATOM     23  F   UNL A   1      31.223  24.896  22.516  1.00  0.00    -0.167 F 
ENDBRANCH  15  20
ENDBRANCH   3   5
ENDBRANCH   2   3
ENDBRANCH   1   2
BRANCH   1  24
ATOM     24  C   UNL A   1      31.394  30.450  25.450  1.00  0.00     0.275 C 
BRANCH  24  25
ATOM     25  O   UNL A   1      32.154  30.406  26.675  1.00  0.00    -0.458 OA
BRANCH  25  26
ATOM     26  C   UNL A   1      32.698  31.577  27.079  1.00  0.00     0.338 C 
ATOM     27  O   UNL A   1      32.187  32.683  27.064  1.00  0.00    -0.246 OA
BRANCH  26  28
ATOM     28  C   UNL A   1      34.025  31.323  27.662  1.00  0.00     0.060 A 
ATOM     29  C   UNL A   1      34.893  32.356  28.002  1.00  0.00     0.016 A 
ATOM     30  C   UNL A   1      34.350  30.007  27.980  1.00  0.00     0.016 A 
ATOM     31  C   UNL A   1      36.114  32.048  28.622  1.00  0.00     0.010 A 
ATOM     32  C   UNL A   1      35.552  29.698  28.616  1.00  0.00     0.010 A 
ATOM     33  C   UNL A   1      36.458  30.715  28.933  1.00  0.00    -0.014 A 
BRANCH  33  34
ATOM     34  C   UNL A   1      37.734  30.397  29.632  1.00  0.00     0.031 A 
ATOM     35  C   UNL A   1      37.995  30.859  31.043  1.00  0.00     0.074 A 
ATOM     36  C   UNL A   1      38.692  29.713  28.977  1.00  0.00     0.049 A 
ATOM     37  N   UNL A   1      38.994  30.563  31.838  1.00  0.00    -0.248 NA
ATOM     38  C   UNL A   1      37.028  31.802  31.626  1.00  0.00     0.031 C 
ATOM     39  C   UNL A   1      38.633  29.314  27.570  1.00  0.00     0.029 A 
ATOM     40  N   UNL A   1      39.896  29.217  29.413  1.00  0.00    -0.354 N 
ATOM     41  C   UNL A   1      38.779  31.281  33.008  1.00  0.00     0.074 A 
ATOM     42  C   UNL A   1      37.591  32.080  32.795  1.00  0.00     0.031 C 
ATOM     43  C   UNL A   1      39.717  28.578  27.277  1.00  0.00     0.029 A 
ATOM     44  C   UNL A   1      40.547  28.458  28.471  1.00  0.00     0.049 A 
ATOM     45  H   UNL A   1      40.256  29.388  30.314  1.00  0.00     0.167 HD
ATOM     46  C   UNL A   1      39.479  31.252  34.169  1.00  0.00     0.037 A 
ATOM     47  C   UNL A   1      41.664  27.713  28.573  1.00  0.00     0.037 A 
ATOM     48  C   UNL A   1      40.649  30.440  34.393  1.00  0.00     0.049 A 
ATOM     49  C   UNL A   1      42.377  27.622  29.893  1.00  0.00     0.074 A 
ATOM     50  C   UNL A   1      41.389  30.286  35.552  1.00  0.00     0.029 A 
ATOM     51  N   UNL A   1      41.246  29.641  33.430  1.00  0.00    -0.354 N 
ATOM     52  N   UNL A   1      42.090  28.206  31.030  1.00  0.00    -0.248 NA
ATOM     53  C   UNL A   1      43.555  26.745  29.947  1.00  0.00     0.031 C 
ATOM     54  C   UNL A   1      42.446  29.407  35.286  1.00  0.00     0.029 A 
ATOM     55  C   UNL A   1      42.344  28.990  33.969  1.00  0.00     0.049 A 
ATOM     56  H   UNL A   1      40.935  29.550  32.500  1.00  0.00     0.167 HD
ATOM     57  C   UNL A   1      43.033  27.745  31.941  1.00  0.00     0.074 A 
ATOM     58  C   UNL A   1      43.888  26.820  31.226  1.00  0.00     0.031 C 
ATOM     59  C   UNL A   1      43.179  28.062  33.251  1.00  0.00     0.037 A 
BRANCH  46  60
ATOM     60  C   UNL A   1      38.974  32.104  35.299  1.00  0.00     0.057 A 
ATOM     61  C   UNL A   1      39.305  33.461  35.389  1.00  0.00     0.134 A 
ATOM     62  C   UNL A   1      38.171  31.567  36.315  1.00  0.00     0.134 A 
ATOM     63  F   UNL A   1      40.080  34.039  34.459  1.00  0.00    -0.206 F 
ATOM     64  C   UNL A   1      38.844  34.256  36.441  1.00  0.00     0.040 A 
ATOM     65  C   UNL A   1      37.683  32.357  37.357  1.00  0.00     0.040 A 
ATOM     66  F   UNL A   1      37.813  30.274  36.286  1.00  0.00    -0.206 F 
ATOM     67  C   UNL A   1      38.023  33.706  37.424  1.00  0.00     0.006 A 
ENDBRANCH  46  60
BRANCH  47  68
ATOM     68  C   UNL A   1      42.124  26.908  27.415  1.00  0.00     0.057 A 
ATOM     69  C   UNL A   1      42.989  27.432  26.450  1.00  0.00     0.134 A 
ATOM     70  C   UNL A   1      41.712  25.577  27.262  1.00  0.00     0.134 A 
ATOM     71  F   UNL A   1      43.410  28.702  26.537  1.00  0.00    -0.206 F 
ATOM     72  C   UNL A   1      43.431  26.662  25.373  1.00  0.00     0.040 A 
ATOM     73  C   UNL A   1      42.163  24.789  26.203  1.00  0.00     0.040 A 
ATOM     74  F   UNL A   1      40.896  25.015  28.167  1.00  0.00    -0.206 F 
ATOM     75  C   UNL A   1      43.024  25.333  25.252  1.00  0.00     0.006 A 
ENDBRANCH  47  68
BRANCH  59  76
ATOM     76  C   UNL A   1      44.280  27.372  33.998  1.00  0.00     0.057 A 
ATOM     77  C   UNL A   1      44.044  26.157  34.652  1.00  0.00     0.134 A 
ATOM     78  C   UNL A   1      45.571  27.910  34.076  1.00  0.00     0.134 A 
ATOM     79  F   UNL A   1      42.827  25.591  34.621  1.00  0.00    -0.206 F 
ATOM     80  C   UNL A   1      45.055  25.495  35.349  1.00  0.00     0.040 A 
ATOM     81  C   UNL A   1      46.597  27.246  34.751  1.00  0.00     0.040 A 
ATOM     82  F   UNL A   1      45.865  29.064  33.459  1.00  0.00    -0.206 F 
ATOM     83  C   UNL A   1      46.338  26.036  35.393  1.00  0.00     0.006 A 
ENDBRANCH  59  76
ENDBRANCH  33  34
ENDBRANCH  26  28
ENDBRANCH  25  26
ENDBRANCH  24  25
ENDBRANCH   1  24
TORSDOF 14
ENDMDL
MODEL 3
REMARK VINA RESULT:     -12.2      3.963      9.028
REMARK SMILES CC(C)Cc1cc2c(cc1Cl)C=C(C(=O)OCCOC(=O)c1ccc(-c3c4nc(c(-c5c(F)cccc5F)c5ccc([nH]5)c(-c5c(F)cccc5F)c5nc(c(-c6c(F)cccc6F)c6ccc3[nH]6)C=C5)C=C4)cc1)[C@H](C(F)(F)F)O2
REMARK SMILES IDX 17 1 16 2 14 3 15 4 13 5 5 6 6 7 10 8 7 9 9 10 11 11 8 12
REMARK SMILES IDX 81 13 12 14 76 15 4 16 2 17 1 18 3 19 77 20 78 21 79 22
REMARK SMILES IDX 80 23 18 24 19 25 20 26 21 27 22 28 23 29 75 30 24 31 74 32
REMARK SMILES IDX 25 33 26 34 27 35 68 36 28 37 73 38 67 39 69 40 29 41 72 42
REMARK SMILES IDX 66 43 65 44 30 46 56 47 39 48 55 49 40 50 43 51 54 52 70 53
REMARK SMILES IDX 41 54 42 55 53 57 71 58 44 59 31 60 32 61 37 62 33 63 34 64
REMARK SMILES IDX 36 65 38 66 35 67 57 68 58 69 63 70 59 71 60 72 62 73 64 74
REMARK SMILES IDX 61 75 45 76 46 77 51 78 47 79 48 80 50 81 52 82 49 83
REMARK H PARENT 69 45 43 56
REMARK Flexibility Score: inf
ROOT
ATOM      1  C   UNL A   1      31.390  29.707  24.931  1.00  0.00     0.275 C 
ENDROOT
BRANCH   1   2
ATOM      2  O   UNL A   1      32.541  28.835  25.006  1.00  0.00    -0.459 OA
BRANCH   2   3
ATOM      3  C   UNL A   1      33.124  28.546  23.822  1.00  0.00     0.338 C 
ATOM      4  O   UNL A   1      33.477  29.354  22.976  1.00  0.00    -0.246 OA
BRANCH   3   5
ATOM      5  C   UNL A   1      33.400  27.104  23.715  1.00  0.00     0.087 C 
ATOM      6  C   UNL A   1      34.781  22.403  24.802  1.00  0.00    -0.025 A 
ATOM      7  C   UNL A   1      34.705  23.143  23.600  1.00  0.00     0.052 A 
ATOM      8  C   UNL A   1      34.268  22.975  25.977  1.00  0.00     0.045 A 
ATOM      9  C   UNL A   1      34.234  24.455  23.603  1.00  0.00     0.128 A 
ATOM     10  C   UNL A   1      33.889  24.314  25.993  1.00  0.00     0.032 A 
ATOM     11  Cl  UNL A   1      34.120  22.100  27.459  1.00  0.00    -0.084 Cl
ATOM     12  C   UNL A   1      33.936  25.062  24.819  1.00  0.00     0.019 A 
ATOM     13  O   UNL A   1      34.157  25.135  22.414  1.00  0.00    -0.475 OA
ATOM     14  C   UNL A   1      33.750  26.496  24.854  1.00  0.00     0.027 C 
ATOM     15  C   UNL A   1      33.332  26.353  22.411  1.00  0.00     0.316 C 
BRANCH   6  16
ATOM     16  C   UNL A   1      35.521  21.081  24.812  1.00  0.00     0.040 C 
BRANCH  16  17
ATOM     17  C   UNL A   1      37.040  21.247  24.552  1.00  0.00    -0.013 C 
ATOM     18  C   UNL A   1      37.690  22.378  25.358  1.00  0.00     0.008 C 
ATOM     19  C   UNL A   1      37.771  19.940  24.865  1.00  0.00     0.008 C 
ENDBRANCH  16  17
ENDBRANCH   6  16
BRANCH  15  20
ATOM     20  C   UNL A   1      31.902  26.069  21.905  1.00  0.00     0.430 C 
ATOM     21  F   UNL A   1      31.117  27.168  21.900  1.00  0.00    -0.167 F 
ATOM     22  F   UNL A   1      31.935  25.593  20.633  1.00  0.00    -0.167 F 
ATOM     23  F   UNL A   1      31.267  25.135  22.653  1.00  0.00    -0.167 F 
ENDBRANCH  15  20
ENDBRANCH   3   5
ENDBRANCH   2   3
ENDBRANCH   1   2
BRANCH   1  24
ATOM     24  C   UNL A   1      31.471  30.826  25.974  1.00  0.00     0.275 C 
BRANCH  24  25
ATOM     25  O   UNL A   1      32.619  30.649  26.831  1.00  0.00    -0.458 OA
BRANCH  25  26
ATOM     26  C   UNL A   1      33.225  31.783  27.253  1.00  0.00     0.338 C 
ATOM     27  O   UNL A   1      32.771  32.914  27.265  1.00  0.00    -0.246 OA
BRANCH  26  28
ATOM     28  C   UNL A   1      34.543  31.450  27.818  1.00  0.00     0.060 A 
ATOM     29  C   UNL A   1      35.507  32.423  28.066  1.00  0.00     0.016 A 
ATOM     30  C   UNL A   1      34.762  30.134  28.214  1.00  0.00     0.016 A 
ATOM     31  C   UNL A   1      36.715  32.047  28.675  1.00  0.00     0.010 A 
ATOM     32  C   UNL A   1      35.952  29.761  28.838  1.00  0.00     0.010 A 
ATOM     33  C   UNL A   1      36.952  30.712  29.064  1.00  0.00    -0.014 A 
BRANCH  33  34
ATOM     34  C   UNL A   1      38.216  30.328  29.751  1.00  0.00     0.031 A 
ATOM     35  C   UNL A   1      38.510  30.765  31.162  1.00  0.00     0.074 A 
ATOM     36  C   UNL A   1      39.135  29.604  29.082  1.00  0.00     0.049 A 
ATOM     37  N   UNL A   1      39.501  30.415  31.947  1.00  0.00    -0.248 NA
ATOM     38  C   UNL A   1      37.595  31.749  31.761  1.00  0.00     0.031 C 
ATOM     39  C   UNL A   1      39.047  29.220  27.673  1.00  0.00     0.029 A 
ATOM     40  N   UNL A   1      40.317  29.048  29.505  1.00  0.00    -0.354 N 
ATOM     41  C   UNL A   1      39.329  31.133  33.125  1.00  0.00     0.074 A 
ATOM     42  C   UNL A   1      38.179  31.990  32.927  1.00  0.00     0.031 C 
ATOM     43  C   UNL A   1      40.092  28.435  27.365  1.00  0.00     0.029 A 
ATOM     44  C   UNL A   1      40.925  28.266  28.551  1.00  0.00     0.049 A 
ATOM     45  H   UNL A   1      40.693  29.194  30.404  1.00  0.00     0.167 HD
ATOM     46  C   UNL A   1      40.037  31.062  34.279  1.00  0.00     0.037 A 
ATOM     47  C   UNL A   1      42.005  27.467  28.638  1.00  0.00     0.037 A 
ATOM     48  C   UNL A   1      41.168  30.193  34.487  1.00  0.00     0.049 A 
ATOM     49  C   UNL A   1      42.723  27.332  29.952  1.00  0.00     0.074 A 
ATOM     50  C   UNL A   1      41.909  29.994  35.639  1.00  0.00     0.029 A 
ATOM     51  N   UNL A   1      41.718  29.374  33.513  1.00  0.00    -0.354 N 
ATOM     52  N   UNL A   1      42.474  27.919  31.096  1.00  0.00    -0.248 NA
ATOM     53  C   UNL A   1      43.859  26.399  29.989  1.00  0.00     0.031 C 
ATOM     54  C   UNL A   1      42.920  29.068  35.357  1.00  0.00     0.029 A 
ATOM     55  C   UNL A   1      42.788  28.667  34.038  1.00  0.00     0.049 A 
ATOM     56  H   UNL A   1      41.395  29.305  32.585  1.00  0.00     0.167 HD
ATOM     57  C   UNL A   1      43.400  27.407  31.995  1.00  0.00     0.074 A 
ATOM     58  C   UNL A   1      44.204  26.447  31.266  1.00  0.00     0.031 C 
ATOM     59  C   UNL A   1      43.571  27.706  33.306  1.00  0.00     0.037 A 
BRANCH  46  60
ATOM     60  C   UNL A   1      39.582  31.928  35.419  1.00  0.00     0.057 A 
ATOM     61  C   UNL A   1      38.575  31.505  36.295  1.00  0.00     0.134 A 
ATOM     62  C   UNL A   1      40.133  33.198  35.636  1.00  0.00     0.134 A 
ATOM     63  F   UNL A   1      37.993  30.307  36.140  1.00  0.00    -0.206 F 
ATOM     64  C   UNL A   1      38.143  32.310  37.352  1.00  0.00     0.040 A 
ATOM     65  C   UNL A   1      39.729  34.000  36.704  1.00  0.00     0.040 A 
ATOM     66  F   UNL A   1      41.106  33.662  34.836  1.00  0.00    -0.206 F 
ATOM     67  C   UNL A   1      38.727  33.557  37.565  1.00  0.00     0.006 A 
ENDBRANCH  46  60
BRANCH  47  68
ATOM     68  C   UNL A   1      42.417  26.650  27.471  1.00  0.00     0.057 A 
ATOM     69  C   UNL A   1      41.948  25.347  27.281  1.00  0.00     0.134 A 
ATOM     70  C   UNL A   1      43.288  27.172  26.505  1.00  0.00     0.134 A 
ATOM     71  F   UNL A   1      41.119  24.789  28.176  1.00  0.00    -0.206 F 
ATOM     72  C   UNL A   1      42.327  24.590  26.171  1.00  0.00     0.040 A 
ATOM     73  C   UNL A   1      43.658  26.436  25.380  1.00  0.00     0.040 A 
ATOM     74  F   UNL A   1      43.757  28.423  26.626  1.00  0.00    -0.206 F 
ATOM     75  C   UNL A   1      43.178  25.139  25.211  1.00  0.00     0.006 A 
ENDBRANCH  47  68
BRANCH  59  76
ATOM     76  C   UNL A   1      44.644  26.958  34.039  1.00  0.00     0.057 A 
ATOM     77  C   UNL A   1      45.946  27.465  34.107  1.00  0.00     0.134 A 
ATOM     78  C   UNL A   1      44.391  25.735  34.673  1.00  0.00     0.134 A 
ATOM     79  F   UNL A   1      46.257  28.630  33.516  1.00  0.00    -0.206 F 
ATOM     80  C   UNL A   1      46.959  26.787  34.788  1.00  0.00     0.040 A 
ATOM     81  C   UNL A   1      45.389  25.058  35.377  1.00  0.00     0.040 A 
ATOM     82  F   UNL A   1      43.160  25.202  34.657  1.00  0.00    -0.206 F 
ATOM     83  C   UNL A   1      46.679  25.584  35.432  1.00  0.00     0.006 A 
ENDBRANCH  59  76
ENDBRANCH  33  34
ENDBRANCH  26  28
ENDBRANCH  25  26
ENDBRANCH  24  25
ENDBRANCH   1  24
TORSDOF 14
ENDMDL
