MODEL 1
REMARK VINA RESULT:     -11.4      0.000      0.000
REMARK SMILES C[C@@H](C(=O)OCCOC(=O)c1ccc(-c2c3nc(c(-c4c(F)cccc4F)c4ccc([nH]4)c(-c4c(F)cccc4F)c4nc(c(-c5c(F)cccc5F)c5ccc2[nH]5)C=C4)C=C3)cc1)c1ccc(C[C@H]2CCCC2=O)cc1F
REMARK SMILES IDX 6 1 5 2 3 3 4 4 2 5 1 6 65 7 66 8 77 9 67 10 76 11 78 12
REMARK SMILES IDX 68 13 69 14 70 15 71 16 74 17 72 18 73 19 75 20 7 21 8 22
REMARK SMILES IDX 9 23 10 24 11 25 12 26 64 27 13 28 63 29 14 30 15 31 16 32
REMARK SMILES IDX 57 33 17 34 62 35 56 36 58 37 18 38 61 39 55 40 54 41 19 43
REMARK SMILES IDX 45 44 28 45 44 46 29 47 32 48 43 49 59 50 30 51 31 52 42 54
REMARK SMILES IDX 60 55 33 56 20 57 21 58 26 59 22 60 23 61 25 62 27 63 24 64
REMARK SMILES IDX 46 65 47 66 52 67 48 68 49 69 51 70 53 71 50 72 34 73 35 74
REMARK SMILES IDX 40 75 36 76 37 77 39 78 41 79 38 80
REMARK H PARENT 58 42 32 53
REMARK Flexibility Score: inf
ROOT
ATOM      1  C   UNL A   1      44.694  21.440  24.655  1.00  0.00     0.274 C 
ENDROOT
BRANCH   1   2
ATOM      2  O   UNL A   1      43.818  21.418  25.803  1.00  0.00    -0.462 OA
BRANCH   2   3
ATOM      3  C   UNL A   1      42.934  20.381  25.854  1.00  0.00     0.313 C 
ATOM      4  O   UNL A   1      42.840  19.556  24.951  1.00  0.00    -0.252 OA
BRANCH   3   5
ATOM      5  C   UNL A   1      42.011  20.433  27.102  1.00  0.00     0.129 C 
ATOM      6  C   UNL A   1      41.842  19.030  27.703  1.00  0.00     0.025 C 
BRANCH   5   7
ATOM      7  C   UNL A   1      40.693  21.183  26.826  1.00  0.00     0.002 A 
ATOM      8  C   UNL A   1      40.524  22.482  27.337  1.00  0.00     0.008 A 
ATOM      9  C   UNL A   1      39.642  20.689  26.041  1.00  0.00     0.127 A 
ATOM     10  C   UNL A   1      39.458  23.297  26.945  1.00  0.00     0.004 A 
ATOM     11  C   UNL A   1      38.530  21.475  25.706  1.00  0.00     0.043 A 
ATOM     12  F   UNL A   1      39.681  19.451  25.529  1.00  0.00    -0.207 F 
ATOM     13  C   UNL A   1      38.437  22.807  26.128  1.00  0.00    -0.044 A 
BRANCH  13  14
ATOM     14  C   UNL A   1      37.341  23.710  25.605  1.00  0.00     0.047 C 
BRANCH  14  15
ATOM     15  C   UNL A   1      36.018  23.080  25.154  1.00  0.00     0.060 C 
ATOM     16  C   UNL A   1      34.767  23.576  25.883  1.00  0.00     0.012 C 
ATOM     17  C   UNL A   1      35.669  23.362  23.710  1.00  0.00     0.136 C 
ATOM     18  C   UNL A   1      34.171  24.664  24.999  1.00  0.00     0.009 C 
ATOM     19  C   UNL A   1      34.434  24.212  23.570  1.00  0.00     0.076 C 
ATOM     20  O   UNL A   1      36.307  22.951  22.748  1.00  0.00    -0.299 OA
ENDBRANCH  14  15
ENDBRANCH  13  14
ENDBRANCH   5   7
ENDBRANCH   3   5
ENDBRANCH   2   3
ENDBRANCH   1   2
BRANCH   1  21
ATOM     21  C   UNL A   1      44.618  22.762  23.887  1.00  0.00     0.275 C 
BRANCH  21  22
ATOM     22  O   UNL A   1      43.845  23.750  24.594  1.00  0.00    -0.458 OA
BRANCH  22  23
ATOM     23  C   UNL A   1      44.548  24.799  25.081  1.00  0.00     0.338 C 
ATOM     24  O   UNL A   1      45.595  25.254  24.645  1.00  0.00    -0.246 OA
BRANCH  23  25
ATOM     25  C   UNL A   1      43.783  25.461  26.148  1.00  0.00     0.060 A 
ATOM     26  C   UNL A   1      43.982  26.830  26.299  1.00  0.00     0.016 A 
ATOM     27  C   UNL A   1      42.968  24.767  27.046  1.00  0.00     0.016 A 
ATOM     28  C   UNL A   1      43.358  27.519  27.331  1.00  0.00     0.010 A 
ATOM     29  C   UNL A   1      42.347  25.465  28.097  1.00  0.00     0.010 A 
ATOM     30  C   UNL A   1      42.540  26.848  28.244  1.00  0.00    -0.014 A 
BRANCH  30  31
ATOM     31  C   UNL A   1      41.982  27.627  29.376  1.00  0.00     0.031 A 
ATOM     32  C   UNL A   1      42.761  27.747  30.653  1.00  0.00     0.074 A 
ATOM     33  C   UNL A   1      40.864  28.361  29.213  1.00  0.00     0.049 A 
ATOM     34  N   UNL A   1      42.466  28.404  31.746  1.00  0.00    -0.248 NA
ATOM     35  C   UNL A   1      44.059  27.057  30.694  1.00  0.00     0.031 C 
ATOM     36  C   UNL A   1      40.094  28.454  27.975  1.00  0.00     0.029 A 
ATOM     37  N   UNL A   1      40.218  29.208  30.079  1.00  0.00    -0.354 N 
ATOM     38  C   UNL A   1      43.521  28.178  32.619  1.00  0.00     0.074 A 
ATOM     39  C   UNL A   1      44.478  27.347  31.919  1.00  0.00     0.031 C 
ATOM     40  C   UNL A   1      39.106  29.348  28.145  1.00  0.00     0.029 A 
ATOM     41  C   UNL A   1      39.141  29.852  29.516  1.00  0.00     0.049 A 
ATOM     42  H   UNL A   1      40.498  29.343  31.013  1.00  0.00     0.167 HD
ATOM     43  C   UNL A   1      43.668  28.607  33.895  1.00  0.00     0.037 A 
ATOM     44  C   UNL A   1      38.281  30.740  30.050  1.00  0.00     0.037 A 
ATOM     45  C   UNL A   1      42.726  29.437  34.596  1.00  0.00     0.049 A 
ATOM     46  C   UNL A   1      38.420  31.132  31.497  1.00  0.00     0.074 A 
ATOM     47  C   UNL A   1      42.761  29.860  35.913  1.00  0.00     0.029 A 
ATOM     48  N   UNL A   1      41.578  29.975  34.035  1.00  0.00    -0.354 N 
ATOM     49  N   UNL A   1      39.376  30.843  32.346  1.00  0.00    -0.248 NA
ATOM     50  C   UNL A   1      37.339  31.951  32.068  1.00  0.00     0.031 C 
ATOM     51  C   UNL A   1      41.615  30.625  36.160  1.00  0.00     0.029 A 
ATOM     52  C   UNL A   1      40.887  30.709  34.985  1.00  0.00     0.049 A 
ATOM     53  H   UNL A   1      41.295  29.852  33.100  1.00  0.00     0.167 HD
ATOM     54  C   UNL A   1      39.013  31.442  33.546  1.00  0.00     0.074 A 
ATOM     55  C   UNL A   1      37.767  32.140  33.308  1.00  0.00     0.031 C 
ATOM     56  C   UNL A   1      39.649  31.401  34.741  1.00  0.00     0.037 A 
BRANCH  43  57
ATOM     57  C   UNL A   1      44.865  28.109  34.642  1.00  0.00     0.057 A 
ATOM     58  C   UNL A   1      44.871  26.878  35.308  1.00  0.00     0.134 A 
ATOM     59  C   UNL A   1      46.037  28.876  34.680  1.00  0.00     0.134 A 
ATOM     60  F   UNL A   1      43.773  26.107  35.322  1.00  0.00    -0.206 F 
ATOM     61  C   UNL A   1      45.999  26.434  36.000  1.00  0.00     0.040 A 
ATOM     62  C   UNL A   1      47.175  28.435  35.354  1.00  0.00     0.040 A 
ATOM     63  F   UNL A   1      46.091  30.065  34.061  1.00  0.00    -0.206 F 
ATOM     64  C   UNL A   1      47.156  27.212  36.021  1.00  0.00     0.006 A 
ENDBRANCH  43  57
BRANCH  44  65
ATOM     65  C   UNL A   1      37.178  31.309  29.233  1.00  0.00     0.057 A 
ATOM     66  C   UNL A   1      37.247  32.617  28.740  1.00  0.00     0.134 A 
ATOM     67  C   UNL A   1      36.006  30.585  28.980  1.00  0.00     0.134 A 
ATOM     68  F   UNL A   1      38.324  33.378  28.988  1.00  0.00    -0.206 F 
ATOM     69  C   UNL A   1      36.185  33.190  28.037  1.00  0.00     0.040 A 
ATOM     70  C   UNL A   1      34.947  31.137  28.257  1.00  0.00     0.040 A 
ATOM     71  F   UNL A   1      35.868  29.334  29.442  1.00  0.00    -0.206 F 
ATOM     72  C   UNL A   1      35.032  32.446  27.789  1.00  0.00     0.006 A 
ENDBRANCH  44  65
BRANCH  56  73
ATOM     73  C   UNL A   1      39.010  32.128  35.888  1.00  0.00     0.057 A 
ATOM     74  C   UNL A   1      38.146  31.477  36.777  1.00  0.00     0.134 A 
ATOM     75  C   UNL A   1      39.296  33.477  36.133  1.00  0.00     0.134 A 
ATOM     76  F   UNL A   1      37.824  30.189  36.591  1.00  0.00    -0.206 F 
ATOM     77  C   UNL A   1      37.578  32.145  37.863  1.00  0.00     0.040 A 
ATOM     78  C   UNL A   1      38.750  34.150  37.228  1.00  0.00     0.040 A 
ATOM     79  F   UNL A   1      40.121  34.157  35.324  1.00  0.00    -0.206 F 
ATOM     80  C   UNL A   1      37.885  33.486  38.094  1.00  0.00     0.006 A 
ENDBRANCH  56  73
ENDBRANCH  30  31
ENDBRANCH  23  25
ENDBRANCH  22  23
ENDBRANCH  21  22
ENDBRANCH   1  21
TORSDOF 14
ENDMDL
MODEL 2
REMARK VINA RESULT:     -11.2      3.811      8.855
REMARK SMILES C[C@@H](C(=O)OCCOC(=O)c1ccc(-c2c3nc(c(-c4c(F)cccc4F)c4ccc([nH]4)c(-c4c(F)cccc4F)c4nc(c(-c5c(F)cccc5F)c5ccc2[nH]5)C=C4)C=C3)cc1)c1ccc(C[C@H]2CCCC2=O)cc1F
REMARK SMILES IDX 6 1 5 2 3 3 4 4 2 5 1 6 65 7 66 8 77 9 67 10 76 11 78 12
REMARK SMILES IDX 68 13 69 14 70 15 71 16 74 17 72 18 73 19 75 20 7 21 8 22
REMARK SMILES IDX 9 23 10 24 11 25 12 26 64 27 13 28 63 29 14 30 15 31 16 32
REMARK SMILES IDX 57 33 17 34 62 35 56 36 58 37 18 38 61 39 55 40 54 41 19 43
REMARK SMILES IDX 45 44 28 45 44 46 29 47 32 48 43 49 59 50 30 51 31 52 42 54
REMARK SMILES IDX 60 55 33 56 20 57 21 58 26 59 22 60 23 61 25 62 27 63 24 64
REMARK SMILES IDX 46 65 47 66 52 67 48 68 49 69 51 70 53 71 50 72 34 73 35 74
REMARK SMILES IDX 40 75 36 76 37 77 39 78 41 79 38 80
REMARK H PARENT 58 42 32 53
REMARK Flexibility Score: inf
ROOT
ATOM      1  C   UNL A   1      31.373  32.007  26.460  1.00  0.00     0.274 C 
ENDROOT
BRANCH   1   2
ATOM      2  O   UNL A   1      31.675  30.688  26.964  1.00  0.00    -0.462 OA
BRANCH   2   3
ATOM      3  C   UNL A   1      32.453  29.909  26.160  1.00  0.00     0.313 C 
ATOM      4  O   UNL A   1      32.403  29.978  24.936  1.00  0.00    -0.252 OA
BRANCH   3   5
ATOM      5  C   UNL A   1      33.301  28.877  26.952  1.00  0.00     0.129 C 
ATOM      6  C   UNL A   1      34.789  29.255  26.902  1.00  0.00     0.025 C 
BRANCH   5   7
ATOM      7  C   UNL A   1      32.987  27.424  26.546  1.00  0.00     0.002 A 
ATOM      8  C   UNL A   1      34.005  26.635  25.982  1.00  0.00     0.008 A 
ATOM      9  C   UNL A   1      31.755  26.786  26.748  1.00  0.00     0.127 A 
ATOM     10  C   UNL A   1      33.854  25.257  25.796  1.00  0.00     0.004 A 
ATOM     11  C   UNL A   1      31.573  25.420  26.492  1.00  0.00     0.043 A 
ATOM     12  F   UNL A   1      30.705  27.450  27.250  1.00  0.00    -0.207 F 
ATOM     13  C   UNL A   1      32.634  24.625  26.040  1.00  0.00    -0.044 A 
BRANCH  13  14
ATOM     14  C   UNL A   1      32.491  23.121  25.953  1.00  0.00     0.047 C 
BRANCH  14  15
ATOM     15  C   UNL A   1      31.598  22.525  24.858  1.00  0.00     0.060 C 
ATOM     16  C   UNL A   1      31.603  23.272  23.523  1.00  0.00     0.012 C 
ATOM     17  C   UNL A   1      31.999  21.130  24.436  1.00  0.00     0.136 C 
ATOM     18  C   UNL A   1      32.608  22.545  22.640  1.00  0.00     0.009 C 
ATOM     19  C   UNL A   1      32.482  21.075  23.012  1.00  0.00     0.076 C 
ATOM     20  O   UNL A   1      31.942  20.142  25.159  1.00  0.00    -0.299 OA
ENDBRANCH  14  15
ENDBRANCH  13  14
ENDBRANCH   5   7
ENDBRANCH   3   5
ENDBRANCH   2   3
ENDBRANCH   1   2
BRANCH   1  21
ATOM     21  C   UNL A   1      32.423  33.043  26.868  1.00  0.00     0.275 C 
BRANCH  21  22
ATOM     22  O   UNL A   1      32.086  33.689  28.110  1.00  0.00    -0.458 OA
BRANCH  22  23
ATOM     23  C   UNL A   1      32.984  34.597  28.555  1.00  0.00     0.338 C 
ATOM     24  O   UNL A   1      32.791  35.784  28.773  1.00  0.00    -0.246 OA
BRANCH  23  25
ATOM     25  C   UNL A   1      34.238  33.922  28.921  1.00  0.00     0.060 A 
ATOM     26  C   UNL A   1      34.118  32.708  29.591  1.00  0.00     0.016 A 
ATOM     27  C   UNL A   1      35.499  34.487  28.713  1.00  0.00     0.016 A 
ATOM     28  C   UNL A   1      35.251  32.041  30.041  1.00  0.00     0.010 A 
ATOM     29  C   UNL A   1      36.642  33.815  29.179  1.00  0.00     0.010 A 
ATOM     30  C   UNL A   1      36.523  32.586  29.847  1.00  0.00    -0.014 A 
BRANCH  30  31
ATOM     31  C   UNL A   1      37.680  31.869  30.436  1.00  0.00     0.031 A 
ATOM     32  C   UNL A   1      38.009  32.051  31.889  1.00  0.00     0.074 A 
ATOM     33  C   UNL A   1      38.336  30.933  29.723  1.00  0.00     0.049 A 
ATOM     34  N   UNL A   1      38.956  31.495  32.601  1.00  0.00    -0.248 NA
ATOM     35  C   UNL A   1      37.138  32.962  32.646  1.00  0.00     0.031 C 
ATOM     36  C   UNL A   1      38.019  30.548  28.349  1.00  0.00     0.029 A 
ATOM     37  N   UNL A   1      39.368  30.099  30.078  1.00  0.00    -0.354 N 
ATOM     38  C   UNL A   1      38.820  32.014  33.881  1.00  0.00     0.074 A 
ATOM     39  C   UNL A   1      37.681  32.908  33.855  1.00  0.00     0.031 C 
ATOM     40  C   UNL A   1      38.808  29.520  27.993  1.00  0.00     0.029 A 
ATOM     41  C   UNL A   1      39.719  29.208  29.092  1.00  0.00     0.049 A 
ATOM     42  H   UNL A   1      39.813  30.136  30.955  1.00  0.00     0.167 HD
ATOM     43  C   UNL A   1      39.588  31.782  34.972  1.00  0.00     0.037 A 
ATOM     44  C   UNL A   1      40.670  28.254  29.078  1.00  0.00     0.037 A 
ATOM     45  C   UNL A   1      40.717  30.892  35.007  1.00  0.00     0.049 A 
ATOM     46  C   UNL A   1      41.564  28.079  30.276  1.00  0.00     0.074 A 
ATOM     47  C   UNL A   1      41.593  30.652  36.051  1.00  0.00     0.029 A 
ATOM     48  N   UNL A   1      41.124  30.092  33.951  1.00  0.00    -0.354 N 
ATOM     49  N   UNL A   1      41.485  28.639  31.459  1.00  0.00    -0.248 NA
ATOM     50  C   UNL A   1      42.703  27.159  30.124  1.00  0.00     0.031 C 
ATOM     51  C   UNL A   1      42.554  29.732  35.615  1.00  0.00     0.029 A 
ATOM     52  C   UNL A   1      42.251  29.371  34.312  1.00  0.00     0.049 A 
ATOM     53  H   UNL A   1      40.679  30.044  33.075  1.00  0.00     0.167 HD
ATOM     54  C   UNL A   1      42.558  28.141  32.188  1.00  0.00     0.074 A 
ATOM     55  C   UNL A   1      43.254  27.207  31.328  1.00  0.00     0.031 C 
ATOM     56  C   UNL A   1      42.939  28.444  33.452  1.00  0.00     0.037 A 
BRANCH  43  57
ATOM     57  C   UNL A   1      39.273  32.577  36.201  1.00  0.00     0.057 A 
ATOM     58  C   UNL A   1      39.843  33.831  36.445  1.00  0.00     0.134 A 
ATOM     59  C   UNL A   1      38.371  32.075  37.147  1.00  0.00     0.134 A 
ATOM     60  F   UNL A   1      40.728  34.356  35.585  1.00  0.00    -0.206 F 
ATOM     61  C   UNL A   1      39.536  34.554  37.600  1.00  0.00     0.040 A 
ATOM     62  C   UNL A   1      38.044  32.795  38.296  1.00  0.00     0.040 A 
ATOM     63  F   UNL A   1      37.793  30.877  36.968  1.00  0.00    -0.206 F 
ATOM     64  C   UNL A   1      38.631  34.037  38.526  1.00  0.00     0.006 A 
ENDBRANCH  43  57
BRANCH  44  65
ATOM     65  C   UNL A   1      40.866  27.400  27.878  1.00  0.00     0.057 A 
ATOM     66  C   UNL A   1      40.268  26.137  27.788  1.00  0.00     0.134 A 
ATOM     67  C   UNL A   1      41.702  27.794  26.827  1.00  0.00     0.134 A 
ATOM     68  F   UNL A   1      39.492  25.682  28.784  1.00  0.00    -0.206 F 
ATOM     69  C   UNL A   1      40.505  25.293  26.702  1.00  0.00     0.040 A 
ATOM     70  C   UNL A   1      41.928  26.970  25.724  1.00  0.00     0.040 A 
ATOM     71  F   UNL A   1      42.322  28.983  26.861  1.00  0.00    -0.206 F 
ATOM     72  C   UNL A   1      41.334  25.711  25.662  1.00  0.00     0.006 A 
ENDBRANCH  44  65
BRANCH  56  73
ATOM     73  C   UNL A   1      44.166  27.765  33.985  1.00  0.00     0.057 A 
ATOM     74  C   UNL A   1      44.099  26.509  34.599  1.00  0.00     0.134 A 
ATOM     75  C   UNL A   1      45.431  28.350  33.842  1.00  0.00     0.134 A 
ATOM     76  F   UNL A   1      42.916  25.901  34.776  1.00  0.00    -0.206 F 
ATOM     77  C   UNL A   1      45.245  25.862  35.066  1.00  0.00     0.040 A 
ATOM     78  C   UNL A   1      46.586  27.704  34.286  1.00  0.00     0.040 A 
ATOM     79  F   UNL A   1      45.565  29.549  33.257  1.00  0.00    -0.206 F 
ATOM     80  C   UNL A   1      46.494  26.459  34.904  1.00  0.00     0.006 A 
ENDBRANCH  56  73
ENDBRANCH  30  31
ENDBRANCH  23  25
ENDBRANCH  22  23
ENDBRANCH  21  22
ENDBRANCH   1  21
TORSDOF 14
ENDMDL
MODEL 3
REMARK VINA RESULT:     -11.1      4.159      9.225
REMARK SMILES C[C@@H](C(=O)OCCOC(=O)c1ccc(-c2c3nc(c(-c4c(F)cccc4F)c4ccc([nH]4)c(-c4c(F)cccc4F)c4nc(c(-c5c(F)cccc5F)c5ccc2[nH]5)C=C4)C=C3)cc1)c1ccc(C[C@H]2CCCC2=O)cc1F
REMARK SMILES IDX 6 1 5 2 3 3 4 4 2 5 1 6 65 7 66 8 77 9 67 10 76 11 78 12
REMARK SMILES IDX 68 13 69 14 70 15 71 16 74 17 72 18 73 19 75 20 7 21 8 22
REMARK SMILES IDX 9 23 10 24 11 25 12 26 64 27 13 28 63 29 14 30 15 31 16 32
REMARK SMILES IDX 57 33 17 34 62 35 56 36 58 37 18 38 61 39 55 40 54 41 19 43
REMARK SMILES IDX 45 44 28 45 44 46 29 47 32 48 43 49 59 50 30 51 31 52 42 54
REMARK SMILES IDX 60 55 33 56 20 57 21 58 26 59 22 60 23 61 25 62 27 63 24 64
REMARK SMILES IDX 46 65 47 66 52 67 48 68 49 69 51 70 53 71 50 72 34 73 35 74
REMARK SMILES IDX 40 75 36 76 37 77 39 78 41 79 38 80
REMARK H PARENT 58 42 32 53
REMARK Flexibility Score: inf
ROOT
ATOM      1  C   UNL A   1      31.778  28.239  27.430  1.00  0.00     0.274 C 
ENDROOT
BRANCH   1   2
ATOM      2  O   UNL A   1      31.517  27.079  26.611  1.00  0.00    -0.462 OA
BRANCH   2   3
ATOM      3  C   UNL A   1      32.545  26.675  25.811  1.00  0.00     0.313 C 
ATOM      4  O   UNL A   1      33.714  26.709  26.180  1.00  0.00    -0.252 OA
BRANCH   3   5
ATOM      5  C   UNL A   1      32.082  26.284  24.381  1.00  0.00     0.129 C 
ATOM      6  C   UNL A   1      33.295  26.062  23.467  1.00  0.00     0.025 C 
BRANCH   5   7
ATOM      7  C   UNL A   1      31.018  27.251  23.824  1.00  0.00     0.002 A 
ATOM      8  C   UNL A   1      31.435  28.421  23.164  1.00  0.00     0.008 A 
ATOM      9  C   UNL A   1      29.635  27.029  23.869  1.00  0.00     0.127 A 
ATOM     10  C   UNL A   1      30.540  29.223  22.449  1.00  0.00     0.004 A 
ATOM     11  C   UNL A   1      28.724  27.873  23.218  1.00  0.00     0.043 A 
ATOM     12  F   UNL A   1      29.124  25.963  24.499  1.00  0.00    -0.207 F 
ATOM     13  C   UNL A   1      29.168  28.969  22.468  1.00  0.00    -0.044 A 
BRANCH  13  14
ATOM     14  C   UNL A   1      28.205  29.758  21.607  1.00  0.00     0.047 C 
BRANCH  14  15
ATOM     15  C   UNL A   1      27.532  31.001  22.200  1.00  0.00     0.060 C 
ATOM     16  C   UNL A   1      27.706  31.191  23.708  1.00  0.00     0.012 C 
ATOM     17  C   UNL A   1      28.073  32.305  21.659  1.00  0.00     0.136 C 
ATOM     18  C   UNL A   1      28.878  32.148  23.878  1.00  0.00     0.009 C 
ATOM     19  C   UNL A   1      28.778  33.119  22.710  1.00  0.00     0.076 C 
ATOM     20  O   UNL A   1      27.958  32.675  20.496  1.00  0.00    -0.299 OA
ENDBRANCH  14  15
ENDBRANCH  13  14
ENDBRANCH   5   7
ENDBRANCH   3   5
ENDBRANCH   2   3
ENDBRANCH   1   2
BRANCH   1  21
ATOM     21  C   UNL A   1      31.611  29.550  26.658  1.00  0.00     0.275 C 
BRANCH  21  22
ATOM     22  O   UNL A   1      32.879  30.102  26.257  1.00  0.00    -0.458 OA
BRANCH  22  23
ATOM     23  C   UNL A   1      33.265  31.214  26.924  1.00  0.00     0.338 C 
ATOM     24  O   UNL A   1      32.631  32.249  27.067  1.00  0.00    -0.246 OA
BRANCH  23  25
ATOM     25  C   UNL A   1      34.530  30.959  27.629  1.00  0.00     0.060 A 
ATOM     26  C   UNL A   1      34.777  29.644  28.009  1.00  0.00     0.016 A 
ATOM     27  C   UNL A   1      35.414  31.975  28.004  1.00  0.00     0.016 A 
ATOM     28  C   UNL A   1      35.911  29.328  28.746  1.00  0.00     0.010 A 
ATOM     29  C   UNL A   1      36.555  31.654  28.759  1.00  0.00     0.010 A 
ATOM     30  C   UNL A   1      36.809  30.325  29.135  1.00  0.00    -0.014 A 
BRANCH  30  31
ATOM     31  C   UNL A   1      37.948  29.933  30.001  1.00  0.00     0.031 A 
ATOM     32  C   UNL A   1      39.083  29.139  29.423  1.00  0.00     0.074 A 
ATOM     33  C   UNL A   1      38.052  30.420  31.252  1.00  0.00     0.049 A 
ATOM     34  N   UNL A   1      40.182  28.723  30.000  1.00  0.00    -0.248 NA
ATOM     35  C   UNL A   1      38.978  28.790  27.999  1.00  0.00     0.031 C 
ATOM     36  C   UNL A   1      37.095  31.326  31.883  1.00  0.00     0.029 A 
ATOM     37  N   UNL A   1      39.040  30.263  32.192  1.00  0.00    -0.354 N 
ATOM     38  C   UNL A   1      40.884  28.033  29.022  1.00  0.00     0.074 A 
ATOM     39  C   UNL A   1      40.100  28.110  27.806  1.00  0.00     0.031 C 
ATOM     40  C   UNL A   1      37.567  31.683  33.090  1.00  0.00     0.029 A 
ATOM     41  C   UNL A   1      38.831  30.993  33.338  1.00  0.00     0.049 A 
ATOM     42  H   UNL A   1      39.824  29.683  32.059  1.00  0.00     0.167 HD
ATOM     43  C   UNL A   1      42.063  27.377  29.132  1.00  0.00     0.037 A 
ATOM     44  C   UNL A   1      39.571  31.089  34.459  1.00  0.00     0.037 A 
ATOM     45  C   UNL A   1      42.850  27.300  30.334  1.00  0.00     0.049 A 
ATOM     46  C   UNL A   1      40.834  30.280  34.585  1.00  0.00     0.074 A 
ATOM     47  C   UNL A   1      44.022  26.598  30.554  1.00  0.00     0.029 A 
ATOM     48  N   UNL A   1      42.547  27.953  31.519  1.00  0.00    -0.354 N 
ATOM     49  N   UNL A   1      41.449  29.555  33.683  1.00  0.00    -0.248 NA
ATOM     50  C   UNL A   1      41.491  30.278  35.902  1.00  0.00     0.031 C 
ATOM     51  C   UNL A   1      44.410  26.796  31.884  1.00  0.00     0.029 A 
ATOM     52  C   UNL A   1      43.499  27.654  32.480  1.00  0.00     0.049 A 
ATOM     53  H   UNL A   1      41.770  28.541  31.657  1.00  0.00     0.167 HD
ATOM     54  C   UNL A   1      42.559  29.014  34.319  1.00  0.00     0.074 A 
ATOM     55  C   UNL A   1      42.554  29.521  35.676  1.00  0.00     0.031 C 
ATOM     56  C   UNL A   1      43.488  28.161  33.827  1.00  0.00     0.037 A 
BRANCH  43  57
ATOM     57  C   UNL A   1      42.529  26.616  27.931  1.00  0.00     0.057 A 
ATOM     58  C   UNL A   1      42.123  25.301  27.675  1.00  0.00     0.134 A 
ATOM     59  C   UNL A   1      43.391  27.223  27.008  1.00  0.00     0.134 A 
ATOM     60  F   UNL A   1      41.313  24.661  28.532  1.00  0.00    -0.206 F 
ATOM     61  C   UNL A   1      42.572  24.611  26.549  1.00  0.00     0.040 A 
ATOM     62  C   UNL A   1      43.833  26.549  25.871  1.00  0.00     0.040 A 
ATOM     63  F   UNL A   1      43.815  28.481  27.201  1.00  0.00    -0.206 F 
ATOM     64  C   UNL A   1      43.427  25.236  25.641  1.00  0.00     0.006 A 
ENDBRANCH  43  57
BRANCH  44  65
ATOM     65  C   UNL A   1      39.134  31.958  35.582  1.00  0.00     0.057 A 
ATOM     66  C   UNL A   1      38.257  31.481  36.563  1.00  0.00     0.134 A 
ATOM     67  C   UNL A   1      39.529  33.298  35.667  1.00  0.00     0.134 A 
ATOM     68  F   UNL A   1      37.805  30.218  36.512  1.00  0.00    -0.206 F 
ATOM     69  C   UNL A   1      37.778  32.309  37.580  1.00  0.00     0.040 A 
ATOM     70  C   UNL A   1      39.078  34.130  36.692  1.00  0.00     0.040 A 
ATOM     71  F   UNL A   1      40.351  33.823  34.747  1.00  0.00    -0.206 F 
ATOM     72  C   UNL A   1      38.194  33.638  37.649  1.00  0.00     0.006 A 
ENDBRANCH  44  65
BRANCH  56  73
ATOM     73  C   UNL A   1      44.578  27.715  34.756  1.00  0.00     0.057 A 
ATOM     74  C   UNL A   1      45.766  28.445  34.896  1.00  0.00     0.134 A 
ATOM     75  C   UNL A   1      44.422  26.574  35.554  1.00  0.00     0.134 A 
ATOM     76  F   UNL A   1      45.981  29.541  34.153  1.00  0.00    -0.206 F 
ATOM     77  C   UNL A   1      46.766  28.048  35.785  1.00  0.00     0.040 A 
ATOM     78  C   UNL A   1      45.406  26.179  36.461  1.00  0.00     0.040 A 
ATOM     79  F   UNL A   1      43.306  25.835  35.474  1.00  0.00    -0.206 F 
ATOM     80  C   UNL A   1      46.584  26.915  36.576  1.00  0.00     0.006 A 
ENDBRANCH  56  73
ENDBRANCH  30  31
ENDBRANCH  23  25
ENDBRANCH  22  23
ENDBRANCH  21  22
ENDBRANCH   1  21
TORSDOF 14
ENDMDL
