MODEL 1
REMARK VINA RESULT:     -10.6      0.000      0.000
REMARK SMILES COc1ccc(OCCNc2ccccc2C(=O)OCCOC(=O)c2ccc(-c3c4nc(c(-c5c(F)cccc5F)c5ccc([nH]5)c(-c5c(F)cccc5F)c5nc(c(-c6c(F)cccc6F)c6ccc3[nH]6)C=C5)C=C4)cc2)cc1
REMARK SMILES IDX 17 1 18 2 16 3 11 4 12 5 13 6 15 7 14 8 10 9 9 11 8 12 7 13
REMARK SMILES IDX 6 14 3 15 4 16 80 17 5 18 79 19 2 20 1 21 19 22 20 23 21 24
REMARK SMILES IDX 22 25 23 26 24 27 25 28 26 29 78 30 27 31 77 32 28 33 29 34
REMARK SMILES IDX 30 35 71 36 31 37 76 38 70 39 72 40 32 41 75 42 69 43 68 44
REMARK SMILES IDX 33 46 59 47 42 48 58 49 43 50 46 51 57 52 73 53 44 54 45 55
REMARK SMILES IDX 56 57 74 58 47 59 34 60 35 61 40 62 36 63 37 64 39 65 41 66
REMARK SMILES IDX 38 67 60 68 61 69 66 70 62 71 63 72 65 73 67 74 64 75 48 76
REMARK SMILES IDX 49 77 54 78 50 79 51 80 53 81 55 82 52 83
REMARK H PARENT 10 10 72 45 46 56
REMARK Flexibility Score: inf
ROOT
ATOM      1  C   UNL A   1      34.641  23.348  23.430  1.00  0.00     0.340 C 
ATOM      2  O   UNL A   1      35.490  23.166  22.586  1.00  0.00    -0.246 OA
ENDROOT
BRANCH   1   3
ATOM      3  C   UNL A   1      33.434  24.183  23.187  1.00  0.00     0.083 A 
ATOM      4  C   UNL A   1      32.128  23.761  23.474  1.00  0.00     0.049 A 
ATOM      5  C   UNL A   1      31.084  24.642  23.127  1.00  0.00     0.026 A 
ATOM      6  C   UNL A   1      31.311  25.878  22.514  1.00  0.00     0.002 A 
ATOM      7  C   UNL A   1      33.664  25.443  22.594  1.00  0.00     0.018 A 
ATOM      8  C   UNL A   1      32.607  26.277  22.240  1.00  0.00     0.001 A 
BRANCH   4   9
ATOM      9  N   UNL A   1      31.762  22.601  24.127  1.00  0.00    -0.381 N 
ATOM     10  H   UNL A   1      31.937  21.759  23.649  1.00  0.00     0.160 HD
BRANCH   9  11
ATOM     11  C   UNL A   1      31.146  22.479  25.442  1.00  0.00     0.154 C 
BRANCH  11  12
ATOM     12  C   UNL A   1      31.905  23.283  26.517  1.00  0.00     0.250 C 
BRANCH  12  13
ATOM     13  O   UNL A   1      31.219  24.469  26.948  1.00  0.00    -0.492 OA
BRANCH  13  14
ATOM     14  C   UNL A   1      31.655  25.667  26.455  1.00  0.00     0.119 A 
ATOM     15  C   UNL A   1      32.792  28.126  25.776  1.00  0.00     0.119 A 
ATOM     16  C   UNL A   1      33.609  27.017  25.974  1.00  0.00     0.050 A 
ATOM     17  C   UNL A   1      31.407  27.985  25.801  1.00  0.00     0.050 A 
ATOM     18  C   UNL A   1      33.039  25.789  26.318  1.00  0.00     0.050 A 
ATOM     19  C   UNL A   1      30.839  26.751  26.129  1.00  0.00     0.050 A 
BRANCH  15  20
ATOM     20  O   UNL A   1      33.389  29.325  25.499  1.00  0.00    -0.497 OA
ATOM     21  C   UNL A   1      33.624  30.082  26.689  1.00  0.00     0.278 C 
ENDBRANCH  15  20
ENDBRANCH  13  14
ENDBRANCH  12  13
ENDBRANCH  11  12
ENDBRANCH   9  11
ENDBRANCH   4   9
ENDBRANCH   1   3
BRANCH   1  22
ATOM     22  O   UNL A   1      34.586  22.776  24.662  1.00  0.00    -0.458 OA
BRANCH  22  23
ATOM     23  C   UNL A   1      34.867  21.363  24.734  1.00  0.00     0.275 C 
BRANCH  23  24
ATOM     24  C   UNL A   1      36.009  21.099  25.710  1.00  0.00     0.275 C 
BRANCH  24  25
ATOM     25  O   UNL A   1      37.211  21.665  25.165  1.00  0.00    -0.458 OA
BRANCH  25  26
ATOM     26  C   UNL A   1      38.366  21.212  25.696  1.00  0.00     0.338 C 
ATOM     27  O   UNL A   1      38.843  20.090  25.629  1.00  0.00    -0.246 OA
BRANCH  26  28
ATOM     28  C   UNL A   1      39.054  22.343  26.327  1.00  0.00     0.060 A 
ATOM     29  C   UNL A   1      38.579  23.626  26.071  1.00  0.00     0.016 A 
ATOM     30  C   UNL A   1      40.218  22.157  27.066  1.00  0.00     0.016 A 
ATOM     31  C   UNL A   1      39.301  24.739  26.481  1.00  0.00     0.010 A 
ATOM     32  C   UNL A   1      40.894  23.277  27.562  1.00  0.00     0.010 A 
ATOM     33  C   UNL A   1      40.462  24.582  27.249  1.00  0.00    -0.014 A 
BRANCH  33  34
ATOM     34  C   UNL A   1      41.249  25.771  27.681  1.00  0.00     0.031 A 
ATOM     35  C   UNL A   1      40.599  26.823  28.540  1.00  0.00     0.074 A 
ATOM     36  C   UNL A   1      42.539  25.917  27.315  1.00  0.00     0.049 A 
ATOM     37  N   UNL A   1      41.007  28.035  28.818  1.00  0.00    -0.248 NA
ATOM     38  C   UNL A   1      39.306  26.471  29.151  1.00  0.00     0.031 C 
ATOM     39  C   UNL A   1      43.318  24.954  26.535  1.00  0.00     0.029 A 
ATOM     40  N   UNL A   1      43.424  26.943  27.549  1.00  0.00    -0.354 N 
ATOM     41  C   UNL A   1      39.989  28.615  29.566  1.00  0.00     0.074 A 
ATOM     42  C   UNL A   1      38.950  27.618  29.712  1.00  0.00     0.031 C 
ATOM     43  C   UNL A   1      44.565  25.420  26.375  1.00  0.00     0.029 A 
ATOM     44  C   UNL A   1      44.647  26.758  26.948  1.00  0.00     0.049 A 
ATOM     45  H   UNL A   1      43.203  27.733  28.092  1.00  0.00     0.167 HD
ATOM     46  C   UNL A   1      39.927  29.868  30.073  1.00  0.00     0.037 A 
ATOM     47  C   UNL A   1      45.696  27.591  26.815  1.00  0.00     0.037 A 
ATOM     48  C   UNL A   1      40.999  30.827  29.989  1.00  0.00     0.049 A 
ATOM     49  C   UNL A   1      45.600  28.982  27.374  1.00  0.00     0.074 A 
ATOM     50  C   UNL A   1      41.051  32.110  30.504  1.00  0.00     0.029 A 
ATOM     51  N   UNL A   1      42.214  30.598  29.362  1.00  0.00    -0.354 N 
ATOM     52  N   UNL A   1      44.610  29.542  28.026  1.00  0.00    -0.248 NA
ATOM     53  C   UNL A   1      46.753  29.864  27.157  1.00  0.00     0.031 C 
ATOM     54  C   UNL A   1      42.285  32.671  30.158  1.00  0.00     0.029 A 
ATOM     55  C   UNL A   1      43.018  31.721  29.464  1.00  0.00     0.049 A 
ATOM     56  H   UNL A   1      42.469  29.759  28.912  1.00  0.00     0.167 HD
ATOM     57  C   UNL A   1      45.022  30.838  28.302  1.00  0.00     0.074 A 
ATOM     58  C   UNL A   1      46.363  30.973  27.769  1.00  0.00     0.031 C 
ATOM     59  C   UNL A   1      44.349  31.832  28.930  1.00  0.00     0.037 A 
BRANCH  46  60
ATOM     60  C   UNL A   1      38.647  30.299  30.729  1.00  0.00     0.057 A 
ATOM     61  C   UNL A   1      38.402  30.111  32.094  1.00  0.00     0.134 A 
ATOM     62  C   UNL A   1      37.664  30.961  29.980  1.00  0.00     0.134 A 
ATOM     63  F   UNL A   1      39.295  29.472  32.865  1.00  0.00    -0.206 F 
ATOM     64  C   UNL A   1      37.217  30.553  32.688  1.00  0.00     0.040 A 
ATOM     65  C   UNL A   1      36.488  31.428  30.567  1.00  0.00     0.040 A 
ATOM     66  F   UNL A   1      37.838  31.177  28.667  1.00  0.00    -0.206 F 
ATOM     67  C   UNL A   1      36.260  31.221  31.926  1.00  0.00     0.006 A 
ENDBRANCH  46  60
BRANCH  47  68
ATOM     68  C   UNL A   1      46.897  27.158  26.054  1.00  0.00     0.057 A 
ATOM     69  C   UNL A   1      47.015  27.399  24.681  1.00  0.00     0.134 A 
ATOM     70  C   UNL A   1      47.956  26.490  26.684  1.00  0.00     0.134 A 
ATOM     71  F   UNL A   1      46.024  28.011  24.016  1.00  0.00    -0.206 F 
ATOM     72  C   UNL A   1      48.137  26.986  23.960  1.00  0.00     0.040 A 
ATOM     73  C   UNL A   1      49.096  26.099  25.983  1.00  0.00     0.040 A 
ATOM     74  F   UNL A   1      47.905  26.227  27.998  1.00  0.00    -0.206 F 
ATOM     75  C   UNL A   1      49.186  26.340  24.614  1.00  0.00     0.006 A 
ENDBRANCH  47  68
BRANCH  59  76
ATOM     76  C   UNL A   1      45.065  33.139  29.097  1.00  0.00     0.057 A 
ATOM     77  C   UNL A   1      45.892  33.389  30.199  1.00  0.00     0.134 A 
ATOM     78  C   UNL A   1      44.945  34.145  28.132  1.00  0.00     0.134 A 
ATOM     79  F   UNL A   1      46.035  32.469  31.165  1.00  0.00    -0.206 F 
ATOM     80  C   UNL A   1      46.561  34.605  30.346  1.00  0.00     0.040 A 
ATOM     81  C   UNL A   1      45.627  35.356  28.255  1.00  0.00     0.040 A 
ATOM     82  F   UNL A   1      44.174  33.964  27.050  1.00  0.00    -0.206 F 
ATOM     83  C   UNL A   1      46.433  35.590  29.368  1.00  0.00     0.006 A 
ENDBRANCH  59  76
ENDBRANCH  33  34
ENDBRANCH  26  28
ENDBRANCH  25  26
ENDBRANCH  24  25
ENDBRANCH  23  24
ENDBRANCH  22  23
ENDBRANCH   1  22
TORSDOF 17
ENDMDL
MODEL 2
REMARK VINA RESULT:     -10.3      3.787      8.413
REMARK SMILES COc1ccc(OCCNc2ccccc2C(=O)OCCOC(=O)c2ccc(-c3c4nc(c(-c5c(F)cccc5F)c5ccc([nH]5)c(-c5c(F)cccc5F)c5nc(c(-c6c(F)cccc6F)c6ccc3[nH]6)C=C5)C=C4)cc2)cc1
REMARK SMILES IDX 17 1 18 2 16 3 11 4 12 5 13 6 15 7 14 8 10 9 9 11 8 12 7 13
REMARK SMILES IDX 6 14 3 15 4 16 80 17 5 18 79 19 2 20 1 21 19 22 20 23 21 24
REMARK SMILES IDX 22 25 23 26 24 27 25 28 26 29 78 30 27 31 77 32 28 33 29 34
REMARK SMILES IDX 30 35 71 36 31 37 76 38 70 39 72 40 32 41 75 42 69 43 68 44
REMARK SMILES IDX 33 46 59 47 42 48 58 49 43 50 46 51 57 52 73 53 44 54 45 55
REMARK SMILES IDX 56 57 74 58 47 59 34 60 35 61 40 62 36 63 37 64 39 65 41 66
REMARK SMILES IDX 38 67 60 68 61 69 66 70 62 71 63 72 65 73 67 74 64 75 48 76
REMARK SMILES IDX 49 77 54 78 50 79 51 80 53 81 55 82 52 83
REMARK H PARENT 10 10 72 45 46 56
REMARK Flexibility Score: inf
ROOT
ATOM      1  C   UNL A   1      32.234  25.598  26.122  1.00  0.00     0.340 C 
ATOM      2  O   UNL A   1      31.207  25.140  26.571  1.00  0.00    -0.246 OA
ENDROOT
BRANCH   1   3
ATOM      3  C   UNL A   1      33.299  24.745  25.528  1.00  0.00     0.083 A 
ATOM      4  C   UNL A   1      33.624  24.748  24.164  1.00  0.00     0.049 A 
ATOM      5  C   UNL A   1      34.614  23.836  23.744  1.00  0.00     0.026 A 
ATOM      6  C   UNL A   1      35.251  22.954  24.623  1.00  0.00     0.002 A 
ATOM      7  C   UNL A   1      33.962  23.875  26.419  1.00  0.00     0.018 A 
ATOM      8  C   UNL A   1      34.917  22.968  25.966  1.00  0.00     0.001 A 
BRANCH   4   9
ATOM      9  N   UNL A   1      33.124  25.599  23.199  1.00  0.00    -0.381 N 
ATOM     10  H   UNL A   1      33.709  26.344  22.931  1.00  0.00     0.160 HD
BRANCH   9  11
ATOM     11  C   UNL A   1      31.830  25.523  22.532  1.00  0.00     0.154 C 
BRANCH  11  12
ATOM     12  C   UNL A   1      31.192  26.913  22.339  1.00  0.00     0.250 C 
BRANCH  12  13
ATOM     13  O   UNL A   1      30.038  27.142  23.163  1.00  0.00    -0.492 OA
BRANCH  13  14
ATOM     14  C   UNL A   1      29.335  28.296  22.962  1.00  0.00     0.119 A 
ATOM     15  C   UNL A   1      28.161  30.826  22.813  1.00  0.00     0.119 A 
ATOM     16  C   UNL A   1      29.513  30.672  22.520  1.00  0.00     0.050 A 
ATOM     17  C   UNL A   1      27.371  29.708  23.066  1.00  0.00     0.050 A 
ATOM     18  C   UNL A   1      30.099  29.407  22.599  1.00  0.00     0.050 A 
ATOM     19  C   UNL A   1      27.957  28.441  23.127  1.00  0.00     0.050 A 
BRANCH  15  20
ATOM     20  O   UNL A   1      27.636  32.088  22.783  1.00  0.00    -0.497 OA
ATOM     21  C   UNL A   1      28.662  33.085  22.755  1.00  0.00     0.278 C 
ENDBRANCH  15  20
ENDBRANCH  13  14
ENDBRANCH  12  13
ENDBRANCH  11  12
ENDBRANCH   9  11
ENDBRANCH   4   9
ENDBRANCH   1   3
BRANCH   1  22
ATOM     22  O   UNL A   1      32.548  26.914  25.994  1.00  0.00    -0.458 OA
BRANCH  22  23
ATOM     23  C   UNL A   1      31.744  27.849  26.742  1.00  0.00     0.275 C 
BRANCH  23  24
ATOM     24  C   UNL A   1      31.562  29.141  25.953  1.00  0.00     0.275 C 
BRANCH  24  25
ATOM     25  O   UNL A   1      32.832  29.806  25.875  1.00  0.00    -0.458 OA
BRANCH  25  26
ATOM     26  C   UNL A   1      33.006  30.840  26.725  1.00  0.00     0.338 C 
ATOM     27  O   UNL A   1      32.203  31.701  27.046  1.00  0.00    -0.246 OA
BRANCH  26  28
ATOM     28  C   UNL A   1      34.346  30.729  27.312  1.00  0.00     0.060 A 
ATOM     29  C   UNL A   1      34.879  29.457  27.494  1.00  0.00     0.016 A 
ATOM     30  C   UNL A   1      35.021  31.850  27.785  1.00  0.00     0.016 A 
ATOM     31  C   UNL A   1      36.052  29.282  28.217  1.00  0.00     0.010 A 
ATOM     32  C   UNL A   1      36.251  31.681  28.429  1.00  0.00     0.010 A 
ATOM     33  C   UNL A   1      36.766  30.393  28.682  1.00  0.00    -0.014 A 
BRANCH  33  34
ATOM     34  C   UNL A   1      38.018  30.213  29.469  1.00  0.00     0.031 A 
ATOM     35  C   UNL A   1      39.142  29.384  28.905  1.00  0.00     0.074 A 
ATOM     36  C   UNL A   1      38.160  30.784  30.683  1.00  0.00     0.049 A 
ATOM     37  N   UNL A   1      40.195  28.896  29.507  1.00  0.00    -0.248 NA
ATOM     38  C   UNL A   1      39.056  29.042  27.475  1.00  0.00     0.031 C 
ATOM     39  C   UNL A   1      37.183  31.660  31.333  1.00  0.00     0.029 A 
ATOM     40  N   UNL A   1      39.187  30.707  31.593  1.00  0.00    -0.354 N 
ATOM     41  C   UNL A   1      40.853  28.127  28.555  1.00  0.00     0.074 A 
ATOM     42  C   UNL A   1      40.089  28.224  27.330  1.00  0.00     0.031 C 
ATOM     43  C   UNL A   1      37.664  32.055  32.520  1.00  0.00     0.029 A 
ATOM     44  C   UNL A   1      38.934  31.383  32.763  1.00  0.00     0.049 A 
ATOM     45  H   UNL A   1      40.022  30.214  31.423  1.00  0.00     0.167 HD
ATOM     46  C   UNL A   1      41.986  27.399  28.697  1.00  0.00     0.037 A 
ATOM     47  C   UNL A   1      39.611  31.410  33.927  1.00  0.00     0.037 A 
ATOM     48  C   UNL A   1      42.781  27.371  29.897  1.00  0.00     0.049 A 
ATOM     49  C   UNL A   1      40.857  30.584  34.067  1.00  0.00     0.074 A 
ATOM     50  C   UNL A   1      43.967  26.696  30.131  1.00  0.00     0.029 A 
ATOM     51  N   UNL A   1      42.479  28.064  31.060  1.00  0.00    -0.354 N 
ATOM     52  N   UNL A   1      41.439  29.812  33.181  1.00  0.00    -0.248 NA
ATOM     53  C   UNL A   1      41.528  30.612  35.373  1.00  0.00     0.031 C 
ATOM     54  C   UNL A   1      44.364  26.952  31.448  1.00  0.00     0.029 A 
ATOM     55  C   UNL A   1      43.448  27.820  32.019  1.00  0.00     0.049 A 
ATOM     56  H   UNL A   1      41.693  28.644  31.184  1.00  0.00     0.167 HD
ATOM     57  C   UNL A   1      42.544  29.267  33.819  1.00  0.00     0.074 A 
ATOM     58  C   UNL A   1      42.567  29.818  35.159  1.00  0.00     0.031 C 
ATOM     59  C   UNL A   1      43.453  28.382  33.345  1.00  0.00     0.037 A 
BRANCH  46  60
ATOM     60  C   UNL A   1      42.417  26.538  27.546  1.00  0.00     0.057 A 
ATOM     61  C   UNL A   1      41.986  25.216  27.393  1.00  0.00     0.134 A 
ATOM     62  C   UNL A   1      43.244  27.068  26.545  1.00  0.00     0.134 A 
ATOM     63  F   UNL A   1      41.204  24.643  28.321  1.00  0.00    -0.206 F 
ATOM     64  C   UNL A   1      42.372  24.446  26.293  1.00  0.00     0.040 A 
ATOM     65  C   UNL A   1      43.617  26.317  25.430  1.00  0.00     0.040 A 
ATOM     66  F   UNL A   1      43.690  28.331  26.628  1.00  0.00    -0.206 F 
ATOM     67  C   UNL A   1      43.184  24.999  25.304  1.00  0.00     0.006 A 
ENDBRANCH  46  60
BRANCH  47  68
ATOM     68  C   UNL A   1      39.079  32.187  35.077  1.00  0.00     0.057 A 
ATOM     69  C   UNL A   1      39.328  33.558  35.206  1.00  0.00     0.134 A 
ATOM     70  C   UNL A   1      38.310  31.576  36.075  1.00  0.00     0.134 A 
ATOM     71  F   UNL A   1      40.079  34.196  34.297  1.00  0.00    -0.206 F 
ATOM     72  C   UNL A   1      38.838  34.291  36.289  1.00  0.00     0.040 A 
ATOM     73  C   UNL A   1      37.788  32.301  37.147  1.00  0.00     0.040 A 
ATOM     74  F   UNL A   1      38.036  30.264  36.012  1.00  0.00    -0.206 F 
ATOM     75  C   UNL A   1      38.058  33.662  37.259  1.00  0.00     0.006 A 
ENDBRANCH  47  68
BRANCH  59  76
ATOM     76  C   UNL A   1      44.560  27.980  34.272  1.00  0.00     0.057 A 
ATOM     77  C   UNL A   1      44.455  26.855  35.099  1.00  0.00     0.134 A 
ATOM     78  C   UNL A   1      45.752  28.712  34.319  1.00  0.00     0.134 A 
ATOM     79  F   UNL A   1      43.332  26.122  35.110  1.00  0.00    -0.206 F 
ATOM     80  C   UNL A   1      45.492  26.483  35.956  1.00  0.00     0.040 A 
ATOM     81  C   UNL A   1      46.804  28.337  35.154  1.00  0.00     0.040 A 
ATOM     82  F   UNL A   1      45.916  29.797  33.546  1.00  0.00    -0.206 F 
ATOM     83  C   UNL A   1      46.673  27.222  35.980  1.00  0.00     0.006 A 
ENDBRANCH  59  76
ENDBRANCH  33  34
ENDBRANCH  26  28
ENDBRANCH  25  26
ENDBRANCH  24  25
ENDBRANCH  23  24
ENDBRANCH  22  23
ENDBRANCH   1  22
TORSDOF 17
ENDMDL
MODEL 3
REMARK VINA RESULT:     -10.3      2.667      7.922
REMARK SMILES COc1ccc(OCCNc2ccccc2C(=O)OCCOC(=O)c2ccc(-c3c4nc(c(-c5c(F)cccc5F)c5ccc([nH]5)c(-c5c(F)cccc5F)c5nc(c(-c6c(F)cccc6F)c6ccc3[nH]6)C=C5)C=C4)cc2)cc1
REMARK SMILES IDX 17 1 18 2 16 3 11 4 12 5 13 6 15 7 14 8 10 9 9 11 8 12 7 13
REMARK SMILES IDX 6 14 3 15 4 16 80 17 5 18 79 19 2 20 1 21 19 22 20 23 21 24
REMARK SMILES IDX 22 25 23 26 24 27 25 28 26 29 78 30 27 31 77 32 28 33 29 34
REMARK SMILES IDX 30 35 71 36 31 37 76 38 70 39 72 40 32 41 75 42 69 43 68 44
REMARK SMILES IDX 33 46 59 47 42 48 58 49 43 50 46 51 57 52 73 53 44 54 45 55
REMARK SMILES IDX 56 57 74 58 47 59 34 60 35 61 40 62 36 63 37 64 39 65 41 66
REMARK SMILES IDX 38 67 60 68 61 69 66 70 62 71 63 72 65 73 67 74 64 75 48 76
REMARK SMILES IDX 49 77 54 78 50 79 51 80 53 81 55 82 52 83
REMARK H PARENT 10 10 72 45 46 56
REMARK Flexibility Score: inf
ROOT
ATOM      1  C   UNL A   1      40.449  20.123  26.034  1.00  0.00     0.340 C 
ATOM      2  O   UNL A   1      39.819  19.148  25.687  1.00  0.00    -0.246 OA
ENDROOT
BRANCH   1   3
ATOM      3  C   UNL A   1      39.803  21.425  26.351  1.00  0.00     0.083 A 
ATOM      4  C   UNL A   1      38.594  21.850  25.780  1.00  0.00     0.049 A 
ATOM      5  C   UNL A   1      38.143  23.138  26.132  1.00  0.00     0.026 A 
ATOM      6  C   UNL A   1      38.851  23.976  27.000  1.00  0.00     0.002 A 
ATOM      7  C   UNL A   1      40.503  22.260  27.247  1.00  0.00     0.018 A 
ATOM      8  C   UNL A   1      40.041  23.537  27.554  1.00  0.00     0.001 A 
BRANCH   4   9
ATOM      9  N   UNL A   1      37.765  21.110  24.961  1.00  0.00    -0.381 N 
ATOM     10  H   UNL A   1      38.192  20.671  24.191  1.00  0.00     0.160 HD
BRANCH   9  11
ATOM     11  C   UNL A   1      36.329  20.904  25.106  1.00  0.00     0.154 C 
BRANCH  11  12
ATOM     12  C   UNL A   1      35.509  21.969  24.348  1.00  0.00     0.250 C 
BRANCH  12  13
ATOM     13  O   UNL A   1      34.126  21.622  24.176  1.00  0.00    -0.492 OA
BRANCH  13  14
ATOM     14  C   UNL A   1      33.203  22.318  24.904  1.00  0.00     0.119 A 
ATOM     15  C   UNL A   1      31.332  24.019  26.091  1.00  0.00     0.119 A 
ATOM     16  C   UNL A   1      31.116  23.546  24.800  1.00  0.00     0.050 A 
ATOM     17  C   UNL A   1      32.416  23.555  26.831  1.00  0.00     0.050 A 
ATOM     18  C   UNL A   1      32.055  22.699  24.206  1.00  0.00     0.050 A 
ATOM     19  C   UNL A   1      33.344  22.694  26.240  1.00  0.00     0.050 A 
BRANCH  15  20
ATOM     20  O   UNL A   1      30.421  24.893  26.617  1.00  0.00    -0.497 OA
ATOM     21  C   UNL A   1      29.891  25.766  25.616  1.00  0.00     0.278 C 
ENDBRANCH  15  20
ENDBRANCH  13  14
ENDBRANCH  12  13
ENDBRANCH  11  12
ENDBRANCH   9  11
ENDBRANCH   4   9
ENDBRANCH   1   3
BRANCH   1  22
ATOM     22  O   UNL A   1      41.785  20.180  26.280  1.00  0.00    -0.458 OA
BRANCH  22  23
ATOM     23  C   UNL A   1      42.391  19.000  26.849  1.00  0.00     0.275 C 
BRANCH  23  24
ATOM     24  C   UNL A   1      43.359  18.371  25.854  1.00  0.00     0.275 C 
BRANCH  24  25
ATOM     25  O   UNL A   1      43.517  19.269  24.745  1.00  0.00    -0.458 OA
BRANCH  25  26
ATOM     26  C   UNL A   1      44.789  19.512  24.364  1.00  0.00     0.338 C 
ATOM     27  O   UNL A   1      45.578  18.752  23.826  1.00  0.00    -0.246 OA
BRANCH  26  28
ATOM     28  C   UNL A   1      45.082  20.926  24.621  1.00  0.00     0.060 A 
ATOM     29  C   UNL A   1      45.570  21.278  25.876  1.00  0.00     0.016 A 
ATOM     30  C   UNL A   1      44.775  21.908  23.685  1.00  0.00     0.016 A 
ATOM     31  C   UNL A   1      45.681  22.614  26.239  1.00  0.00     0.010 A 
ATOM     32  C   UNL A   1      44.979  23.251  24.017  1.00  0.00     0.010 A 
ATOM     33  C   UNL A   1      45.404  23.623  25.309  1.00  0.00    -0.014 A 
BRANCH  33  34
ATOM     34  C   UNL A   1      45.509  25.057  25.695  1.00  0.00     0.031 A 
ATOM     35  C   UNL A   1      46.834  25.765  25.584  1.00  0.00     0.074 A 
ATOM     36  C   UNL A   1      44.431  25.734  26.142  1.00  0.00     0.049 A 
ATOM     37  N   UNL A   1      47.206  26.912  26.090  1.00  0.00    -0.248 NA
ATOM     38  C   UNL A   1      47.887  25.077  24.819  1.00  0.00     0.031 C 
ATOM     39  C   UNL A   1      43.072  25.199  26.248  1.00  0.00     0.029 A 
ATOM     40  N   UNL A   1      44.312  27.025  26.599  1.00  0.00    -0.354 N 
ATOM     41  C   UNL A   1      48.552  27.047  25.774  1.00  0.00     0.074 A 
ATOM     42  C   UNL A   1      48.930  25.871  25.020  1.00  0.00     0.031 C 
ATOM     43  C   UNL A   1      42.256  26.155  26.713  1.00  0.00     0.029 A 
ATOM     44  C   UNL A   1      43.046  27.336  27.037  1.00  0.00     0.049 A 
ATOM     45  H   UNL A   1      45.060  27.664  26.612  1.00  0.00     0.167 HD
ATOM     46  C   UNL A   1      49.395  28.056  26.095  1.00  0.00     0.037 A 
ATOM     47  C   UNL A   1      42.582  28.421  27.686  1.00  0.00     0.037 A 
ATOM     48  C   UNL A   1      48.992  29.258  26.779  1.00  0.00     0.049 A 
ATOM     49  C   UNL A   1      43.539  29.522  28.045  1.00  0.00     0.074 A 
ATOM     50  C   UNL A   1      49.761  30.357  27.117  1.00  0.00     0.029 A 
ATOM     51  N   UNL A   1      47.702  29.523  27.213  1.00  0.00    -0.354 N 
ATOM     52  N   UNL A   1      44.822  29.614  27.796  1.00  0.00    -0.248 NA
ATOM     53  C   UNL A   1      42.989  30.658  28.795  1.00  0.00     0.031 C 
ATOM     54  C   UNL A   1      48.944  31.274  27.788  1.00  0.00     0.029 A 
ATOM     55  C   UNL A   1      47.657  30.763  27.829  1.00  0.00     0.049 A 
ATOM     56  H   UNL A   1      46.932  28.920  27.098  1.00  0.00     0.167 HD
ATOM     57  C   UNL A   1      45.233  30.816  28.353  1.00  0.00     0.074 A 
ATOM     58  C   UNL A   1      44.056  31.433  28.930  1.00  0.00     0.031 C 
ATOM     59  C   UNL A   1      46.474  31.358  28.393  1.00  0.00     0.037 A 
BRANCH  46  60
ATOM     60  C   UNL A   1      50.848  27.894  25.752  1.00  0.00     0.057 A 
ATOM     61  C   UNL A   1      51.352  28.153  24.473  1.00  0.00     0.134 A 
ATOM     62  C   UNL A   1      51.765  27.519  26.745  1.00  0.00     0.134 A 
ATOM     63  F   UNL A   1      50.527  28.502  23.474  1.00  0.00    -0.206 F 
ATOM     64  C   UNL A   1      52.714  28.030  24.188  1.00  0.00     0.040 A 
ATOM     65  C   UNL A   1      53.131  27.417  26.479  1.00  0.00     0.040 A 
ATOM     66  F   UNL A   1      51.348  27.261  27.994  1.00  0.00    -0.206 F 
ATOM     67  C   UNL A   1      53.608  27.669  25.195  1.00  0.00     0.006 A 
ENDBRANCH  46  60
BRANCH  47  68
ATOM     68  C   UNL A   1      41.159  28.481  28.108  1.00  0.00     0.057 A 
ATOM     69  C   UNL A   1      40.759  28.064  29.382  1.00  0.00     0.134 A 
ATOM     70  C   UNL A   1      40.163  28.958  27.245  1.00  0.00     0.134 A 
ATOM     71  F   UNL A   1      41.660  27.574  30.246  1.00  0.00    -0.206 F 
ATOM     72  C   UNL A   1      39.420  28.111  29.780  1.00  0.00     0.040 A 
ATOM     73  C   UNL A   1      38.828  29.040  27.639  1.00  0.00     0.040 A 
ATOM     74  F   UNL A   1      40.480  29.373  26.009  1.00  0.00    -0.206 F 
ATOM     75  C   UNL A   1      38.452  28.608  28.908  1.00  0.00     0.006 A 
ENDBRANCH  47  68
BRANCH  59  76
ATOM     76  C   UNL A   1      46.612  32.694  29.060  1.00  0.00     0.057 A 
ATOM     77  C   UNL A   1      46.438  33.890  28.353  1.00  0.00     0.134 A 
ATOM     78  C   UNL A   1      46.896  32.782  30.427  1.00  0.00     0.134 A 
ATOM     79  F   UNL A   1      46.179  33.871  27.037  1.00  0.00    -0.206 F 
ATOM     80  C   UNL A   1      46.561  35.131  28.981  1.00  0.00     0.040 A 
ATOM     81  C   UNL A   1      46.998  34.015  31.072  1.00  0.00     0.040 A 
ATOM     82  F   UNL A   1      47.067  31.672  31.161  1.00  0.00    -0.206 F 
ATOM     83  C   UNL A   1      46.837  35.194  30.346  1.00  0.00     0.006 A 
ENDBRANCH  59  76
ENDBRANCH  33  34
ENDBRANCH  26  28
ENDBRANCH  25  26
ENDBRANCH  24  25
ENDBRANCH  23  24
ENDBRANCH  22  23
ENDBRANCH   1  22
TORSDOF 17
ENDMDL
