MODEL 1
REMARK VINA RESULT:      -9.7      0.000      0.000
REMARK SMILES Nc1cccc(CC(=O)N2CC(C(=O)OCCOC(=O)c3ccc(-c4c5nc(c(-c6c(F)cccc6F)c6ccc([nH]6)c(-c6c(F)cccc6F)c6nc(c(-c7c(F)cccc7F)c7ccc4[nH]7)C=C6)C=C5)cc3)C2)c1
REMARK SMILES IDX 16 1 15 2 13 3 14 4 12 5 8 6 9 7 10 8 11 9 75 10 7 11 6 12
REMARK SMILES IDX 2 13 3 14 76 15 4 16 5 17 1 18 17 21 18 22 19 23 20 24 21 25
REMARK SMILES IDX 22 26 74 27 23 28 73 29 24 30 25 31 26 32 67 33 27 34 72 35
REMARK SMILES IDX 66 36 68 37 28 38 71 39 65 40 64 41 29 43 55 44 38 45 54 46
REMARK SMILES IDX 39 47 42 48 53 49 69 50 40 51 41 52 52 54 70 55 43 56 30 57
REMARK SMILES IDX 31 58 36 59 32 60 33 61 35 62 37 63 34 64 56 65 57 66 62 67
REMARK SMILES IDX 58 68 59 69 61 70 63 71 60 72 44 73 45 74 50 75 46 76 47 77
REMARK SMILES IDX 49 78 51 79 48 80
REMARK H PARENT 1 19 1 20 68 42 42 53
REMARK Flexibility Score: inf
ROOT
ATOM      1  C   UNL A   1      44.409  18.190  25.416  1.00  0.00     0.274 C 
ENDROOT
BRANCH   1   2
ATOM      2  O   UNL A   1      45.514  19.106  25.269  1.00  0.00    -0.462 OA
BRANCH   2   3
ATOM      3  C   UNL A   1      45.388  20.068  24.309  1.00  0.00     0.312 C 
ATOM      4  O   UNL A   1      44.739  19.904  23.274  1.00  0.00    -0.252 OA
BRANCH   3   5
ATOM      5  C   UNL A   1      46.063  21.391  24.669  1.00  0.00     0.138 C 
ATOM      6  C   UNL A   1      46.781  24.309  25.710  1.00  0.00     0.227 C 
ATOM      7  O   UNL A   1      47.591  24.185  26.631  1.00  0.00    -0.275 OA
ATOM      8  N   UNL A   1      45.911  23.301  25.368  1.00  0.00    -0.341 N 
ATOM      9  C   UNL A   1      45.753  22.009  26.031  1.00  0.00     0.136 C 
ATOM     10  C   UNL A   1      45.623  22.730  24.051  1.00  0.00     0.136 C 
BRANCH   6  11
ATOM     11  C   UNL A   1      46.573  25.646  25.026  1.00  0.00     0.135 C 
BRANCH  11  12
ATOM     12  C   UNL A   1      45.390  26.463  25.474  1.00  0.00    -0.037 A 
ATOM     13  C   UNL A   1      44.526  28.411  26.674  1.00  0.00     0.032 A 
ATOM     14  C   UNL A   1      43.239  28.069  26.262  1.00  0.00     0.025 A 
ATOM     15  C   UNL A   1      45.589  27.588  26.295  1.00  0.00     0.029 A 
ATOM     16  C   UNL A   1      43.022  26.956  25.445  1.00  0.00     0.002 A 
ATOM     17  C   UNL A   1      44.094  26.157  25.047  1.00  0.00     0.004 A 
BRANCH  13  18
ATOM     18  N   UNL A   1      44.737  29.476  27.533  1.00  0.00    -0.399 N 
ATOM     19  H   UNL A   1      44.560  30.396  27.230  1.00  0.00     0.156 HD
ATOM     20  H   UNL A   1      45.065  29.313  28.448  1.00  0.00     0.156 HD
ENDBRANCH  13  18
ENDBRANCH  11  12
ENDBRANCH   6  11
ENDBRANCH   3   5
ENDBRANCH   2   3
ENDBRANCH   1   2
BRANCH   1  21
ATOM     21  C   UNL A   1      43.240  18.846  26.160  1.00  0.00     0.275 C 
BRANCH  21  22
ATOM     22  O   UNL A   1      42.252  19.388  25.261  1.00  0.00    -0.458 OA
BRANCH  22  23
ATOM     23  C   UNL A   1      41.099  19.783  25.850  1.00  0.00     0.338 C 
ATOM     24  O   UNL A   1      40.067  19.139  25.954  1.00  0.00    -0.246 OA
BRANCH  23  25
ATOM     25  C   UNL A   1      41.283  21.089  26.503  1.00  0.00     0.060 A 
ATOM     26  C   UNL A   1      41.838  22.117  25.738  1.00  0.00     0.016 A 
ATOM     27  C   UNL A   1      41.008  21.287  27.857  1.00  0.00     0.016 A 
ATOM     28  C   UNL A   1      42.133  23.345  26.316  1.00  0.00     0.010 A 
ATOM     29  C   UNL A   1      41.303  22.523  28.442  1.00  0.00     0.010 A 
ATOM     30  C   UNL A   1      41.880  23.554  27.677  1.00  0.00    -0.014 A 
BRANCH  30  31
ATOM     31  C   UNL A   1      42.281  24.841  28.290  1.00  0.00     0.031 A 
ATOM     32  C   UNL A   1      41.264  25.927  28.480  1.00  0.00     0.074 A 
ATOM     33  C   UNL A   1      43.538  25.003  28.738  1.00  0.00     0.049 A 
ATOM     34  N   UNL A   1      41.419  27.129  28.973  1.00  0.00    -0.248 NA
ATOM     35  C   UNL A   1      39.887  25.617  28.064  1.00  0.00     0.031 C 
ATOM     36  C   UNL A   1      44.594  23.993  28.674  1.00  0.00     0.029 A 
ATOM     37  N   UNL A   1      44.134  26.073  29.355  1.00  0.00    -0.354 N 
ATOM     38  C   UNL A   1      40.166  27.725  28.916  1.00  0.00     0.074 A 
ATOM     39  C   UNL A   1      39.266  26.760  28.320  1.00  0.00     0.031 C 
ATOM     40  C   UNL A   1      45.704  24.484  29.247  1.00  0.00     0.029 A 
ATOM     41  C   UNL A   1      45.451  25.856  29.675  1.00  0.00     0.049 A 
ATOM     42  H   UNL A   1      43.663  26.916  29.548  1.00  0.00     0.167 HD
ATOM     43  C   UNL A   1      39.800  28.962  29.327  1.00  0.00     0.037 A 
ATOM     44  C   UNL A   1      46.355  26.681  30.238  1.00  0.00     0.037 A 
ATOM     45  C   UNL A   1      40.696  29.916  29.927  1.00  0.00     0.049 A 
ATOM     46  C   UNL A   1      45.944  28.078  30.607  1.00  0.00     0.074 A 
ATOM     47  C   UNL A   1      40.424  31.198  30.371  1.00  0.00     0.029 A 
ATOM     48  N   UNL A   1      42.043  29.687  30.170  1.00  0.00    -0.354 N 
ATOM     49  N   UNL A   1      44.765  28.644  30.521  1.00  0.00    -0.248 NA
ATOM     50  C   UNL A   1      46.995  28.956  31.140  1.00  0.00     0.031 C 
ATOM     51  C   UNL A   1      41.615  31.758  30.849  1.00  0.00     0.029 A 
ATOM     52  C   UNL A   1      42.620  30.812  30.738  1.00  0.00     0.049 A 
ATOM     53  H   UNL A   1      42.519  28.850  29.967  1.00  0.00     0.167 HD
ATOM     54  C   UNL A   1      44.926  29.934  31.004  1.00  0.00     0.074 A 
ATOM     55  C   UNL A   1      46.316  30.066  31.392  1.00  0.00     0.031 C 
ATOM     56  C   UNL A   1      44.006  30.923  31.116  1.00  0.00     0.037 A 
BRANCH  43  57
ATOM     57  C   UNL A   1      38.372  29.361  29.104  1.00  0.00     0.057 A 
ATOM     58  C   UNL A   1      37.434  29.369  30.145  1.00  0.00     0.134 A 
ATOM     59  C   UNL A   1      37.929  29.745  27.833  1.00  0.00     0.134 A 
ATOM     60  F   UNL A   1      37.791  28.995  31.384  1.00  0.00    -0.206 F 
ATOM     61  C   UNL A   1      36.101  29.719  29.923  1.00  0.00     0.040 A 
ATOM     62  C   UNL A   1      36.604  30.119  27.602  1.00  0.00     0.040 A 
ATOM     63  F   UNL A   1      38.777  29.762  26.793  1.00  0.00    -0.206 F 
ATOM     64  C   UNL A   1      35.684  30.098  28.649  1.00  0.00     0.006 A 
ENDBRANCH  43  57
BRANCH  44  65
ATOM     65  C   UNL A   1      47.738  26.206  30.475  1.00  0.00     0.057 A 
ATOM     66  C   UNL A   1      48.122  25.696  31.720  1.00  0.00     0.134 A 
ATOM     67  C   UNL A   1      48.708  26.249  29.466  1.00  0.00     0.134 A 
ATOM     68  F   UNL A   1      47.244  25.652  32.732  1.00  0.00    -0.206 F 
ATOM     69  C   UNL A   1      49.423  25.247  31.954  1.00  0.00     0.040 A 
ATOM     70  C   UNL A   1      50.006  25.784  29.680  1.00  0.00     0.040 A 
ATOM     71  F   UNL A   1      48.401  26.730  28.253  1.00  0.00    -0.206 F 
ATOM     72  C   UNL A   1      50.368  25.284  30.930  1.00  0.00     0.006 A 
ENDBRANCH  44  65
BRANCH  56  73
ATOM     73  C   UNL A   1      44.471  32.222  31.704  1.00  0.00     0.057 A 
ATOM     74  C   UNL A   1      44.952  33.262  30.900  1.00  0.00     0.134 A 
ATOM     75  C   UNL A   1      44.411  32.441  33.085  1.00  0.00     0.134 A 
ATOM     76  F   UNL A   1      45.049  33.106  29.571  1.00  0.00    -0.206 F 
ATOM     77  C   UNL A   1      45.378  34.471  31.453  1.00  0.00     0.040 A 
ATOM     78  C   UNL A   1      44.814  33.654  33.647  1.00  0.00     0.040 A 
ATOM     79  F   UNL A   1      43.954  31.486  33.908  1.00  0.00    -0.206 F 
ATOM     80  C   UNL A   1      45.304  34.670  32.831  1.00  0.00     0.006 A 
ENDBRANCH  56  73
ENDBRANCH  30  31
ENDBRANCH  23  25
ENDBRANCH  22  23
ENDBRANCH  21  22
ENDBRANCH   1  21
TORSDOF 14
ENDMDL
MODEL 2
REMARK VINA RESULT:      -9.6      0.615      6.579
REMARK SMILES Nc1cccc(CC(=O)N2CC(C(=O)OCCOC(=O)c3ccc(-c4c5nc(c(-c6c(F)cccc6F)c6ccc([nH]6)c(-c6c(F)cccc6F)c6nc(c(-c7c(F)cccc7F)c7ccc4[nH]7)C=C6)C=C5)cc3)C2)c1
REMARK SMILES IDX 16 1 15 2 13 3 14 4 12 5 8 6 9 7 10 8 11 9 75 10 7 11 6 12
REMARK SMILES IDX 2 13 3 14 76 15 4 16 5 17 1 18 17 21 18 22 19 23 20 24 21 25
REMARK SMILES IDX 22 26 74 27 23 28 73 29 24 30 25 31 26 32 67 33 27 34 72 35
REMARK SMILES IDX 66 36 68 37 28 38 71 39 65 40 64 41 29 43 55 44 38 45 54 46
REMARK SMILES IDX 39 47 42 48 53 49 69 50 40 51 41 52 52 54 70 55 43 56 30 57
REMARK SMILES IDX 31 58 36 59 32 60 33 61 35 62 37 63 34 64 56 65 57 66 62 67
REMARK SMILES IDX 58 68 59 69 61 70 63 71 60 72 44 73 45 74 50 75 46 76 47 77
REMARK SMILES IDX 49 78 51 79 48 80
REMARK H PARENT 1 19 1 20 68 42 42 53
REMARK Flexibility Score: inf
ROOT
ATOM      1  C   UNL A   1      44.470  18.433  25.269  1.00  0.00     0.274 C 
ENDROOT
BRANCH   1   2
ATOM      2  O   UNL A   1      45.282  19.616  25.424  1.00  0.00    -0.462 OA
BRANCH   2   3
ATOM      3  C   UNL A   1      45.270  20.506  24.388  1.00  0.00     0.312 C 
ATOM      4  O   UNL A   1      44.648  20.312  23.343  1.00  0.00    -0.252 OA
BRANCH   3   5
ATOM      5  C   UNL A   1      46.040  21.794  24.674  1.00  0.00     0.138 C 
ATOM      6  C   UNL A   1      47.000  24.670  25.636  1.00  0.00     0.227 C 
ATOM      7  O   UNL A   1      47.902  24.503  26.460  1.00  0.00    -0.275 OA
ATOM      8  N   UNL A   1      46.053  23.703  25.391  1.00  0.00    -0.341 N 
ATOM      9  C   UNL A   1      45.913  22.415  26.065  1.00  0.00     0.136 C 
ATOM     10  C   UNL A   1      45.594  23.156  24.114  1.00  0.00     0.136 C 
BRANCH   6  11
ATOM     11  C   UNL A   1      46.776  26.020  24.985  1.00  0.00     0.135 C 
BRANCH  11  12
ATOM     12  C   UNL A   1      45.721  26.905  25.594  1.00  0.00    -0.037 A 
ATOM     13  C   UNL A   1      43.357  27.472  25.848  1.00  0.00     0.032 A 
ATOM     14  C   UNL A   1      43.712  28.460  26.765  1.00  0.00     0.025 A 
ATOM     15  C   UNL A   1      44.370  26.719  25.251  1.00  0.00     0.029 A 
ATOM     16  C   UNL A   1      45.050  28.658  27.119  1.00  0.00     0.002 A 
ATOM     17  C   UNL A   1      46.052  27.881  26.540  1.00  0.00     0.004 A 
BRANCH  13  18
ATOM     18  N   UNL A   1      42.040  27.315  25.449  1.00  0.00    -0.399 N 
ATOM     19  H   UNL A   1      41.395  26.869  26.044  1.00  0.00     0.156 HD
ATOM     20  H   UNL A   1      41.749  27.649  24.570  1.00  0.00     0.156 HD
ENDBRANCH  13  18
ENDBRANCH  11  12
ENDBRANCH   6  11
ENDBRANCH   3   5
ENDBRANCH   2   3
ENDBRANCH   1   2
BRANCH   1  21
ATOM     21  C   UNL A   1      43.135  18.577  26.010  1.00  0.00     0.275 C 
BRANCH  21  22
ATOM     22  O   UNL A   1      42.134  19.242  25.214  1.00  0.00    -0.458 OA
BRANCH  22  23
ATOM     23  C   UNL A   1      41.129  19.811  25.919  1.00  0.00     0.338 C 
ATOM     24  O   UNL A   1      40.030  19.333  26.152  1.00  0.00    -0.246 OA
BRANCH  23  25
ATOM     25  C   UNL A   1      41.580  21.077  26.517  1.00  0.00     0.060 A 
ATOM     26  C   UNL A   1      41.362  21.255  27.885  1.00  0.00     0.016 A 
ATOM     27  C   UNL A   1      42.121  22.110  25.749  1.00  0.00     0.016 A 
ATOM     28  C   UNL A   1      41.670  22.464  28.496  1.00  0.00     0.010 A 
ATOM     29  C   UNL A   1      42.433  23.328  26.363  1.00  0.00     0.010 A 
ATOM     30  C   UNL A   1      42.197  23.516  27.737  1.00  0.00    -0.014 A 
BRANCH  30  31
ATOM     31  C   UNL A   1      42.437  24.821  28.393  1.00  0.00     0.031 A 
ATOM     32  C   UNL A   1      43.809  25.164  28.894  1.00  0.00     0.074 A 
ATOM     33  C   UNL A   1      41.442  25.721  28.472  1.00  0.00     0.049 A 
ATOM     34  N   UNL A   1      44.218  26.240  29.516  1.00  0.00    -0.248 NA
ATOM     35  C   UNL A   1      44.862  24.163  28.661  1.00  0.00     0.031 C 
ATOM     36  C   UNL A   1      40.087  25.528  27.957  1.00  0.00     0.029 A 
ATOM     37  N   UNL A   1      41.424  26.986  29.001  1.00  0.00    -0.354 N 
ATOM     38  C   UNL A   1      45.571  26.043  29.759  1.00  0.00     0.074 A 
ATOM     39  C   UNL A   1      45.909  24.735  29.238  1.00  0.00     0.031 C 
ATOM     40  C   UNL A   1      39.373  26.644  28.176  1.00  0.00     0.029 A 
ATOM     41  C   UNL A   1      40.206  27.609  28.887  1.00  0.00     0.049 A 
ATOM     42  H   UNL A   1      42.208  27.407  29.422  1.00  0.00     0.167 HD
ATOM     43  C   UNL A   1      46.450  26.880  30.359  1.00  0.00     0.037 A 
ATOM     44  C   UNL A   1      39.804  28.818  29.324  1.00  0.00     0.037 A 
ATOM     45  C   UNL A   1      46.113  28.184  30.868  1.00  0.00     0.049 A 
ATOM     46  C   UNL A   1      40.778  29.692  30.062  1.00  0.00     0.074 A 
ATOM     47  C   UNL A   1      46.931  29.105  31.499  1.00  0.00     0.029 A 
ATOM     48  N   UNL A   1      44.850  28.753  30.801  1.00  0.00    -0.354 N 
ATOM     49  N   UNL A   1      42.048  29.486  30.316  1.00  0.00    -0.248 NA
ATOM     50  C   UNL A   1      40.259  30.963  30.586  1.00  0.00     0.031 C 
ATOM     51  C   UNL A   1      46.153  30.217  31.845  1.00  0.00     0.029 A 
ATOM     52  C   UNL A   1      44.861  30.004  31.397  1.00  0.00     0.049 A 
ATOM     53  H   UNL A   1      44.061  28.330  30.391  1.00  0.00     0.167 HD
ATOM     54  C   UNL A   1      42.484  30.605  31.011  1.00  0.00     0.074 A 
ATOM     55  C   UNL A   1      41.345  31.494  31.130  1.00  0.00     0.031 C 
ATOM     56  C   UNL A   1      43.716  30.873  31.507  1.00  0.00     0.037 A 
BRANCH  43  57
ATOM     57  C   UNL A   1      47.857  26.387  30.526  1.00  0.00     0.057 A 
ATOM     58  C   UNL A   1      48.815  26.527  29.514  1.00  0.00     0.134 A 
ATOM     59  C   UNL A   1      48.258  25.767  31.715  1.00  0.00     0.134 A 
ATOM     60  F   UNL A   1      48.491  27.097  28.344  1.00  0.00    -0.206 F 
ATOM     61  C   UNL A   1      50.116  26.043  29.670  1.00  0.00     0.040 A 
ATOM     62  C   UNL A   1      49.561  25.299  31.892  1.00  0.00     0.040 A 
ATOM     63  F   UNL A   1      47.390  25.604  32.725  1.00  0.00    -0.206 F 
ATOM     64  C   UNL A   1      50.492  25.430  30.863  1.00  0.00     0.006 A 
ENDBRANCH  43  57
BRANCH  44  65
ATOM     65  C   UNL A   1      38.412  29.265  29.083  1.00  0.00     0.057 A 
ATOM     66  C   UNL A   1      38.010  29.721  27.823  1.00  0.00     0.134 A 
ATOM     67  C   UNL A   1      37.452  29.245  30.101  1.00  0.00     0.134 A 
ATOM     68  F   UNL A   1      38.891  29.786  26.815  1.00  0.00    -0.206 F 
ATOM     69  C   UNL A   1      36.701  30.145  27.585  1.00  0.00     0.040 A 
ATOM     70  C   UNL A   1      36.135  29.645  29.872  1.00  0.00     0.040 A 
ATOM     71  F   UNL A   1      37.778  28.821  31.331  1.00  0.00    -0.206 F 
ATOM     72  C   UNL A   1      35.758  30.101  28.610  1.00  0.00     0.006 A 
ENDBRANCH  44  65
BRANCH  56  73
ATOM     73  C   UNL A   1      43.898  32.190  32.200  1.00  0.00     0.057 A 
ATOM     74  C   UNL A   1      43.718  32.324  33.581  1.00  0.00     0.134 A 
ATOM     75  C   UNL A   1      44.284  33.327  31.480  1.00  0.00     0.134 A 
ATOM     76  F   UNL A   1      43.333  31.275  34.323  1.00  0.00    -0.206 F 
ATOM     77  C   UNL A   1      43.896  33.552  34.222  1.00  0.00     0.040 A 
ATOM     78  C   UNL A   1      44.486  34.555  32.112  1.00  0.00     0.040 A 
ATOM     79  F   UNL A   1      44.479  33.262  30.155  1.00  0.00    -0.206 F 
ATOM     80  C   UNL A   1      44.286  34.670  33.486  1.00  0.00     0.006 A 
ENDBRANCH  56  73
ENDBRANCH  30  31
ENDBRANCH  23  25
ENDBRANCH  22  23
ENDBRANCH  21  22
ENDBRANCH   1  21
TORSDOF 14
ENDMDL
MODEL 3
REMARK VINA RESULT:      -8.7      4.196      8.707
REMARK SMILES Nc1cccc(CC(=O)N2CC(C(=O)OCCOC(=O)c3ccc(-c4c5nc(c(-c6c(F)cccc6F)c6ccc([nH]6)c(-c6c(F)cccc6F)c6nc(c(-c7c(F)cccc7F)c7ccc4[nH]7)C=C6)C=C5)cc3)C2)c1
REMARK SMILES IDX 16 1 15 2 13 3 14 4 12 5 8 6 9 7 10 8 11 9 75 10 7 11 6 12
REMARK SMILES IDX 2 13 3 14 76 15 4 16 5 17 1 18 17 21 18 22 19 23 20 24 21 25
REMARK SMILES IDX 22 26 74 27 23 28 73 29 24 30 25 31 26 32 67 33 27 34 72 35
REMARK SMILES IDX 66 36 68 37 28 38 71 39 65 40 64 41 29 43 55 44 38 45 54 46
REMARK SMILES IDX 39 47 42 48 53 49 69 50 40 51 41 52 52 54 70 55 43 56 30 57
REMARK SMILES IDX 31 58 36 59 32 60 33 61 35 62 37 63 34 64 56 65 57 66 62 67
REMARK SMILES IDX 58 68 59 69 61 70 63 71 60 72 44 73 45 74 50 75 46 76 47 77
REMARK SMILES IDX 49 78 51 79 48 80
REMARK H PARENT 1 19 1 20 68 42 42 53
REMARK Flexibility Score: inf
ROOT
ATOM      1  C   UNL A   1      44.152  21.472  25.584  1.00  0.00     0.274 C 
ENDROOT
BRANCH   1   2
ATOM      2  O   UNL A   1      43.051  20.540  25.569  1.00  0.00    -0.462 OA
BRANCH   2   3
ATOM      3  C   UNL A   1      42.108  20.690  26.545  1.00  0.00     0.312 C 
ATOM      4  O   UNL A   1      42.211  20.181  27.662  1.00  0.00    -0.252 OA
BRANCH   3   5
ATOM      5  C   UNL A   1      40.952  21.607  26.149  1.00  0.00     0.138 C 
ATOM      6  C   UNL A   1      38.159  23.095  25.831  1.00  0.00     0.227 C 
ATOM      7  O   UNL A   1      38.295  24.237  26.275  1.00  0.00    -0.275 OA
ATOM      8  N   UNL A   1      38.965  22.058  26.238  1.00  0.00    -0.341 N 
ATOM      9  C   UNL A   1      40.017  22.102  27.251  1.00  0.00     0.136 C 
ATOM     10  C   UNL A   1      39.697  21.080  25.432  1.00  0.00     0.136 C 
BRANCH   6  11
ATOM     11  C   UNL A   1      36.977  22.732  24.955  1.00  0.00     0.135 C 
BRANCH  11  12
ATOM     12  C   UNL A   1      35.627  22.679  25.618  1.00  0.00    -0.037 A 
ATOM     13  C   UNL A   1      33.845  21.347  26.634  1.00  0.00     0.032 A 
ATOM     14  C   UNL A   1      33.162  22.524  26.933  1.00  0.00     0.025 A 
ATOM     15  C   UNL A   1      35.063  21.435  25.955  1.00  0.00     0.029 A 
ATOM     16  C   UNL A   1      33.708  23.770  26.608  1.00  0.00     0.002 A 
ATOM     17  C   UNL A   1      34.938  23.849  25.956  1.00  0.00     0.004 A 
BRANCH  13  18
ATOM     18  N   UNL A   1      33.279  20.111  26.900  1.00  0.00    -0.399 N 
ATOM     19  H   UNL A   1      32.465  20.050  27.450  1.00  0.00     0.156 HD
ATOM     20  H   UNL A   1      33.692  19.293  26.539  1.00  0.00     0.156 HD
ENDBRANCH  13  18
ENDBRANCH  11  12
ENDBRANCH   6  11
ENDBRANCH   3   5
ENDBRANCH   2   3
ENDBRANCH   1   2
BRANCH   1  21
ATOM     21  C   UNL A   1      44.108  22.402  24.366  1.00  0.00     0.275 C 
BRANCH  21  22
ATOM     22  O   UNL A   1      43.428  23.642  24.647  1.00  0.00    -0.458 OA
BRANCH  22  23
ATOM     23  C   UNL A   1      44.221  24.635  25.113  1.00  0.00     0.338 C 
ATOM     24  O   UNL A   1      45.319  24.961  24.690  1.00  0.00    -0.246 OA
BRANCH  23  25
ATOM     25  C   UNL A   1      43.516  25.404  26.150  1.00  0.00     0.060 A 
ATOM     26  C   UNL A   1      43.906  26.732  26.342  1.00  0.00     0.016 A 
ATOM     27  C   UNL A   1      42.558  24.824  26.984  1.00  0.00     0.016 A 
ATOM     28  C   UNL A   1      43.356  27.486  27.370  1.00  0.00     0.010 A 
ATOM     29  C   UNL A   1      42.001  25.582  28.019  1.00  0.00     0.010 A 
ATOM     30  C   UNL A   1      42.407  26.913  28.226  1.00  0.00    -0.014 A 
BRANCH  30  31
ATOM     31  C   UNL A   1      41.898  27.710  29.366  1.00  0.00     0.031 A 
ATOM     32  C   UNL A   1      42.638  27.703  30.671  1.00  0.00     0.074 A 
ATOM     33  C   UNL A   1      40.816  28.491  29.204  1.00  0.00     0.049 A 
ATOM     34  N   UNL A   1      42.344  28.311  31.792  1.00  0.00    -0.248 NA
ATOM     35  C   UNL A   1      43.875  26.909  30.720  1.00  0.00     0.031 C 
ATOM     36  C   UNL A   1      40.058  28.634  27.961  1.00  0.00     0.029 A 
ATOM     37  N   UNL A   1      40.179  29.326  30.085  1.00  0.00    -0.354 N 
ATOM     38  C   UNL A   1      43.351  27.965  32.683  1.00  0.00     0.074 A 
ATOM     39  C   UNL A   1      44.252  27.077  31.980  1.00  0.00     0.031 C 
ATOM     40  C   UNL A   1      39.068  29.521  28.154  1.00  0.00     0.029 A 
ATOM     41  C   UNL A   1      39.096  29.971  29.542  1.00  0.00     0.049 A 
ATOM     42  H   UNL A   1      40.470  29.450  31.018  1.00  0.00     0.167 HD
ATOM     43  C   UNL A   1      43.510  28.357  33.970  1.00  0.00     0.037 A 
ATOM     44  C   UNL A   1      38.216  30.818  30.108  1.00  0.00     0.037 A 
ATOM     45  C   UNL A   1      42.617  29.248  34.663  1.00  0.00     0.049 A 
ATOM     46  C   UNL A   1      38.367  31.170  31.561  1.00  0.00     0.074 A 
ATOM     47  C   UNL A   1      42.688  29.701  35.969  1.00  0.00     0.029 A 
ATOM     48  N   UNL A   1      41.488  29.826  34.102  1.00  0.00    -0.354 N 
ATOM     49  N   UNL A   1      39.304  30.815  32.406  1.00  0.00    -0.248 NA
ATOM     50  C   UNL A   1      37.329  32.033  32.142  1.00  0.00     0.031 C 
ATOM     51  C   UNL A   1      41.581  30.524  36.208  1.00  0.00     0.029 A 
ATOM     52  C   UNL A   1      40.842  30.614  35.041  1.00  0.00     0.049 A 
ATOM     53  H   UNL A   1      41.189  29.695  33.173  1.00  0.00     0.167 HD
ATOM     54  C   UNL A   1      38.981  31.422  33.611  1.00  0.00     0.074 A 
ATOM     55  C   UNL A   1      37.766  32.179  33.385  1.00  0.00     0.031 C 
ATOM     56  C   UNL A   1      39.632  31.359  34.798  1.00  0.00     0.037 A 
BRANCH  43  57
ATOM     57  C   UNL A   1      44.681  27.791  34.716  1.00  0.00     0.057 A 
ATOM     58  C   UNL A   1      45.922  28.440  34.751  1.00  0.00     0.134 A 
ATOM     59  C   UNL A   1      44.565  26.581  35.412  1.00  0.00     0.134 A 
ATOM     60  F   UNL A   1      46.104  29.594  34.092  1.00  0.00    -0.206 F 
ATOM     61  C   UNL A   1      47.013  27.893  35.430  1.00  0.00     0.040 A 
ATOM     62  C   UNL A   1      45.641  26.034  36.112  1.00  0.00     0.040 A 
ATOM     63  F   UNL A   1      43.403  25.910  35.420  1.00  0.00    -0.206 F 
ATOM     64  C   UNL A   1      46.872  26.688  36.115  1.00  0.00     0.006 A 
ENDBRANCH  43  57
BRANCH  44  65
ATOM     65  C   UNL A   1      37.109  31.381  29.300  1.00  0.00     0.057 A 
ATOM     66  C   UNL A   1      35.966  30.626  29.017  1.00  0.00     0.134 A 
ATOM     67  C   UNL A   1      37.165  32.685  28.793  1.00  0.00     0.134 A 
ATOM     68  F   UNL A   1      35.865  29.363  29.455  1.00  0.00    -0.206 F 
ATOM     69  C   UNL A   1      34.918  31.147  28.256  1.00  0.00     0.040 A 
ATOM     70  C   UNL A   1      36.116  33.226  28.049  1.00  0.00     0.040 A 
ATOM     71  F   UNL A   1      38.236  33.457  29.028  1.00  0.00    -0.206 F 
ATOM     72  C   UNL A   1      34.989  32.453  27.775  1.00  0.00     0.006 A 
ENDBRANCH  44  65
BRANCH  56  73
ATOM     73  C   UNL A   1      39.053  32.149  35.933  1.00  0.00     0.057 A 
ATOM     74  C   UNL A   1      38.181  31.570  36.862  1.00  0.00     0.134 A 
ATOM     75  C   UNL A   1      39.395  33.495  36.112  1.00  0.00     0.134 A 
ATOM     76  F   UNL A   1      37.803  30.289  36.735  1.00  0.00    -0.206 F 
ATOM     77  C   UNL A   1      37.651  32.310  37.921  1.00  0.00     0.040 A 
ATOM     78  C   UNL A   1      38.889  34.238  37.179  1.00  0.00     0.040 A 
ATOM     79  F   UNL A   1      40.231  34.106  35.260  1.00  0.00    -0.206 F 
ATOM     80  C   UNL A   1      38.010  33.647  38.084  1.00  0.00     0.006 A 
ENDBRANCH  56  73
ENDBRANCH  30  31
ENDBRANCH  23  25
ENDBRANCH  22  23
ENDBRANCH  21  22
ENDBRANCH   1  21
TORSDOF 14
ENDMDL
