MODEL 1
REMARK VINA RESULT:     -11.4      0.000      0.000
REMARK SMILES CC1(C)CCC[C@H]1NS(=O)(=O)c1cccc(C(=O)OCCOC(=O)c2ccc(-c3c4nc(c(-c5c(F)cccc5F)c5ccc([nH]5)c(-c5c(F)cccc5F)c5nc(c(-c6c(F)cccc6F)c6ccc3[nH]6)C=C5)C=C4)cc2)c1
REMARK SMILES IDX 20 1 19 2 17 3 18 4 16 5 12 6 13 7 79 8 14 9 15 10 9 11
REMARK SMILES IDX 10 12 11 13 8 14 7 16 1 17 2 18 3 19 4 20 5 21 6 22 21 23
REMARK SMILES IDX 22 24 23 25 24 26 25 27 26 28 78 29 27 30 77 31 28 32 29 33
REMARK SMILES IDX 30 34 71 35 31 36 76 37 70 38 72 39 32 40 75 41 69 42 68 43
REMARK SMILES IDX 33 45 59 46 42 47 58 48 43 49 46 50 57 51 73 52 44 53 45 54
REMARK SMILES IDX 56 56 74 57 47 58 34 59 35 60 40 61 36 62 37 63 39 64 41 65
REMARK SMILES IDX 38 66 60 67 61 68 66 69 62 70 63 71 65 72 67 73 64 74 48 75
REMARK SMILES IDX 49 76 54 77 50 78 51 79 53 80 55 81 52 82
REMARK H PARENT 8 15 72 44 46 55
REMARK Flexibility Score: inf
ROOT
ATOM      1  C   UNL A   1      42.200  20.086  25.870  1.00  0.00     0.275 C 
ENDROOT
BRANCH   1   2
ATOM      2  O   UNL A   1      40.969  20.541  26.468  1.00  0.00    -0.458 OA
BRANCH   2   3
ATOM      3  C   UNL A   1      39.823  20.224  25.815  1.00  0.00     0.338 C 
ATOM      4  O   UNL A   1      39.480  19.122  25.422  1.00  0.00    -0.246 OA
BRANCH   3   5
ATOM      5  C   UNL A   1      38.933  21.409  25.794  1.00  0.00     0.061 A 
ATOM      6  C   UNL A   1      36.995  22.599  25.000  1.00  0.00     0.083 A 
ATOM      7  C   UNL A   1      37.432  23.765  25.634  1.00  0.00     0.022 A 
ATOM      8  C   UNL A   1      37.764  21.430  25.038  1.00  0.00     0.037 A 
ATOM      9  C   UNL A   1      38.567  23.723  26.436  1.00  0.00     0.002 A 
ATOM     10  C   UNL A   1      39.288  22.535  26.550  1.00  0.00     0.016 A 
BRANCH   6  11
ATOM     11  S   UNL A   1      35.370  22.477  24.307  1.00  0.00     0.240 S 
ATOM     12  O   UNL A   1      34.918  21.120  24.525  1.00  0.00    -0.207 OA
ATOM     13  O   UNL A   1      35.428  23.049  22.984  1.00  0.00    -0.207 OA
BRANCH  11  14
ATOM     14  N   UNL A   1      34.399  23.499  25.210  1.00  0.00    -0.208 NA
ATOM     15  H   UNL A   1      33.896  22.897  25.861  1.00  0.00     0.141 HD
BRANCH  14  16
ATOM     16  C   UNL A   1      33.385  24.399  24.638  1.00  0.00     0.075 C 
ATOM     17  C   UNL A   1      31.760  22.511  25.448  1.00  0.00     0.013 C 
ATOM     18  C   UNL A   1      31.963  24.003  25.138  1.00  0.00    -0.019 C 
ATOM     19  C   UNL A   1      30.904  24.405  24.089  1.00  0.00     0.013 C 
ATOM     20  C   UNL A   1      31.819  24.848  26.413  1.00  0.00     0.008 C 
ATOM     21  C   UNL A   1      32.456  26.183  26.059  1.00  0.00     0.002 C 
ATOM     22  C   UNL A   1      33.575  25.856  25.076  1.00  0.00     0.020 C 
ENDBRANCH  14  16
ENDBRANCH  11  14
ENDBRANCH   6  11
ENDBRANCH   3   5
ENDBRANCH   2   3
ENDBRANCH   1   2
BRANCH   1  23
ATOM     23  C   UNL A   1      43.191  21.248  25.780  1.00  0.00     0.275 C 
BRANCH  23  24
ATOM     24  O   UNL A   1      42.456  22.459  25.536  1.00  0.00    -0.458 OA
BRANCH  24  25
ATOM     25  C   UNL A   1      43.189  23.573  25.313  1.00  0.00     0.338 C 
ATOM     26  O   UNL A   1      43.944  23.793  24.384  1.00  0.00    -0.246 OA
BRANCH  25  27
ATOM     27  C   UNL A   1      42.937  24.528  26.409  1.00  0.00     0.060 A 
ATOM     28  C   UNL A   1      42.173  24.137  27.507  1.00  0.00     0.016 A 
ATOM     29  C   UNL A   1      43.402  25.839  26.320  1.00  0.00     0.016 A 
ATOM     30  C   UNL A   1      41.811  25.059  28.486  1.00  0.00     0.010 A 
ATOM     31  C   UNL A   1      43.114  26.744  27.348  1.00  0.00     0.010 A 
ATOM     32  C   UNL A   1      42.291  26.374  28.429  1.00  0.00    -0.014 A 
BRANCH  32  33
ATOM     33  C   UNL A   1      41.901  27.372  29.463  1.00  0.00     0.031 A 
ATOM     34  C   UNL A   1      42.701  27.487  30.733  1.00  0.00     0.074 A 
ATOM     35  C   UNL A   1      40.842  28.185  29.277  1.00  0.00     0.049 A 
ATOM     36  N   UNL A   1      42.421  28.138  31.834  1.00  0.00    -0.248 NA
ATOM     37  C   UNL A   1      43.981  26.762  30.775  1.00  0.00     0.031 C 
ATOM     38  C   UNL A   1      40.002  28.231  28.081  1.00  0.00     0.029 A 
ATOM     39  N   UNL A   1      40.295  29.139  30.102  1.00  0.00    -0.354 N 
ATOM     40  C   UNL A   1      43.452  27.848  32.719  1.00  0.00     0.074 A 
ATOM     41  C   UNL A   1      44.371  26.972  32.024  1.00  0.00     0.031 C 
ATOM     42  C   UNL A   1      39.069  29.185  28.234  1.00  0.00     0.029 A 
ATOM     43  C   UNL A   1      39.195  29.764  29.567  1.00  0.00     0.049 A 
ATOM     44  H   UNL A   1      40.657  29.355  30.992  1.00  0.00     0.167 HD
ATOM     45  C   UNL A   1      43.615  28.268  33.995  1.00  0.00     0.037 A 
ATOM     46  C   UNL A   1      38.355  30.672  30.101  1.00  0.00     0.037 A 
ATOM     47  C   UNL A   1      42.739  29.191  34.669  1.00  0.00     0.049 A 
ATOM     48  C   UNL A   1      38.551  31.120  31.521  1.00  0.00     0.074 A 
ATOM     49  C   UNL A   1      42.829  29.680  35.961  1.00  0.00     0.029 A 
ATOM     50  N   UNL A   1      41.626  29.782  34.094  1.00  0.00    -0.354 N 
ATOM     51  N   UNL A   1      39.484  30.776  32.373  1.00  0.00    -0.248 NA
ATOM     52  C   UNL A   1      37.557  32.059  32.062  1.00  0.00     0.031 C 
ATOM     53  C   UNL A   1      41.759  30.555  36.173  1.00  0.00     0.029 A 
ATOM     54  C   UNL A   1      41.019  30.631  35.005  1.00  0.00     0.049 A 
ATOM     55  H   UNL A   1      41.313  29.623  33.174  1.00  0.00     0.167 HD
ATOM     56  C   UNL A   1      39.193  31.454  33.548  1.00  0.00     0.074 A 
ATOM     57  C   UNL A   1      38.008  32.249  33.294  1.00  0.00     0.031 C 
ATOM     58  C   UNL A   1      39.843  31.415  34.736  1.00  0.00     0.037 A 
BRANCH  45  59
ATOM     59  C   UNL A   1      44.772  27.705  34.763  1.00  0.00     0.057 A 
ATOM     60  C   UNL A   1      46.018  28.338  34.801  1.00  0.00     0.134 A 
ATOM     61  C   UNL A   1      44.620  26.522  35.500  1.00  0.00     0.134 A 
ATOM     62  F   UNL A   1      46.230  29.464  34.103  1.00  0.00    -0.206 F 
ATOM     63  C   UNL A   1      47.081  27.806  35.533  1.00  0.00     0.040 A 
ATOM     64  C   UNL A   1      45.670  25.991  36.250  1.00  0.00     0.040 A 
ATOM     65  F   UNL A   1      43.448  25.869  35.505  1.00  0.00    -0.206 F 
ATOM     66  C   UNL A   1      46.906  26.632  36.265  1.00  0.00     0.006 A 
ENDBRANCH  45  59
BRANCH  46  67
ATOM     67  C   UNL A   1      37.222  31.192  29.296  1.00  0.00     0.057 A 
ATOM     68  C   UNL A   1      36.083  30.413  29.067  1.00  0.00     0.134 A 
ATOM     69  C   UNL A   1      37.252  32.476  28.739  1.00  0.00     0.134 A 
ATOM     70  F   UNL A   1      36.011  29.165  29.553  1.00  0.00    -0.206 F 
ATOM     71  C   UNL A   1      35.013  30.891  28.309  1.00  0.00     0.040 A 
ATOM     72  C   UNL A   1      36.180  32.975  27.999  1.00  0.00     0.040 A 
ATOM     73  F   UNL A   1      38.317  33.270  28.924  1.00  0.00    -0.206 F 
ATOM     74  C   UNL A   1      35.058  32.179  27.779  1.00  0.00     0.006 A 
ENDBRANCH  46  67
BRANCH  58  75
ATOM     75  C   UNL A   1      39.296  32.263  35.841  1.00  0.00     0.057 A 
ATOM     76  C   UNL A   1      39.710  33.588  36.018  1.00  0.00     0.134 A 
ATOM     77  C   UNL A   1      38.325  31.761  36.716  1.00  0.00     0.134 A 
ATOM     78  F   UNL A   1      40.648  34.120  35.220  1.00  0.00    -0.206 F 
ATOM     79  C   UNL A   1      39.185  34.384  37.038  1.00  0.00     0.040 A 
ATOM     80  C   UNL A   1      37.781  32.551  37.729  1.00  0.00     0.040 A 
ATOM     81  F   UNL A   1      37.886  30.499  36.594  1.00  0.00    -0.206 F 
ATOM     82  C   UNL A   1      38.214  33.866  37.893  1.00  0.00     0.006 A 
ENDBRANCH  58  75
ENDBRANCH  32  33
ENDBRANCH  25  27
ENDBRANCH  24  25
ENDBRANCH  23  24
ENDBRANCH   1  23
TORSDOF 14
ENDMDL
MODEL 2
REMARK VINA RESULT:     -11.3      3.942      7.857
REMARK SMILES CC1(C)CCC[C@H]1NS(=O)(=O)c1cccc(C(=O)OCCOC(=O)c2ccc(-c3c4nc(c(-c5c(F)cccc5F)c5ccc([nH]5)c(-c5c(F)cccc5F)c5nc(c(-c6c(F)cccc6F)c6ccc3[nH]6)C=C5)C=C4)cc2)c1
REMARK SMILES IDX 20 1 19 2 17 3 18 4 16 5 12 6 13 7 79 8 14 9 15 10 9 11
REMARK SMILES IDX 10 12 11 13 8 14 7 16 1 17 2 18 3 19 4 20 5 21 6 22 21 23
REMARK SMILES IDX 22 24 23 25 24 26 25 27 26 28 78 29 27 30 77 31 28 32 29 33
REMARK SMILES IDX 30 34 71 35 31 36 76 37 70 38 72 39 32 40 75 41 69 42 68 43
REMARK SMILES IDX 33 45 59 46 42 47 58 48 43 49 46 50 57 51 73 52 44 53 45 54
REMARK SMILES IDX 56 56 74 57 47 58 34 59 35 60 40 61 36 62 37 63 39 64 41 65
REMARK SMILES IDX 38 66 60 67 61 68 66 69 62 70 63 71 65 72 67 73 64 74 48 75
REMARK SMILES IDX 49 76 54 77 50 78 51 79 53 80 55 81 52 82
REMARK H PARENT 8 15 72 44 46 55
REMARK Flexibility Score: inf
ROOT
ATOM      1  C   UNL A   1      34.998  20.621  25.364  1.00  0.00     0.275 C 
ENDROOT
BRANCH   1   2
ATOM      2  O   UNL A   1      34.197  19.662  24.643  1.00  0.00    -0.458 OA
BRANCH   2   3
ATOM      3  C   UNL A   1      32.856  19.719  24.845  1.00  0.00     0.338 C 
ATOM      4  O   UNL A   1      32.152  18.867  25.360  1.00  0.00    -0.246 OA
BRANCH   3   5
ATOM      5  C   UNL A   1      32.372  21.076  24.499  1.00  0.00     0.061 A 
ATOM      6  C   UNL A   1      31.421  23.209  25.090  1.00  0.00     0.083 A 
ATOM      7  C   UNL A   1      31.264  23.531  23.740  1.00  0.00     0.022 A 
ATOM      8  C   UNL A   1      31.932  21.965  25.477  1.00  0.00     0.037 A 
ATOM      9  C   UNL A   1      31.759  22.668  22.769  1.00  0.00     0.002 A 
ATOM     10  C   UNL A   1      32.351  21.465  23.152  1.00  0.00     0.016 A 
BRANCH   6  11
ATOM     11  S   UNL A   1      31.188  24.419  26.362  1.00  0.00     0.240 S 
ATOM     12  O   UNL A   1      31.514  23.780  27.619  1.00  0.00    -0.207 OA
ATOM     13  O   UNL A   1      29.900  25.028  26.138  1.00  0.00    -0.207 OA
BRANCH  11  14
ATOM     14  N   UNL A   1      32.321  25.618  26.080  1.00  0.00    -0.208 NA
ATOM     15  H   UNL A   1      32.549  26.003  26.996  1.00  0.00     0.141 HD
BRANCH  14  16
ATOM     16  C   UNL A   1      32.098  26.782  25.207  1.00  0.00     0.075 C 
ATOM     17  C   UNL A   1      31.847  28.016  27.503  1.00  0.00     0.013 C 
ATOM     18  C   UNL A   1      32.234  28.105  26.017  1.00  0.00    -0.019 C 
ATOM     19  C   UNL A   1      31.364  29.208  25.379  1.00  0.00     0.013 C 
ATOM     20  C   UNL A   1      33.728  28.429  25.864  1.00  0.00     0.008 C 
ATOM     21  C   UNL A   1      34.052  28.061  24.424  1.00  0.00     0.002 C 
ATOM     22  C   UNL A   1      33.140  26.887  24.086  1.00  0.00     0.020 C 
ENDBRANCH  14  16
ENDBRANCH  11  14
ENDBRANCH   6  11
ENDBRANCH   3   5
ENDBRANCH   2   3
ENDBRANCH   1   2
BRANCH   1  23
ATOM     23  C   UNL A   1      36.470  20.454  24.981  1.00  0.00     0.275 C 
BRANCH  23  24
ATOM     24  O   UNL A   1      37.245  21.426  25.703  1.00  0.00    -0.458 OA
BRANCH  24  25
ATOM     25  C   UNL A   1      38.550  21.131  25.899  1.00  0.00     0.338 C 
ATOM     26  O   UNL A   1      39.111  20.070  25.700  1.00  0.00    -0.246 OA
BRANCH  25  27
ATOM     27  C   UNL A   1      39.230  22.333  26.420  1.00  0.00     0.060 A 
ATOM     28  C   UNL A   1      38.722  23.597  26.126  1.00  0.00     0.016 A 
ATOM     29  C   UNL A   1      40.413  22.212  27.144  1.00  0.00     0.016 A 
ATOM     30  C   UNL A   1      39.420  24.746  26.493  1.00  0.00     0.010 A 
ATOM     31  C   UNL A   1      41.070  23.365  27.590  1.00  0.00     0.010 A 
ATOM     32  C   UNL A   1      40.597  24.646  27.246  1.00  0.00    -0.014 A 
BRANCH  32  33
ATOM     33  C   UNL A   1      41.359  25.866  27.633  1.00  0.00     0.031 A 
ATOM     34  C   UNL A   1      40.714  26.905  28.510  1.00  0.00     0.074 A 
ATOM     35  C   UNL A   1      42.627  26.053  27.215  1.00  0.00     0.049 A 
ATOM     36  N   UNL A   1      41.120  28.117  28.796  1.00  0.00    -0.248 NA
ATOM     37  C   UNL A   1      39.436  26.538  29.138  1.00  0.00     0.031 C 
ATOM     38  C   UNL A   1      43.406  25.116  26.406  1.00  0.00     0.029 A 
ATOM     39  N   UNL A   1      43.488  27.105  27.423  1.00  0.00    -0.354 N 
ATOM     40  C   UNL A   1      40.119  28.677  29.580  1.00  0.00     0.074 A 
ATOM     41  C   UNL A   1      39.091  27.670  29.735  1.00  0.00     0.031 C 
ATOM     42  C   UNL A   1      44.637  25.615  26.215  1.00  0.00     0.029 A 
ATOM     43  C   UNL A   1      44.711  26.941  26.819  1.00  0.00     0.049 A 
ATOM     44  H   UNL A   1      43.251  27.899  27.953  1.00  0.00     0.167 HD
ATOM     45  C   UNL A   1      40.058  29.919  30.116  1.00  0.00     0.037 A 
ATOM     46  C   UNL A   1      45.762  27.778  26.725  1.00  0.00     0.037 A 
ATOM     47  C   UNL A   1      41.106  30.901  30.019  1.00  0.00     0.049 A 
ATOM     48  C   UNL A   1      45.672  29.154  27.322  1.00  0.00     0.074 A 
ATOM     49  C   UNL A   1      41.136  32.185  30.537  1.00  0.00     0.029 A 
ATOM     50  N   UNL A   1      42.318  30.698  29.381  1.00  0.00    -0.354 N 
ATOM     51  N   UNL A   1      44.687  29.699  27.992  1.00  0.00    -0.248 NA
ATOM     52  C   UNL A   1      46.828  30.040  27.123  1.00  0.00     0.031 C 
ATOM     53  C   UNL A   1      42.363  32.765  30.197  1.00  0.00     0.029 A 
ATOM     54  C   UNL A   1      43.105  31.833  29.491  1.00  0.00     0.049 A 
ATOM     55  H   UNL A   1      42.582  29.870  28.918  1.00  0.00     0.167 HD
ATOM     56  C   UNL A   1      45.102  30.988  28.294  1.00  0.00     0.074 A 
ATOM     57  C   UNL A   1      46.439  31.138  27.755  1.00  0.00     0.031 C 
ATOM     58  C   UNL A   1      44.432  31.966  28.951  1.00  0.00     0.037 A 
BRANCH  45  59
ATOM     59  C   UNL A   1      38.798  30.300  30.830  1.00  0.00     0.057 A 
ATOM     60  C   UNL A   1      38.621  30.073  32.199  1.00  0.00     0.134 A 
ATOM     61  C   UNL A   1      37.756  30.930  30.135  1.00  0.00     0.134 A 
ATOM     62  F   UNL A   1      39.574  29.457  32.915  1.00  0.00    -0.206 F 
ATOM     63  C   UNL A   1      37.444  30.447  32.851  1.00  0.00     0.040 A 
ATOM     64  C   UNL A   1      36.584  31.325  30.780  1.00  0.00     0.040 A 
ATOM     65  F   UNL A   1      37.866  31.177  28.821  1.00  0.00    -0.206 F 
ATOM     66  C   UNL A   1      36.425  31.081  32.142  1.00  0.00     0.006 A 
ENDBRANCH  45  59
BRANCH  46  67
ATOM     67  C   UNL A   1      46.984  27.351  26.001  1.00  0.00     0.057 A 
ATOM     68  C   UNL A   1      48.052  26.752  26.678  1.00  0.00     0.134 A 
ATOM     69  C   UNL A   1      47.113  27.531  24.618  1.00  0.00     0.134 A 
ATOM     70  F   UNL A   1      47.995  26.580  28.007  1.00  0.00    -0.206 F 
ATOM     71  C   UNL A   1      49.207  26.350  26.008  1.00  0.00     0.040 A 
ATOM     72  C   UNL A   1      48.254  27.113  23.931  1.00  0.00     0.040 A 
ATOM     73  F   UNL A   1      46.124  28.101  23.914  1.00  0.00    -0.206 F 
ATOM     74  C   UNL A   1      49.306  26.523  24.628  1.00  0.00     0.006 A 
ENDBRANCH  46  67
BRANCH  58  75
ATOM     75  C   UNL A   1      45.138  33.272  29.134  1.00  0.00     0.057 A 
ATOM     76  C   UNL A   1      44.999  34.314  28.210  1.00  0.00     0.134 A 
ATOM     77  C   UNL A   1      45.939  33.501  30.260  1.00  0.00     0.134 A 
ATOM     78  F   UNL A   1      44.256  34.148  27.105  1.00  0.00    -0.206 F 
ATOM     79  C   UNL A   1      45.644  35.538  28.392  1.00  0.00     0.040 A 
ATOM     80  C   UNL A   1      46.575  34.727  30.461  1.00  0.00     0.040 A 
ATOM     81  F   UNL A   1      46.107  32.543  31.182  1.00  0.00    -0.206 F 
ATOM     82  C   UNL A   1      46.431  35.748  29.524  1.00  0.00     0.006 A 
ENDBRANCH  58  75
ENDBRANCH  32  33
ENDBRANCH  25  27
ENDBRANCH  24  25
ENDBRANCH  23  24
ENDBRANCH   1  23
TORSDOF 14
ENDMDL
MODEL 3
REMARK VINA RESULT:     -11.3      1.544      2.634
REMARK SMILES CC1(C)CCC[C@H]1NS(=O)(=O)c1cccc(C(=O)OCCOC(=O)c2ccc(-c3c4nc(c(-c5c(F)cccc5F)c5ccc([nH]5)c(-c5c(F)cccc5F)c5nc(c(-c6c(F)cccc6F)c6ccc3[nH]6)C=C5)C=C4)cc2)c1
REMARK SMILES IDX 20 1 19 2 17 3 18 4 16 5 12 6 13 7 79 8 14 9 15 10 9 11
REMARK SMILES IDX 10 12 11 13 8 14 7 16 1 17 2 18 3 19 4 20 5 21 6 22 21 23
REMARK SMILES IDX 22 24 23 25 24 26 25 27 26 28 78 29 27 30 77 31 28 32 29 33
REMARK SMILES IDX 30 34 71 35 31 36 76 37 70 38 72 39 32 40 75 41 69 42 68 43
REMARK SMILES IDX 33 45 59 46 42 47 58 48 43 49 46 50 57 51 73 52 44 53 45 54
REMARK SMILES IDX 56 56 74 57 47 58 34 59 35 60 40 61 36 62 37 63 39 64 41 65
REMARK SMILES IDX 38 66 60 67 61 68 66 69 62 70 63 71 65 72 67 73 64 74 48 75
REMARK SMILES IDX 49 76 54 77 50 78 51 79 53 80 55 81 52 82
REMARK H PARENT 8 15 72 44 46 55
REMARK Flexibility Score: inf
ROOT
ATOM      1  C   UNL A   1      42.194  20.606  26.576  1.00  0.00     0.275 C 
ENDROOT
BRANCH   1   2
ATOM      2  O   UNL A   1      40.887  21.173  26.802  1.00  0.00    -0.458 OA
BRANCH   2   3
ATOM      3  C   UNL A   1      39.864  20.645  26.083  1.00  0.00     0.338 C 
ATOM      4  O   UNL A   1      39.760  19.499  25.682  1.00  0.00    -0.246 OA
BRANCH   3   5
ATOM      5  C   UNL A   1      38.770  21.641  25.994  1.00  0.00     0.061 A 
ATOM      6  C   UNL A   1      36.546  22.304  25.350  1.00  0.00     0.083 A 
ATOM      7  C   UNL A   1      36.837  23.636  25.655  1.00  0.00     0.022 A 
ATOM      8  C   UNL A   1      37.521  21.308  25.474  1.00  0.00     0.037 A 
ATOM      9  C   UNL A   1      38.063  23.953  26.229  1.00  0.00     0.002 A 
ATOM     10  C   UNL A   1      39.008  22.949  26.439  1.00  0.00     0.016 A 
BRANCH   6  11
ATOM     11  S   UNL A   1      34.892  21.776  25.002  1.00  0.00     0.240 S 
ATOM     12  O   UNL A   1      34.595  22.181  23.645  1.00  0.00    -0.207 OA
ATOM     13  O   UNL A   1      34.069  22.196  26.110  1.00  0.00    -0.207 OA
BRANCH  11  14
ATOM     14  N   UNL A   1      34.915  20.104  25.051  1.00  0.00    -0.208 NA
ATOM     15  H   UNL A   1      35.863  19.833  24.792  1.00  0.00     0.141 HD
BRANCH  14  16
ATOM     16  C   UNL A   1      34.026  19.237  24.260  1.00  0.00     0.075 C 
ATOM     17  C   UNL A   1      35.898  17.470  24.740  1.00  0.00     0.013 C 
ATOM     18  C   UNL A   1      34.412  17.740  24.452  1.00  0.00    -0.019 C 
ATOM     19  C   UNL A   1      34.031  16.930  23.195  1.00  0.00     0.013 C 
ATOM     20  C   UNL A   1      33.543  17.331  25.651  1.00  0.00     0.008 C 
ATOM     21  C   UNL A   1      32.215  18.034  25.417  1.00  0.00     0.002 C 
ATOM     22  C   UNL A   1      32.561  19.336  24.701  1.00  0.00     0.020 C 
ENDBRANCH  14  16
ENDBRANCH  11  14
ENDBRANCH   6  11
ENDBRANCH   3   5
ENDBRANCH   2   3
ENDBRANCH   1   2
BRANCH   1  23
ATOM     23  C   UNL A   1      42.848  21.283  25.370  1.00  0.00     0.275 C 
BRANCH  23  24
ATOM     24  O   UNL A   1      42.326  22.618  25.255  1.00  0.00    -0.458 OA
BRANCH  24  25
ATOM     25  C   UNL A   1      43.227  23.624  25.319  1.00  0.00     0.338 C 
ATOM     26  O   UNL A   1      44.270  23.730  24.700  1.00  0.00    -0.246 OA
BRANCH  25  27
ATOM     27  C   UNL A   1      42.748  24.622  26.295  1.00  0.00     0.060 A 
ATOM     28  C   UNL A   1      43.148  25.952  26.177  1.00  0.00     0.016 A 
ATOM     29  C   UNL A   1      41.956  24.229  27.371  1.00  0.00     0.016 A 
ATOM     30  C   UNL A   1      42.819  26.882  27.161  1.00  0.00     0.010 A 
ATOM     31  C   UNL A   1      41.550  25.181  28.312  1.00  0.00     0.010 A 
ATOM     32  C   UNL A   1      42.000  26.513  28.235  1.00  0.00    -0.014 A 
BRANCH  32  33
ATOM     33  C   UNL A   1      41.651  27.495  29.299  1.00  0.00     0.031 A 
ATOM     34  C   UNL A   1      42.468  27.553  30.562  1.00  0.00     0.074 A 
ATOM     35  C   UNL A   1      40.615  28.345  29.146  1.00  0.00     0.049 A 
ATOM     36  N   UNL A   1      42.219  28.184  31.682  1.00  0.00    -0.248 NA
ATOM     37  C   UNL A   1      43.725  26.790  30.571  1.00  0.00     0.031 C 
ATOM     38  C   UNL A   1      39.764  28.447  27.961  1.00  0.00     0.029 A 
ATOM     39  N   UNL A   1      40.106  29.293  30.002  1.00  0.00    -0.354 N 
ATOM     40  C   UNL A   1      43.250  27.841  32.548  1.00  0.00     0.074 A 
ATOM     41  C   UNL A   1      44.134  26.955  31.820  1.00  0.00     0.031 C 
ATOM     42  C   UNL A   1      38.863  29.424  28.149  1.00  0.00     0.029 A 
ATOM     43  C   UNL A   1      39.020  29.964  29.495  1.00  0.00     0.049 A 
ATOM     44  H   UNL A   1      40.484  29.474  30.892  1.00  0.00     0.167 HD
ATOM     45  C   UNL A   1      43.439  28.222  33.833  1.00  0.00     0.037 A 
ATOM     46  C   UNL A   1      38.214  30.882  30.061  1.00  0.00     0.037 A 
ATOM     47  C   UNL A   1      42.599  29.153  34.540  1.00  0.00     0.049 A 
ATOM     48  C   UNL A   1      38.438  31.287  31.490  1.00  0.00     0.074 A 
ATOM     49  C   UNL A   1      42.717  29.605  35.843  1.00  0.00     0.029 A 
ATOM     50  N   UNL A   1      41.499  29.792  33.993  1.00  0.00    -0.354 N 
ATOM     51  N   UNL A   1      39.370  30.894  32.322  1.00  0.00    -0.248 NA
ATOM     52  C   UNL A   1      37.479  32.242  32.066  1.00  0.00     0.031 C 
ATOM     53  C   UNL A   1      41.677  30.507  36.090  1.00  0.00     0.029 A 
ATOM     54  C   UNL A   1      40.927  30.634  34.932  1.00  0.00     0.049 A 
ATOM     55  H   UNL A   1      41.171  29.666  33.073  1.00  0.00     0.167 HD
ATOM     56  C   UNL A   1      39.112  31.550  33.518  1.00  0.00     0.074 A 
ATOM     57  C   UNL A   1      37.949  32.386  33.298  1.00  0.00     0.031 C 
ATOM     58  C   UNL A   1      39.773  31.460  34.697  1.00  0.00     0.037 A 
BRANCH  45  59
ATOM     59  C   UNL A   1      44.587  27.605  34.573  1.00  0.00     0.057 A 
ATOM     60  C   UNL A   1      45.849  28.204  34.621  1.00  0.00     0.134 A 
ATOM     61  C   UNL A   1      44.410  26.402  35.271  1.00  0.00     0.134 A 
ATOM     62  F   UNL A   1      46.085  29.346  33.958  1.00  0.00    -0.206 F 
ATOM     63  C   UNL A   1      46.904  27.621  35.327  1.00  0.00     0.040 A 
ATOM     64  C   UNL A   1      45.451  25.820  35.995  1.00  0.00     0.040 A 
ATOM     65  F   UNL A   1      43.221  25.779  35.264  1.00  0.00    -0.206 F 
ATOM     66  C   UNL A   1      46.704  26.429  36.022  1.00  0.00     0.006 A 
ENDBRANCH  45  59
BRANCH  46  67
ATOM     67  C   UNL A   1      37.089  31.457  29.284  1.00  0.00     0.057 A 
ATOM     68  C   UNL A   1      37.167  32.746  28.747  1.00  0.00     0.134 A 
ATOM     69  C   UNL A   1      35.911  30.733  29.060  1.00  0.00     0.134 A 
ATOM     70  F   UNL A   1      38.260  33.497  28.953  1.00  0.00    -0.206 F 
ATOM     71  C   UNL A   1      36.114  33.298  28.017  1.00  0.00     0.040 A 
ATOM     72  C   UNL A   1      34.859  31.263  28.313  1.00  0.00     0.040 A 
ATOM     73  F   UNL A   1      35.776  29.492  29.551  1.00  0.00    -0.206 F 
ATOM     74  C   UNL A   1      34.958  32.552  27.792  1.00  0.00     0.006 A 
ENDBRANCH  46  67
BRANCH  58  75
ATOM     75  C   UNL A   1      39.264  32.295  35.830  1.00  0.00     0.057 A 
ATOM     76  C   UNL A   1      38.368  31.780  36.773  1.00  0.00     0.134 A 
ATOM     77  C   UNL A   1      39.698  33.616  35.996  1.00  0.00     0.134 A 
ATOM     78  F   UNL A   1      37.905  30.526  36.656  1.00  0.00    -0.206 F 
ATOM     79  C   UNL A   1      37.908  32.555  37.839  1.00  0.00     0.040 A 
ATOM     80  C   UNL A   1      39.259  34.395  37.068  1.00  0.00     0.040 A 
ATOM     81  F   UNL A   1      40.560  34.164  35.128  1.00  0.00    -0.206 F 
ATOM     82  C   UNL A   1      38.359  33.865  37.990  1.00  0.00     0.006 A 
ENDBRANCH  58  75
ENDBRANCH  32  33
ENDBRANCH  25  27
ENDBRANCH  24  25
ENDBRANCH  23  24
ENDBRANCH   1  23
TORSDOF 14
ENDMDL
