MODEL 1
REMARK VINA RESULT:     -11.6      0.000      0.000
REMARK SMILES COc1ccc(-c2nc3ccc(C)cc3[nH]2)c(C(=O)OCCOC(=O)c2ccc(-c3c4nc(c(-c5c(F)cccc5F)c5ccc([nH]5)c(-c5c(F)cccc5F)c5nc(c(-c6c(F)cccc6F)c6ccc3[nH]6)C=C5)C=C4)cc2)c1OC
REMARK SMILES IDX 22 1 21 2 20 3 18 4 19 5 17 6 3 7 4 8 80 9 5 10 6 11 2 12
REMARK SMILES IDX 1 13 81 14 82 15 7 16 8 17 16 18 9 19 15 20 10 22 14 23
REMARK SMILES IDX 11 24 12 25 13 26 23 27 24 28 25 29 26 30 27 31 79 32 28 33
REMARK SMILES IDX 78 34 29 35 30 36 31 37 72 38 32 39 77 40 71 41 73 42 33 43
REMARK SMILES IDX 76 44 70 45 69 46 34 48 60 49 43 50 59 51 44 52 47 53 58 54
REMARK SMILES IDX 74 55 45 56 46 57 57 59 75 60 48 61 35 62 36 63 41 64 37 65
REMARK SMILES IDX 38 66 40 67 42 68 39 69 61 70 62 71 67 72 63 73 64 74 66 75
REMARK SMILES IDX 68 76 65 77 49 78 50 79 55 80 51 81 52 82 54 83 56 84 53 85
REMARK H PARENT 16 21 73 47 47 58
REMARK Flexibility Score: inf
ROOT
ATOM      1  C   UNL A   1      37.274  21.960  24.772  1.00  0.00     0.275 C 
ENDROOT
BRANCH   1   2
ATOM      2  C   UNL A   1      35.990  21.184  25.068  1.00  0.00     0.275 C 
BRANCH   2   3
ATOM      3  O   UNL A   1      35.017  22.128  25.507  1.00  0.00    -0.458 OA
BRANCH   3   4
ATOM      4  C   UNL A   1      34.216  22.637  24.551  1.00  0.00     0.342 C 
ATOM      5  O   UNL A   1      34.421  22.731  23.351  1.00  0.00    -0.246 OA
BRANCH   4   6
ATOM      6  C   UNL A   1      32.955  22.999  25.216  1.00  0.00     0.116 A 
ATOM      7  C   UNL A   1      31.616  24.703  26.251  1.00  0.00     0.161 A 
ATOM      8  C   UNL A   1      30.600  23.750  26.439  1.00  0.00     0.051 A 
ATOM      9  C   UNL A   1      32.821  24.324  25.664  1.00  0.00     0.176 A 
ATOM     10  C   UNL A   1      30.771  22.411  26.035  1.00  0.00     0.017 A 
ATOM     11  C   UNL A   1      31.962  22.008  25.415  1.00  0.00     0.036 A 
BRANCH   7  12
ATOM     12  O   UNL A   1      31.440  25.946  26.796  1.00  0.00    -0.493 OA
ATOM     13  C   UNL A   1      30.735  26.814  25.906  1.00  0.00     0.278 C 
ENDBRANCH   7  12
BRANCH   9  14
ATOM     14  O   UNL A   1      33.970  25.068  25.653  1.00  0.00    -0.492 OA
ATOM     15  C   UNL A   1      34.102  26.085  24.682  1.00  0.00     0.278 C 
ENDBRANCH   9  14
BRANCH  11  16
ATOM     16  C   UNL A   1      32.313  20.592  25.184  1.00  0.00     0.139 A 
ATOM     17  N   UNL A   1      32.256  20.050  23.984  1.00  0.00    -0.228 NA
ATOM     18  N   UNL A   1      32.799  19.658  26.077  1.00  0.00    -0.338 N 
ATOM     19  C   UNL A   1      32.771  18.800  24.068  1.00  0.00     0.089 A 
ATOM     20  C   UNL A   1      33.119  18.508  25.373  1.00  0.00     0.066 A 
ATOM     21  H   UNL A   1      32.899  19.786  27.048  1.00  0.00     0.168 HD
ATOM     22  C   UNL A   1      33.021  17.886  23.038  1.00  0.00     0.031 A 
ATOM     23  C   UNL A   1      33.722  17.291  25.716  1.00  0.00     0.031 A 
ATOM     24  C   UNL A   1      33.748  16.737  23.336  1.00  0.00     0.006 A 
ATOM     25  C   UNL A   1      34.120  16.449  24.654  1.00  0.00    -0.049 A 
ATOM     26  C   UNL A   1      35.057  15.297  24.893  1.00  0.00     0.044 C 
ENDBRANCH  11  16
ENDBRANCH   4   6
ENDBRANCH   3   4
ENDBRANCH   2   3
ENDBRANCH   1   2
BRANCH   1  27
ATOM     27  O   UNL A   1      37.617  22.836  25.871  1.00  0.00    -0.458 OA
BRANCH  27  28
ATOM     28  C   UNL A   1      38.871  22.707  26.382  1.00  0.00     0.338 C 
ATOM     29  O   UNL A   1      39.539  21.687  26.447  1.00  0.00    -0.246 OA
BRANCH  28  30
ATOM     30  C   UNL A   1      39.384  24.034  26.818  1.00  0.00     0.060 A 
ATOM     31  C   UNL A   1      39.194  24.429  28.152  1.00  0.00     0.016 A 
ATOM     32  C   UNL A   1      40.068  24.879  25.943  1.00  0.00     0.016 A 
ATOM     33  C   UNL A   1      39.727  25.639  28.622  1.00  0.00     0.010 A 
ATOM     34  C   UNL A   1      40.597  26.088  26.411  1.00  0.00     0.010 A 
ATOM     35  C   UNL A   1      40.431  26.482  27.753  1.00  0.00    -0.014 A 
BRANCH  35  36
ATOM     36  C   UNL A   1      40.832  27.860  28.144  1.00  0.00     0.031 A 
ATOM     37  C   UNL A   1      42.288  28.143  28.334  1.00  0.00     0.074 A 
ATOM     38  C   UNL A   1      39.954  28.856  28.367  1.00  0.00     0.049 A 
ATOM     39  N   UNL A   1      42.863  29.233  28.763  1.00  0.00    -0.248 NA
ATOM     40  C   UNL A   1      43.216  27.074  27.935  1.00  0.00     0.031 C 
ATOM     41  C   UNL A   1      38.539  28.810  28.055  1.00  0.00     0.029 A 
ATOM     42  N   UNL A   1      40.117  30.088  28.960  1.00  0.00    -0.354 N 
ATOM     43  C   UNL A   1      44.221  29.013  28.612  1.00  0.00     0.074 A 
ATOM     44  C   UNL A   1      44.387  27.654  28.143  1.00  0.00     0.031 C 
ATOM     45  C   UNL A   1      37.925  29.877  28.599  1.00  0.00     0.029 A 
ATOM     46  C   UNL A   1      38.922  30.701  29.267  1.00  0.00     0.049 A 
ATOM     47  H   UNL A   1      40.996  30.490  29.144  1.00  0.00     0.167 HD
ATOM     48  C   UNL A   1      45.236  29.887  28.799  1.00  0.00     0.037 A 
ATOM     49  C   UNL A   1      38.660  31.787  30.020  1.00  0.00     0.037 A 
ATOM     50  C   UNL A   1      45.078  31.213  29.331  1.00  0.00     0.049 A 
ATOM     51  C   UNL A   1      39.808  32.630  30.492  1.00  0.00     0.074 A 
ATOM     52  C   UNL A   1      46.051  32.161  29.590  1.00  0.00     0.029 A 
ATOM     53  N   UNL A   1      43.866  31.767  29.720  1.00  0.00    -0.354 N 
ATOM     54  N   UNL A   1      41.090  32.438  30.311  1.00  0.00    -0.248 NA
ATOM     55  C   UNL A   1      39.479  33.872  31.208  1.00  0.00     0.031 C 
ATOM     56  C   UNL A   1      45.436  33.265  30.191  1.00  0.00     0.029 A 
ATOM     57  C   UNL A   1      44.072  33.028  30.254  1.00  0.00     0.049 A 
ATOM     58  H   UNL A   1      42.989  31.327  29.629  1.00  0.00     0.167 HD
ATOM     59  C   UNL A   1      41.717  33.573  30.805  1.00  0.00     0.074 A 
ATOM     60  C   UNL A   1      40.675  34.429  31.337  1.00  0.00     0.031 C 
ATOM     61  C   UNL A   1      43.034  33.886  30.772  1.00  0.00     0.037 A 
BRANCH  48  62
ATOM     62  C   UNL A   1      46.600  29.395  28.433  1.00  0.00     0.057 A 
ATOM     63  C   UNL A   1      47.429  28.776  29.379  1.00  0.00     0.134 A 
ATOM     64  C   UNL A   1      47.110  29.590  27.146  1.00  0.00     0.134 A 
ATOM     65  F   UNL A   1      47.003  28.584  30.637  1.00  0.00    -0.206 F 
ATOM     66  C   UNL A   1      48.735  28.401  29.065  1.00  0.00     0.040 A 
ATOM     67  C   UNL A   1      48.406  29.198  26.815  1.00  0.00     0.040 A 
ATOM     68  F   UNL A   1      46.366  30.183  26.201  1.00  0.00    -0.206 F 
ATOM     69  C   UNL A   1      49.226  28.611  27.779  1.00  0.00     0.006 A 
ENDBRANCH  48  62
BRANCH  49  70
ATOM     70  C   UNL A   1      37.263  32.155  30.364  1.00  0.00     0.057 A 
ATOM     71  C   UNL A   1      36.494  32.977  29.537  1.00  0.00     0.134 A 
ATOM     72  C   UNL A   1      36.684  31.722  31.563  1.00  0.00     0.134 A 
ATOM     73  F   UNL A   1      37.006  33.449  28.391  1.00  0.00    -0.206 F 
ATOM     74  C   UNL A   1      35.200  33.369  29.893  1.00  0.00     0.040 A 
ATOM     75  C   UNL A   1      35.385  32.090  31.925  1.00  0.00     0.040 A 
ATOM     76  F   UNL A   1      37.379  30.952  32.412  1.00  0.00    -0.206 F 
ATOM     77  C   UNL A   1      34.641  32.921  31.090  1.00  0.00     0.006 A 
ENDBRANCH  49  70
BRANCH  61  78
ATOM     78  C   UNL A   1      43.433  35.248  31.255  1.00  0.00     0.057 A 
ATOM     79  C   UNL A   1      43.757  35.503  32.592  1.00  0.00     0.134 A 
ATOM     80  C   UNL A   1      43.547  36.309  30.345  1.00  0.00     0.134 A 
ATOM     81  F   UNL A   1      43.649  34.537  33.515  1.00  0.00    -0.206 F 
ATOM     82  C   UNL A   1      44.174  36.769  33.009  1.00  0.00     0.040 A 
ATOM     83  C   UNL A   1      43.988  37.570  30.745  1.00  0.00     0.040 A 
ATOM     84  F   UNL A   1      43.251  36.130  29.049  1.00  0.00    -0.206 F 
ATOM     85  C   UNL A   1      44.301  37.803  32.082  1.00  0.00     0.006 A 
ENDBRANCH  61  78
ENDBRANCH  35  36
ENDBRANCH  28  30
ENDBRANCH  27  28
ENDBRANCH   1  27
TORSDOF 14
ENDMDL
MODEL 2
REMARK VINA RESULT:     -11.5      1.745      2.356
REMARK SMILES COc1ccc(-c2nc3ccc(C)cc3[nH]2)c(C(=O)OCCOC(=O)c2ccc(-c3c4nc(c(-c5c(F)cccc5F)c5ccc([nH]5)c(-c5c(F)cccc5F)c5nc(c(-c6c(F)cccc6F)c6ccc3[nH]6)C=C5)C=C4)cc2)c1OC
REMARK SMILES IDX 22 1 21 2 20 3 18 4 19 5 17 6 3 7 4 8 80 9 5 10 6 11 2 12
REMARK SMILES IDX 1 13 81 14 82 15 7 16 8 17 16 18 9 19 15 20 10 22 14 23
REMARK SMILES IDX 11 24 12 25 13 26 23 27 24 28 25 29 26 30 27 31 79 32 28 33
REMARK SMILES IDX 78 34 29 35 30 36 31 37 72 38 32 39 77 40 71 41 73 42 33 43
REMARK SMILES IDX 76 44 70 45 69 46 34 48 60 49 43 50 59 51 44 52 47 53 58 54
REMARK SMILES IDX 74 55 45 56 46 57 57 59 75 60 48 61 35 62 36 63 41 64 37 65
REMARK SMILES IDX 38 66 40 67 42 68 39 69 61 70 62 71 67 72 63 73 64 74 66 75
REMARK SMILES IDX 68 76 65 77 49 78 50 79 55 80 51 81 52 82 54 83 56 84 53 85
REMARK H PARENT 16 21 73 47 47 58
REMARK Flexibility Score: inf
ROOT
ATOM      1  C   UNL A   1      36.520  23.493  26.001  1.00  0.00     0.275 C 
ENDROOT
BRANCH   1   2
ATOM      2  C   UNL A   1      35.819  22.306  25.338  1.00  0.00     0.275 C 
BRANCH   2   3
ATOM      3  O   UNL A   1      34.514  22.740  24.966  1.00  0.00    -0.458 OA
BRANCH   3   4
ATOM      4  C   UNL A   1      34.375  23.172  23.698  1.00  0.00     0.342 C 
ATOM      5  O   UNL A   1      35.147  23.050  22.759  1.00  0.00    -0.246 OA
BRANCH   4   6
ATOM      6  C   UNL A   1      33.034  23.770  23.606  1.00  0.00     0.116 A 
ATOM      7  C   UNL A   1      31.692  25.760  23.556  1.00  0.00     0.161 A 
ATOM      8  C   UNL A   1      30.552  24.953  23.407  1.00  0.00     0.051 A 
ATOM      9  C   UNL A   1      32.947  25.170  23.690  1.00  0.00     0.176 A 
ATOM     10  C   UNL A   1      30.650  23.547  23.381  1.00  0.00     0.017 A 
ATOM     11  C   UNL A   1      31.902  22.927  23.485  1.00  0.00     0.036 A 
BRANCH   7  12
ATOM     12  O   UNL A   1      31.510  27.107  23.718  1.00  0.00    -0.493 OA
ATOM     13  C   UNL A   1      30.147  27.480  23.508  1.00  0.00     0.278 C 
ENDBRANCH   7  12
BRANCH   9  14
ATOM     14  O   UNL A   1      34.088  25.808  24.093  1.00  0.00    -0.492 OA
ATOM     15  C   UNL A   1      34.154  26.292  25.418  1.00  0.00     0.278 C 
ENDBRANCH   9  14
BRANCH  11  16
ATOM     16  C   UNL A   1      32.068  21.475  23.707  1.00  0.00     0.139 A 
ATOM     17  N   UNL A   1      32.112  20.620  22.706  1.00  0.00    -0.228 NA
ATOM     18  N   UNL A   1      32.268  20.792  24.891  1.00  0.00    -0.338 N 
ATOM     19  C   UNL A   1      32.416  19.401  23.213  1.00  0.00     0.089 A 
ATOM     20  C   UNL A   1      32.515  19.463  24.590  1.00  0.00     0.066 A 
ATOM     21  H   UNL A   1      32.239  21.183  25.794  1.00  0.00     0.168 HD
ATOM     22  C   UNL A   1      32.678  18.210  22.528  1.00  0.00     0.031 A 
ATOM     23  C   UNL A   1      32.871  18.341  25.349  1.00  0.00     0.031 A 
ATOM     24  C   UNL A   1      33.172  17.127  23.250  1.00  0.00     0.006 A 
ATOM     25  C   UNL A   1      33.294  17.193  24.643  1.00  0.00    -0.049 A 
ATOM     26  C   UNL A   1      34.001  16.070  25.349  1.00  0.00     0.044 C 
ENDBRANCH  11  16
ENDBRANCH   4   6
ENDBRANCH   3   4
ENDBRANCH   2   3
ENDBRANCH   1   2
BRANCH   1  27
ATOM     27  O   UNL A   1      37.839  23.696  25.443  1.00  0.00    -0.458 OA
BRANCH  27  28
ATOM     28  C   UNL A   1      38.892  23.402  26.252  1.00  0.00     0.338 C 
ATOM     29  O   UNL A   1      39.439  22.319  26.385  1.00  0.00    -0.246 OA
BRANCH  28  30
ATOM     30  C   UNL A   1      39.364  24.632  26.945  1.00  0.00     0.060 A 
ATOM     31  C   UNL A   1      39.005  24.834  28.287  1.00  0.00     0.016 A 
ATOM     32  C   UNL A   1      40.172  25.571  26.301  1.00  0.00     0.016 A 
ATOM     33  C   UNL A   1      39.490  25.943  28.998  1.00  0.00     0.010 A 
ATOM     34  C   UNL A   1      40.653  26.678  27.009  1.00  0.00     0.010 A 
ATOM     35  C   UNL A   1      40.316  26.877  28.363  1.00  0.00    -0.014 A 
BRANCH  35  36
ATOM     36  C   UNL A   1      40.685  28.169  29.004  1.00  0.00     0.031 A 
ATOM     37  C   UNL A   1      42.005  28.258  29.699  1.00  0.00     0.074 A 
ATOM     38  C   UNL A   1      39.880  29.248  29.019  1.00  0.00     0.049 A 
ATOM     39  N   UNL A   1      42.495  29.241  30.406  1.00  0.00    -0.248 NA
ATOM     40  C   UNL A   1      42.910  27.112  29.529  1.00  0.00     0.031 C 
ATOM     41  C   UNL A   1      38.662  29.396  28.247  1.00  0.00     0.029 A 
ATOM     42  N   UNL A   1      39.941  30.411  29.754  1.00  0.00    -0.354 N 
ATOM     43  C   UNL A   1      43.795  28.867  30.698  1.00  0.00     0.074 A 
ATOM     44  C   UNL A   1      43.986  27.530  30.176  1.00  0.00     0.031 C 
ATOM     45  C   UNL A   1      38.000  30.492  28.658  1.00  0.00     0.029 A 
ATOM     46  C   UNL A   1      38.777  31.144  29.703  1.00  0.00     0.049 A 
ATOM     47  H   UNL A   1      40.737  30.689  30.263  1.00  0.00     0.167 HD
ATOM     48  C   UNL A   1      44.759  29.597  31.304  1.00  0.00     0.037 A 
ATOM     49  C   UNL A   1      38.373  32.203  30.431  1.00  0.00     0.037 A 
ATOM     50  C   UNL A   1      44.551  30.895  31.884  1.00  0.00     0.049 A 
ATOM     51  C   UNL A   1      39.360  32.868  31.344  1.00  0.00     0.074 A 
ATOM     52  C   UNL A   1      45.459  31.698  32.549  1.00  0.00     0.029 A 
ATOM     53  N   UNL A   1      43.336  31.567  31.897  1.00  0.00    -0.354 N 
ATOM     54  N   UNL A   1      40.602  32.533  31.586  1.00  0.00    -0.248 NA
ATOM     55  C   UNL A   1      38.921  34.092  32.030  1.00  0.00     0.031 C 
ATOM     56  C   UNL A   1      44.779  32.828  33.018  1.00  0.00     0.029 A 
ATOM     57  C   UNL A   1      43.461  32.757  32.594  1.00  0.00     0.049 A 
ATOM     58  H   UNL A   1      42.508  31.244  31.472  1.00  0.00     0.167 HD
ATOM     59  C   UNL A   1      41.122  33.549  32.374  1.00  0.00     0.074 A 
ATOM     60  C   UNL A   1      40.046  34.490  32.609  1.00  0.00     0.031 C 
ATOM     61  C   UNL A   1      42.393  33.700  32.818  1.00  0.00     0.037 A 
BRANCH  48  62
ATOM     62  C   UNL A   1      46.113  28.966  31.369  1.00  0.00     0.057 A 
ATOM     63  C   UNL A   1      46.500  28.182  32.465  1.00  0.00     0.134 A 
ATOM     64  C   UNL A   1      47.056  29.187  30.361  1.00  0.00     0.134 A 
ATOM     65  F   UNL A   1      45.646  27.956  33.476  1.00  0.00    -0.206 F 
ATOM     66  C   UNL A   1      47.793  27.671  32.574  1.00  0.00     0.040 A 
ATOM     67  C   UNL A   1      48.344  28.662  30.447  1.00  0.00     0.040 A 
ATOM     68  F   UNL A   1      46.747  29.935  29.291  1.00  0.00    -0.206 F 
ATOM     69  C   UNL A   1      48.719  27.910  31.560  1.00  0.00     0.006 A 
ENDBRANCH  48  62
BRANCH  49  70
ATOM     70  C   UNL A   1      36.984  32.716  30.320  1.00  0.00     0.057 A 
ATOM     71  C   UNL A   1      35.957  32.243  31.140  1.00  0.00     0.134 A 
ATOM     72  C   UNL A   1      36.647  33.666  29.347  1.00  0.00     0.134 A 
ATOM     73  F   UNL A   1      36.211  31.310  32.068  1.00  0.00    -0.206 F 
ATOM     74  C   UNL A   1      34.639  32.685  30.992  1.00  0.00     0.040 A 
ATOM     75  C   UNL A   1      35.338  34.132  29.199  1.00  0.00     0.040 A 
ATOM     76  F   UNL A   1      37.583  34.140  28.512  1.00  0.00    -0.206 F 
ATOM     77  C   UNL A   1      34.329  33.636  30.020  1.00  0.00     0.006 A 
ENDBRANCH  49  70
BRANCH  61  78
ATOM     78  C   UNL A   1      42.726  34.970  33.543  1.00  0.00     0.057 A 
ATOM     79  C   UNL A   1      43.171  36.117  32.877  1.00  0.00     0.134 A 
ATOM     80  C   UNL A   1      42.539  35.055  34.929  1.00  0.00     0.134 A 
ATOM     81  F   UNL A   1      43.389  36.095  31.554  1.00  0.00    -0.206 F 
ATOM     82  C   UNL A   1      43.427  37.304  33.568  1.00  0.00     0.040 A 
ATOM     83  C   UNL A   1      42.766  36.242  35.626  1.00  0.00     0.040 A 
ATOM     84  F   UNL A   1      42.114  33.991  35.627  1.00  0.00    -0.206 F 
ATOM     85  C   UNL A   1      43.213  37.371  34.943  1.00  0.00     0.006 A 
ENDBRANCH  61  78
ENDBRANCH  35  36
ENDBRANCH  28  30
ENDBRANCH  27  28
ENDBRANCH   1  27
TORSDOF 14
ENDMDL
MODEL 3
REMARK VINA RESULT:     -11.5      3.187      8.428
REMARK SMILES COc1ccc(-c2nc3ccc(C)cc3[nH]2)c(C(=O)OCCOC(=O)c2ccc(-c3c4nc(c(-c5c(F)cccc5F)c5ccc([nH]5)c(-c5c(F)cccc5F)c5nc(c(-c6c(F)cccc6F)c6ccc3[nH]6)C=C5)C=C4)cc2)c1OC
REMARK SMILES IDX 22 1 21 2 20 3 18 4 19 5 17 6 3 7 4 8 80 9 5 10 6 11 2 12
REMARK SMILES IDX 1 13 81 14 82 15 7 16 8 17 16 18 9 19 15 20 10 22 14 23
REMARK SMILES IDX 11 24 12 25 13 26 23 27 24 28 25 29 26 30 27 31 79 32 28 33
REMARK SMILES IDX 78 34 29 35 30 36 31 37 72 38 32 39 77 40 71 41 73 42 33 43
REMARK SMILES IDX 76 44 70 45 69 46 34 48 60 49 43 50 59 51 44 52 47 53 58 54
REMARK SMILES IDX 74 55 45 56 46 57 57 59 75 60 48 61 35 62 36 63 41 64 37 65
REMARK SMILES IDX 38 66 40 67 42 68 39 69 61 70 62 71 67 72 63 73 64 74 66 75
REMARK SMILES IDX 68 76 65 77 49 78 50 79 55 80 51 81 52 82 54 83 56 84 53 85
REMARK H PARENT 16 21 73 47 47 58
REMARK Flexibility Score: inf
ROOT
ATOM      1  C   UNL A   1      33.194  29.517  26.199  1.00  0.00     0.275 C 
ENDROOT
BRANCH   1   2
ATOM      2  C   UNL A   1      33.606  28.162  25.623  1.00  0.00     0.275 C 
BRANCH   2   3
ATOM      3  O   UNL A   1      32.466  27.620  24.962  1.00  0.00    -0.458 OA
BRANCH   3   4
ATOM      4  C   UNL A   1      31.702  26.785  25.693  1.00  0.00     0.342 C 
ATOM      5  O   UNL A   1      31.136  26.997  26.754  1.00  0.00    -0.246 OA
BRANCH   4   6
ATOM      6  C   UNL A   1      31.587  25.540  24.917  1.00  0.00     0.116 A 
ATOM      7  C   UNL A   1      32.306  23.273  24.589  1.00  0.00     0.161 A 
ATOM      8  C   UNL A   1      31.396  23.169  23.524  1.00  0.00     0.051 A 
ATOM      9  C   UNL A   1      32.433  24.477  25.277  1.00  0.00     0.176 A 
ATOM     10  C   UNL A   1      30.593  24.261  23.138  1.00  0.00     0.017 A 
ATOM     11  C   UNL A   1      30.679  25.477  23.832  1.00  0.00     0.036 A 
BRANCH   7  12
ATOM     12  O   UNL A   1      33.154  22.223  24.815  1.00  0.00    -0.493 OA
ATOM     13  C   UNL A   1      32.632  21.330  25.801  1.00  0.00     0.278 C 
ENDBRANCH   7  12
BRANCH   9  14
ATOM     14  O   UNL A   1      33.441  24.796  26.147  1.00  0.00    -0.492 OA
ATOM     15  C   UNL A   1      34.771  24.759  25.674  1.00  0.00     0.278 C 
ENDBRANCH   9  14
BRANCH  11  16
ATOM     16  C   UNL A   1      30.059  26.727  23.347  1.00  0.00     0.139 A 
ATOM     17  N   UNL A   1      28.806  27.032  23.619  1.00  0.00    -0.228 NA
ATOM     18  N   UNL A   1      30.633  27.768  22.644  1.00  0.00    -0.338 N 
ATOM     19  C   UNL A   1      28.578  28.290  23.170  1.00  0.00     0.089 A 
ATOM     20  C   UNL A   1      29.702  28.789  22.540  1.00  0.00     0.066 A 
ATOM     21  H   UNL A   1      31.547  27.782  22.277  1.00  0.00     0.168 HD
ATOM     22  C   UNL A   1      27.435  29.081  23.330  1.00  0.00     0.031 A 
ATOM     23  C   UNL A   1      29.738  30.094  22.032  1.00  0.00     0.031 A 
ATOM     24  C   UNL A   1      27.502  30.422  22.961  1.00  0.00     0.006 A 
ATOM     25  C   UNL A   1      28.647  30.936  22.342  1.00  0.00    -0.049 A 
ATOM     26  C   UNL A   1      28.737  32.422  22.134  1.00  0.00     0.044 C 
ENDBRANCH  11  16
ENDBRANCH   4   6
ENDBRANCH   3   4
ENDBRANCH   2   3
ENDBRANCH   1   2
BRANCH   1  27
ATOM     27  O   UNL A   1      33.546  29.617  27.598  1.00  0.00    -0.458 OA
BRANCH  27  28
ATOM     28  C   UNL A   1      34.346  30.659  27.951  1.00  0.00     0.338 C 
ATOM     29  O   UNL A   1      34.022  31.829  28.069  1.00  0.00    -0.246 OA
BRANCH  28  30
ATOM     30  C   UNL A   1      35.719  30.169  28.251  1.00  0.00     0.060 A 
ATOM     31  C   UNL A   1      36.013  29.730  29.551  1.00  0.00     0.016 A 
ATOM     32  C   UNL A   1      36.708  30.114  27.267  1.00  0.00     0.016 A 
ATOM     33  C   UNL A   1      37.273  29.192  29.857  1.00  0.00     0.010 A 
ATOM     34  C   UNL A   1      37.966  29.580  27.573  1.00  0.00     0.010 A 
ATOM     35  C   UNL A   1      38.262  29.116  28.870  1.00  0.00    -0.014 A 
BRANCH  35  36
ATOM     36  C   UNL A   1      39.669  28.751  29.189  1.00  0.00     0.031 A 
ATOM     37  C   UNL A   1      40.575  29.823  29.703  1.00  0.00     0.074 A 
ATOM     38  C   UNL A   1      40.177  27.517  29.009  1.00  0.00     0.049 A 
ATOM     39  N   UNL A   1      41.855  29.765  29.955  1.00  0.00    -0.248 NA
ATOM     40  C   UNL A   1      39.943  31.111  30.025  1.00  0.00     0.031 C 
ATOM     41  C   UNL A   1      39.405  26.330  28.698  1.00  0.00     0.029 A 
ATOM     42  N   UNL A   1      41.479  27.067  29.010  1.00  0.00    -0.354 N 
ATOM     43  C   UNL A   1      42.167  30.979  30.540  1.00  0.00     0.074 A 
ATOM     44  C   UNL A   1      40.967  31.789  30.518  1.00  0.00     0.031 C 
ATOM     45  C   UNL A   1      40.238  25.324  28.376  1.00  0.00     0.029 A 
ATOM     46  C   UNL A   1      41.610  25.795  28.497  1.00  0.00     0.049 A 
ATOM     47  H   UNL A   1      42.236  27.599  29.345  1.00  0.00     0.167 HD
ATOM     48  C   UNL A   1      43.339  31.365  31.094  1.00  0.00     0.037 A 
ATOM     49  C   UNL A   1      42.709  25.100  28.144  1.00  0.00     0.037 A 
ATOM     50  C   UNL A   1      44.549  30.590  31.054  1.00  0.00     0.049 A 
ATOM     51  C   UNL A   1      44.057  25.655  28.497  1.00  0.00     0.074 A 
ATOM     52  C   UNL A   1      45.797  30.911  31.556  1.00  0.00     0.029 A 
ATOM     53  N   UNL A   1      44.671  29.349  30.444  1.00  0.00    -0.354 N 
ATOM     54  N   UNL A   1      44.344  26.788  29.088  1.00  0.00    -0.248 NA
ATOM     55  C   UNL A   1      45.227  24.814  28.205  1.00  0.00     0.031 C 
ATOM     56  C   UNL A   1      46.687  29.893  31.198  1.00  0.00     0.029 A 
ATOM     57  C   UNL A   1      45.981  28.909  30.523  1.00  0.00     0.049 A 
ATOM     58  H   UNL A   1      43.933  28.854  30.019  1.00  0.00     0.167 HD
ATOM     59  C   UNL A   1      45.711  26.757  29.322  1.00  0.00     0.074 A 
ATOM     60  C   UNL A   1      46.204  25.513  28.766  1.00  0.00     0.031 C 
ATOM     61  C   UNL A   1      46.471  27.665  29.981  1.00  0.00     0.037 A 
BRANCH  48  62
ATOM     62  C   UNL A   1      43.338  32.700  31.766  1.00  0.00     0.057 A 
ATOM     63  C   UNL A   1      43.033  32.830  33.128  1.00  0.00     0.134 A 
ATOM     64  C   UNL A   1      43.588  33.868  31.039  1.00  0.00     0.134 A 
ATOM     65  F   UNL A   1      42.760  31.747  33.872  1.00  0.00    -0.206 F 
ATOM     66  C   UNL A   1      42.939  34.082  33.736  1.00  0.00     0.040 A 
ATOM     67  C   UNL A   1      43.520  35.123  31.641  1.00  0.00     0.040 A 
ATOM     68  F   UNL A   1      43.878  33.807  29.731  1.00  0.00    -0.206 F 
ATOM     69  C   UNL A   1      43.185  35.233  32.990  1.00  0.00     0.006 A 
ENDBRANCH  48  62
BRANCH  49  70
ATOM     70  C   UNL A   1      42.590  23.802  27.433  1.00  0.00     0.057 A 
ATOM     71  C   UNL A   1      42.410  22.600  28.122  1.00  0.00     0.134 A 
ATOM     72  C   UNL A   1      42.706  23.736  26.039  1.00  0.00     0.134 A 
ATOM     73  F   UNL A   1      42.324  22.596  29.460  1.00  0.00    -0.206 F 
ATOM     74  C   UNL A   1      42.358  21.374  27.452  1.00  0.00     0.040 A 
ATOM     75  C   UNL A   1      42.638  22.520  25.354  1.00  0.00     0.040 A 
ATOM     76  F   UNL A   1      42.907  24.852  25.323  1.00  0.00    -0.206 F 
ATOM     77  C   UNL A   1      42.469  21.333  26.063  1.00  0.00     0.006 A 
ENDBRANCH  49  70
BRANCH  61  78
ATOM     78  C   UNL A   1      47.911  27.321  30.215  1.00  0.00     0.057 A 
ATOM     79  C   UNL A   1      48.322  26.501  31.272  1.00  0.00     0.134 A 
ATOM     80  C   UNL A   1      48.894  27.777  29.327  1.00  0.00     0.134 A 
ATOM     81  F   UNL A   1      47.433  26.049  32.169  1.00  0.00    -0.206 F 
ATOM     82  C   UNL A   1      49.664  26.154  31.442  1.00  0.00     0.040 A 
ATOM     83  C   UNL A   1      50.234  27.415  29.471  1.00  0.00     0.040 A 
ATOM     84  F   UNL A   1      48.565  28.567  28.293  1.00  0.00    -0.206 F 
ATOM     85  C   UNL A   1      50.622  26.602  30.533  1.00  0.00     0.006 A 
ENDBRANCH  61  78
ENDBRANCH  35  36
ENDBRANCH  28  30
ENDBRANCH  27  28
ENDBRANCH   1  27
TORSDOF 14
ENDMDL
