MODEL 1
REMARK VINA RESULT:     -12.2      0.000      0.000
REMARK SMILES CC(=O)NS(=O)(=O)c1ccc(-c2ccn(C(F)F)c(=O)c2)cc1C(=O)OCCOC(=O)c1ccc(-c2c3nc(c(-c4c(F)cccc4F)c4ccc([nH]4)c(-c4c(F)cccc4F)c4nc(c(-c5c(F)cccc5F)c5ccc2[nH]5)C=C4)C=C3)cc1
REMARK SMILES IDX 27 1 26 2 24 3 25 4 23 5 8 6 9 7 10 8 22 9 11 10 5 11 6 12
REMARK SMILES IDX 7 13 4 14 1 15 2 16 3 17 12 19 13 20 21 21 14 22 19 23 15 24
REMARK SMILES IDX 20 25 16 26 17 27 18 28 28 29 29 30 30 31 31 32 32 33 33 34
REMARK SMILES IDX 85 35 34 36 84 37 35 38 36 39 37 40 78 41 38 42 83 43 77 44
REMARK SMILES IDX 79 45 39 46 82 47 76 48 75 49 40 51 66 52 49 53 65 54 50 55
REMARK SMILES IDX 53 56 64 57 80 58 51 59 52 60 63 62 81 63 54 64 41 65 42 66
REMARK SMILES IDX 47 67 43 68 44 69 46 70 48 71 45 72 67 73 68 74 73 75 69 76
REMARK SMILES IDX 70 77 72 78 74 79 71 80 55 81 56 82 61 83 57 84 58 85 60 86
REMARK SMILES IDX 62 87 59 88
REMARK H PARENT 4 18 79 50 53 61
REMARK Flexibility Score: inf
ROOT
ATOM      1  C   UNL A   1      32.665  28.311  24.302  1.00  0.00     0.275 C 
ENDROOT
BRANCH   1   2
ATOM      2  O   UNL A   1      33.680  27.423  24.816  1.00  0.00    -0.458 OA
BRANCH   2   3
ATOM      3  C   UNL A   1      33.252  26.344  25.492  1.00  0.00     0.339 C 
ATOM      4  O   UNL A   1      32.554  26.363  26.495  1.00  0.00    -0.246 OA
BRANCH   3   5
ATOM      5  C   UNL A   1      33.637  25.049  24.863  1.00  0.00     0.081 A 
ATOM      6  C   UNL A   1      32.898  24.312  23.934  1.00  0.00     0.102 A 
ATOM      7  C   UNL A   1      33.520  23.266  23.225  1.00  0.00     0.024 A 
ATOM      8  C   UNL A   1      34.796  22.822  23.579  1.00  0.00     0.010 A 
ATOM      9  C   UNL A   1      34.933  24.597  25.190  1.00  0.00     0.025 A 
ATOM     10  C   UNL A   1      35.482  23.447  24.617  1.00  0.00    -0.017 A 
BRANCH   6  11
ATOM     11  S   UNL A   1      31.152  24.551  23.747  1.00  0.00     0.264 S 
ATOM     12  O   UNL A   1      30.650  23.445  22.964  1.00  0.00    -0.201 OA
ATOM     13  O   UNL A   1      30.917  25.934  23.400  1.00  0.00    -0.201 OA
BRANCH  11  14
ATOM     14  N   UNL A   1      30.522  24.347  25.280  1.00  0.00    -0.249 N 
ATOM     15  C   UNL A   1      31.154  21.962  25.751  1.00  0.00     0.115 C 
ATOM     16  C   UNL A   1      30.946  23.381  26.214  1.00  0.00     0.230 C 
ATOM     17  O   UNL A   1      30.946  23.675  27.403  1.00  0.00    -0.274 OA
ATOM     18  H   UNL A   1      29.793  24.949  25.553  1.00  0.00     0.183 HD
ENDBRANCH  11  14
ENDBRANCH   6  11
BRANCH  10  19
ATOM     19  C   UNL A   1      36.731  22.890  25.165  1.00  0.00    -0.011 A 
ATOM     20  C   UNL A   1      37.621  23.686  25.994  1.00  0.00     0.027 A 
ATOM     21  C   UNL A   1      37.064  21.621  24.883  1.00  0.00     0.080 A 
ATOM     22  C   UNL A   1      38.778  23.180  26.435  1.00  0.00     0.095 A 
ATOM     23  C   UNL A   1      38.337  21.034  25.390  1.00  0.00     0.255 A 
ATOM     24  N   UNL A   1      39.145  21.883  26.130  1.00  0.00    -0.258 N 
ATOM     25  O   UNL A   1      38.583  19.863  25.119  1.00  0.00    -0.269 OA
BRANCH  24  26
ATOM     26  C   UNL A   1      40.400  21.349  26.601  1.00  0.00     0.451 C 
ATOM     27  F   UNL A   1      41.400  21.642  25.735  1.00  0.00    -0.185 F 
ATOM     28  F   UNL A   1      40.724  21.872  27.808  1.00  0.00    -0.185 F 
ENDBRANCH  24  26
ENDBRANCH  10  19
ENDBRANCH   3   5
ENDBRANCH   2   3
ENDBRANCH   1   2
BRANCH   1  29
ATOM     29  C   UNL A   1      32.874  29.729  24.826  1.00  0.00     0.275 C 
BRANCH  29  30
ATOM     30  O   UNL A   1      32.442  29.795  26.196  1.00  0.00    -0.458 OA
BRANCH  30  31
ATOM     31  C   UNL A   1      32.799  30.905  26.878  1.00  0.00     0.338 C 
ATOM     32  O   UNL A   1      32.150  31.921  27.054  1.00  0.00    -0.246 OA
BRANCH  31  33
ATOM     33  C   UNL A   1      34.149  30.718  27.435  1.00  0.00     0.060 A 
ATOM     34  C   UNL A   1      34.658  29.431  27.589  1.00  0.00     0.016 A 
ATOM     35  C   UNL A   1      34.858  31.815  27.921  1.00  0.00     0.016 A 
ATOM     36  C   UNL A   1      35.840  29.222  28.298  1.00  0.00     0.010 A 
ATOM     37  C   UNL A   1      36.086  31.612  28.560  1.00  0.00     0.010 A 
ATOM     38  C   UNL A   1      36.571  30.312  28.794  1.00  0.00    -0.014 A 
BRANCH  38  39
ATOM     39  C   UNL A   1      37.798  30.097  29.612  1.00  0.00     0.031 A 
ATOM     40  C   UNL A   1      38.952  29.312  29.045  1.00  0.00     0.074 A 
ATOM     41  C   UNL A   1      37.904  30.612  30.854  1.00  0.00     0.049 A 
ATOM     42  N   UNL A   1      40.021  28.855  29.648  1.00  0.00    -0.248 NA
ATOM     43  C   UNL A   1      38.894  28.993  27.609  1.00  0.00     0.031 C 
ATOM     44  C   UNL A   1      36.897  31.435  31.522  1.00  0.00     0.029 A 
ATOM     45  N   UNL A   1      38.921  30.519  31.774  1.00  0.00    -0.354 N 
ATOM     46  C   UNL A   1      40.717  28.130  28.689  1.00  0.00     0.074 A 
ATOM     47  C   UNL A   1      39.965  28.228  27.456  1.00  0.00     0.031 C 
ATOM     48  C   UNL A   1      37.359  31.807  32.725  1.00  0.00     0.029 A 
ATOM     49  C   UNL A   1      38.657  31.178  32.950  1.00  0.00     0.049 A 
ATOM     50  H   UNL A   1      39.756  30.028  31.606  1.00  0.00     0.167 HD
ATOM     51  C   UNL A   1      41.873  27.437  28.826  1.00  0.00     0.037 A 
ATOM     52  C   UNL A   1      39.356  31.236  34.100  1.00  0.00     0.037 A 
ATOM     53  C   UNL A   1      42.657  27.388  30.031  1.00  0.00     0.049 A 
ATOM     54  C   UNL A   1      40.636  30.462  34.230  1.00  0.00     0.074 A 
ATOM     55  C   UNL A   1      43.850  26.721  30.259  1.00  0.00     0.029 A 
ATOM     56  N   UNL A   1      42.339  28.048  31.206  1.00  0.00    -0.354 N 
ATOM     57  N   UNL A   1      41.241  29.716  33.339  1.00  0.00    -0.248 NA
ATOM     58  C   UNL A   1      41.314  30.516  35.533  1.00  0.00     0.031 C 
ATOM     59  C   UNL A   1      44.245  26.968  31.579  1.00  0.00     0.029 A 
ATOM     60  C   UNL A   1      43.312  27.809  32.161  1.00  0.00     0.049 A 
ATOM     61  H   UNL A   1      41.538  28.605  31.342  1.00  0.00     0.167 HD
ATOM     62  C   UNL A   1      42.366  29.207  33.974  1.00  0.00     0.074 A 
ATOM     63  C   UNL A   1      42.374  29.752  35.316  1.00  0.00     0.031 C 
ATOM     64  C   UNL A   1      43.303  28.356  33.493  1.00  0.00     0.037 A 
BRANCH  51  65
ATOM     65  C   UNL A   1      42.345  26.642  27.645  1.00  0.00     0.057 A 
ATOM     66  C   UNL A   1      41.965  25.310  27.444  1.00  0.00     0.134 A 
ATOM     67  C   UNL A   1      43.169  27.235  26.679  1.00  0.00     0.134 A 
ATOM     68  F   UNL A   1      41.194  24.681  28.345  1.00  0.00    -0.206 F 
ATOM     69  C   UNL A   1      42.399  24.590  26.330  1.00  0.00     0.040 A 
ATOM     70  C   UNL A   1      43.593  26.532  25.551  1.00  0.00     0.040 A 
ATOM     71  F   UNL A   1      43.566  28.509  26.814  1.00  0.00    -0.206 F 
ATOM     72  C   UNL A   1      43.210  25.204  25.376  1.00  0.00     0.006 A 
ENDBRANCH  51  65
BRANCH  52  73
ATOM     73  C   UNL A   1      38.833  32.028  35.241  1.00  0.00     0.057 A 
ATOM     74  C   UNL A   1      38.172  31.405  36.306  1.00  0.00     0.134 A 
ATOM     75  C   UNL A   1      38.988  33.417  35.299  1.00  0.00     0.134 A 
ATOM     76  F   UNL A   1      37.968  30.080  36.290  1.00  0.00    -0.206 F 
ATOM     77  C   UNL A   1      37.688  32.137  37.390  1.00  0.00     0.040 A 
ATOM     78  C   UNL A   1      38.527  34.159  36.386  1.00  0.00     0.040 A 
ATOM     79  F   UNL A   1      39.611  34.070  34.305  1.00  0.00    -0.206 F 
ATOM     80  C   UNL A   1      37.872  33.519  37.436  1.00  0.00     0.006 A 
ENDBRANCH  52  73
BRANCH  64  81
ATOM     81  C   UNL A   1      44.417  27.976  34.417  1.00  0.00     0.057 A 
ATOM     82  C   UNL A   1      45.574  28.757  34.525  1.00  0.00     0.134 A 
ATOM     83  C   UNL A   1      44.321  26.838  35.225  1.00  0.00     0.134 A 
ATOM     84  F   UNL A   1      45.729  29.852  33.767  1.00  0.00    -0.206 F 
ATOM     85  C   UNL A   1      46.609  28.406  35.395  1.00  0.00     0.040 A 
ATOM     86  C   UNL A   1      45.341  26.485  36.109  1.00  0.00     0.040 A 
ATOM     87  F   UNL A   1      43.233  26.054  35.170  1.00  0.00    -0.206 F 
ATOM     88  C   UNL A   1      46.490  27.268  36.192  1.00  0.00     0.006 A 
ENDBRANCH  64  81
ENDBRANCH  38  39
ENDBRANCH  31  33
ENDBRANCH  30  31
ENDBRANCH  29  30
ENDBRANCH   1  29
TORSDOF 15
ENDMDL
MODEL 2
REMARK VINA RESULT:     -11.9      3.642      8.743
REMARK SMILES CC(=O)NS(=O)(=O)c1ccc(-c2ccn(C(F)F)c(=O)c2)cc1C(=O)OCCOC(=O)c1ccc(-c2c3nc(c(-c4c(F)cccc4F)c4ccc([nH]4)c(-c4c(F)cccc4F)c4nc(c(-c5c(F)cccc5F)c5ccc2[nH]5)C=C4)C=C3)cc1
REMARK SMILES IDX 27 1 26 2 24 3 25 4 23 5 8 6 9 7 10 8 22 9 11 10 5 11 6 12
REMARK SMILES IDX 7 13 4 14 1 15 2 16 3 17 12 19 13 20 21 21 14 22 19 23 15 24
REMARK SMILES IDX 20 25 16 26 17 27 18 28 28 29 29 30 30 31 31 32 32 33 33 34
REMARK SMILES IDX 85 35 34 36 84 37 35 38 36 39 37 40 78 41 38 42 83 43 77 44
REMARK SMILES IDX 79 45 39 46 82 47 76 48 75 49 40 51 66 52 49 53 65 54 50 55
REMARK SMILES IDX 53 56 64 57 80 58 51 59 52 60 63 62 81 63 54 64 41 65 42 66
REMARK SMILES IDX 47 67 43 68 44 69 46 70 48 71 45 72 67 73 68 74 73 75 69 76
REMARK SMILES IDX 70 77 72 78 74 79 71 80 55 81 56 82 61 83 57 84 58 85 60 86
REMARK SMILES IDX 62 87 59 88
REMARK H PARENT 4 18 79 50 53 61
REMARK Flexibility Score: inf
ROOT
ATOM      1  C   UNL A   1      34.628  21.954  25.267  1.00  0.00     0.275 C 
ENDROOT
BRANCH   1   2
ATOM      2  O   UNL A   1      34.721  23.362  25.575  1.00  0.00    -0.458 OA
BRANCH   2   3
ATOM      3  C   UNL A   1      34.410  24.217  24.587  1.00  0.00     0.339 C 
ATOM      4  O   UNL A   1      34.886  24.207  23.461  1.00  0.00    -0.246 OA
BRANCH   3   5
ATOM      5  C   UNL A   1      33.333  25.183  24.944  1.00  0.00     0.081 A 
ATOM      6  C   UNL A   1      31.965  25.049  24.692  1.00  0.00     0.102 A 
ATOM      7  C   UNL A   1      31.053  25.903  25.340  1.00  0.00     0.024 A 
ATOM      8  C   UNL A   1      31.501  27.007  26.068  1.00  0.00     0.010 A 
ATOM      9  C   UNL A   1      33.764  26.293  25.700  1.00  0.00     0.025 A 
ATOM     10  C   UNL A   1      32.867  27.246  26.192  1.00  0.00    -0.017 A 
BRANCH   6  11
ATOM     11  S   UNL A   1      31.361  23.941  23.448  1.00  0.00     0.264 S 
ATOM     12  O   UNL A   1      29.959  24.234  23.256  1.00  0.00    -0.201 OA
ATOM     13  O   UNL A   1      31.857  22.615  23.740  1.00  0.00    -0.201 OA
BRANCH  11  14
ATOM     14  N   UNL A   1      32.122  24.417  22.039  1.00  0.00    -0.249 N 
ATOM     15  C   UNL A   1      31.325  26.790  21.835  1.00  0.00     0.115 C 
ATOM     16  C   UNL A   1      32.403  25.749  21.674  1.00  0.00     0.230 C 
ATOM     17  O   UNL A   1      33.436  25.984  21.060  1.00  0.00    -0.274 OA
ATOM     18  H   UNL A   1      32.396  23.710  21.412  1.00  0.00     0.183 HD
ENDBRANCH  11  14
ENDBRANCH   6  11
BRANCH  10  19
ATOM     19  C   UNL A   1      33.386  28.500  26.766  1.00  0.00    -0.011 A 
ATOM     20  C   UNL A   1      32.538  29.667  26.941  1.00  0.00     0.027 A 
ATOM     21  C   UNL A   1      34.677  28.572  27.126  1.00  0.00     0.080 A 
ATOM     22  C   UNL A   1      33.043  30.813  27.411  1.00  0.00     0.095 A 
ATOM     23  C   UNL A   1      35.248  29.834  27.676  1.00  0.00     0.255 A 
ATOM     24  N   UNL A   1      34.377  30.909  27.759  1.00  0.00    -0.258 N 
ATOM     25  O   UNL A   1      36.430  29.840  28.006  1.00  0.00    -0.269 OA
BRANCH  24  26
ATOM     26  C   UNL A   1      34.914  32.152  28.255  1.00  0.00     0.451 C 
ATOM     27  F   UNL A   1      34.470  33.195  27.512  1.00  0.00    -0.185 F 
ATOM     28  F   UNL A   1      34.537  32.363  29.540  1.00  0.00    -0.185 F 
ENDBRANCH  24  26
ENDBRANCH  10  19
ENDBRANCH   3   5
ENDBRANCH   2   3
ENDBRANCH   1   2
BRANCH   1  29
ATOM     29  C   UNL A   1      35.892  21.222  25.708  1.00  0.00     0.275 C 
BRANCH  29  30
ATOM     30  O   UNL A   1      37.043  21.927  25.212  1.00  0.00    -0.458 OA
BRANCH  30  31
ATOM     31  C   UNL A   1      38.241  21.500  25.666  1.00  0.00     0.338 C 
ATOM     32  O   UNL A   1      38.733  20.390  25.562  1.00  0.00    -0.246 OA
BRANCH  31  33
ATOM     33  C   UNL A   1      38.934  22.616  26.329  1.00  0.00     0.060 A 
ATOM     34  C   UNL A   1      38.504  23.923  26.107  1.00  0.00     0.016 A 
ATOM     35  C   UNL A   1      40.087  22.375  27.073  1.00  0.00     0.016 A 
ATOM     36  C   UNL A   1      39.266  25.000  26.557  1.00  0.00     0.010 A 
ATOM     37  C   UNL A   1      40.807  23.455  27.596  1.00  0.00     0.010 A 
ATOM     38  C   UNL A   1      40.430  24.780  27.309  1.00  0.00    -0.014 A 
BRANCH  38  39
ATOM     39  C   UNL A   1      41.288  25.921  27.736  1.00  0.00     0.031 A 
ATOM     40  C   UNL A   1      40.750  26.948  28.698  1.00  0.00     0.074 A 
ATOM     41  C   UNL A   1      42.554  26.044  27.289  1.00  0.00     0.049 A 
ATOM     42  N   UNL A   1      41.256  28.104  29.047  1.00  0.00    -0.248 NA
ATOM     43  C   UNL A   1      39.467  26.636  29.351  1.00  0.00     0.031 C 
ATOM     44  C   UNL A   1      43.235  25.107  26.396  1.00  0.00     0.029 A 
ATOM     45  N   UNL A   1      43.497  27.013  27.535  1.00  0.00    -0.354 N 
ATOM     46  C   UNL A   1      40.321  28.689  29.892  1.00  0.00     0.074 A 
ATOM     47  C   UNL A   1      39.227  27.751  30.025  1.00  0.00     0.031 C 
ATOM     48  C   UNL A   1      44.496  25.521  26.201  1.00  0.00     0.029 A 
ATOM     49  C   UNL A   1      44.688  26.797  26.883  1.00  0.00     0.049 A 
ATOM     50  H   UNL A   1      43.335  27.786  28.121  1.00  0.00     0.167 HD
ATOM     51  C   UNL A   1      40.366  29.902  30.493  1.00  0.00     0.037 A 
ATOM     52  C   UNL A   1      45.795  27.559  26.802  1.00  0.00     0.037 A 
ATOM     53  C   UNL A   1      41.478  30.811  30.415  1.00  0.00     0.049 A 
ATOM     54  C   UNL A   1      45.824  28.899  27.478  1.00  0.00     0.074 A 
ATOM     55  C   UNL A   1      41.617  32.058  31.002  1.00  0.00     0.029 A 
ATOM     56  N   UNL A   1      42.651  30.564  29.722  1.00  0.00    -0.354 N 
ATOM     57  N   UNL A   1      44.900  29.474  28.208  1.00  0.00    -0.248 NA
ATOM     58  C   UNL A   1      47.038  29.708  27.295  1.00  0.00     0.031 C 
ATOM     59  C   UNL A   1      42.872  32.571  30.651  1.00  0.00     0.029 A 
ATOM     60  C   UNL A   1      43.521  31.631  29.869  1.00  0.00     0.049 A 
ATOM     61  H   UNL A   1      42.838  29.750  29.201  1.00  0.00     0.167 HD
ATOM     62  C   UNL A   1      45.418  30.712  28.567  1.00  0.00     0.074 A 
ATOM     63  C   UNL A   1      46.746  30.793  27.997  1.00  0.00     0.031 C 
ATOM     64  C   UNL A   1      44.838  31.698  29.293  1.00  0.00     0.037 A 
BRANCH  51  65
ATOM     65  C   UNL A   1      39.155  30.334  31.266  1.00  0.00     0.057 A 
ATOM     66  C   UNL A   1      38.925  29.917  32.582  1.00  0.00     0.134 A 
ATOM     67  C   UNL A   1      38.224  31.208  30.689  1.00  0.00     0.134 A 
ATOM     68  F   UNL A   1      39.769  29.065  33.182  1.00  0.00    -0.206 F 
ATOM     69  C   UNL A   1      37.801  30.343  33.293  1.00  0.00     0.040 A 
ATOM     70  C   UNL A   1      37.109  31.656  31.396  1.00  0.00     0.040 A 
ATOM     71  F   UNL A   1      38.391  31.645  29.431  1.00  0.00    -0.206 F 
ATOM     72  C   UNL A   1      36.893  31.220  32.702  1.00  0.00     0.006 A 
ENDBRANCH  51  65
BRANCH  52  73
ATOM     73  C   UNL A   1      46.958  27.087  26.011  1.00  0.00     0.057 A 
ATOM     74  C   UNL A   1      47.079  27.400  24.652  1.00  0.00     0.134 A 
ATOM     75  C   UNL A   1      47.976  26.324  26.593  1.00  0.00     0.134 A 
ATOM     76  F   UNL A   1      46.119  28.103  24.034  1.00  0.00    -0.206 F 
ATOM     77  C   UNL A   1      48.174  26.973  23.901  1.00  0.00     0.040 A 
ATOM     78  C   UNL A   1      49.087  25.907  25.859  1.00  0.00     0.040 A 
ATOM     79  F   UNL A   1      47.914  25.990  27.891  1.00  0.00    -0.206 F 
ATOM     80  C   UNL A   1      49.187  26.230  24.507  1.00  0.00     0.006 A 
ENDBRANCH  52  73
BRANCH  64  81
ATOM     81  C   UNL A   1      45.645  32.937  29.522  1.00  0.00     0.057 A 
ATOM     82  C   UNL A   1      46.523  33.046  30.608  1.00  0.00     0.134 A 
ATOM     83  C   UNL A   1      45.565  34.018  28.638  1.00  0.00     0.134 A 
ATOM     84  F   UNL A   1      46.634  32.048  31.497  1.00  0.00    -0.206 F 
ATOM     85  C   UNL A   1      47.282  34.200  30.815  1.00  0.00     0.040 A 
ATOM     86  C   UNL A   1      46.329  35.170  28.825  1.00  0.00     0.040 A 
ATOM     87  F   UNL A   1      44.745  33.969  27.576  1.00  0.00    -0.206 F 
ATOM     88  C   UNL A   1      47.187  35.264  29.919  1.00  0.00     0.006 A 
ENDBRANCH  64  81
ENDBRANCH  38  39
ENDBRANCH  31  33
ENDBRANCH  30  31
ENDBRANCH  29  30
ENDBRANCH   1  29
TORSDOF 15
ENDMDL
MODEL 3
REMARK VINA RESULT:     -11.7      4.165      8.544
REMARK SMILES CC(=O)NS(=O)(=O)c1ccc(-c2ccn(C(F)F)c(=O)c2)cc1C(=O)OCCOC(=O)c1ccc(-c2c3nc(c(-c4c(F)cccc4F)c4ccc([nH]4)c(-c4c(F)cccc4F)c4nc(c(-c5c(F)cccc5F)c5ccc2[nH]5)C=C4)C=C3)cc1
REMARK SMILES IDX 27 1 26 2 24 3 25 4 23 5 8 6 9 7 10 8 22 9 11 10 5 11 6 12
REMARK SMILES IDX 7 13 4 14 1 15 2 16 3 17 12 19 13 20 21 21 14 22 19 23 15 24
REMARK SMILES IDX 20 25 16 26 17 27 18 28 28 29 29 30 30 31 31 32 32 33 33 34
REMARK SMILES IDX 85 35 34 36 84 37 35 38 36 39 37 40 78 41 38 42 83 43 77 44
REMARK SMILES IDX 79 45 39 46 82 47 76 48 75 49 40 51 66 52 49 53 65 54 50 55
REMARK SMILES IDX 53 56 64 57 80 58 51 59 52 60 63 62 81 63 54 64 41 65 42 66
REMARK SMILES IDX 47 67 43 68 44 69 46 70 48 71 45 72 67 73 68 74 73 75 69 76
REMARK SMILES IDX 70 77 72 78 74 79 71 80 55 81 56 82 61 83 57 84 58 85 60 86
REMARK SMILES IDX 62 87 59 88
REMARK H PARENT 4 18 79 50 53 61
REMARK Flexibility Score: inf
ROOT
ATOM      1  C   UNL A   1      36.647  23.051  23.396  1.00  0.00     0.275 C 
ENDROOT
BRANCH   1   2
ATOM      2  O   UNL A   1      35.720  23.834  24.178  1.00  0.00    -0.458 OA
BRANCH   2   3
ATOM      3  C   UNL A   1      34.495  24.015  23.658  1.00  0.00     0.339 C 
ATOM      4  O   UNL A   1      34.239  24.648  22.643  1.00  0.00    -0.246 OA
BRANCH   3   5
ATOM      5  C   UNL A   1      33.418  23.291  24.389  1.00  0.00     0.081 A 
ATOM      6  C   UNL A   1      32.361  23.858  25.108  1.00  0.00     0.102 A 
ATOM      7  C   UNL A   1      31.275  23.052  25.496  1.00  0.00     0.024 A 
ATOM      8  C   UNL A   1      31.329  21.663  25.356  1.00  0.00     0.010 A 
ATOM      9  C   UNL A   1      33.443  21.889  24.239  1.00  0.00     0.025 A 
ATOM     10  C   UNL A   1      32.452  21.069  24.787  1.00  0.00    -0.017 A 
BRANCH   6  11
ATOM     11  S   UNL A   1      32.434  25.531  25.688  1.00  0.00     0.264 S 
ATOM     12  O   UNL A   1      33.790  25.775  26.122  1.00  0.00    -0.201 OA
ATOM     13  O   UNL A   1      31.281  25.772  26.526  1.00  0.00    -0.201 OA
BRANCH  11  14
ATOM     14  N   UNL A   1      32.215  26.470  24.324  1.00  0.00    -0.249 N 
ATOM     15  C   UNL A   1      32.238  28.778  25.315  1.00  0.00     0.115 C 
ATOM     16  C   UNL A   1      32.582  27.824  24.200  1.00  0.00     0.230 C 
ATOM     17  O   UNL A   1      32.991  28.225  23.117  1.00  0.00    -0.274 OA
ATOM     18  H   UNL A   1      31.794  26.043  23.544  1.00  0.00     0.183 HD
ENDBRANCH  11  14
ENDBRANCH   6  11
BRANCH  10  19
ATOM     19  C   UNL A   1      32.650  19.609  24.806  1.00  0.00    -0.011 A 
ATOM     20  C   UNL A   1      32.530  18.839  26.033  1.00  0.00     0.027 A 
ATOM     21  C   UNL A   1      32.961  18.973  23.665  1.00  0.00     0.080 A 
ATOM     22  C   UNL A   1      32.770  17.523  26.040  1.00  0.00     0.095 A 
ATOM     23  C   UNL A   1      33.204  17.503  23.651  1.00  0.00     0.255 A 
ATOM     24  N   UNL A   1      33.117  16.861  24.877  1.00  0.00    -0.258 N 
ATOM     25  O   UNL A   1      33.467  16.969  22.578  1.00  0.00    -0.269 OA
BRANCH  24  26
ATOM     26  C   UNL A   1      33.384  15.444  24.896  1.00  0.00     0.451 C 
ATOM     27  F   UNL A   1      34.628  15.198  25.374  1.00  0.00    -0.185 F 
ATOM     28  F   UNL A   1      32.495  14.796  25.687  1.00  0.00    -0.185 F 
ENDBRANCH  24  26
ENDBRANCH  10  19
ENDBRANCH   3   5
ENDBRANCH   2   3
ENDBRANCH   1   2
BRANCH   1  29
ATOM     29  C   UNL A   1      36.918  21.707  24.067  1.00  0.00     0.275 C 
BRANCH  29  30
ATOM     30  O   UNL A   1      37.221  21.926  25.456  1.00  0.00    -0.458 OA
BRANCH  30  31
ATOM     31  C   UNL A   1      38.464  21.579  25.853  1.00  0.00     0.338 C 
ATOM     32  O   UNL A   1      39.011  20.495  25.751  1.00  0.00    -0.246 OA
BRANCH  31  33
ATOM     33  C   UNL A   1      39.128  22.751  26.446  1.00  0.00     0.060 A 
ATOM     34  C   UNL A   1      38.659  24.030  26.153  1.00  0.00     0.016 A 
ATOM     35  C   UNL A   1      40.293  22.586  27.192  1.00  0.00     0.016 A 
ATOM     36  C   UNL A   1      39.392  25.152  26.535  1.00  0.00     0.010 A 
ATOM     37  C   UNL A   1      40.985  23.714  27.647  1.00  0.00     0.010 A 
ATOM     38  C   UNL A   1      40.566  25.009  27.289  1.00  0.00    -0.014 A 
BRANCH  38  39
ATOM     39  C   UNL A   1      41.393  26.198  27.643  1.00  0.00     0.031 A 
ATOM     40  C   UNL A   1      40.816  27.283  28.514  1.00  0.00     0.074 A 
ATOM     41  C   UNL A   1      42.665  26.313  27.210  1.00  0.00     0.049 A 
ATOM     42  N   UNL A   1      41.293  28.472  28.783  1.00  0.00    -0.248 NA
ATOM     43  C   UNL A   1      39.528  26.994  29.166  1.00  0.00     0.031 C 
ATOM     44  C   UNL A   1      43.381  25.326  26.403  1.00  0.00     0.029 A 
ATOM     45  N   UNL A   1      43.584  27.318  27.398  1.00  0.00    -0.354 N 
ATOM     46  C   UNL A   1      40.330  29.100  29.564  1.00  0.00     0.074 A 
ATOM     47  C   UNL A   1      39.253  28.152  29.749  1.00  0.00     0.031 C 
ATOM     48  C   UNL A   1      44.638  25.751  26.199  1.00  0.00     0.029 A 
ATOM     49  C   UNL A   1      44.791  27.079  26.786  1.00  0.00     0.049 A 
ATOM     50  H   UNL A   1      43.395  28.129  27.921  1.00  0.00     0.167 HD
ATOM     51  C   UNL A   1      40.339  30.356  30.072  1.00  0.00     0.037 A 
ATOM     52  C   UNL A   1      45.884  27.855  26.667  1.00  0.00     0.037 A 
ATOM     53  C   UNL A   1      41.434  31.280  29.945  1.00  0.00     0.049 A 
ATOM     54  C   UNL A   1      45.873  29.243  27.240  1.00  0.00     0.074 A 
ATOM     55  C   UNL A   1      41.538  32.570  30.438  1.00  0.00     0.029 A 
ATOM     56  N   UNL A   1      42.625  31.006  29.293  1.00  0.00    -0.354 N 
ATOM     57  N   UNL A   1      44.924  29.852  27.907  1.00  0.00    -0.248 NA
ATOM     58  C   UNL A   1      47.074  30.061  27.018  1.00  0.00     0.031 C 
ATOM     59  C   UNL A   1      42.788  33.081  30.071  1.00  0.00     0.029 A 
ATOM     60  C   UNL A   1      43.471  32.099  29.375  1.00  0.00     0.049 A 
ATOM     61  H   UNL A   1      42.839  30.158  28.839  1.00  0.00     0.167 HD
ATOM     62  C   UNL A   1      45.410  31.124  28.180  1.00  0.00     0.074 A 
ATOM     63  C   UNL A   1      46.748  31.190  27.630  1.00  0.00     0.031 C 
ATOM     64  C   UNL A   1      44.798  32.149  28.819  1.00  0.00     0.037 A 
BRANCH  51  65
ATOM     65  C   UNL A   1      39.106  30.819  30.788  1.00  0.00     0.057 A 
ATOM     66  C   UNL A   1      38.042  31.432  30.118  1.00  0.00     0.134 A 
ATOM     67  C   UNL A   1      38.973  30.616  32.169  1.00  0.00     0.134 A 
ATOM     68  F   UNL A   1      38.118  31.672  28.800  1.00  0.00    -0.206 F 
ATOM     69  C   UNL A   1      36.892  31.842  30.798  1.00  0.00     0.040 A 
ATOM     70  C   UNL A   1      37.822  31.003  32.855  1.00  0.00     0.040 A 
ATOM     71  F   UNL A   1      39.958  30.032  32.868  1.00  0.00    -0.206 F 
ATOM     72  C   UNL A   1      36.779  31.621  32.169  1.00  0.00     0.006 A 
ENDBRANCH  51  65
BRANCH  52  73
ATOM     73  C   UNL A   1      47.072  27.350  25.934  1.00  0.00     0.057 A 
ATOM     74  C   UNL A   1      48.101  26.681  26.607  1.00  0.00     0.134 A 
ATOM     75  C   UNL A   1      47.200  27.513  24.551  1.00  0.00     0.134 A 
ATOM     76  F   UNL A   1      48.045  26.523  27.937  1.00  0.00    -0.206 F 
ATOM     77  C   UNL A   1      49.216  26.191  25.927  1.00  0.00     0.040 A 
ATOM     78  C   UNL A   1      48.300  27.010  23.856  1.00  0.00     0.040 A 
ATOM     79  F   UNL A   1      46.247  28.149  23.852  1.00  0.00    -0.206 F 
ATOM     80  C   UNL A   1      49.314  26.347  24.545  1.00  0.00     0.006 A 
ENDBRANCH  52  73
BRANCH  64  81
ATOM     81  C   UNL A   1      45.576  33.419  28.967  1.00  0.00     0.057 A 
ATOM     82  C   UNL A   1      46.419  33.635  30.064  1.00  0.00     0.134 A 
ATOM     83  C   UNL A   1      45.502  34.423  27.995  1.00  0.00     0.134 A 
ATOM     84  F   UNL A   1      46.521  32.715  31.035  1.00  0.00    -0.206 F 
ATOM     85  C   UNL A   1      47.150  34.816  30.197  1.00  0.00     0.040 A 
ATOM     86  C   UNL A   1      46.239  35.601  28.108  1.00  0.00     0.040 A 
ATOM     87  F   UNL A   1      44.714  34.270  26.919  1.00  0.00    -0.206 F 
ATOM     88  C   UNL A   1      47.064  35.802  29.214  1.00  0.00     0.006 A 
ENDBRANCH  64  81
ENDBRANCH  38  39
ENDBRANCH  31  33
ENDBRANCH  30  31
ENDBRANCH  29  30
ENDBRANCH   1  29
TORSDOF 15
ENDMDL
