MODEL 1
REMARK VINA RESULT:     -11.7      0.000      0.000
REMARK SMILES CC(=O)C1=C(C(=O)OCCOC(=O)c2ccc(-c3c4nc(c(-c5c(F)cccc5F)c5ccc([nH]5)c(-c5c(F)cccc5F)c5nc(c(-c6c(F)cccc6F)c6ccc3[nH]6)C=C5)C=C4)cc2)S[C@H]2CCCCC2=N1
REMARK SMILES IDX 10 1 9 2 8 3 6 4 7 5 5 6 4 7 75 8 68 9 74 10 69 11 73 12
REMARK SMILES IDX 70 13 72 14 71 15 2 16 1 17 3 18 11 19 12 20 13 21 14 22
REMARK SMILES IDX 15 23 67 24 16 25 66 26 17 27 18 28 19 29 60 30 20 31 65 32
REMARK SMILES IDX 59 33 61 34 21 35 64 36 58 37 57 38 22 40 48 41 31 42 47 43
REMARK SMILES IDX 32 44 35 45 46 46 62 47 33 48 34 49 45 51 63 52 36 53 23 54
REMARK SMILES IDX 24 55 29 56 25 57 26 58 28 59 30 60 27 61 49 62 50 63 55 64
REMARK SMILES IDX 51 65 52 66 54 67 56 68 53 69 37 70 38 71 43 72 39 73 40 74
REMARK SMILES IDX 42 75 44 76 41 77
REMARK H PARENT 61 39 35 50
REMARK Flexibility Score: inf
ROOT
ATOM      1  C   UNL A   1      31.446  29.999  25.309  1.00  0.00     0.275 C 
ENDROOT
BRANCH   1   2
ATOM      2  C   UNL A   1      31.885  28.972  24.266  1.00  0.00     0.275 C 
BRANCH   2   3
ATOM      3  O   UNL A   1      32.510  27.824  24.886  1.00  0.00    -0.458 OA
BRANCH   3   4
ATOM      4  C   UNL A   1      31.979  26.613  24.567  1.00  0.00     0.347 C 
ATOM      5  O   UNL A   1      30.784  26.379  24.463  1.00  0.00    -0.245 OA
BRANCH   4   6
ATOM      6  C   UNL A   1      33.035  25.577  24.376  1.00  0.00     0.123 C 
ATOM      7  C   UNL A   1      33.488  25.237  23.155  1.00  0.00     0.127 C 
ATOM      8  N   UNL A   1      34.377  24.239  22.836  1.00  0.00    -0.251 NA
ATOM      9  S   UNL A   1      33.672  24.779  25.786  1.00  0.00    -0.107 SA
ATOM     10  C   UNL A   1      35.239  23.847  23.718  1.00  0.00     0.032 C 
ATOM     11  C   UNL A   1      35.348  24.407  25.129  1.00  0.00     0.097 C 
ATOM     12  C   UNL A   1      36.339  22.958  23.179  1.00  0.00     0.053 C 
ATOM     13  C   UNL A   1      36.049  23.453  26.094  1.00  0.00     0.021 C 
ATOM     14  C   UNL A   1      36.909  22.033  24.229  1.00  0.00     0.006 C 
ATOM     15  C   UNL A   1      37.291  22.816  25.477  1.00  0.00     0.002 C 
BRANCH   7  16
ATOM     16  C   UNL A   1      33.245  26.164  22.016  1.00  0.00     0.179 C 
ATOM     17  C   UNL A   1      32.035  25.799  21.185  1.00  0.00     0.095 C 
ATOM     18  O   UNL A   1      33.919  27.173  21.848  1.00  0.00    -0.293 OA
ENDBRANCH   7  16
ENDBRANCH   4   6
ENDBRANCH   3   4
ENDBRANCH   2   3
ENDBRANCH   1   2
BRANCH   1  19
ATOM     19  O   UNL A   1      32.283  29.879  26.470  1.00  0.00    -0.458 OA
BRANCH  19  20
ATOM     20  C   UNL A   1      32.806  31.025  26.965  1.00  0.00     0.338 C 
ATOM     21  O   UNL A   1      32.217  32.080  27.137  1.00  0.00    -0.246 OA
BRANCH  20  22
ATOM     22  C   UNL A   1      34.218  30.810  27.372  1.00  0.00     0.060 A 
ATOM     23  C   UNL A   1      34.714  29.525  27.546  1.00  0.00     0.016 A 
ATOM     24  C   UNL A   1      35.011  31.898  27.750  1.00  0.00     0.016 A 
ATOM     25  C   UNL A   1      35.911  29.329  28.235  1.00  0.00     0.010 A 
ATOM     26  C   UNL A   1      36.274  31.689  28.331  1.00  0.00     0.010 A 
ATOM     27  C   UNL A   1      36.723  30.395  28.645  1.00  0.00    -0.014 A 
BRANCH  27  28
ATOM     28  C   UNL A   1      37.969  30.155  29.453  1.00  0.00     0.031 A 
ATOM     29  C   UNL A   1      39.133  29.379  28.872  1.00  0.00     0.074 A 
ATOM     30  C   UNL A   1      38.124  30.666  30.695  1.00  0.00     0.049 A 
ATOM     31  N   UNL A   1      40.154  28.828  29.483  1.00  0.00    -0.248 NA
ATOM     32  C   UNL A   1      39.145  29.188  27.413  1.00  0.00     0.031 C 
ATOM     33  C   UNL A   1      37.171  31.528  31.394  1.00  0.00     0.029 A 
ATOM     34  N   UNL A   1      39.168  30.554  31.585  1.00  0.00    -0.354 N 
ATOM     35  C   UNL A   1      40.866  28.141  28.504  1.00  0.00     0.074 A 
ATOM     36  C   UNL A   1      40.175  28.367  27.252  1.00  0.00     0.031 C 
ATOM     37  C   UNL A   1      37.709  31.947  32.546  1.00  0.00     0.029 A 
ATOM     38  C   UNL A   1      38.968  31.249  32.755  1.00  0.00     0.049 A 
ATOM     39  H   UNL A   1      39.979  30.028  31.403  1.00  0.00     0.167 HD
ATOM     40  C   UNL A   1      41.983  27.384  28.640  1.00  0.00     0.037 A 
ATOM     41  C   UNL A   1      39.664  31.273  33.908  1.00  0.00     0.037 A 
ATOM     42  C   UNL A   1      42.731  27.247  29.866  1.00  0.00     0.049 A 
ATOM     43  C   UNL A   1      40.856  30.382  34.068  1.00  0.00     0.074 A 
ATOM     44  C   UNL A   1      43.883  26.511  30.098  1.00  0.00     0.029 A 
ATOM     45  N   UNL A   1      42.423  27.886  31.057  1.00  0.00    -0.354 N 
ATOM     46  N   UNL A   1      41.426  29.601  33.185  1.00  0.00    -0.248 NA
ATOM     47  C   UNL A   1      41.466  30.333  35.404  1.00  0.00     0.031 C 
ATOM     48  C   UNL A   1      44.248  26.675  31.440  1.00  0.00     0.029 A 
ATOM     49  C   UNL A   1      43.352  27.549  32.030  1.00  0.00     0.049 A 
ATOM     50  H   UNL A   1      41.658  28.490  31.191  1.00  0.00     0.167 HD
ATOM     51  C   UNL A   1      42.462  28.966  33.855  1.00  0.00     0.074 A 
ATOM     52  C   UNL A   1      42.455  29.470  35.213  1.00  0.00     0.031 C 
ATOM     53  C   UNL A   1      43.335  28.042  33.384  1.00  0.00     0.037 A 
BRANCH  40  54
ATOM     54  C   UNL A   1      42.435  26.585  27.448  1.00  0.00     0.057 A 
ATOM     55  C   UNL A   1      43.321  27.086  26.487  1.00  0.00     0.134 A 
ATOM     56  C   UNL A   1      41.990  25.264  27.286  1.00  0.00     0.134 A 
ATOM     57  F   UNL A   1      43.777  28.345  26.573  1.00  0.00    -0.206 F 
ATOM     58  C   UNL A   1      43.726  26.312  25.395  1.00  0.00     0.040 A 
ATOM     59  C   UNL A   1      42.410  24.473  26.215  1.00  0.00     0.040 A 
ATOM     60  F   UNL A   1      41.149  24.714  28.175  1.00  0.00    -0.206 F 
ATOM     61  C   UNL A   1      43.276  25.001  25.261  1.00  0.00     0.006 A 
ENDBRANCH  40  54
BRANCH  41  62
ATOM     62  C   UNL A   1      39.181  32.115  35.033  1.00  0.00     0.057 A 
ATOM     63  C   UNL A   1      39.485  33.478  35.096  1.00  0.00     0.134 A 
ATOM     64  C   UNL A   1      38.365  31.587  36.043  1.00  0.00     0.134 A 
ATOM     65  F   UNL A   1      40.291  34.034  34.179  1.00  0.00    -0.206 F 
ATOM     66  C   UNL A   1      38.978  34.292  36.111  1.00  0.00     0.040 A 
ATOM     67  C   UNL A   1      37.825  32.393  37.044  1.00  0.00     0.040 A 
ATOM     68  F   UNL A   1      38.045  30.284  36.044  1.00  0.00    -0.206 F 
ATOM     69  C   UNL A   1      38.132  33.752  37.079  1.00  0.00     0.006 A 
ENDBRANCH  41  62
BRANCH  53  70
ATOM     70  C   UNL A   1      44.369  27.537  34.343  1.00  0.00     0.057 A 
ATOM     71  C   UNL A   1      44.167  26.376  35.102  1.00  0.00     0.134 A 
ATOM     72  C   UNL A   1      45.580  28.218  34.513  1.00  0.00     0.134 A 
ATOM     73  F   UNL A   1      43.020  25.688  34.999  1.00  0.00    -0.206 F 
ATOM     74  C   UNL A   1      45.124  25.925  36.012  1.00  0.00     0.040 A 
ATOM     75  C   UNL A   1      46.554  27.765  35.404  1.00  0.00     0.040 A 
ATOM     76  F   UNL A   1      45.837  29.334  33.814  1.00  0.00    -0.206 F 
ATOM     77  C   UNL A   1      46.324  26.619  36.162  1.00  0.00     0.006 A 
ENDBRANCH  53  70
ENDBRANCH  27  28
ENDBRANCH  20  22
ENDBRANCH  19  20
ENDBRANCH   1  19
TORSDOF 12
ENDMDL
MODEL 2
REMARK VINA RESULT:     -11.6      3.976      8.790
REMARK SMILES CC(=O)C1=C(C(=O)OCCOC(=O)c2ccc(-c3c4nc(c(-c5c(F)cccc5F)c5ccc([nH]5)c(-c5c(F)cccc5F)c5nc(c(-c6c(F)cccc6F)c6ccc3[nH]6)C=C5)C=C4)cc2)S[C@H]2CCCCC2=N1
REMARK SMILES IDX 10 1 9 2 8 3 6 4 7 5 5 6 4 7 75 8 68 9 74 10 69 11 73 12
REMARK SMILES IDX 70 13 72 14 71 15 2 16 1 17 3 18 11 19 12 20 13 21 14 22
REMARK SMILES IDX 15 23 67 24 16 25 66 26 17 27 18 28 19 29 60 30 20 31 65 32
REMARK SMILES IDX 59 33 61 34 21 35 64 36 58 37 57 38 22 40 48 41 31 42 47 43
REMARK SMILES IDX 32 44 35 45 46 46 62 47 33 48 34 49 45 51 63 52 36 53 23 54
REMARK SMILES IDX 24 55 29 56 25 57 26 58 28 59 30 60 27 61 49 62 50 63 55 64
REMARK SMILES IDX 51 65 52 66 54 67 56 68 53 69 37 70 38 71 43 72 39 73 40 74
REMARK SMILES IDX 42 75 44 76 41 77
REMARK H PARENT 61 39 35 50
REMARK Flexibility Score: inf
ROOT
ATOM      1  C   UNL A   1      35.775  20.994  25.390  1.00  0.00     0.275 C 
ENDROOT
BRANCH   1   2
ATOM      2  C   UNL A   1      34.587  21.517  24.584  1.00  0.00     0.275 C 
BRANCH   2   3
ATOM      3  O   UNL A   1      34.261  22.879  24.947  1.00  0.00    -0.458 OA
BRANCH   3   4
ATOM      4  C   UNL A   1      33.048  23.332  24.531  1.00  0.00     0.347 C 
ATOM      5  O   UNL A   1      32.322  22.756  23.734  1.00  0.00    -0.245 OA
BRANCH   4   6
ATOM      6  C   UNL A   1      32.704  24.645  25.150  1.00  0.00     0.123 C 
ATOM      7  C   UNL A   1      31.835  24.745  26.173  1.00  0.00     0.127 C 
ATOM      8  N   UNL A   1      31.359  25.891  26.764  1.00  0.00    -0.251 NA
ATOM      9  S   UNL A   1      33.441  26.081  24.501  1.00  0.00    -0.107 SA
ATOM     10  C   UNL A   1      32.069  26.973  26.720  1.00  0.00     0.032 C 
ATOM     11  C   UNL A   1      33.425  27.090  26.037  1.00  0.00     0.097 C 
ATOM     12  C   UNL A   1      31.592  28.082  27.632  1.00  0.00     0.053 C 
ATOM     13  C   UNL A   1      33.786  28.530  25.679  1.00  0.00     0.021 C 
ATOM     14  C   UNL A   1      31.978  29.455  27.132  1.00  0.00     0.006 C 
ATOM     15  C   UNL A   1      33.464  29.505  26.809  1.00  0.00     0.002 C 
BRANCH   7  16
ATOM     16  C   UNL A   1      31.517  23.527  26.967  1.00  0.00     0.179 C 
ATOM     17  C   UNL A   1      30.155  22.944  26.664  1.00  0.00     0.095 C 
ATOM     18  O   UNL A   1      32.338  23.011  27.716  1.00  0.00    -0.293 OA
ENDBRANCH   7  16
ENDBRANCH   4   6
ENDBRANCH   3   4
ENDBRANCH   2   3
ENDBRANCH   1   2
BRANCH   1  19
ATOM     19  O   UNL A   1      36.991  21.511  24.827  1.00  0.00    -0.458 OA
BRANCH  19  20
ATOM     20  C   UNL A   1      38.148  21.113  25.405  1.00  0.00     0.338 C 
ATOM     21  O   UNL A   1      38.689  20.027  25.277  1.00  0.00    -0.246 OA
BRANCH  20  22
ATOM     22  C   UNL A   1      38.748  22.231  26.175  1.00  0.00     0.060 A 
ATOM     23  C   UNL A   1      38.240  23.519  26.059  1.00  0.00     0.016 A 
ATOM     24  C   UNL A   1      39.934  22.034  26.889  1.00  0.00     0.016 A 
ATOM     25  C   UNL A   1      38.992  24.605  26.509  1.00  0.00     0.010 A 
ATOM     26  C   UNL A   1      40.619  23.127  27.447  1.00  0.00     0.010 A 
ATOM     27  C   UNL A   1      40.194  24.446  27.212  1.00  0.00    -0.014 A 
BRANCH  27  28
ATOM     28  C   UNL A   1      41.019  25.636  27.617  1.00  0.00     0.031 A 
ATOM     29  C   UNL A   1      40.461  26.684  28.559  1.00  0.00     0.074 A 
ATOM     30  C   UNL A   1      42.299  25.788  27.211  1.00  0.00     0.049 A 
ATOM     31  N   UNL A   1      40.889  27.900  28.799  1.00  0.00    -0.248 NA
ATOM     32  C   UNL A   1      39.256  26.320  29.321  1.00  0.00     0.031 C 
ATOM     33  C   UNL A   1      43.058  24.844  26.392  1.00  0.00     0.029 A 
ATOM     34  N   UNL A   1      43.205  26.796  27.461  1.00  0.00    -0.354 N 
ATOM     35  C   UNL A   1      39.953  28.477  29.653  1.00  0.00     0.074 A 
ATOM     36  C   UNL A   1      38.948  27.468  29.910  1.00  0.00     0.031 C 
ATOM     37  C   UNL A   1      44.327  25.258  26.293  1.00  0.00     0.029 A 
ATOM     38  C   UNL A   1      44.436  26.581  26.889  1.00  0.00     0.049 A 
ATOM     39  H   UNL A   1      42.991  27.592  27.997  1.00  0.00     0.167 HD
ATOM     40  C   UNL A   1      39.930  29.734  30.162  1.00  0.00     0.037 A 
ATOM     41  C   UNL A   1      45.517  27.375  26.775  1.00  0.00     0.037 A 
ATOM     42  C   UNL A   1      40.986  30.703  29.992  1.00  0.00     0.049 A 
ATOM     43  C   UNL A   1      45.454  28.782  27.282  1.00  0.00     0.074 A 
ATOM     44  C   UNL A   1      41.058  31.998  30.480  1.00  0.00     0.029 A 
ATOM     45  N   UNL A   1      42.169  30.472  29.308  1.00  0.00    -0.354 N 
ATOM     46  N   UNL A   1      44.494  29.379  27.943  1.00  0.00    -0.248 NA
ATOM     47  C   UNL A   1      46.605  29.644  26.976  1.00  0.00     0.031 C 
ATOM     48  C   UNL A   1      42.268  32.562  30.058  1.00  0.00     0.029 A 
ATOM     49  C   UNL A   1      42.969  31.604  29.347  1.00  0.00     0.049 A 
ATOM     50  H   UNL A   1      42.407  29.628  28.860  1.00  0.00     0.167 HD
ATOM     51  C   UNL A   1      44.921  30.685  28.133  1.00  0.00     0.074 A 
ATOM     52  C   UNL A   1      46.237  30.788  27.536  1.00  0.00     0.031 C 
ATOM     53  C   UNL A   1      44.273  31.707  28.742  1.00  0.00     0.037 A 
BRANCH  40  54
ATOM     54  C   UNL A   1      38.693  30.166  30.901  1.00  0.00     0.057 A 
ATOM     55  C   UNL A   1      38.538  30.009  32.283  1.00  0.00     0.134 A 
ATOM     56  C   UNL A   1      37.647  30.788  30.203  1.00  0.00     0.134 A 
ATOM     57  F   UNL A   1      39.493  29.411  33.012  1.00  0.00    -0.206 F 
ATOM     58  C   UNL A   1      37.377  30.429  32.939  1.00  0.00     0.040 A 
ATOM     59  C   UNL A   1      36.495  31.237  30.852  1.00  0.00     0.040 A 
ATOM     60  F   UNL A   1      37.732  30.983  28.878  1.00  0.00    -0.206 F 
ATOM     61  C   UNL A   1      36.355  31.050  32.224  1.00  0.00     0.006 A 
ENDBRANCH  40  54
BRANCH  41  62
ATOM     62  C   UNL A   1      46.721  26.870  26.065  1.00  0.00     0.057 A 
ATOM     63  C   UNL A   1      46.931  27.151  24.711  1.00  0.00     0.134 A 
ATOM     64  C   UNL A   1      47.713  26.140  26.734  1.00  0.00     0.134 A 
ATOM     65  F   UNL A   1      46.002  27.815  24.007  1.00  0.00    -0.206 F 
ATOM     66  C   UNL A   1      48.092  26.743  24.053  1.00  0.00     0.040 A 
ATOM     67  C   UNL A   1      48.892  25.754  26.099  1.00  0.00     0.040 A 
ATOM     68  F   UNL A   1      47.566  25.831  28.032  1.00  0.00    -0.206 F 
ATOM     69  C   UNL A   1      49.084  26.056  24.752  1.00  0.00     0.006 A 
ENDBRANCH  41  62
BRANCH  53  70
ATOM     70  C   UNL A   1      44.993  33.019  28.812  1.00  0.00     0.057 A 
ATOM     71  C   UNL A   1      45.865  33.327  29.863  1.00  0.00     0.134 A 
ATOM     72  C   UNL A   1      44.811  33.988  27.817  1.00  0.00     0.134 A 
ATOM     73  F   UNL A   1      46.068  32.449  30.857  1.00  0.00    -0.206 F 
ATOM     74  C   UNL A   1      46.513  34.562  29.936  1.00  0.00     0.040 A 
ATOM     75  C   UNL A   1      45.469  35.218  27.867  1.00  0.00     0.040 A 
ATOM     76  F   UNL A   1      43.991  33.754  26.781  1.00  0.00    -0.206 F 
ATOM     77  C   UNL A   1      46.318  35.510  28.932  1.00  0.00     0.006 A 
ENDBRANCH  53  70
ENDBRANCH  27  28
ENDBRANCH  20  22
ENDBRANCH  19  20
ENDBRANCH   1  19
TORSDOF 12
ENDMDL
MODEL 3
REMARK VINA RESULT:     -11.5      0.259      1.673
REMARK SMILES CC(=O)C1=C(C(=O)OCCOC(=O)c2ccc(-c3c4nc(c(-c5c(F)cccc5F)c5ccc([nH]5)c(-c5c(F)cccc5F)c5nc(c(-c6c(F)cccc6F)c6ccc3[nH]6)C=C5)C=C4)cc2)S[C@H]2CCCCC2=N1
REMARK SMILES IDX 10 1 9 2 8 3 6 4 7 5 5 6 4 7 75 8 68 9 74 10 69 11 73 12
REMARK SMILES IDX 70 13 72 14 71 15 2 16 1 17 3 18 11 19 12 20 13 21 14 22
REMARK SMILES IDX 15 23 67 24 16 25 66 26 17 27 18 28 19 29 60 30 20 31 65 32
REMARK SMILES IDX 59 33 61 34 21 35 64 36 58 37 57 38 22 40 48 41 31 42 47 43
REMARK SMILES IDX 32 44 35 45 46 46 62 47 33 48 34 49 45 51 63 52 36 53 23 54
REMARK SMILES IDX 24 55 29 56 25 57 26 58 28 59 30 60 27 61 49 62 50 63 55 64
REMARK SMILES IDX 51 65 52 66 54 67 56 68 53 69 37 70 38 71 43 72 39 73 40 74
REMARK SMILES IDX 42 75 44 76 41 77
REMARK H PARENT 61 39 35 50
REMARK Flexibility Score: inf
ROOT
ATOM      1  C   UNL A   1      31.497  29.667  25.382  1.00  0.00     0.275 C 
ENDROOT
BRANCH   1   2
ATOM      2  C   UNL A   1      32.272  28.583  24.635  1.00  0.00     0.275 C 
BRANCH   2   3
ATOM      3  O   UNL A   1      32.130  27.294  25.276  1.00  0.00    -0.458 OA
BRANCH   3   4
ATOM      4  C   UNL A   1      31.799  26.256  24.462  1.00  0.00     0.347 C 
ATOM      5  O   UNL A   1      30.707  26.102  23.934  1.00  0.00    -0.245 OA
BRANCH   4   6
ATOM      6  C   UNL A   1      32.930  25.298  24.297  1.00  0.00     0.123 C 
ATOM      7  C   UNL A   1      33.493  25.058  23.098  1.00  0.00     0.127 C 
ATOM      8  N   UNL A   1      34.465  24.135  22.795  1.00  0.00    -0.251 NA
ATOM      9  S   UNL A   1      33.511  24.457  25.706  1.00  0.00    -0.107 SA
ATOM     10  C   UNL A   1      35.282  23.743  23.718  1.00  0.00     0.032 C 
ATOM     11  C   UNL A   1      35.251  24.225  25.162  1.00  0.00     0.097 C 
ATOM     12  C   UNL A   1      36.473  22.954  23.218  1.00  0.00     0.053 C 
ATOM     13  C   UNL A   1      35.937  23.258  26.125  1.00  0.00     0.021 C 
ATOM     14  C   UNL A   1      37.021  22.004  24.258  1.00  0.00     0.006 C 
ATOM     15  C   UNL A   1      37.260  22.733  25.572  1.00  0.00     0.002 C 
BRANCH   7  16
ATOM     16  C   UNL A   1      33.277  26.034  21.995  1.00  0.00     0.179 C 
ATOM     17  C   UNL A   1      32.248  25.585  20.981  1.00  0.00     0.095 C 
ATOM     18  O   UNL A   1      33.821  27.131  21.986  1.00  0.00    -0.293 OA
ENDBRANCH   7  16
ENDBRANCH   4   6
ENDBRANCH   3   4
ENDBRANCH   2   3
ENDBRANCH   1   2
BRANCH   1  19
ATOM     19  O   UNL A   1      32.082  29.854  26.681  1.00  0.00    -0.458 OA
BRANCH  19  20
ATOM     20  C   UNL A   1      32.668  31.050  26.920  1.00  0.00     0.338 C 
ATOM     21  O   UNL A   1      32.132  32.145  26.876  1.00  0.00    -0.246 OA
BRANCH  20  22
ATOM     22  C   UNL A   1      34.077  30.854  27.343  1.00  0.00     0.060 A 
ATOM     23  C   UNL A   1      34.594  29.574  27.505  1.00  0.00     0.016 A 
ATOM     24  C   UNL A   1      34.846  31.949  27.747  1.00  0.00     0.016 A 
ATOM     25  C   UNL A   1      35.784  29.390  28.209  1.00  0.00     0.010 A 
ATOM     26  C   UNL A   1      36.105  31.754  28.343  1.00  0.00     0.010 A 
ATOM     27  C   UNL A   1      36.572  30.464  28.645  1.00  0.00    -0.014 A 
BRANCH  27  28
ATOM     28  C   UNL A   1      37.810  30.234  29.466  1.00  0.00     0.031 A 
ATOM     29  C   UNL A   1      38.982  29.455  28.904  1.00  0.00     0.074 A 
ATOM     30  C   UNL A   1      37.953  30.758  30.705  1.00  0.00     0.049 A 
ATOM     31  N   UNL A   1      39.998  28.911  29.530  1.00  0.00    -0.248 NA
ATOM     32  C   UNL A   1      39.007  29.249  27.447  1.00  0.00     0.031 C 
ATOM     33  C   UNL A   1      36.992  31.624  31.386  1.00  0.00     0.029 A 
ATOM     34  N   UNL A   1      38.990  30.657  31.606  1.00  0.00    -0.354 N 
ATOM     35  C   UNL A   1      40.720  28.217  28.564  1.00  0.00     0.074 A 
ATOM     36  C   UNL A   1      40.040  28.429  27.304  1.00  0.00     0.031 C 
ATOM     37  C   UNL A   1      37.519  32.055  32.539  1.00  0.00     0.029 A 
ATOM     38  C   UNL A   1      38.778  31.362  32.767  1.00  0.00     0.049 A 
ATOM     39  H   UNL A   1      39.803  30.130  31.436  1.00  0.00     0.167 HD
ATOM     40  C   UNL A   1      41.837  27.463  28.717  1.00  0.00     0.037 A 
ATOM     41  C   UNL A   1      39.462  31.398  33.926  1.00  0.00     0.037 A 
ATOM     42  C   UNL A   1      42.575  27.339  29.951  1.00  0.00     0.049 A 
ATOM     43  C   UNL A   1      40.654  30.511  34.105  1.00  0.00     0.074 A 
ATOM     44  C   UNL A   1      43.725  26.608  30.201  1.00  0.00     0.029 A 
ATOM     45  N   UNL A   1      42.254  27.990  31.133  1.00  0.00    -0.354 N 
ATOM     46  N   UNL A   1      41.235  29.723  33.235  1.00  0.00    -0.248 NA
ATOM     47  C   UNL A   1      41.253  30.476  35.447  1.00  0.00     0.031 C 
ATOM     48  C   UNL A   1      44.078  26.786  31.545  1.00  0.00     0.029 A 
ATOM     49  C   UNL A   1      43.175  27.663  32.118  1.00  0.00     0.049 A 
ATOM     50  H   UNL A   1      41.487  28.593  31.255  1.00  0.00     0.167 HD
ATOM     51  C   UNL A   1      42.265  29.097  33.921  1.00  0.00     0.074 A 
ATOM     52  C   UNL A   1      42.245  29.614  35.274  1.00  0.00     0.031 C 
ATOM     53  C   UNL A   1      43.144  28.170  33.467  1.00  0.00     0.037 A 
BRANCH  40  54
ATOM     54  C   UNL A   1      42.302  26.654  27.538  1.00  0.00     0.057 A 
ATOM     55  C   UNL A   1      41.878  25.342  27.298  1.00  0.00     0.134 A 
ATOM     56  C   UNL A   1      43.176  27.228  26.601  1.00  0.00     0.134 A 
ATOM     57  F   UNL A   1      41.052  24.726  28.159  1.00  0.00    -0.206 F 
ATOM     58  C   UNL A   1      42.326  24.621  26.187  1.00  0.00     0.040 A 
ATOM     59  C   UNL A   1      43.608  26.527  25.473  1.00  0.00     0.040 A 
ATOM     60  F   UNL A   1      43.615  28.486  26.760  1.00  0.00    -0.206 F 
ATOM     61  C   UNL A   1      43.187  25.216  25.268  1.00  0.00     0.006 A 
ENDBRANCH  40  54
BRANCH  41  62
ATOM     62  C   UNL A   1      38.968  32.250  35.038  1.00  0.00     0.057 A 
ATOM     63  C   UNL A   1      38.183  31.714  36.063  1.00  0.00     0.134 A 
ATOM     64  C   UNL A   1      39.310  33.606  35.129  1.00  0.00     0.134 A 
ATOM     65  F   UNL A   1      37.792  30.431  36.015  1.00  0.00    -0.206 F 
ATOM     66  C   UNL A   1      37.773  32.489  37.150  1.00  0.00     0.040 A 
ATOM     67  C   UNL A   1      38.935  34.385  36.223  1.00  0.00     0.040 A 
ATOM     68  F   UNL A   1      40.054  34.182  34.172  1.00  0.00    -0.206 F 
ATOM     69  C   UNL A   1      38.163  33.825  37.239  1.00  0.00     0.006 A 
ENDBRANCH  41  62
BRANCH  53  70
ATOM     70  C   UNL A   1      44.170  27.676  34.441  1.00  0.00     0.057 A 
ATOM     71  C   UNL A   1      45.390  28.338  34.627  1.00  0.00     0.134 A 
ATOM     72  C   UNL A   1      43.937  26.523  35.201  1.00  0.00     0.134 A 
ATOM     73  F   UNL A   1      45.682  29.437  33.915  1.00  0.00    -0.206 F 
ATOM     74  C   UNL A   1      46.352  27.858  35.517  1.00  0.00     0.040 A 
ATOM     75  C   UNL A   1      44.882  26.045  36.110  1.00  0.00     0.040 A 
ATOM     76  F   UNL A   1      42.786  25.845  35.073  1.00  0.00    -0.206 F 
ATOM     77  C   UNL A   1      46.096  26.709  36.264  1.00  0.00     0.006 A 
ENDBRANCH  53  70
ENDBRANCH  27  28
ENDBRANCH  20  22
ENDBRANCH  19  20
ENDBRANCH   1  19
TORSDOF 12
ENDMDL
