MODEL 1
REMARK VINA RESULT:      -9.5      0.000      0.000
REMARK SMILES [NH3+][C@H](CCC(=O)OCCOC(=O)c1ccc(-c2c3nc(c(-c4c(F)cccc4F)c4ccc([nH]4)c(-c4c(F)cccc4F)c4nc(c(-c5c(F)cccc5F)c5ccc2[nH]5)C=C4)C=C3)cc1)c1nccc2[nH]ccc12
REMARK SMILES IDX 8 1 7 2 5 3 6 4 4 5 3 6 2 7 1 8 67 12 68 13 75 14 69 15
REMARK SMILES IDX 71 16 74 17 70 18 72 19 73 20 9 22 10 23 11 24 12 25 13 26
REMARK SMILES IDX 14 27 66 28 15 29 65 30 16 31 17 32 18 33 59 34 19 35 64 36
REMARK SMILES IDX 58 37 60 38 20 39 63 40 57 41 56 42 21 44 47 45 30 46 46 47
REMARK SMILES IDX 31 48 34 49 45 50 61 51 32 52 33 53 44 55 62 56 35 57 22 58
REMARK SMILES IDX 23 59 28 60 24 61 25 62 27 63 29 64 26 65 48 66 49 67 54 68
REMARK SMILES IDX 50 69 51 70 53 71 55 72 52 73 36 74 37 75 42 76 38 77 39 78
REMARK SMILES IDX 41 79 43 80 40 81
REMARK H PARENT 1 9 1 10 1 11 72 21 60 43 34 54
REMARK Flexibility Score: inf
ROOT
ATOM      1  C   UNL A   1      33.743  35.085  29.157  1.00  0.00     0.274 C 
ENDROOT
BRANCH   1   2
ATOM      2  O   UNL A   1      33.298  35.043  30.525  1.00  0.00    -0.462 OA
BRANCH   2   3
ATOM      3  C   UNL A   1      33.077  36.239  31.131  1.00  0.00     0.306 C 
ATOM      4  O   UNL A   1      32.578  37.214  30.584  1.00  0.00    -0.252 OA
BRANCH   3   5
ATOM      5  C   UNL A   1      33.300  36.152  32.624  1.00  0.00     0.129 C 
BRANCH   5   6
ATOM      6  C   UNL A   1      34.613  35.572  33.160  1.00  0.00     0.083 C 
BRANCH   6   7
ATOM      7  C   UNL A   1      34.687  34.086  33.611  1.00  0.00     0.232 C 
BRANCH   7   8
ATOM      8  N   UNL A   1      33.456  33.355  33.293  1.00  0.00    -0.350 N 
ATOM      9  H   UNL A   1      32.754  33.546  34.008  1.00  0.00     0.345 HD
ATOM     10  H   UNL A   1      33.651  32.355  33.266  1.00  0.00     0.345 HD
ATOM     11  H   UNL A   1      33.107  33.659  32.384  1.00  0.00     0.345 HD
ENDBRANCH   7   8
BRANCH   7  12
ATOM     12  C   UNL A   1      36.007  33.395  33.231  1.00  0.00     0.107 A 
ATOM     13  N   UNL A   1      36.134  33.133  31.893  1.00  0.00    -0.254 NA
ATOM     14  C   UNL A   1      37.216  33.689  33.901  1.00  0.00     0.027 A 
ATOM     15  C   UNL A   1      37.129  33.714  31.203  1.00  0.00     0.114 A 
ATOM     16  C   UNL A   1      38.199  34.346  33.156  1.00  0.00     0.049 A 
ATOM     17  C   UNL A   1      37.762  33.481  35.197  1.00  0.00     0.030 A 
ATOM     18  C   UNL A   1      38.114  34.491  31.777  1.00  0.00     0.047 A 
ATOM     19  N   UNL A   1      39.158  34.764  34.045  1.00  0.00    -0.361 N 
ATOM     20  C   UNL A   1      38.998  34.092  35.228  1.00  0.00     0.083 A 
ATOM     21  H   UNL A   1      39.852  35.438  33.861  1.00  0.00     0.166 HD
ENDBRANCH   7  12
ENDBRANCH   6   7
ENDBRANCH   5   6
ENDBRANCH   3   5
ENDBRANCH   2   3
ENDBRANCH   1   2
BRANCH   1  22
ATOM     22  C   UNL A   1      33.536  33.714  28.513  1.00  0.00     0.275 C 
BRANCH  22  23
ATOM     23  O   UNL A   1      34.453  32.744  29.058  1.00  0.00    -0.458 OA
BRANCH  23  24
ATOM     24  C   UNL A   1      34.629  31.627  28.323  1.00  0.00     0.338 C 
ATOM     25  O   UNL A   1      33.917  31.212  27.410  1.00  0.00    -0.246 OA
BRANCH  24  26
ATOM     26  C   UNL A   1      35.903  30.998  28.689  1.00  0.00     0.060 A 
ATOM     27  C   UNL A   1      35.889  29.793  29.396  1.00  0.00     0.016 A 
ATOM     28  C   UNL A   1      37.111  31.628  28.386  1.00  0.00     0.016 A 
ATOM     29  C   UNL A   1      37.078  29.219  29.826  1.00  0.00     0.010 A 
ATOM     30  C   UNL A   1      38.307  31.040  28.801  1.00  0.00     0.010 A 
ATOM     31  C   UNL A   1      38.295  29.840  29.533  1.00  0.00    -0.014 A 
BRANCH  31  32
ATOM     32  C   UNL A   1      39.552  29.245  30.034  1.00  0.00     0.031 A 
ATOM     33  C   UNL A   1      40.193  29.797  31.272  1.00  0.00     0.074 A 
ATOM     34  C   UNL A   1      40.093  28.195  29.390  1.00  0.00     0.049 A 
ATOM     35  N   UNL A   1      41.332  29.476  31.826  1.00  0.00    -0.248 NA
ATOM     36  C   UNL A   1      39.453  30.856  31.978  1.00  0.00     0.031 C 
ATOM     37  C   UNL A   1      39.524  27.545  28.209  1.00  0.00     0.029 A 
ATOM     38  N   UNL A   1      41.241  27.490  29.640  1.00  0.00    -0.354 N 
ATOM     39  C   UNL A   1      41.460  30.306  32.931  1.00  0.00     0.074 A 
ATOM     40  C   UNL A   1      40.290  31.159  32.960  1.00  0.00     0.031 C 
ATOM     41  C   UNL A   1      40.324  26.532  27.839  1.00  0.00     0.029 A 
ATOM     42  C   UNL A   1      41.484  26.498  28.724  1.00  0.00     0.049 A 
ATOM     43  H   UNL A   1      41.834  27.678  30.403  1.00  0.00     0.167 HD
ATOM     44  C   UNL A   1      42.463  30.349  33.839  1.00  0.00     0.037 A 
ATOM     45  C   UNL A   1      42.540  25.674  28.597  1.00  0.00     0.037 A 
ATOM     46  C   UNL A   1      43.614  29.484  33.807  1.00  0.00     0.049 A 
ATOM     47  C   UNL A   1      43.671  25.784  29.581  1.00  0.00     0.074 A 
ATOM     48  C   UNL A   1      44.683  29.436  34.684  1.00  0.00     0.029 A 
ATOM     49  N   UNL A   1      43.845  28.515  32.841  1.00  0.00    -0.354 N 
ATOM     50  N   UNL A   1      43.789  26.578  30.617  1.00  0.00    -0.248 NA
ATOM     51  C   UNL A   1      44.818  24.892  29.372  1.00  0.00     0.031 C 
ATOM     52  C   UNL A   1      45.581  28.467  34.225  1.00  0.00     0.029 A 
ATOM     53  C   UNL A   1      45.050  27.879  33.087  1.00  0.00     0.049 A 
ATOM     54  H   UNL A   1      43.241  28.309  32.092  1.00  0.00     0.167 HD
ATOM     55  C   UNL A   1      45.012  26.269  31.196  1.00  0.00     0.074 A 
ATOM     56  C   UNL A   1      45.591  25.203  30.403  1.00  0.00     0.031 C 
ATOM     57  C   UNL A   1      45.606  26.820  32.284  1.00  0.00     0.037 A 
BRANCH  44  58
ATOM     58  C   UNL A   1      42.373  31.386  34.919  1.00  0.00     0.057 A 
ATOM     59  C   UNL A   1      42.973  32.644  34.794  1.00  0.00     0.134 A 
ATOM     60  C   UNL A   1      41.660  31.123  36.097  1.00  0.00     0.134 A 
ATOM     61  F   UNL A   1      43.685  32.953  33.700  1.00  0.00    -0.206 F 
ATOM     62  C   UNL A   1      42.888  33.597  35.812  1.00  0.00     0.040 A 
ATOM     63  C   UNL A   1      41.547  32.076  37.109  1.00  0.00     0.040 A 
ATOM     64  F   UNL A   1      41.059  29.938  36.279  1.00  0.00    -0.206 F 
ATOM     65  C   UNL A   1      42.168  33.316  36.972  1.00  0.00     0.006 A 
ENDBRANCH  44  58
BRANCH  45  66
ATOM     66  C   UNL A   1      42.586  24.695  27.482  1.00  0.00     0.057 A 
ATOM     67  C   UNL A   1      42.107  23.392  27.643  1.00  0.00     0.134 A 
ATOM     68  C   UNL A   1      43.111  25.041  26.231  1.00  0.00     0.134 A 
ATOM     69  F   UNL A   1      41.614  22.994  28.825  1.00  0.00    -0.206 F 
ATOM     70  C   UNL A   1      42.156  22.462  26.602  1.00  0.00     0.040 A 
ATOM     71  C   UNL A   1      43.142  24.130  25.174  1.00  0.00     0.040 A 
ATOM     72  F   UNL A   1      43.586  26.276  26.012  1.00  0.00    -0.206 F 
ATOM     73  C   UNL A   1      42.669  22.833  25.361  1.00  0.00     0.006 A 
ENDBRANCH  45  66
BRANCH  57  74
ATOM     74  C   UNL A   1      46.935  26.256  32.691  1.00  0.00     0.057 A 
ATOM     75  C   UNL A   1      47.039  25.193  33.597  1.00  0.00     0.134 A 
ATOM     76  C   UNL A   1      48.121  26.761  32.145  1.00  0.00     0.134 A 
ATOM     77  F   UNL A   1      45.939  24.675  34.166  1.00  0.00    -0.206 F 
ATOM     78  C   UNL A   1      48.278  24.666  33.961  1.00  0.00     0.040 A 
ATOM     79  C   UNL A   1      49.364  26.226  32.481  1.00  0.00     0.040 A 
ATOM     80  F   UNL A   1      48.089  27.774  31.266  1.00  0.00    -0.206 F 
ATOM     81  C   UNL A   1      49.445  25.179  33.398  1.00  0.00     0.006 A 
ENDBRANCH  57  74
ENDBRANCH  31  32
ENDBRANCH  24  26
ENDBRANCH  23  24
ENDBRANCH  22  23
ENDBRANCH   1  22
TORSDOF 15
ENDMDL
MODEL 2
REMARK VINA RESULT:      -9.4      4.846     11.406
REMARK SMILES [NH3+][C@H](CCC(=O)OCCOC(=O)c1ccc(-c2c3nc(c(-c4c(F)cccc4F)c4ccc([nH]4)c(-c4c(F)cccc4F)c4nc(c(-c5c(F)cccc5F)c5ccc2[nH]5)C=C4)C=C3)cc1)c1nccc2[nH]ccc12
REMARK SMILES IDX 8 1 7 2 5 3 6 4 4 5 3 6 2 7 1 8 67 12 68 13 75 14 69 15
REMARK SMILES IDX 71 16 74 17 70 18 72 19 73 20 9 22 10 23 11 24 12 25 13 26
REMARK SMILES IDX 14 27 66 28 15 29 65 30 16 31 17 32 18 33 59 34 19 35 64 36
REMARK SMILES IDX 58 37 60 38 20 39 63 40 57 41 56 42 21 44 47 45 30 46 46 47
REMARK SMILES IDX 31 48 34 49 45 50 61 51 32 52 33 53 44 55 62 56 35 57 22 58
REMARK SMILES IDX 23 59 28 60 24 61 25 62 27 63 29 64 26 65 48 66 49 67 54 68
REMARK SMILES IDX 50 69 51 70 53 71 55 72 52 73 36 74 37 75 42 76 38 77 39 78
REMARK SMILES IDX 41 79 43 80 40 81
REMARK H PARENT 1 9 1 10 1 11 72 21 60 43 34 54
REMARK Flexibility Score: inf
ROOT
ATOM      1  C   UNL A   1      42.592  20.279  26.252  1.00  0.00     0.274 C 
ENDROOT
BRANCH   1   2
ATOM      2  O   UNL A   1      43.204  19.928  24.997  1.00  0.00    -0.462 OA
BRANCH   2   3
ATOM      3  C   UNL A   1      44.274  19.092  25.053  1.00  0.00     0.306 C 
ATOM      4  O   UNL A   1      44.247  17.961  25.523  1.00  0.00    -0.252 OA
BRANCH   3   5
ATOM      5  C   UNL A   1      45.440  19.630  24.256  1.00  0.00     0.129 C 
BRANCH   5   6
ATOM      6  C   UNL A   1      46.170  20.888  24.739  1.00  0.00     0.083 C 
BRANCH   6   7
ATOM      7  C   UNL A   1      45.720  22.293  24.247  1.00  0.00     0.232 C 
BRANCH   7   8
ATOM      8  N   UNL A   1      44.589  22.211  23.317  1.00  0.00    -0.350 N 
ATOM      9  H   UNL A   1      43.871  21.600  23.707  1.00  0.00     0.345 HD
ATOM     10  H   UNL A   1      44.908  21.834  22.424  1.00  0.00     0.345 HD
ATOM     11  H   UNL A   1      44.200  23.143  23.173  1.00  0.00     0.345 HD
ENDBRANCH   7   8
BRANCH   7  12
ATOM     12  C   UNL A   1      45.600  23.328  25.377  1.00  0.00     0.107 A 
ATOM     13  N   UNL A   1      46.763  23.535  26.068  1.00  0.00    -0.254 NA
ATOM     14  C   UNL A   1      44.764  24.461  25.258  1.00  0.00     0.027 A 
ATOM     15  C   UNL A   1      47.327  24.754  26.051  1.00  0.00     0.114 A 
ATOM     16  C   UNL A   1      45.401  25.702  25.185  1.00  0.00     0.049 A 
ATOM     17  C   UNL A   1      43.367  24.719  25.202  1.00  0.00     0.030 A 
ATOM     18  C   UNL A   1      46.754  25.860  25.459  1.00  0.00     0.047 A 
ATOM     19  N   UNL A   1      44.448  26.617  24.812  1.00  0.00    -0.361 N 
ATOM     20  C   UNL A   1      43.204  26.074  25.003  1.00  0.00     0.083 A 
ATOM     21  H   UNL A   1      44.629  27.520  24.464  1.00  0.00     0.166 HD
ENDBRANCH   7  12
ENDBRANCH   6   7
ENDBRANCH   5   6
ENDBRANCH   3   5
ENDBRANCH   2   3
ENDBRANCH   1   2
BRANCH   1  22
ATOM     22  C   UNL A   1      41.805  21.580  26.087  1.00  0.00     0.275 C 
BRANCH  22  23
ATOM     23  O   UNL A   1      40.814  21.718  27.124  1.00  0.00    -0.458 OA
BRANCH  23  24
ATOM     24  C   UNL A   1      39.819  22.593  26.871  1.00  0.00     0.338 C 
ATOM     25  O   UNL A   1      38.675  22.336  26.502  1.00  0.00    -0.246 OA
BRANCH  24  26
ATOM     26  C   UNL A   1      40.258  23.948  27.221  1.00  0.00     0.060 A 
ATOM     27  C   UNL A   1      41.062  24.134  28.349  1.00  0.00     0.016 A 
ATOM     28  C   UNL A   1      39.828  25.042  26.469  1.00  0.00     0.016 A 
ATOM     29  C   UNL A   1      41.423  25.413  28.749  1.00  0.00     0.010 A 
ATOM     30  C   UNL A   1      40.209  26.327  26.860  1.00  0.00     0.010 A 
ATOM     31  C   UNL A   1      40.997  26.519  28.007  1.00  0.00    -0.014 A 
BRANCH  31  32
ATOM     32  C   UNL A   1      41.349  27.879  28.467  1.00  0.00     0.031 A 
ATOM     33  C   UNL A   1      42.786  28.308  28.487  1.00  0.00     0.074 A 
ATOM     34  C   UNL A   1      40.374  28.729  28.835  1.00  0.00     0.049 A 
ATOM     35  N   UNL A   1      43.311  29.420  28.929  1.00  0.00    -0.248 NA
ATOM     36  C   UNL A   1      43.763  27.354  27.938  1.00  0.00     0.031 C 
ATOM     37  C   UNL A   1      38.941  28.433  28.803  1.00  0.00     0.029 A 
ATOM     38  N   UNL A   1      40.441  30.014  29.307  1.00  0.00    -0.354 N 
ATOM     39  C   UNL A   1      44.679  29.293  28.736  1.00  0.00     0.074 A 
ATOM     40  C   UNL A   1      44.907  27.988  28.152  1.00  0.00     0.031 C 
ATOM     41  C   UNL A   1      38.262  29.510  29.232  1.00  0.00     0.029 A 
ATOM     42  C   UNL A   1      39.215  30.546  29.618  1.00  0.00     0.049 A 
ATOM     43  H   UNL A   1      41.287  30.506  29.413  1.00  0.00     0.167 HD
ATOM     44  C   UNL A   1      45.655  30.189  29.019  1.00  0.00     0.037 A 
ATOM     45  C   UNL A   1      38.900  31.727  30.180  1.00  0.00     0.037 A 
ATOM     46  C   UNL A   1      45.412  31.489  29.587  1.00  0.00     0.049 A 
ATOM     47  C   UNL A   1      40.006  32.677  30.544  1.00  0.00     0.074 A 
ATOM     48  C   UNL A   1      46.327  32.478  29.903  1.00  0.00     0.029 A 
ATOM     49  N   UNL A   1      44.159  31.980  29.925  1.00  0.00    -0.354 N 
ATOM     50  N   UNL A   1      41.299  32.547  30.368  1.00  0.00    -0.248 NA
ATOM     51  C   UNL A   1      39.611  33.934  31.195  1.00  0.00     0.031 C 
ATOM     52  C   UNL A   1      45.632  33.550  30.472  1.00  0.00     0.029 A 
ATOM     53  C   UNL A   1      44.279  33.249  30.468  1.00  0.00     0.049 A 
ATOM     54  H   UNL A   1      43.310  31.500  29.797  1.00  0.00     0.167 HD
ATOM     55  C   UNL A   1      41.870  33.710  30.866  1.00  0.00     0.074 A 
ATOM     56  C   UNL A   1      40.781  34.541  31.337  1.00  0.00     0.031 C 
ATOM     57  C   UNL A   1      43.179  34.058  30.930  1.00  0.00     0.037 A 
BRANCH  44  58
ATOM     58  C   UNL A   1      47.071  29.773  28.751  1.00  0.00     0.057 A 
ATOM     59  C   UNL A   1      47.692  30.001  27.517  1.00  0.00     0.134 A 
ATOM     60  C   UNL A   1      47.828  29.148  29.751  1.00  0.00     0.134 A 
ATOM     61  F   UNL A   1      47.017  30.578  26.512  1.00  0.00    -0.206 F 
ATOM     62  C   UNL A   1      49.008  29.600  27.278  1.00  0.00     0.040 A 
ATOM     63  C   UNL A   1      49.152  28.766  29.533  1.00  0.00     0.040 A 
ATOM     64  F   UNL A   1      47.294  28.903  30.957  1.00  0.00    -0.206 F 
ATOM     65  C   UNL A   1      49.744  28.985  28.291  1.00  0.00     0.006 A 
ENDBRANCH  44  58
BRANCH  45  66
ATOM     66  C   UNL A   1      37.481  32.062  30.456  1.00  0.00     0.057 A 
ATOM     67  C   UNL A   1      36.862  31.667  31.646  1.00  0.00     0.134 A 
ATOM     68  C   UNL A   1      36.711  32.785  29.536  1.00  0.00     0.134 A 
ATOM     69  F   UNL A   1      37.540  30.953  32.556  1.00  0.00    -0.206 F 
ATOM     70  C   UNL A   1      35.524  31.969  31.908  1.00  0.00     0.040 A 
ATOM     71  C   UNL A   1      35.380  33.116  29.796  1.00  0.00     0.040 A 
ATOM     72  F   UNL A   1      37.246  33.193  28.377  1.00  0.00    -0.206 F 
ATOM     73  C   UNL A   1      34.781  32.701  30.984  1.00  0.00     0.006 A 
ENDBRANCH  45  66
BRANCH  57  74
ATOM     74  C   UNL A   1      43.497  35.406  31.506  1.00  0.00     0.057 A 
ATOM     75  C   UNL A   1      43.620  35.608  32.886  1.00  0.00     0.134 A 
ATOM     76  C   UNL A   1      43.714  36.506  30.667  1.00  0.00     0.134 A 
ATOM     77  F   UNL A   1      43.410  34.596  33.742  1.00  0.00    -0.206 F 
ATOM     78  C   UNL A   1      43.928  36.862  33.414  1.00  0.00     0.040 A 
ATOM     79  C   UNL A   1      44.047  37.759  31.181  1.00  0.00     0.040 A 
ATOM     80  F   UNL A   1      43.617  36.377  29.336  1.00  0.00    -0.206 F 
ATOM     81  C   UNL A   1      44.149  37.941  32.559  1.00  0.00     0.006 A 
ENDBRANCH  57  74
ENDBRANCH  31  32
ENDBRANCH  24  26
ENDBRANCH  23  24
ENDBRANCH  22  23
ENDBRANCH   1  22
TORSDOF 15
ENDMDL
MODEL 3
REMARK VINA RESULT:      -9.3      4.863     10.832
REMARK SMILES [NH3+][C@H](CCC(=O)OCCOC(=O)c1ccc(-c2c3nc(c(-c4c(F)cccc4F)c4ccc([nH]4)c(-c4c(F)cccc4F)c4nc(c(-c5c(F)cccc5F)c5ccc2[nH]5)C=C4)C=C3)cc1)c1nccc2[nH]ccc12
REMARK SMILES IDX 8 1 7 2 5 3 6 4 4 5 3 6 2 7 1 8 67 12 68 13 75 14 69 15
REMARK SMILES IDX 71 16 74 17 70 18 72 19 73 20 9 22 10 23 11 24 12 25 13 26
REMARK SMILES IDX 14 27 66 28 15 29 65 30 16 31 17 32 18 33 59 34 19 35 64 36
REMARK SMILES IDX 58 37 60 38 20 39 63 40 57 41 56 42 21 44 47 45 30 46 46 47
REMARK SMILES IDX 31 48 34 49 45 50 61 51 32 52 33 53 44 55 62 56 35 57 22 58
REMARK SMILES IDX 23 59 28 60 24 61 25 62 27 63 29 64 26 65 48 66 49 67 54 68
REMARK SMILES IDX 50 69 51 70 53 71 55 72 52 73 36 74 37 75 42 76 38 77 39 78
REMARK SMILES IDX 41 79 43 80 40 81
REMARK H PARENT 1 9 1 10 1 11 72 21 60 43 34 54
REMARK Flexibility Score: inf
ROOT
ATOM      1  C   UNL A   1      42.226  20.383  26.199  1.00  0.00     0.274 C 
ENDROOT
BRANCH   1   2
ATOM      2  O   UNL A   1      43.031  20.162  25.027  1.00  0.00    -0.462 OA
BRANCH   2   3
ATOM      3  C   UNL A   1      43.964  19.177  25.105  1.00  0.00     0.306 C 
ATOM      4  O   UNL A   1      43.732  18.026  25.455  1.00  0.00    -0.252 OA
BRANCH   3   5
ATOM      5  C   UNL A   1      45.274  19.605  24.485  1.00  0.00     0.129 C 
BRANCH   5   6
ATOM      6  C   UNL A   1      46.022  20.816  25.056  1.00  0.00     0.083 C 
BRANCH   6   7
ATOM      7  C   UNL A   1      45.760  22.238  24.485  1.00  0.00     0.232 C 
BRANCH   7   8
ATOM      8  N   UNL A   1      44.731  22.229  23.440  1.00  0.00    -0.350 N 
ATOM      9  H   UNL A   1      44.033  22.943  23.643  1.00  0.00     0.345 HD
ATOM     10  H   UNL A   1      44.283  21.313  23.412  1.00  0.00     0.345 HD
ATOM     11  H   UNL A   1      45.163  22.423  22.537  1.00  0.00     0.345 HD
ENDBRANCH   7   8
BRANCH   7  12
ATOM     12  C   UNL A   1      45.620  23.318  25.570  1.00  0.00     0.107 A 
ATOM     13  N   UNL A   1      46.738  23.479  26.343  1.00  0.00    -0.254 NA
ATOM     14  C   UNL A   1      44.868  24.495  25.351  1.00  0.00     0.027 A 
ATOM     15  C   UNL A   1      47.377  24.660  26.333  1.00  0.00     0.114 A 
ATOM     16  C   UNL A   1      45.586  25.692  25.291  1.00  0.00     0.049 A 
ATOM     17  C   UNL A   1      43.498  24.835  25.178  1.00  0.00     0.030 A 
ATOM     18  C   UNL A   1      46.922  25.777  25.665  1.00  0.00     0.047 A 
ATOM     19  N   UNL A   1      44.724  26.649  24.817  1.00  0.00    -0.361 N 
ATOM     20  C   UNL A   1      43.437  26.189  24.926  1.00  0.00     0.083 A 
ATOM     21  H   UNL A   1      44.987  27.526  24.456  1.00  0.00     0.166 HD
ENDBRANCH   7  12
ENDBRANCH   6   7
ENDBRANCH   5   6
ENDBRANCH   3   5
ENDBRANCH   2   3
ENDBRANCH   1   2
BRANCH   1  22
ATOM     22  C   UNL A   1      41.540  21.746  26.095  1.00  0.00     0.275 C 
BRANCH  22  23
ATOM     23  O   UNL A   1      40.324  21.773  26.868  1.00  0.00    -0.458 OA
BRANCH  23  24
ATOM     24  C   UNL A   1      39.405  22.681  26.483  1.00  0.00     0.338 C 
ATOM     25  O   UNL A   1      38.365  22.474  25.861  1.00  0.00    -0.246 OA
BRANCH  24  26
ATOM     26  C   UNL A   1      39.760  23.996  27.027  1.00  0.00     0.060 A 
ATOM     27  C   UNL A   1      39.920  25.074  26.152  1.00  0.00     0.016 A 
ATOM     28  C   UNL A   1      39.993  24.153  28.393  1.00  0.00     0.016 A 
ATOM     29  C   UNL A   1      40.337  26.309  26.630  1.00  0.00     0.010 A 
ATOM     30  C   UNL A   1      40.391  25.400  28.878  1.00  0.00     0.010 A 
ATOM     31  C   UNL A   1      40.577  26.480  27.997  1.00  0.00    -0.014 A 
BRANCH  31  32
ATOM     32  C   UNL A   1      41.063  27.785  28.490  1.00  0.00     0.031 A 
ATOM     33  C   UNL A   1      40.080  28.810  28.974  1.00  0.00     0.074 A 
ATOM     34  C   UNL A   1      42.385  28.031  28.528  1.00  0.00     0.049 A 
ATOM     35  N   UNL A   1      40.293  30.039  29.365  1.00  0.00    -0.248 NA
ATOM     36  C   UNL A   1      38.669  28.395  29.019  1.00  0.00     0.031 C 
ATOM     37  C   UNL A   1      43.430  27.085  28.133  1.00  0.00     0.029 A 
ATOM     38  N   UNL A   1      43.074  29.149  28.918  1.00  0.00    -0.354 N 
ATOM     39  C   UNL A   1      39.043  30.554  29.680  1.00  0.00     0.074 A 
ATOM     40  C   UNL A   1      38.074  29.510  29.418  1.00  0.00     0.031 C 
ATOM     41  C   UNL A   1      44.631  27.663  28.306  1.00  0.00     0.029 A 
ATOM     42  C   UNL A   1      44.434  29.032  28.772  1.00  0.00     0.049 A 
ATOM     43  H   UNL A   1      42.636  29.958  29.269  1.00  0.00     0.167 HD
ATOM     44  C   UNL A   1      38.736  31.787  30.149  1.00  0.00     0.037 A 
ATOM     45  C   UNL A   1      45.408  29.940  28.964  1.00  0.00     0.037 A 
ATOM     46  C   UNL A   1      39.711  32.810  30.419  1.00  0.00     0.049 A 
ATOM     47  C   UNL A   1      45.035  31.321  29.423  1.00  0.00     0.074 A 
ATOM     48  C   UNL A   1      39.508  34.090  30.905  1.00  0.00     0.029 A 
ATOM     49  N   UNL A   1      41.077  32.668  30.223  1.00  0.00    -0.354 N 
ATOM     50  N   UNL A   1      43.851  31.804  29.710  1.00  0.00    -0.248 NA
ATOM     51  C   UNL A   1      46.132  32.286  29.575  1.00  0.00     0.031 C 
ATOM     52  C   UNL A   1      40.747  34.736  30.963  1.00  0.00     0.029 A 
ATOM     53  C   UNL A   1      41.728  33.845  30.556  1.00  0.00     0.049 A 
ATOM     54  H   UNL A   1      41.520  31.852  29.895  1.00  0.00     0.167 HD
ATOM     55  C   UNL A   1      44.059  33.121  30.095  1.00  0.00     0.074 A 
ATOM     56  C   UNL A   1      45.487  33.355  30.020  1.00  0.00     0.031 C 
ATOM     57  C   UNL A   1      43.151  34.055  30.474  1.00  0.00     0.037 A 
BRANCH  44  58
ATOM     58  C   UNL A   1      37.285  32.101  30.362  1.00  0.00     0.057 A 
ATOM     59  C   UNL A   1      36.484  32.642  29.350  1.00  0.00     0.134 A 
ATOM     60  C   UNL A   1      36.678  31.843  31.599  1.00  0.00     0.134 A 
ATOM     61  F   UNL A   1      37.007  32.929  28.148  1.00  0.00    -0.206 F 
ATOM     62  C   UNL A   1      35.136  32.939  29.566  1.00  0.00     0.040 A 
ATOM     63  C   UNL A   1      35.327  32.111  31.819  1.00  0.00     0.040 A 
ATOM     64  F   UNL A   1      37.388  31.323  32.611  1.00  0.00    -0.206 F 
ATOM     65  C   UNL A   1      34.552  32.668  30.803  1.00  0.00     0.006 A 
ENDBRANCH  44  58
BRANCH  45  66
ATOM     66  C   UNL A   1      46.822  29.577  28.696  1.00  0.00     0.057 A 
ATOM     67  C   UNL A   1      47.649  29.089  29.713  1.00  0.00     0.134 A 
ATOM     68  C   UNL A   1      47.379  29.708  27.418  1.00  0.00     0.134 A 
ATOM     69  F   UNL A   1      47.180  28.962  30.963  1.00  0.00    -0.206 F 
ATOM     70  C   UNL A   1      48.983  28.755  29.472  1.00  0.00     0.040 A 
ATOM     71  C   UNL A   1      48.703  29.353  27.157  1.00  0.00     0.040 A 
ATOM     72  F   UNL A   1      46.638  30.169  26.400  1.00  0.00    -0.206 F 
ATOM     73  C   UNL A   1      49.512  28.880  28.188  1.00  0.00     0.006 A 
ENDBRANCH  45  66
BRANCH  57  74
ATOM     74  C   UNL A   1      43.683  35.402  30.862  1.00  0.00     0.057 A 
ATOM     75  C   UNL A   1      43.845  36.429  29.924  1.00  0.00     0.134 A 
ATOM     76  C   UNL A   1      44.005  35.684  32.195  1.00  0.00     0.134 A 
ATOM     77  F   UNL A   1      43.567  36.216  28.628  1.00  0.00    -0.206 F 
ATOM     78  C   UNL A   1      44.329  37.684  30.295  1.00  0.00     0.040 A 
ATOM     79  C   UNL A   1      44.465  36.943  32.583  1.00  0.00     0.040 A 
ATOM     80  F   UNL A   1      43.865  34.746  33.143  1.00  0.00    -0.206 F 
ATOM     81  C   UNL A   1      44.634  37.945  31.629  1.00  0.00     0.006 A 
ENDBRANCH  57  74
ENDBRANCH  31  32
ENDBRANCH  24  26
ENDBRANCH  23  24
ENDBRANCH  22  23
ENDBRANCH   1  22
TORSDOF 15
ENDMDL
