MODEL 1
REMARK VINA RESULT:      -9.8      0.000      0.000
REMARK SMILES CCc1n[nH]c(C(=O)NC[C@@H]2CC[C@@H](C(=O)OCCOC(=O)c3ccc(-c4c5nc(c(-c6c(F)cccc6F)c6ccc([nH]6)c(-c6c(F)cccc6F)c6nc(c(-c7c(F)cccc7F)c7ccc4[nH]7)C=C6)C=C5)cc3)O2)n1
REMARK SMILES IDX 18 1 17 2 15 3 16 4 14 5 11 6 12 7 77 8 13 9 10 10 9 11 7 12
REMARK SMILES IDX 8 13 6 15 3 16 4 17 78 18 5 19 2 21 1 22 19 23 20 24 21 25
REMARK SMILES IDX 22 26 23 27 24 28 76 29 25 30 75 31 26 32 27 33 28 34 69 35
REMARK SMILES IDX 29 36 74 37 68 38 70 39 30 40 73 41 67 42 66 43 31 45 57 46
REMARK SMILES IDX 40 47 56 48 41 49 44 50 55 51 71 52 42 53 43 54 54 56 72 57
REMARK SMILES IDX 45 58 32 59 33 60 38 61 34 62 35 63 37 64 39 65 36 66 58 67
REMARK SMILES IDX 59 68 64 69 60 70 61 71 63 72 65 73 62 74 46 75 47 76 52 77
REMARK SMILES IDX 48 78 49 79 51 80 53 81 50 82
REMARK H PARENT 9 14 5 20 70 44 44 55
REMARK Flexibility Score: inf
ROOT
ATOM      1  C   UNL A   1      44.939  18.434  25.083  1.00  0.00     0.274 C 
ENDROOT
BRANCH   1   2
ATOM      2  O   UNL A   1      45.877  19.298  25.757  1.00  0.00    -0.460 OA
BRANCH   2   3
ATOM      3  C   UNL A   1      46.364  20.328  25.004  1.00  0.00     0.335 C 
ATOM      4  O   UNL A   1      47.250  20.215  24.166  1.00  0.00    -0.249 OA
BRANCH   3   5
ATOM      5  C   UNL A   1      45.686  21.655  25.363  1.00  0.00     0.228 C 
ATOM      6  C   UNL A   1      46.316  23.869  24.880  1.00  0.00     0.138 C 
ATOM      7  C   UNL A   1      44.846  23.710  24.552  1.00  0.00     0.037 C 
ATOM      8  O   UNL A   1      46.666  22.683  25.624  1.00  0.00    -0.361 OA
ATOM      9  C   UNL A   1      44.766  22.221  24.291  1.00  0.00     0.047 C 
BRANCH   6  10
ATOM     10  C   UNL A   1      46.678  25.105  25.701  1.00  0.00     0.148 C 
BRANCH  10  11
ATOM     11  N   UNL A   1      47.132  26.180  24.820  1.00  0.00    -0.347 N 
ATOM     12  C   UNL A   1      46.758  27.499  24.728  1.00  0.00     0.288 C 
ATOM     13  O   UNL A   1      47.300  28.175  23.850  1.00  0.00    -0.266 OA
ATOM     14  H   UNL A   1      47.830  25.911  24.180  1.00  0.00     0.164 HD
BRANCH  12  15
ATOM     15  C   UNL A   1      45.780  28.068  25.624  1.00  0.00     0.214 A 
ATOM     16  C   UNL A   1      44.057  28.832  26.585  1.00  0.00     0.151 A 
ATOM     17  N   UNL A   1      44.950  28.794  27.576  1.00  0.00    -0.158 NA
ATOM     18  N   UNL A   1      44.528  28.402  25.371  1.00  0.00    -0.207 NA
ATOM     19  N   UNL A   1      46.043  28.339  26.939  1.00  0.00    -0.255 N 
ATOM     20  H   UNL A   1      46.923  28.216  27.365  1.00  0.00     0.192 HD
BRANCH  16  21
ATOM     21  C   UNL A   1      42.653  29.275  26.778  1.00  0.00     0.076 C 
ATOM     22  C   UNL A   1      41.699  28.610  25.798  1.00  0.00     0.012 C 
ENDBRANCH  16  21
ENDBRANCH  12  15
ENDBRANCH  10  11
ENDBRANCH   6  10
ENDBRANCH   3   5
ENDBRANCH   2   3
ENDBRANCH   1   2
BRANCH   1  23
ATOM     23  C   UNL A   1      43.597  18.417  25.813  1.00  0.00     0.275 C 
BRANCH  23  24
ATOM     24  O   UNL A   1      42.701  19.361  25.202  1.00  0.00    -0.458 OA
BRANCH  24  25
ATOM     25  C   UNL A   1      41.535  19.576  25.852  1.00  0.00     0.338 C 
ATOM     26  O   UNL A   1      40.574  18.830  25.922  1.00  0.00    -0.246 OA
BRANCH  25  27
ATOM     27  C   UNL A   1      41.573  20.890  26.516  1.00  0.00     0.060 A 
ATOM     28  C   UNL A   1      41.435  22.055  25.764  1.00  0.00     0.016 A 
ATOM     29  C   UNL A   1      41.877  20.964  27.876  1.00  0.00     0.016 A 
ATOM     30  C   UNL A   1      41.679  23.297  26.350  1.00  0.00     0.010 A 
ATOM     31  C   UNL A   1      42.046  22.216  28.478  1.00  0.00     0.010 A 
ATOM     32  C   UNL A   1      41.990  23.394  27.713  1.00  0.00    -0.014 A 
BRANCH  32  33
ATOM     33  C   UNL A   1      42.310  24.715  28.320  1.00  0.00     0.031 A 
ATOM     34  C   UNL A   1      43.718  25.029  28.754  1.00  0.00     0.074 A 
ATOM     35  C   UNL A   1      41.353  25.652  28.465  1.00  0.00     0.049 A 
ATOM     36  N   UNL A   1      44.167  26.062  29.423  1.00  0.00    -0.248 NA
ATOM     37  C   UNL A   1      44.754  24.049  28.395  1.00  0.00     0.031 C 
ATOM     38  C   UNL A   1      39.956  25.509  28.051  1.00  0.00     0.029 A 
ATOM     39  N   UNL A   1      41.415  26.918  28.997  1.00  0.00    -0.354 N 
ATOM     40  C   UNL A   1      45.523  25.829  29.613  1.00  0.00     0.074 A 
ATOM     41  C   UNL A   1      45.826  24.560  28.987  1.00  0.00     0.031 C 
ATOM     42  C   UNL A   1      39.303  26.652  28.309  1.00  0.00     0.029 A 
ATOM     43  C   UNL A   1      40.214  27.582  28.969  1.00  0.00     0.049 A 
ATOM     44  H   UNL A   1      42.242  27.310  29.361  1.00  0.00     0.167 HD
ATOM     45  C   UNL A   1      46.435  26.600  30.254  1.00  0.00     0.037 A 
ATOM     46  C   UNL A   1      39.870  28.792  29.448  1.00  0.00     0.037 A 
ATOM     47  C   UNL A   1      46.157  27.891  30.827  1.00  0.00     0.049 A 
ATOM     48  C   UNL A   1      40.895  29.627  30.158  1.00  0.00     0.074 A 
ATOM     49  C   UNL A   1      47.024  28.751  31.478  1.00  0.00     0.029 A 
ATOM     50  N   UNL A   1      44.921  28.516  30.796  1.00  0.00    -0.354 N 
ATOM     51  N   UNL A   1      42.162  29.370  30.375  1.00  0.00    -0.248 NA
ATOM     52  C   UNL A   1      40.437  30.912  30.705  1.00  0.00     0.031 C 
ATOM     53  C   UNL A   1      46.306  29.890  31.862  1.00  0.00     0.029 A 
ATOM     54  C   UNL A   1      45.000  29.749  31.424  1.00  0.00     0.049 A 
ATOM     55  H   UNL A   1      44.107  28.140  30.389  1.00  0.00     0.167 HD
ATOM     56  C   UNL A   1      42.653  30.461  31.080  1.00  0.00     0.074 A 
ATOM     57  C   UNL A   1      41.555  31.393  31.231  1.00  0.00     0.031 C 
ATOM     58  C   UNL A   1      43.901  30.666  31.564  1.00  0.00     0.037 A 
BRANCH  45  59
ATOM     59  C   UNL A   1      47.822  26.050  30.398  1.00  0.00     0.057 A 
ATOM     60  C   UNL A   1      48.752  26.088  29.353  1.00  0.00     0.134 A 
ATOM     61  C   UNL A   1      48.241  25.504  31.620  1.00  0.00     0.134 A 
ATOM     62  F   UNL A   1      48.408  26.581  28.154  1.00  0.00    -0.206 F 
ATOM     63  C   UNL A   1      50.046  25.589  29.512  1.00  0.00     0.040 A 
ATOM     64  C   UNL A   1      49.538  25.018  31.795  1.00  0.00     0.040 A 
ATOM     65  F   UNL A   1      47.399  25.440  32.662  1.00  0.00    -0.206 F 
ATOM     66  C   UNL A   1      50.444  25.057  30.738  1.00  0.00     0.006 A 
ENDBRANCH  45  59
BRANCH  46  67
ATOM     67  C   UNL A   1      38.479  29.281  29.290  1.00  0.00     0.057 A 
ATOM     68  C   UNL A   1      37.576  29.234  30.358  1.00  0.00     0.134 A 
ATOM     69  C   UNL A   1      38.022  29.804  28.075  1.00  0.00     0.134 A 
ATOM     70  F   UNL A   1      37.951  28.716  31.536  1.00  0.00    -0.206 F 
ATOM     71  C   UNL A   1      36.262  29.684  30.220  1.00  0.00     0.040 A 
ATOM     72  C   UNL A   1      36.719  30.277  27.930  1.00  0.00     0.040 A 
ATOM     73  F   UNL A   1      38.842  29.871  27.016  1.00  0.00    -0.206 F 
ATOM     74  C   UNL A   1      35.833  30.215  29.005  1.00  0.00     0.006 A 
ENDBRANCH  46  67
BRANCH  58  75
ATOM     75  C   UNL A   1      44.144  31.956  32.286  1.00  0.00     0.057 A 
ATOM     76  C   UNL A   1      43.973  32.065  33.671  1.00  0.00     0.134 A 
ATOM     77  C   UNL A   1      44.566  33.096  31.590  1.00  0.00     0.134 A 
ATOM     78  F   UNL A   1      43.555  31.012  34.389  1.00  0.00    -0.206 F 
ATOM     79  C   UNL A   1      44.196  33.270  34.339  1.00  0.00     0.040 A 
ATOM     80  C   UNL A   1      44.809  34.302  32.249  1.00  0.00     0.040 A 
ATOM     81  F   UNL A   1      44.751  33.054  30.263  1.00  0.00    -0.206 F 
ATOM     82  C   UNL A   1      44.618  34.392  33.627  1.00  0.00     0.006 A 
ENDBRANCH  58  75
ENDBRANCH  32  33
ENDBRANCH  25  27
ENDBRANCH  24  25
ENDBRANCH  23  24
ENDBRANCH   1  23
TORSDOF 15
ENDMDL
MODEL 2
REMARK VINA RESULT:      -9.8      0.846      6.412
REMARK SMILES CCc1n[nH]c(C(=O)NC[C@@H]2CC[C@@H](C(=O)OCCOC(=O)c3ccc(-c4c5nc(c(-c6c(F)cccc6F)c6ccc([nH]6)c(-c6c(F)cccc6F)c6nc(c(-c7c(F)cccc7F)c7ccc4[nH]7)C=C6)C=C5)cc3)O2)n1
REMARK SMILES IDX 18 1 17 2 15 3 16 4 14 5 11 6 12 7 77 8 13 9 10 10 9 11 7 12
REMARK SMILES IDX 8 13 6 15 3 16 4 17 78 18 5 19 2 21 1 22 19 23 20 24 21 25
REMARK SMILES IDX 22 26 23 27 24 28 76 29 25 30 75 31 26 32 27 33 28 34 69 35
REMARK SMILES IDX 29 36 74 37 68 38 70 39 30 40 73 41 67 42 66 43 31 45 57 46
REMARK SMILES IDX 40 47 56 48 41 49 44 50 55 51 71 52 42 53 43 54 54 56 72 57
REMARK SMILES IDX 45 58 32 59 33 60 38 61 34 62 35 63 37 64 39 65 36 66 58 67
REMARK SMILES IDX 59 68 64 69 60 70 61 71 63 72 65 73 62 74 46 75 47 76 52 77
REMARK SMILES IDX 48 78 49 79 51 80 53 81 50 82
REMARK H PARENT 9 14 5 20 70 44 44 55
REMARK Flexibility Score: inf
ROOT
ATOM      1  C   UNL A   1      44.163  18.441  25.994  1.00  0.00     0.274 C 
ENDROOT
BRANCH   1   2
ATOM      2  O   UNL A   1      44.505  19.054  24.734  1.00  0.00    -0.460 OA
BRANCH   2   3
ATOM      3  C   UNL A   1      45.627  19.831  24.750  1.00  0.00     0.335 C 
ATOM      4  O   UNL A   1      46.765  19.411  24.576  1.00  0.00    -0.249 OA
BRANCH   3   5
ATOM      5  C   UNL A   1      45.290  21.296  25.051  1.00  0.00     0.228 C 
ATOM      6  C   UNL A   1      46.601  23.237  24.841  1.00  0.00     0.138 C 
ATOM      7  C   UNL A   1      45.247  23.508  24.221  1.00  0.00     0.037 C 
ATOM      8  O   UNL A   1      46.442  21.999  25.564  1.00  0.00    -0.361 OA
ATOM      9  C   UNL A   1      44.808  22.106  23.856  1.00  0.00     0.047 C 
BRANCH   6  10
ATOM     10  C   UNL A   1      47.118  24.315  25.793  1.00  0.00     0.148 C 
BRANCH  10  11
ATOM     11  N   UNL A   1      47.720  25.410  25.035  1.00  0.00    -0.347 N 
ATOM     12  C   UNL A   1      47.256  26.667  24.730  1.00  0.00     0.288 C 
ATOM     13  O   UNL A   1      47.982  27.378  24.032  1.00  0.00    -0.266 OA
ATOM     14  H   UNL A   1      48.616  25.213  24.681  1.00  0.00     0.164 HD
BRANCH  12  15
ATOM     15  C   UNL A   1      45.978  27.135  25.212  1.00  0.00     0.214 A 
ATOM     16  C   UNL A   1      43.937  27.548  25.586  1.00  0.00     0.151 A 
ATOM     17  N   UNL A   1      44.547  28.135  26.618  1.00  0.00    -0.158 NA
ATOM     18  N   UNL A   1      44.779  26.930  24.698  1.00  0.00    -0.207 NA
ATOM     19  N   UNL A   1      45.840  27.890  26.344  1.00  0.00    -0.255 N 
ATOM     20  H   UNL A   1      46.593  28.214  26.889  1.00  0.00     0.192 HD
BRANCH  16  21
ATOM     21  C   UNL A   1      42.462  27.532  25.420  1.00  0.00     0.076 C 
ATOM     22  C   UNL A   1      41.819  28.839  25.857  1.00  0.00     0.012 C 
ENDBRANCH  16  21
ENDBRANCH  12  15
ENDBRANCH  10  11
ENDBRANCH   6  10
ENDBRANCH   3   5
ENDBRANCH   2   3
ENDBRANCH   1   2
BRANCH   1  23
ATOM     23  C   UNL A   1      42.651  18.264  26.118  1.00  0.00     0.275 C 
BRANCH  23  24
ATOM     24  O   UNL A   1      41.980  19.272  25.341  1.00  0.00    -0.458 OA
BRANCH  24  25
ATOM     25  C   UNL A   1      41.025  19.978  25.987  1.00  0.00     0.338 C 
ATOM     26  O   UNL A   1      39.846  19.695  26.113  1.00  0.00    -0.246 OA
BRANCH  25  27
ATOM     27  C   UNL A   1      41.618  21.195  26.568  1.00  0.00     0.060 A 
ATOM     28  C   UNL A   1      41.827  21.280  27.944  1.00  0.00     0.016 A 
ATOM     29  C   UNL A   1      41.847  22.304  25.754  1.00  0.00     0.016 A 
ATOM     30  C   UNL A   1      42.188  22.498  28.520  1.00  0.00     0.010 A 
ATOM     31  C   UNL A   1      42.283  23.504  26.327  1.00  0.00     0.010 A 
ATOM     32  C   UNL A   1      42.418  23.626  27.721  1.00  0.00    -0.014 A 
BRANCH  32  33
ATOM     33  C   UNL A   1      42.743  24.937  28.346  1.00  0.00     0.031 A 
ATOM     34  C   UNL A   1      41.655  25.949  28.593  1.00  0.00     0.074 A 
ATOM     35  C   UNL A   1      44.005  25.224  28.720  1.00  0.00     0.049 A 
ATOM     36  N   UNL A   1      41.756  27.192  28.997  1.00  0.00    -0.248 NA
ATOM     37  C   UNL A   1      40.274  25.509  28.346  1.00  0.00     0.031 C 
ATOM     38  C   UNL A   1      45.154  24.328  28.586  1.00  0.00     0.029 A 
ATOM     39  N   UNL A   1      44.530  26.355  29.298  1.00  0.00    -0.354 N 
ATOM     40  C   UNL A   1      40.461  27.696  28.998  1.00  0.00     0.074 A 
ATOM     41  C   UNL A   1      39.591  26.626  28.558  1.00  0.00     0.031 C 
ATOM     42  C   UNL A   1      46.239  24.925  29.100  1.00  0.00     0.029 A 
ATOM     43  C   UNL A   1      45.880  26.271  29.535  1.00  0.00     0.049 A 
ATOM     44  H   UNL A   1      43.990  27.147  29.521  1.00  0.00     0.167 HD
ATOM     45  C   UNL A   1      40.034  28.938  29.331  1.00  0.00     0.037 A 
ATOM     46  C   UNL A   1      46.743  27.183  30.021  1.00  0.00     0.037 A 
ATOM     47  C   UNL A   1      40.884  29.989  29.827  1.00  0.00     0.049 A 
ATOM     48  C   UNL A   1      46.249  28.554  30.379  1.00  0.00     0.074 A 
ATOM     49  C   UNL A   1      40.535  31.273  30.208  1.00  0.00     0.029 A 
ATOM     50  N   UNL A   1      42.249  29.869  30.030  1.00  0.00    -0.354 N 
ATOM     51  N   UNL A   1      45.030  29.032  30.326  1.00  0.00    -0.248 NA
ATOM     52  C   UNL A   1      47.255  29.517  30.848  1.00  0.00     0.031 C 
ATOM     53  C   UNL A   1      41.695  31.938  30.623  1.00  0.00     0.029 A 
ATOM     54  C   UNL A   1      42.759  31.058  30.525  1.00  0.00     0.049 A 
ATOM     55  H   UNL A   1      42.778  29.058  29.850  1.00  0.00     0.167 HD
ATOM     56  C   UNL A   1      45.121  30.348  30.757  1.00  0.00     0.074 A 
ATOM     57  C   UNL A   1      46.509  30.586  31.092  1.00  0.00     0.031 C 
ATOM     58  C   UNL A   1      44.142  31.279  30.857  1.00  0.00     0.037 A 
BRANCH  45  59
ATOM     59  C   UNL A   1      38.579  29.241  29.140  1.00  0.00     0.057 A 
ATOM     60  C   UNL A   1      37.662  29.192  30.195  1.00  0.00     0.134 A 
ATOM     61  C   UNL A   1      38.097  29.621  27.879  1.00  0.00     0.134 A 
ATOM     62  F   UNL A   1      38.056  28.818  31.422  1.00  0.00    -0.206 F 
ATOM     63  C   UNL A   1      36.313  29.496  30.003  1.00  0.00     0.040 A 
ATOM     64  C   UNL A   1      36.754  29.945  27.679  1.00  0.00     0.040 A 
ATOM     65  F   UNL A   1      38.924  29.689  26.826  1.00  0.00    -0.206 F 
ATOM     66  C   UNL A   1      35.857  29.880  28.742  1.00  0.00     0.006 A 
ENDBRANCH  45  59
BRANCH  46  67
ATOM     67  C   UNL A   1      48.176  26.835  30.175  1.00  0.00     0.057 A 
ATOM     68  C   UNL A   1      49.089  27.072  29.142  1.00  0.00     0.134 A 
ATOM     69  C   UNL A   1      48.664  26.260  31.354  1.00  0.00     0.134 A 
ATOM     70  F   UNL A   1      48.671  27.594  27.980  1.00  0.00    -0.206 F 
ATOM     71  C   UNL A   1      50.438  26.742  29.273  1.00  0.00     0.040 A 
ATOM     72  C   UNL A   1      50.014  25.945  31.507  1.00  0.00     0.040 A 
ATOM     73  F   UNL A   1      47.836  26.006  32.378  1.00  0.00    -0.206 F 
ATOM     74  C   UNL A   1      50.906  26.184  30.461  1.00  0.00     0.006 A 
ENDBRANCH  46  67
BRANCH  58  75
ATOM     75  C   UNL A   1      44.540  32.630  31.368  1.00  0.00     0.057 A 
ATOM     76  C   UNL A   1      44.532  32.928  32.735  1.00  0.00     0.134 A 
ATOM     77  C   UNL A   1      44.948  33.635  30.483  1.00  0.00     0.134 A 
ATOM     78  F   UNL A   1      44.135  32.010  33.629  1.00  0.00    -0.206 F 
ATOM     79  C   UNL A   1      44.899  34.190  33.206  1.00  0.00     0.040 A 
ATOM     80  C   UNL A   1      45.334  34.895  30.943  1.00  0.00     0.040 A 
ATOM     81  F   UNL A   1      44.980  33.409  29.162  1.00  0.00    -0.206 F 
ATOM     82  C   UNL A   1      45.304  35.176  32.308  1.00  0.00     0.006 A 
ENDBRANCH  58  75
ENDBRANCH  32  33
ENDBRANCH  25  27
ENDBRANCH  24  25
ENDBRANCH  23  24
ENDBRANCH   1  23
TORSDOF 15
ENDMDL
MODEL 3
REMARK VINA RESULT:      -9.4      4.820      7.323
REMARK SMILES CCc1n[nH]c(C(=O)NC[C@@H]2CC[C@@H](C(=O)OCCOC(=O)c3ccc(-c4c5nc(c(-c6c(F)cccc6F)c6ccc([nH]6)c(-c6c(F)cccc6F)c6nc(c(-c7c(F)cccc7F)c7ccc4[nH]7)C=C6)C=C5)cc3)O2)n1
REMARK SMILES IDX 18 1 17 2 15 3 16 4 14 5 11 6 12 7 77 8 13 9 10 10 9 11 7 12
REMARK SMILES IDX 8 13 6 15 3 16 4 17 78 18 5 19 2 21 1 22 19 23 20 24 21 25
REMARK SMILES IDX 22 26 23 27 24 28 76 29 25 30 75 31 26 32 27 33 28 34 69 35
REMARK SMILES IDX 29 36 74 37 68 38 70 39 30 40 73 41 67 42 66 43 31 45 57 46
REMARK SMILES IDX 40 47 56 48 41 49 44 50 55 51 71 52 42 53 43 54 54 56 72 57
REMARK SMILES IDX 45 58 32 59 33 60 38 61 34 62 35 63 37 64 39 65 36 66 58 67
REMARK SMILES IDX 59 68 64 69 60 70 61 71 63 72 65 73 62 74 46 75 47 76 52 77
REMARK SMILES IDX 48 78 49 79 51 80 53 81 50 82
REMARK H PARENT 9 14 5 20 70 44 44 55
REMARK Flexibility Score: inf
ROOT
ATOM      1  C   UNL A   1      42.511  20.319  26.146  1.00  0.00     0.274 C 
ENDROOT
BRANCH   1   2
ATOM      2  O   UNL A   1      41.091  20.347  25.895  1.00  0.00    -0.460 OA
BRANCH   2   3
ATOM      3  C   UNL A   1      40.376  21.200  26.686  1.00  0.00     0.335 C 
ATOM      4  O   UNL A   1      40.472  21.258  27.906  1.00  0.00    -0.249 OA
BRANCH   3   5
ATOM      5  C   UNL A   1      39.409  22.054  25.860  1.00  0.00     0.228 C 
ATOM      6  C   UNL A   1      37.059  22.139  25.869  1.00  0.00     0.138 C 
ATOM      7  C   UNL A   1      37.586  23.558  25.911  1.00  0.00     0.037 C 
ATOM      8  O   UNL A   1      38.204  21.321  25.550  1.00  0.00    -0.361 OA
ATOM      9  C   UNL A   1      38.951  23.342  26.529  1.00  0.00     0.047 C 
BRANCH   6  10
ATOM     10  C   UNL A   1      35.953  21.878  24.848  1.00  0.00     0.148 C 
BRANCH  10  11
ATOM     11  N   UNL A   1      34.695  22.466  25.306  1.00  0.00    -0.347 N 
ATOM     12  C   UNL A   1      33.437  21.929  25.443  1.00  0.00     0.288 C 
ATOM     13  O   UNL A   1      32.544  22.686  25.828  1.00  0.00    -0.266 OA
ATOM     14  H   UNL A   1      34.760  23.413  25.562  1.00  0.00     0.164 HD
BRANCH  12  15
ATOM     15  C   UNL A   1      33.178  20.538  25.155  1.00  0.00     0.214 A 
ATOM     16  C   UNL A   1      32.923  18.618  24.306  1.00  0.00     0.151 A 
ATOM     17  N   UNL A   1      32.773  18.380  25.611  1.00  0.00    -0.158 NA
ATOM     18  N   UNL A   1      33.165  19.928  23.984  1.00  0.00    -0.207 NA
ATOM     19  N   UNL A   1      32.905  19.614  26.128  1.00  0.00    -0.255 N 
ATOM     20  H   UNL A   1      32.816  19.828  27.085  1.00  0.00     0.192 HD
BRANCH  16  21
ATOM     21  C   UNL A   1      32.864  17.548  23.277  1.00  0.00     0.076 C 
ATOM     22  C   UNL A   1      34.028  16.577  23.389  1.00  0.00     0.012 C 
ENDBRANCH  16  21
ENDBRANCH  12  15
ENDBRANCH  10  11
ENDBRANCH   6  10
ENDBRANCH   3   5
ENDBRANCH   2   3
ENDBRANCH   1   2
BRANCH   1  23
ATOM     23  C   UNL A   1      43.228  21.388  25.324  1.00  0.00     0.275 C 
BRANCH  23  24
ATOM     24  O   UNL A   1      43.676  22.446  26.189  1.00  0.00    -0.458 OA
BRANCH  24  25
ATOM     25  C   UNL A   1      43.766  23.672  25.627  1.00  0.00     0.338 C 
ATOM     26  O   UNL A   1      44.266  23.964  24.554  1.00  0.00    -0.246 OA
BRANCH  25  27
ATOM     27  C   UNL A   1      43.138  24.670  26.510  1.00  0.00     0.060 A 
ATOM     28  C   UNL A   1      43.573  25.994  26.485  1.00  0.00     0.016 A 
ATOM     29  C   UNL A   1      42.202  24.256  27.458  1.00  0.00     0.016 A 
ATOM     30  C   UNL A   1      43.132  26.891  27.459  1.00  0.00     0.010 A 
ATOM     31  C   UNL A   1      41.705  25.178  28.385  1.00  0.00     0.010 A 
ATOM     32  C   UNL A   1      42.196  26.495  28.423  1.00  0.00    -0.014 A 
BRANCH  32  33
ATOM     33  C   UNL A   1      41.777  27.437  29.496  1.00  0.00     0.031 A 
ATOM     34  C   UNL A   1      42.538  27.495  30.794  1.00  0.00     0.074 A 
ATOM     35  C   UNL A   1      40.730  28.264  29.311  1.00  0.00     0.049 A 
ATOM     36  N   UNL A   1      42.250  28.144  31.895  1.00  0.00    -0.248 NA
ATOM     37  C   UNL A   1      43.782  26.713  30.867  1.00  0.00     0.031 C 
ATOM     38  C   UNL A   1      39.925  28.354  28.091  1.00  0.00     0.029 A 
ATOM     39  N   UNL A   1      40.168  29.196  30.150  1.00  0.00    -0.354 N 
ATOM     40  C   UNL A   1      43.243  27.805  32.806  1.00  0.00     0.074 A 
ATOM     41  C   UNL A   1      44.144  26.896  32.129  1.00  0.00     0.031 C 
ATOM     42  C   UNL A   1      38.999  29.313  28.247  1.00  0.00     0.029 A 
ATOM     43  C   UNL A   1      39.098  29.855  29.598  1.00  0.00     0.049 A 
ATOM     44  H   UNL A   1      40.502  29.374  31.059  1.00  0.00     0.167 HD
ATOM     45  C   UNL A   1      43.392  28.211  34.090  1.00  0.00     0.037 A 
ATOM     46  C   UNL A   1      38.266  30.773  30.125  1.00  0.00     0.037 A 
ATOM     47  C   UNL A   1      42.536  29.161  34.751  1.00  0.00     0.049 A 
ATOM     48  C   UNL A   1      38.447  31.205  31.551  1.00  0.00     0.074 A 
ATOM     49  C   UNL A   1      42.623  29.646  36.045  1.00  0.00     0.029 A 
ATOM     50  N   UNL A   1      41.450  29.787  34.162  1.00  0.00    -0.354 N 
ATOM     51  N   UNL A   1      39.360  30.837  32.415  1.00  0.00    -0.248 NA
ATOM     52  C   UNL A   1      37.468  32.166  32.079  1.00  0.00     0.031 C 
ATOM     53  C   UNL A   1      41.574  30.551  36.246  1.00  0.00     0.029 A 
ATOM     54  C   UNL A   1      40.853  30.648  35.068  1.00  0.00     0.049 A 
ATOM     55  H   UNL A   1      41.148  29.641  33.236  1.00  0.00     0.167 HD
ATOM     56  C   UNL A   1      39.070  31.522  33.587  1.00  0.00     0.074 A 
ATOM     57  C   UNL A   1      37.912  32.348  33.315  1.00  0.00     0.031 C 
ATOM     58  C   UNL A   1      39.703  31.466  34.783  1.00  0.00     0.037 A 
BRANCH  45  59
ATOM     59  C   UNL A   1      44.510  27.601  34.880  1.00  0.00     0.057 A 
ATOM     60  C   UNL A   1      45.773  28.199  34.969  1.00  0.00     0.134 A 
ATOM     61  C   UNL A   1      44.304  26.411  35.592  1.00  0.00     0.134 A 
ATOM     62  F   UNL A   1      46.039  29.329  34.297  1.00  0.00    -0.206 F 
ATOM     63  C   UNL A   1      46.797  27.627  35.726  1.00  0.00     0.040 A 
ATOM     64  C   UNL A   1      45.315  25.840  36.366  1.00  0.00     0.040 A 
ATOM     65  F   UNL A   1      43.117  25.790  35.550  1.00  0.00    -0.206 F 
ATOM     66  C   UNL A   1      46.568  26.446  36.432  1.00  0.00     0.006 A 
ENDBRANCH  45  59
BRANCH  46  67
ATOM     67  C   UNL A   1      37.166  31.332  29.302  1.00  0.00     0.057 A 
ATOM     68  C   UNL A   1      36.017  30.581  29.033  1.00  0.00     0.134 A 
ATOM     69  C   UNL A   1      37.239  32.624  28.769  1.00  0.00     0.134 A 
ATOM     70  F   UNL A   1      35.907  29.327  29.495  1.00  0.00    -0.206 F 
ATOM     71  C   UNL A   1      34.979  31.094  28.255  1.00  0.00     0.040 A 
ATOM     72  C   UNL A   1      36.199  33.157  28.007  1.00  0.00     0.040 A 
ATOM     73  F   UNL A   1      38.317  33.389  28.990  1.00  0.00    -0.206 F 
ATOM     74  C   UNL A   1      35.065  32.388  27.745  1.00  0.00     0.006 A 
ENDBRANCH  46  67
BRANCH  58  75
ATOM     75  C   UNL A   1      39.164  32.335  35.877  1.00  0.00     0.057 A 
ATOM     76  C   UNL A   1      38.235  31.852  36.806  1.00  0.00     0.134 A 
ATOM     77  C   UNL A   1      39.590  33.662  36.011  1.00  0.00     0.134 A 
ATOM     78  F   UNL A   1      37.778  30.594  36.720  1.00  0.00    -0.206 F 
ATOM     79  C   UNL A   1      37.732  32.667  37.821  1.00  0.00     0.040 A 
ATOM     80  C   UNL A   1      39.107  34.481  37.032  1.00  0.00     0.040 A 
ATOM     81  F   UNL A   1      40.482  34.181  35.153  1.00  0.00    -0.206 F 
ATOM     82  C   UNL A   1      38.171  33.985  37.937  1.00  0.00     0.006 A 
ENDBRANCH  58  75
ENDBRANCH  32  33
ENDBRANCH  25  27
ENDBRANCH  24  25
ENDBRANCH  23  24
ENDBRANCH   1  23
TORSDOF 15
ENDMDL
