MODEL 1
REMARK VINA RESULT:     -10.9      0.000      0.000
REMARK SMILES COc1ccc(C(=O)c2ccccc2)cc1[C@@H](C)C(=O)OCCOC(=O)c1ccc(-c2c3nc(c(-c4c(F)cccc4F)c4ccc([nH]4)c(-c4c(F)cccc4F)c4nc(c(-c5c(F)cccc5F)c5ccc2[nH]5)C=C4)C=C3)cc1
REMARK SMILES IDX 22 1 21 2 19 3 20 4 17 5 18 6 16 7 3 8 4 9 5 10 15 11 6 12
REMARK SMILES IDX 2 13 1 14 7 15 8 16 9 17 10 18 14 19 11 20 13 21 12 22 23 23
REMARK SMILES IDX 24 24 25 25 26 26 27 27 28 28 80 29 29 30 79 31 30 32 31 33
REMARK SMILES IDX 32 34 73 35 33 36 78 37 72 38 74 39 34 40 77 41 71 42 70 43
REMARK SMILES IDX 35 45 61 46 44 47 60 48 45 49 48 50 59 51 75 52 46 53 47 54
REMARK SMILES IDX 58 56 76 57 49 58 36 59 37 60 42 61 38 62 39 63 41 64 43 65
REMARK SMILES IDX 40 66 62 67 63 68 68 69 64 70 65 71 67 72 69 73 66 74 50 75
REMARK SMILES IDX 51 76 56 77 52 78 53 79 55 80 57 81 54 82
REMARK H PARENT 74 44 48 55
REMARK Flexibility Score: inf
ROOT
ATOM      1  C   UNL A   1      31.418  29.154  24.402  1.00  0.00     0.274 C 
ENDROOT
BRANCH   1   2
ATOM      2  O   UNL A   1      31.073  27.913  25.045  1.00  0.00    -0.462 OA
BRANCH   2   3
ATOM      3  C   UNL A   1      31.567  26.767  24.513  1.00  0.00     0.313 C 
ATOM      4  O   UNL A   1      31.492  26.477  23.322  1.00  0.00    -0.252 OA
BRANCH   3   5
ATOM      5  C   UNL A   1      32.213  25.829  25.532  1.00  0.00     0.130 C 
ATOM      6  C   UNL A   1      33.309  26.574  26.292  1.00  0.00     0.025 C 
BRANCH   5   7
ATOM      7  C   UNL A   1      32.727  24.485  25.027  1.00  0.00     0.009 A 
ATOM      8  C   UNL A   1      31.893  23.358  24.977  1.00  0.00     0.122 A 
ATOM      9  C   UNL A   1      32.384  22.116  24.559  1.00  0.00     0.047 A 
ATOM     10  C   UNL A   1      33.720  21.985  24.168  1.00  0.00     0.016 A 
ATOM     11  C   UNL A   1      34.071  24.324  24.647  1.00  0.00     0.020 A 
ATOM     12  C   UNL A   1      34.575  23.089  24.219  1.00  0.00     0.023 A 
BRANCH   8  13
ATOM     13  O   UNL A   1      30.610  23.482  25.443  1.00  0.00    -0.496 OA
ATOM     14  C   UNL A   1      30.326  22.578  26.508  1.00  0.00     0.278 C 
ENDBRANCH   8  13
BRANCH  12  15
ATOM     15  C   UNL A   1      35.996  22.930  23.784  1.00  0.00     0.193 C 
ATOM     16  O   UNL A   1      36.294  22.956  22.594  1.00  0.00    -0.289 OA
BRANCH  15  17
ATOM     17  C   UNL A   1      37.081  22.792  24.784  1.00  0.00     0.022 A 
ATOM     18  C   UNL A   1      37.744  21.567  24.885  1.00  0.00     0.012 A 
ATOM     19  C   UNL A   1      37.465  23.875  25.584  1.00  0.00     0.012 A 
ATOM     20  C   UNL A   1      38.832  21.442  25.751  1.00  0.00     0.001 A 
ATOM     21  C   UNL A   1      38.559  23.746  26.440  1.00  0.00     0.001 A 
ATOM     22  C   UNL A   1      39.245  22.533  26.517  1.00  0.00     0.000 A 
ENDBRANCH  15  17
ENDBRANCH  12  15
ENDBRANCH   5   7
ENDBRANCH   3   5
ENDBRANCH   2   3
ENDBRANCH   1   2
BRANCH   1  23
ATOM     23  C   UNL A   1      32.619  29.790  25.096  1.00  0.00     0.275 C 
BRANCH  23  24
ATOM     24  O   UNL A   1      32.310  30.024  26.482  1.00  0.00    -0.458 OA
BRANCH  24  25
ATOM     25  C   UNL A   1      32.801  31.172  26.998  1.00  0.00     0.338 C 
ATOM     26  O   UNL A   1      32.263  32.263  27.064  1.00  0.00    -0.246 OA
BRANCH  25  27
ATOM     27  C   UNL A   1      34.123  30.902  27.575  1.00  0.00     0.060 A 
ATOM     28  C   UNL A   1      34.438  29.591  27.926  1.00  0.00     0.016 A 
ATOM     29  C   UNL A   1      34.993  31.950  27.876  1.00  0.00     0.016 A 
ATOM     30  C   UNL A   1      35.607  29.327  28.634  1.00  0.00     0.010 A 
ATOM     31  C   UNL A   1      36.194  31.672  28.540  1.00  0.00     0.010 A 
ATOM     32  C   UNL A   1      36.498  30.362  28.951  1.00  0.00    -0.014 A 
BRANCH  32  33
ATOM     33  C   UNL A   1      37.718  30.063  29.745  1.00  0.00     0.031 A 
ATOM     34  C   UNL A   1      38.841  29.258  29.149  1.00  0.00     0.074 A 
ATOM     35  C   UNL A   1      37.845  30.557  30.992  1.00  0.00     0.049 A 
ATOM     36  N   UNL A   1      39.940  28.826  29.717  1.00  0.00    -0.248 NA
ATOM     37  C   UNL A   1      38.711  28.882  27.733  1.00  0.00     0.031 C 
ATOM     38  C   UNL A   1      36.851  31.385  31.679  1.00  0.00     0.029 A 
ATOM     39  N   UNL A   1      38.872  30.452  31.896  1.00  0.00    -0.354 N 
ATOM     40  C   UNL A   1      40.607  28.090  28.745  1.00  0.00     0.074 A 
ATOM     41  C   UNL A   1      39.791  28.136  27.549  1.00  0.00     0.031 C 
ATOM     42  C   UNL A   1      37.336  31.751  32.875  1.00  0.00     0.029 A 
ATOM     43  C   UNL A   1      38.643  31.131  33.069  1.00  0.00     0.049 A 
ATOM     44  H   UNL A   1      39.695  29.941  31.722  1.00  0.00     0.167 HD
ATOM     45  C   UNL A   1      41.789  27.436  28.840  1.00  0.00     0.037 A 
ATOM     46  C   UNL A   1      39.388  31.226  34.185  1.00  0.00     0.037 A 
ATOM     47  C   UNL A   1      42.627  27.429  30.012  1.00  0.00     0.049 A 
ATOM     48  C   UNL A   1      40.694  30.491  34.267  1.00  0.00     0.074 A 
ATOM     49  C   UNL A   1      43.846  26.799  30.197  1.00  0.00     0.029 A 
ATOM     50  N   UNL A   1      42.341  28.099  31.190  1.00  0.00    -0.354 N 
ATOM     51  N   UNL A   1      41.282  29.751  33.359  1.00  0.00    -0.248 NA
ATOM     52  C   UNL A   1      41.428  30.588  35.536  1.00  0.00     0.031 C 
ATOM     53  C   UNL A   1      44.287  27.071  31.498  1.00  0.00     0.029 A 
ATOM     54  C   UNL A   1      43.356  27.894  32.110  1.00  0.00     0.049 A 
ATOM     55  H   UNL A   1      41.534  28.642  31.350  1.00  0.00     0.167 HD
ATOM     56  C   UNL A   1      42.449  29.286  33.947  1.00  0.00     0.074 A 
ATOM     57  C   UNL A   1      42.503  29.854  35.280  1.00  0.00     0.031 C 
ATOM     58  C   UNL A   1      43.387  28.453  33.435  1.00  0.00     0.037 A 
BRANCH  45  59
ATOM     59  C   UNL A   1      42.237  26.640  27.651  1.00  0.00     0.057 A 
ATOM     60  C   UNL A   1      41.885  25.296  27.482  1.00  0.00     0.134 A 
ATOM     61  C   UNL A   1      42.997  27.244  26.641  1.00  0.00     0.134 A 
ATOM     62  F   UNL A   1      41.172  24.657  28.421  1.00  0.00    -0.206 F 
ATOM     63  C   UNL A   1      42.285  24.576  26.355  1.00  0.00     0.040 A 
ATOM     64  C   UNL A   1      43.386  26.540  25.501  1.00  0.00     0.040 A 
ATOM     65  F   UNL A   1      43.364  28.530  26.743  1.00  0.00    -0.206 F 
ATOM     66  C   UNL A   1      43.033  25.200  25.358  1.00  0.00     0.006 A 
ENDBRANCH  45  59
BRANCH  46  67
ATOM     67  C   UNL A   1      38.898  32.030  35.330  1.00  0.00     0.057 A 
ATOM     68  C   UNL A   1      38.178  31.438  36.372  1.00  0.00     0.134 A 
ATOM     69  C   UNL A   1      39.149  33.405  35.414  1.00  0.00     0.134 A 
ATOM     70  F   UNL A   1      37.888  30.129  36.334  1.00  0.00    -0.206 F 
ATOM     71  C   UNL A   1      37.721  32.185  37.459  1.00  0.00     0.040 A 
ATOM     72  C   UNL A   1      38.719  34.160  36.504  1.00  0.00     0.040 A 
ATOM     73  F   UNL A   1      39.835  34.028  34.444  1.00  0.00    -0.206 F 
ATOM     74  C   UNL A   1      37.999  33.550  37.530  1.00  0.00     0.006 A 
ENDBRANCH  46  67
BRANCH  58  75
ATOM     75  C   UNL A   1      44.542  28.109  34.325  1.00  0.00     0.057 A 
ATOM     76  C   UNL A   1      44.511  26.982  35.157  1.00  0.00     0.134 A 
ATOM     77  C   UNL A   1      45.695  28.901  34.344  1.00  0.00     0.134 A 
ATOM     78  F   UNL A   1      43.426  26.193  35.192  1.00  0.00    -0.206 F 
ATOM     79  C   UNL A   1      45.582  26.668  35.995  1.00  0.00     0.040 A 
ATOM     80  C   UNL A   1      46.779  28.586  35.165  1.00  0.00     0.040 A 
ATOM     81  F   UNL A   1      45.786  29.991  33.568  1.00  0.00    -0.206 F 
ATOM     82  C   UNL A   1      46.721  27.470  35.997  1.00  0.00     0.006 A 
ENDBRANCH  58  75
ENDBRANCH  32  33
ENDBRANCH  25  27
ENDBRANCH  24  25
ENDBRANCH  23  24
ENDBRANCH   1  23
TORSDOF 15
ENDMDL
MODEL 2
REMARK VINA RESULT:     -10.9      2.319      7.564
REMARK SMILES COc1ccc(C(=O)c2ccccc2)cc1[C@@H](C)C(=O)OCCOC(=O)c1ccc(-c2c3nc(c(-c4c(F)cccc4F)c4ccc([nH]4)c(-c4c(F)cccc4F)c4nc(c(-c5c(F)cccc5F)c5ccc2[nH]5)C=C4)C=C3)cc1
REMARK SMILES IDX 22 1 21 2 19 3 20 4 17 5 18 6 16 7 3 8 4 9 5 10 15 11 6 12
REMARK SMILES IDX 2 13 1 14 7 15 8 16 9 17 10 18 14 19 11 20 13 21 12 22 23 23
REMARK SMILES IDX 24 24 25 25 26 26 27 27 28 28 80 29 29 30 79 31 30 32 31 33
REMARK SMILES IDX 32 34 73 35 33 36 78 37 72 38 74 39 34 40 77 41 71 42 70 43
REMARK SMILES IDX 35 45 61 46 44 47 60 48 45 49 48 50 59 51 75 52 46 53 47 54
REMARK SMILES IDX 58 56 76 57 49 58 36 59 37 60 42 61 38 62 39 63 41 64 43 65
REMARK SMILES IDX 40 66 62 67 63 68 68 69 64 70 65 71 67 72 69 73 66 74 50 75
REMARK SMILES IDX 51 76 56 77 52 78 53 79 55 80 57 81 54 82
REMARK H PARENT 74 44 48 55
REMARK Flexibility Score: inf
ROOT
ATOM      1  C   UNL A   1      38.520  21.627  25.448  1.00  0.00     0.274 C 
ENDROOT
BRANCH   1   2
ATOM      2  O   UNL A   1      37.482  22.620  25.351  1.00  0.00    -0.462 OA
BRANCH   2   3
ATOM      3  C   UNL A   1      36.209  22.230  25.611  1.00  0.00     0.313 C 
ATOM      4  O   UNL A   1      35.897  21.477  26.528  1.00  0.00    -0.252 OA
BRANCH   3   5
ATOM      5  C   UNL A   1      35.171  22.788  24.638  1.00  0.00     0.130 C 
ATOM      6  C   UNL A   1      35.860  23.225  23.347  1.00  0.00     0.025 C 
BRANCH   5   7
ATOM      7  C   UNL A   1      34.242  23.885  25.149  1.00  0.00     0.009 A 
ATOM      8  C   UNL A   1      33.151  23.587  25.981  1.00  0.00     0.122 A 
ATOM      9  C   UNL A   1      32.275  24.591  26.406  1.00  0.00     0.047 A 
ATOM     10  C   UNL A   1      32.485  25.917  26.018  1.00  0.00     0.016 A 
ATOM     11  C   UNL A   1      34.421  25.222  24.756  1.00  0.00     0.020 A 
ATOM     12  C   UNL A   1      33.556  26.240  25.181  1.00  0.00     0.023 A 
BRANCH   8  13
ATOM     13  O   UNL A   1      32.910  22.273  26.284  1.00  0.00    -0.496 OA
ATOM     14  C   UNL A   1      31.963  21.673  25.402  1.00  0.00     0.278 C 
ENDBRANCH   8  13
BRANCH  12  15
ATOM     15  C   UNL A   1      33.770  27.665  24.788  1.00  0.00     0.193 C 
ATOM     16  O   UNL A   1      34.053  27.962  23.632  1.00  0.00    -0.289 OA
BRANCH  15  17
ATOM     17  C   UNL A   1      33.590  28.756  25.775  1.00  0.00     0.022 A 
ATOM     18  C   UNL A   1      34.595  28.974  26.721  1.00  0.00     0.012 A 
ATOM     19  C   UNL A   1      32.458  29.580  25.740  1.00  0.00     0.012 A 
ATOM     20  C   UNL A   1      34.494  30.054  27.598  1.00  0.00     0.001 A 
ATOM     21  C   UNL A   1      32.368  30.664  26.614  1.00  0.00     0.001 A 
ATOM     22  C   UNL A   1      33.388  30.904  27.535  1.00  0.00     0.000 A 
ENDBRANCH  15  17
ENDBRANCH  12  15
ENDBRANCH   5   7
ENDBRANCH   3   5
ENDBRANCH   2   3
ENDBRANCH   1   2
BRANCH   1  23
ATOM     23  C   UNL A   1      39.658  22.141  26.323  1.00  0.00     0.275 C 
BRANCH  23  24
ATOM     24  O   UNL A   1      39.447  23.532  26.627  1.00  0.00    -0.458 OA
BRANCH  24  25
ATOM     25  C   UNL A   1      40.565  24.289  26.681  1.00  0.00     0.338 C 
ATOM     26  O   UNL A   1      41.600  24.154  26.054  1.00  0.00    -0.246 OA
BRANCH  25  27
ATOM     27  C   UNL A   1      40.331  25.411  27.597  1.00  0.00     0.060 A 
ATOM     28  C   UNL A   1      41.244  26.464  27.603  1.00  0.00     0.016 A 
ATOM     29  C   UNL A   1      39.290  25.366  28.524  1.00  0.00     0.016 A 
ATOM     30  C   UNL A   1      41.152  27.454  28.576  1.00  0.00     0.010 A 
ATOM     31  C   UNL A   1      39.168  26.393  29.468  1.00  0.00     0.010 A 
ATOM     32  C   UNL A   1      40.115  27.431  29.520  1.00  0.00    -0.014 A 
BRANCH  32  33
ATOM     33  C   UNL A   1      40.062  28.474  30.578  1.00  0.00     0.031 A 
ATOM     34  C   UNL A   1      39.058  29.593  30.498  1.00  0.00     0.074 A 
ATOM     35  C   UNL A   1      40.884  28.394  31.642  1.00  0.00     0.049 A 
ATOM     36  N   UNL A   1      38.921  30.637  31.278  1.00  0.00    -0.248 NA
ATOM     37  C   UNL A   1      38.086  29.537  29.396  1.00  0.00     0.031 C 
ATOM     38  C   UNL A   1      41.878  27.342  31.865  1.00  0.00     0.029 A 
ATOM     39  N   UNL A   1      40.999  29.200  32.746  1.00  0.00    -0.354 N 
ATOM     40  C   UNL A   1      37.882  31.384  30.736  1.00  0.00     0.074 A 
ATOM     41  C   UNL A   1      37.421  30.673  29.562  1.00  0.00     0.031 C 
ATOM     42  C   UNL A   1      42.468  27.541  33.053  1.00  0.00     0.029 A 
ATOM     43  C   UNL A   1      41.944  28.768  33.646  1.00  0.00     0.049 A 
ATOM     44  H   UNL A   1      40.456  30.010  32.883  1.00  0.00     0.167 HD
ATOM     45  C   UNL A   1      37.362  32.555  31.176  1.00  0.00     0.037 A 
ATOM     46  C   UNL A   1      42.361  29.309  34.805  1.00  0.00     0.037 A 
ATOM     47  C   UNL A   1      37.784  33.239  32.370  1.00  0.00     0.049 A 
ATOM     48  C   UNL A   1      41.769  30.607  35.270  1.00  0.00     0.074 A 
ATOM     49  C   UNL A   1      37.307  34.427  32.898  1.00  0.00     0.029 A 
ATOM     50  N   UNL A   1      38.768  32.786  33.233  1.00  0.00    -0.354 N 
ATOM     51  N   UNL A   1      40.828  31.332  34.714  1.00  0.00    -0.248 NA
ATOM     52  C   UNL A   1      42.312  31.174  36.512  1.00  0.00     0.031 C 
ATOM     53  C   UNL A   1      38.022  34.705  34.070  1.00  0.00     0.029 A 
ATOM     54  C   UNL A   1      38.920  33.673  34.286  1.00  0.00     0.049 A 
ATOM     55  H   UNL A   1      39.285  31.955  33.115  1.00  0.00     0.167 HD
ATOM     56  C   UNL A   1      40.672  32.441  35.531  1.00  0.00     0.074 A 
ATOM     57  C   UNL A   1      41.592  32.280  36.639  1.00  0.00     0.031 C 
ATOM     58  C   UNL A   1      39.849  33.506  35.372  1.00  0.00     0.037 A 
BRANCH  45  59
ATOM     59  C   UNL A   1      36.293  33.192  30.340  1.00  0.00     0.057 A 
ATOM     60  C   UNL A   1      36.588  33.883  29.159  1.00  0.00     0.134 A 
ATOM     61  C   UNL A   1      34.945  33.075  30.704  1.00  0.00     0.134 A 
ATOM     62  F   UNL A   1      37.859  34.043  28.765  1.00  0.00    -0.206 F 
ATOM     63  C   UNL A   1      35.579  34.448  28.375  1.00  0.00     0.040 A 
ATOM     64  C   UNL A   1      33.928  33.618  29.919  1.00  0.00     0.040 A 
ATOM     65  F   UNL A   1      34.598  32.422  31.823  1.00  0.00    -0.206 F 
ATOM     66  C   UNL A   1      34.244  34.310  28.752  1.00  0.00     0.006 A 
ENDBRANCH  45  59
BRANCH  46  67
ATOM     67  C   UNL A   1      43.418  28.633  35.593  1.00  0.00     0.057 A 
ATOM     68  C   UNL A   1      44.769  28.948  35.409  1.00  0.00     0.134 A 
ATOM     69  C   UNL A   1      43.103  27.666  36.555  1.00  0.00     0.134 A 
ATOM     70  F   UNL A   1      45.132  29.850  34.486  1.00  0.00    -0.206 F 
ATOM     71  C   UNL A   1      45.770  28.324  36.154  1.00  0.00     0.040 A 
ATOM     72  C   UNL A   1      44.091  27.051  37.323  1.00  0.00     0.040 A 
ATOM     73  F   UNL A   1      41.825  27.322  36.776  1.00  0.00    -0.206 F 
ATOM     74  C   UNL A   1      45.431  27.377  37.120  1.00  0.00     0.006 A 
ENDBRANCH  46  67
BRANCH  58  75
ATOM     75  C   UNL A   1      39.917  34.574  36.420  1.00  0.00     0.057 A 
ATOM     76  C   UNL A   1      39.104  34.530  37.560  1.00  0.00     0.134 A 
ATOM     77  C   UNL A   1      40.806  35.648  36.295  1.00  0.00     0.134 A 
ATOM     78  F   UNL A   1      38.223  33.532  37.727  1.00  0.00    -0.206 F 
ATOM     79  C   UNL A   1      39.159  35.531  38.530  1.00  0.00     0.040 A 
ATOM     80  C   UNL A   1      40.881  36.645  37.268  1.00  0.00     0.040 A 
ATOM     81  F   UNL A   1      41.613  35.744  35.227  1.00  0.00    -0.206 F 
ATOM     82  C   UNL A   1      40.052  36.590  38.386  1.00  0.00     0.006 A 
ENDBRANCH  58  75
ENDBRANCH  32  33
ENDBRANCH  25  27
ENDBRANCH  24  25
ENDBRANCH  23  24
ENDBRANCH   1  23
TORSDOF 15
ENDMDL
MODEL 3
REMARK VINA RESULT:     -10.9      3.747      9.527
REMARK SMILES COc1ccc(C(=O)c2ccccc2)cc1[C@@H](C)C(=O)OCCOC(=O)c1ccc(-c2c3nc(c(-c4c(F)cccc4F)c4ccc([nH]4)c(-c4c(F)cccc4F)c4nc(c(-c5c(F)cccc5F)c5ccc2[nH]5)C=C4)C=C3)cc1
REMARK SMILES IDX 22 1 21 2 19 3 20 4 17 5 18 6 16 7 3 8 4 9 5 10 15 11 6 12
REMARK SMILES IDX 2 13 1 14 7 15 8 16 9 17 10 18 14 19 11 20 13 21 12 22 23 23
REMARK SMILES IDX 24 24 25 25 26 26 27 27 28 28 80 29 29 30 79 31 30 32 31 33
REMARK SMILES IDX 32 34 73 35 33 36 78 37 72 38 74 39 34 40 77 41 71 42 70 43
REMARK SMILES IDX 35 45 61 46 44 47 60 48 45 49 48 50 59 51 75 52 46 53 47 54
REMARK SMILES IDX 58 56 76 57 49 58 36 59 37 60 42 61 38 62 39 63 41 64 43 65
REMARK SMILES IDX 40 66 62 67 63 68 68 69 64 70 65 71 67 72 69 73 66 74 50 75
REMARK SMILES IDX 51 76 56 77 52 78 53 79 55 80 57 81 54 82
REMARK H PARENT 74 44 48 55
REMARK Flexibility Score: inf
ROOT
ATOM      1  C   UNL A   1      34.401  34.428  29.521  1.00  0.00     0.274 C 
ENDROOT
BRANCH   1   2
ATOM      2  O   UNL A   1      33.949  33.912  30.787  1.00  0.00    -0.462 OA
BRANCH   2   3
ATOM      3  C   UNL A   1      34.829  33.188  31.524  1.00  0.00     0.313 C 
ATOM      4  O   UNL A   1      35.101  32.012  31.304  1.00  0.00    -0.252 OA
BRANCH   3   5
ATOM      5  C   UNL A   1      35.449  33.955  32.691  1.00  0.00     0.130 C 
ATOM      6  C   UNL A   1      34.759  35.309  32.841  1.00  0.00     0.025 C 
BRANCH   5   7
ATOM      7  C   UNL A   1      36.966  34.121  32.700  1.00  0.00     0.009 A 
ATOM      8  C   UNL A   1      37.681  34.218  33.903  1.00  0.00     0.122 A 
ATOM      9  C   UNL A   1      39.066  34.419  33.903  1.00  0.00     0.047 A 
ATOM     10  C   UNL A   1      39.762  34.511  32.694  1.00  0.00     0.016 A 
ATOM     11  C   UNL A   1      37.684  34.235  31.498  1.00  0.00     0.020 A 
ATOM     12  C   UNL A   1      39.072  34.429  31.481  1.00  0.00     0.023 A 
BRANCH   8  13
ATOM     13  O   UNL A   1      36.975  34.211  35.077  1.00  0.00    -0.496 OA
ATOM     14  C   UNL A   1      37.776  33.831  36.194  1.00  0.00     0.278 C 
ENDBRANCH   8  13
BRANCH  12  15
ATOM     15  C   UNL A   1      39.838  34.516  30.201  1.00  0.00     0.193 C 
ATOM     16  O   UNL A   1      39.304  34.935  29.179  1.00  0.00    -0.289 OA
BRANCH  15  17
ATOM     17  C   UNL A   1      41.273  34.151  30.153  1.00  0.00     0.022 A 
ATOM     18  C   UNL A   1      42.224  35.175  30.170  1.00  0.00     0.012 A 
ATOM     19  C   UNL A   1      41.675  32.810  30.132  1.00  0.00     0.012 A 
ATOM     20  C   UNL A   1      43.581  34.854  30.222  1.00  0.00     0.001 A 
ATOM     21  C   UNL A   1      43.033  32.496  30.194  1.00  0.00     0.001 A 
ATOM     22  C   UNL A   1      43.983  33.517  30.247  1.00  0.00     0.000 A 
ENDBRANCH  15  17
ENDBRANCH  12  15
ENDBRANCH   5   7
ENDBRANCH   3   5
ENDBRANCH   2   3
ENDBRANCH   1   2
BRANCH   1  23
ATOM     23  C   UNL A   1      33.667  33.733  28.378  1.00  0.00     0.275 C 
BRANCH  23  24
ATOM     24  O   UNL A   1      34.594  32.931  27.623  1.00  0.00    -0.458 OA
BRANCH  24  25
ATOM     25  C   UNL A   1      34.439  31.595  27.749  1.00  0.00     0.338 C 
ATOM     26  O   UNL A   1      33.438  30.929  27.559  1.00  0.00    -0.246 OA
BRANCH  25  27
ATOM     27  C   UNL A   1      35.735  31.001  28.094  1.00  0.00     0.060 A 
ATOM     28  C   UNL A   1      35.775  29.649  28.433  1.00  0.00     0.016 A 
ATOM     29  C   UNL A   1      36.875  31.796  28.201  1.00  0.00     0.016 A 
ATOM     30  C   UNL A   1      36.950  29.098  28.935  1.00  0.00     0.010 A 
ATOM     31  C   UNL A   1      38.070  31.224  28.654  1.00  0.00     0.010 A 
ATOM     32  C   UNL A   1      38.110  29.876  29.053  1.00  0.00    -0.014 A 
BRANCH  32  33
ATOM     33  C   UNL A   1      39.341  29.277  29.632  1.00  0.00     0.031 A 
ATOM     34  C   UNL A   1      39.879  29.762  30.952  1.00  0.00     0.074 A 
ATOM     35  C   UNL A   1      39.955  28.259  28.999  1.00  0.00     0.049 A 
ATOM     36  N   UNL A   1      40.983  29.421  31.569  1.00  0.00    -0.248 NA
ATOM     37  C   UNL A   1      39.077  30.765  31.669  1.00  0.00     0.031 C 
ATOM     38  C   UNL A   1      39.519  27.665  27.733  1.00  0.00     0.029 A 
ATOM     39  N   UNL A   1      41.065  27.529  29.343  1.00  0.00    -0.354 N 
ATOM     40  C   UNL A   1      41.032  30.199  32.720  1.00  0.00     0.074 A 
ATOM     41  C   UNL A   1      39.845  31.028  32.717  1.00  0.00     0.031 C 
ATOM     42  C   UNL A   1      40.323  26.634  27.432  1.00  0.00     0.029 A 
ATOM     43  C   UNL A   1      41.369  26.535  28.445  1.00  0.00     0.049 A 
ATOM     44  H   UNL A   1      41.592  27.700  30.157  1.00  0.00     0.167 HD
ATOM     45  C   UNL A   1      41.980  30.221  33.687  1.00  0.00     0.037 A 
ATOM     46  C   UNL A   1      42.388  25.657  28.424  1.00  0.00     0.037 A 
ATOM     47  C   UNL A   1      43.136  29.363  33.718  1.00  0.00     0.049 A 
ATOM     48  C   UNL A   1      43.425  25.702  29.507  1.00  0.00     0.074 A 
ATOM     49  C   UNL A   1      44.146  29.309  34.664  1.00  0.00     0.029 A 
ATOM     50  N   UNL A   1      43.426  28.394  32.771  1.00  0.00    -0.354 N 
ATOM     51  N   UNL A   1      43.489  26.484  30.557  1.00  0.00    -0.248 NA
ATOM     52  C   UNL A   1      44.544  24.756  29.391  1.00  0.00     0.031 C 
ATOM     53  C   UNL A   1      45.060  28.322  34.275  1.00  0.00     0.029 A 
ATOM     54  C   UNL A   1      44.602  27.743  33.104  1.00  0.00     0.049 A 
ATOM     55  H   UNL A   1      42.877  28.199  31.976  1.00  0.00     0.167 HD
ATOM     56  C   UNL A   1      44.655  26.133  31.221  1.00  0.00     0.074 A 
ATOM     57  C   UNL A   1      45.253  25.045  30.474  1.00  0.00     0.031 C 
ATOM     58  C   UNL A   1      45.190  26.673  32.343  1.00  0.00     0.037 A 
BRANCH  45  59
ATOM     59  C   UNL A   1      41.824  31.231  34.784  1.00  0.00     0.057 A 
ATOM     60  C   UNL A   1      42.337  32.529  34.675  1.00  0.00     0.134 A 
ATOM     61  C   UNL A   1      41.114  30.910  35.947  1.00  0.00     0.134 A 
ATOM     62  F   UNL A   1      43.041  32.893  33.593  1.00  0.00    -0.206 F 
ATOM     63  C   UNL A   1      42.160  33.469  35.692  1.00  0.00     0.040 A 
ATOM     64  C   UNL A   1      40.913  31.846  36.962  1.00  0.00     0.040 A 
ATOM     65  F   UNL A   1      40.595  29.684  36.110  1.00  0.00    -0.206 F 
ATOM     66  C   UNL A   1      41.441  33.130  36.837  1.00  0.00     0.006 A 
ENDBRANCH  45  59
BRANCH  46  67
ATOM     67  C   UNL A   1      42.490  24.676  27.317  1.00  0.00     0.057 A 
ATOM     68  C   UNL A   1      41.749  23.490  27.334  1.00  0.00     0.134 A 
ATOM     69  C   UNL A   1      43.320  24.907  26.214  1.00  0.00     0.134 A 
ATOM     70  F   UNL A   1      40.956  23.204  28.375  1.00  0.00    -0.206 F 
ATOM     71  C   UNL A   1      41.831  22.565  26.292  1.00  0.00     0.040 A 
ATOM     72  C   UNL A   1      43.396  24.004  25.155  1.00  0.00     0.040 A 
ATOM     73  F   UNL A   1      44.055  26.028  26.142  1.00  0.00    -0.206 F 
ATOM     74  C   UNL A   1      42.652  22.826  25.194  1.00  0.00     0.006 A 
ENDBRANCH  46  67
BRANCH  58  75
ATOM     75  C   UNL A   1      46.486  26.092  32.819  1.00  0.00     0.057 A 
ATOM     76  C   UNL A   1      47.717  26.611  32.396  1.00  0.00     0.134 A 
ATOM     77  C   UNL A   1      46.506  25.014  33.711  1.00  0.00     0.134 A 
ATOM     78  F   UNL A   1      47.761  27.634  31.530  1.00  0.00    -0.206 F 
ATOM     79  C   UNL A   1      48.925  26.062  32.830  1.00  0.00     0.040 A 
ATOM     80  C   UNL A   1      47.708  24.469  34.165  1.00  0.00     0.040 A 
ATOM     81  F   UNL A   1      45.360  24.475  34.155  1.00  0.00    -0.206 F 
ATOM     82  C   UNL A   1      48.921  24.990  33.720  1.00  0.00     0.006 A 
ENDBRANCH  58  75
ENDBRANCH  32  33
ENDBRANCH  25  27
ENDBRANCH  24  25
ENDBRANCH  23  24
ENDBRANCH   1  23
TORSDOF 15
ENDMDL
