MODEL 1
REMARK VINA RESULT:     -11.9      0.000      0.000
REMARK SMILES Cc1cc(C[N@H+]2CCN(C)C(=O)C2(C)C)oc1C(=O)OCCOC(=O)c1ccc(-c2c3nc(c(-c4c(F)cccc4F)c4ccc([nH]4)c(-c4c(F)cccc4F)c4nc(c(-c5c(F)cccc5F)c5ccc2[nH]5)C=C4)C=C3)cc1
REMARK SMILES IDX 21 1 20 2 18 3 19 4 17 5 1 6 2 7 3 8 4 9 16 10 5 11 6 12
REMARK SMILES IDX 7 13 13 14 8 16 11 17 14 18 15 19 9 20 12 21 10 22 22 23
REMARK SMILES IDX 23 24 24 25 25 26 26 27 27 28 79 29 28 30 78 31 29 32 30 33
REMARK SMILES IDX 31 34 72 35 32 36 77 37 71 38 73 39 33 40 76 41 70 42 69 43
REMARK SMILES IDX 34 45 60 46 43 47 59 48 44 49 47 50 58 51 74 52 45 53 46 54
REMARK SMILES IDX 57 56 75 57 48 58 35 59 36 60 41 61 37 62 38 63 40 64 42 65
REMARK SMILES IDX 39 66 61 67 62 68 67 69 63 70 64 71 66 72 68 73 65 74 49 75
REMARK SMILES IDX 50 76 55 77 51 78 52 79 54 80 56 81 53 82
REMARK H PARENT 6 15 73 44 47 55
REMARK Flexibility Score: inf
ROOT
ATOM      1  C   UNL A   1      42.673  21.150  25.874  1.00  0.00     0.275 C 
ENDROOT
BRANCH   1   2
ATOM      2  O   UNL A   1      41.397  21.799  25.713  1.00  0.00    -0.456 OA
BRANCH   2   3
ATOM      3  C   UNL A   1      40.419  21.420  26.592  1.00  0.00     0.374 C 
ATOM      4  O   UNL A   1      40.628  20.849  27.645  1.00  0.00    -0.242 OA
BRANCH   3   5
ATOM      5  C   UNL A   1      39.121  21.870  26.122  1.00  0.00     0.215 A 
ATOM      6  C   UNL A   1      38.844  24.385  26.713  1.00  0.00     0.049 C 
ATOM      7  C   UNL A   1      38.437  23.075  26.148  1.00  0.00     0.003 A 
ATOM      8  C   UNL A   1      37.190  22.831  25.503  1.00  0.00     0.056 A 
ATOM      9  C   UNL A   1      37.123  21.483  25.235  1.00  0.00     0.159 A 
ATOM     10  O   UNL A   1      38.326  20.917  25.530  1.00  0.00    -0.448 OA
BRANCH   9  11
ATOM     11  C   UNL A   1      36.074  20.565  24.692  1.00  0.00     0.339 C 
BRANCH  11  12
ATOM     12  N   UNL A   1      34.873  20.328  25.517  1.00  0.00    -0.315 N 
ATOM     13  C   UNL A   1      34.339  21.543  26.144  1.00  0.00     0.285 C 
ATOM     14  C   UNL A   1      33.787  19.482  24.944  1.00  0.00     0.172 C 
ATOM     15  H   UNL A   1      35.264  19.733  26.248  1.00  0.00     0.349 HD
ATOM     16  C   UNL A   1      33.420  22.373  25.244  1.00  0.00     0.180 C 
ATOM     17  C   UNL A   1      32.848  20.286  23.991  1.00  0.00     0.283 C 
ATOM     18  C   UNL A   1      34.347  18.223  24.246  1.00  0.00     0.090 C 
ATOM     19  C   UNL A   1      32.867  18.955  26.076  1.00  0.00     0.090 C 
ATOM     20  N   UNL A   1      32.568  21.605  24.340  1.00  0.00    -0.335 N 
ATOM     21  O   UNL A   1      32.299  19.736  23.031  1.00  0.00    -0.268 OA
ATOM     22  C   UNL A   1      31.600  22.368  23.573  1.00  0.00     0.147 C 
ENDBRANCH  11  12
ENDBRANCH   9  11
ENDBRANCH   3   5
ENDBRANCH   2   3
ENDBRANCH   1   2
BRANCH   1  23
ATOM     23  C   UNL A   1      43.828  22.032  25.388  1.00  0.00     0.275 C 
BRANCH  23  24
ATOM     24  O   UNL A   1      43.359  23.283  24.852  1.00  0.00    -0.458 OA
BRANCH  24  25
ATOM     25  C   UNL A   1      44.117  24.365  25.147  1.00  0.00     0.338 C 
ATOM     26  O   UNL A   1      45.122  24.741  24.565  1.00  0.00    -0.246 OA
BRANCH  25  27
ATOM     27  C   UNL A   1      43.472  25.151  26.214  1.00  0.00     0.060 A 
ATOM     28  C   UNL A   1      43.876  26.479  26.367  1.00  0.00     0.016 A 
ATOM     29  C   UNL A   1      42.524  24.602  27.079  1.00  0.00     0.016 A 
ATOM     30  C   UNL A   1      43.342  27.271  27.377  1.00  0.00     0.010 A 
ATOM     31  C   UNL A   1      41.991  25.393  28.104  1.00  0.00     0.010 A 
ATOM     32  C   UNL A   1      42.403  26.728  28.261  1.00  0.00    -0.014 A 
BRANCH  32  33
ATOM     33  C   UNL A   1      41.909  27.561  29.382  1.00  0.00     0.031 A 
ATOM     34  C   UNL A   1      42.625  27.533  30.699  1.00  0.00     0.074 A 
ATOM     35  C   UNL A   1      40.858  28.380  29.198  1.00  0.00     0.049 A 
ATOM     36  N   UNL A   1      42.342  28.166  31.809  1.00  0.00    -0.248 NA
ATOM     37  C   UNL A   1      43.824  26.683  30.777  1.00  0.00     0.031 C 
ATOM     38  C   UNL A   1      40.118  28.537  27.945  1.00  0.00     0.029 A 
ATOM     39  N   UNL A   1      40.237  29.242  30.066  1.00  0.00    -0.354 N 
ATOM     40  C   UNL A   1      43.316  27.782  32.720  1.00  0.00     0.074 A 
ATOM     41  C   UNL A   1      44.191  26.851  32.040  1.00  0.00     0.031 C 
ATOM     42  C   UNL A   1      39.144  29.444  28.124  1.00  0.00     0.029 A 
ATOM     43  C   UNL A   1      39.170  29.904  29.510  1.00  0.00     0.049 A 
ATOM     44  H   UNL A   1      40.529  29.373  30.996  1.00  0.00     0.167 HD
ATOM     45  C   UNL A   1      43.466  28.173  34.007  1.00  0.00     0.037 A 
ATOM     46  C   UNL A   1      38.301  30.769  30.066  1.00  0.00     0.037 A 
ATOM     47  C   UNL A   1      42.601  29.106  34.680  1.00  0.00     0.049 A 
ATOM     48  C   UNL A   1      38.454  31.140  31.515  1.00  0.00     0.074 A 
ATOM     49  C   UNL A   1      42.676  29.568  35.983  1.00  0.00     0.029 A 
ATOM     50  N   UNL A   1      41.502  29.720  34.099  1.00  0.00    -0.354 N 
ATOM     51  N   UNL A   1      39.373  30.763  32.371  1.00  0.00    -0.248 NA
ATOM     52  C   UNL A   1      37.444  32.048  32.078  1.00  0.00     0.031 C 
ATOM     53  C   UNL A   1      41.601  30.437  36.200  1.00  0.00     0.029 A 
ATOM     54  C   UNL A   1      40.878  30.543  35.022  1.00  0.00     0.049 A 
ATOM     55  H   UNL A   1      41.209  29.592  33.167  1.00  0.00     0.167 HD
ATOM     56  C   UNL A   1      39.063  31.401  33.565  1.00  0.00     0.074 A 
ATOM     57  C   UNL A   1      37.879  32.198  33.321  1.00  0.00     0.031 C 
ATOM     58  C   UNL A   1      39.702  31.331  34.758  1.00  0.00     0.037 A 
BRANCH  45  59
ATOM     59  C   UNL A   1      44.594  27.564  34.781  1.00  0.00     0.057 A 
ATOM     60  C   UNL A   1      45.858  28.163  34.842  1.00  0.00     0.134 A 
ATOM     61  C   UNL A   1      44.405  26.374  35.496  1.00  0.00     0.134 A 
ATOM     62  F   UNL A   1      46.107  29.293  34.166  1.00  0.00    -0.206 F 
ATOM     63  C   UNL A   1      46.900  27.591  35.574  1.00  0.00     0.040 A 
ATOM     64  C   UNL A   1      45.434  25.803  36.246  1.00  0.00     0.040 A 
ATOM     65  F   UNL A   1      43.217  25.751  35.478  1.00  0.00    -0.206 F 
ATOM     66  C   UNL A   1      46.686  26.409  36.283  1.00  0.00     0.006 A 
ENDBRANCH  45  59
BRANCH  46  67
ATOM     67  C   UNL A   1      37.193  31.332  29.255  1.00  0.00     0.057 A 
ATOM     68  C   UNL A   1      37.253  32.635  28.752  1.00  0.00     0.134 A 
ATOM     69  C   UNL A   1      36.044  30.582  28.977  1.00  0.00     0.134 A 
ATOM     70  F   UNL A   1      38.317  33.409  29.008  1.00  0.00    -0.206 F 
ATOM     71  C   UNL A   1      36.203  33.180  28.010  1.00  0.00     0.040 A 
ATOM     72  C   UNL A   1      34.997  31.105  28.217  1.00  0.00     0.040 A 
ATOM     73  F   UNL A   1      35.926  29.326  29.434  1.00  0.00    -0.206 F 
ATOM     74  C   UNL A   1      35.073  32.411  27.735  1.00  0.00     0.006 A 
ENDBRANCH  46  67
BRANCH  58  75
ATOM     75  C   UNL A   1      39.145  32.153  35.881  1.00  0.00     0.057 A 
ATOM     76  C   UNL A   1      38.224  31.624  36.792  1.00  0.00     0.134 A 
ATOM     77  C   UNL A   1      39.560  33.477  36.070  1.00  0.00     0.134 A 
ATOM     78  F   UNL A   1      37.778  30.366  36.655  1.00  0.00    -0.206 F 
ATOM     79  C   UNL A   1      37.723  32.389  37.846  1.00  0.00     0.040 A 
ATOM     80  C   UNL A   1      39.081  34.245  37.131  1.00  0.00     0.040 A 
ATOM     81  F   UNL A   1      40.445  34.040  35.233  1.00  0.00    -0.206 F 
ATOM     82  C   UNL A   1      38.157  33.702  38.021  1.00  0.00     0.006 A 
ENDBRANCH  58  75
ENDBRANCH  32  33
ENDBRANCH  25  27
ENDBRANCH  24  25
ENDBRANCH  23  24
ENDBRANCH   1  23
TORSDOF 13
ENDMDL
MODEL 2
REMARK VINA RESULT:     -11.7      5.645     10.419
REMARK SMILES Cc1cc(C[N@H+]2CCN(C)C(=O)C2(C)C)oc1C(=O)OCCOC(=O)c1ccc(-c2c3nc(c(-c4c(F)cccc4F)c4ccc([nH]4)c(-c4c(F)cccc4F)c4nc(c(-c5c(F)cccc5F)c5ccc2[nH]5)C=C4)C=C3)cc1
REMARK SMILES IDX 21 1 20 2 18 3 19 4 17 5 1 6 2 7 3 8 4 9 16 10 5 11 6 12
REMARK SMILES IDX 7 13 13 14 8 16 11 17 14 18 15 19 9 20 12 21 10 22 22 23
REMARK SMILES IDX 23 24 24 25 25 26 26 27 27 28 79 29 28 30 78 31 29 32 30 33
REMARK SMILES IDX 31 34 72 35 32 36 77 37 71 38 73 39 33 40 76 41 70 42 69 43
REMARK SMILES IDX 34 45 60 46 43 47 59 48 44 49 47 50 58 51 74 52 45 53 46 54
REMARK SMILES IDX 57 56 75 57 48 58 35 59 36 60 41 61 37 62 38 63 40 64 42 65
REMARK SMILES IDX 39 66 61 67 62 68 67 69 63 70 64 71 66 72 68 73 65 74 49 75
REMARK SMILES IDX 50 76 55 77 51 78 52 79 54 80 56 81 53 82
REMARK H PARENT 6 15 73 44 47 55
REMARK Flexibility Score: inf
ROOT
ATOM      1  C   UNL A   1      34.410  33.918  30.139  1.00  0.00     0.275 C 
ENDROOT
BRANCH   1   2
ATOM      2  O   UNL A   1      34.029  32.711  29.454  1.00  0.00    -0.456 OA
BRANCH   2   3
ATOM      3  C   UNL A   1      34.533  32.557  28.190  1.00  0.00     0.374 C 
ATOM      4  O   UNL A   1      35.292  33.343  27.656  1.00  0.00    -0.242 OA
BRANCH   3   5
ATOM      5  C   UNL A   1      34.097  31.292  27.627  1.00  0.00     0.215 A 
ATOM      6  C   UNL A   1      35.983  29.535  27.959  1.00  0.00     0.049 C 
ATOM      7  C   UNL A   1      34.657  30.029  27.513  1.00  0.00     0.003 A 
ATOM      8  C   UNL A   1      33.685  29.229  26.845  1.00  0.00     0.056 A 
ATOM      9  C   UNL A   1      32.652  30.060  26.477  1.00  0.00     0.159 A 
ATOM     10  O   UNL A   1      32.861  31.289  27.026  1.00  0.00    -0.448 OA
BRANCH   9  11
ATOM     11  C   UNL A   1      31.403  29.899  25.669  1.00  0.00     0.339 C 
BRANCH  11  12
ATOM     12  N   UNL A   1      31.547  29.658  24.219  1.00  0.00    -0.315 N 
ATOM     13  C   UNL A   1      32.569  28.658  23.888  1.00  0.00     0.285 C 
ATOM     14  C   UNL A   1      30.306  29.464  23.417  1.00  0.00     0.172 C 
ATOM     15  H   UNL A   1      31.879  30.572  23.911  1.00  0.00     0.349 HD
ATOM     16  C   UNL A   1      32.089  27.206  23.969  1.00  0.00     0.180 C 
ATOM     17  C   UNL A   1      29.765  28.002  23.502  1.00  0.00     0.283 C 
ATOM     18  C   UNL A   1      29.212  30.488  23.792  1.00  0.00     0.090 C 
ATOM     19  C   UNL A   1      30.601  29.703  21.913  1.00  0.00     0.090 C 
ATOM     20  N   UNL A   1      30.708  26.978  23.552  1.00  0.00    -0.335 N 
ATOM     21  O   UNL A   1      28.556  27.769  23.423  1.00  0.00    -0.268 OA
ATOM     22  C   UNL A   1      30.277  25.593  23.500  1.00  0.00     0.147 C 
ENDBRANCH  11  12
ENDBRANCH   9  11
ENDBRANCH   3   5
ENDBRANCH   2   3
ENDBRANCH   1   2
BRANCH   1  23
ATOM     23  C   UNL A   1      34.629  33.680  31.638  1.00  0.00     0.275 C 
BRANCH  23  24
ATOM     24  O   UNL A   1      35.007  32.318  31.913  1.00  0.00    -0.458 OA
BRANCH  24  25
ATOM     25  C   UNL A   1      36.117  32.165  32.674  1.00  0.00     0.338 C 
ATOM     26  O   UNL A   1      36.215  32.340  33.878  1.00  0.00    -0.246 OA
BRANCH  25  27
ATOM     27  C   UNL A   1      37.205  31.593  31.860  1.00  0.00     0.060 A 
ATOM     28  C   UNL A   1      38.174  30.837  32.522  1.00  0.00     0.016 A 
ATOM     29  C   UNL A   1      37.311  31.821  30.487  1.00  0.00     0.016 A 
ATOM     30  C   UNL A   1      39.251  30.300  31.827  1.00  0.00     0.010 A 
ATOM     31  C   UNL A   1      38.400  31.291  29.785  1.00  0.00     0.010 A 
ATOM     32  C   UNL A   1      39.378  30.534  30.454  1.00  0.00    -0.014 A 
BRANCH  32  33
ATOM     33  C   UNL A   1      40.577  30.026  29.748  1.00  0.00     0.031 A 
ATOM     34  C   UNL A   1      41.752  30.933  29.534  1.00  0.00     0.074 A 
ATOM     35  C   UNL A   1      40.630  28.742  29.353  1.00  0.00     0.049 A 
ATOM     36  N   UNL A   1      42.883  30.692  28.922  1.00  0.00    -0.248 NA
ATOM     37  C   UNL A   1      41.642  32.291  30.089  1.00  0.00     0.031 C 
ATOM     38  C   UNL A   1      39.573  27.751  29.557  1.00  0.00     0.029 A 
ATOM     39  N   UNL A   1      41.620  28.049  28.703  1.00  0.00    -0.354 N 
ATOM     40  C   UNL A   1      43.614  31.868  29.004  1.00  0.00     0.074 A 
ATOM     41  C   UNL A   1      42.796  32.828  29.714  1.00  0.00     0.031 C 
ATOM     42  C   UNL A   1      39.973  26.575  29.046  1.00  0.00     0.029 A 
ATOM     43  C   UNL A   1      41.296  26.740  28.450  1.00  0.00     0.049 A 
ATOM     44  H   UNL A   1      42.480  28.452  28.445  1.00  0.00     0.167 HD
ATOM     45  C   UNL A   1      44.857  32.123  28.532  1.00  0.00     0.037 A 
ATOM     46  C   UNL A   1      41.983  25.787  27.791  1.00  0.00     0.037 A 
ATOM     47  C   UNL A   1      45.674  31.165  27.834  1.00  0.00     0.049 A 
ATOM     48  C   UNL A   1      43.336  26.114  27.223  1.00  0.00     0.074 A 
ATOM     49  C   UNL A   1      46.949  31.329  27.321  1.00  0.00     0.029 A 
ATOM     50  N   UNL A   1      45.293  29.862  27.554  1.00  0.00    -0.354 N 
ATOM     51  N   UNL A   1      44.015  27.234  27.297  1.00  0.00    -0.248 NA
ATOM     52  C   UNL A   1      44.015  25.050  26.470  1.00  0.00     0.031 C 
ATOM     53  C   UNL A   1      47.326  30.133  26.700  1.00  0.00     0.029 A 
ATOM     54  C   UNL A   1      46.300  29.215  26.858  1.00  0.00     0.049 A 
ATOM     55  H   UNL A   1      44.434  29.455  27.812  1.00  0.00     0.167 HD
ATOM     56  C   UNL A   1      45.204  27.002  26.619  1.00  0.00     0.074 A 
ATOM     57  C   UNL A   1      45.161  25.633  26.150  1.00  0.00     0.031 C 
ATOM     58  C   UNL A   1      46.239  27.850  26.403  1.00  0.00     0.037 A 
BRANCH  45  59
ATOM     59  C   UNL A   1      45.394  33.507  28.727  1.00  0.00     0.057 A 
ATOM     60  C   UNL A   1      45.146  34.534  27.809  1.00  0.00     0.134 A 
ATOM     61  C   UNL A   1      46.150  33.822  29.864  1.00  0.00     0.134 A 
ATOM     62  F   UNL A   1      44.444  34.292  26.692  1.00  0.00    -0.206 F 
ATOM     63  C   UNL A   1      45.644  35.823  28.005  1.00  0.00     0.040 A 
ATOM     64  C   UNL A   1      46.638  35.112  30.081  1.00  0.00     0.040 A 
ATOM     65  F   UNL A   1      46.423  32.883  30.782  1.00  0.00    -0.206 F 
ATOM     66  C   UNL A   1      46.388  36.115  29.148  1.00  0.00     0.006 A 
ENDBRANCH  45  59
BRANCH  46  67
ATOM     67  C   UNL A   1      41.396  24.436  27.615  1.00  0.00     0.057 A 
ATOM     68  C   UNL A   1      41.838  23.349  28.376  1.00  0.00     0.134 A 
ATOM     69  C   UNL A   1      40.389  24.199  26.672  1.00  0.00     0.134 A 
ATOM     70  F   UNL A   1      42.818  23.510  29.277  1.00  0.00    -0.206 F 
ATOM     71  C   UNL A   1      41.308  22.069  28.198  1.00  0.00     0.040 A 
ATOM     72  C   UNL A   1      39.834  22.931  26.499  1.00  0.00     0.040 A 
ATOM     73  F   UNL A   1      39.925  25.201  25.910  1.00  0.00    -0.206 F 
ATOM     74  C   UNL A   1      40.298  21.860  27.260  1.00  0.00     0.006 A 
ENDBRANCH  46  67
BRANCH  58  75
ATOM     75  C   UNL A   1      47.415  27.312  25.644  1.00  0.00     0.057 A 
ATOM     76  C   UNL A   1      47.521  27.453  24.256  1.00  0.00     0.134 A 
ATOM     77  C   UNL A   1      48.467  26.678  26.316  1.00  0.00     0.134 A 
ATOM     78  F   UNL A   1      46.538  28.039  23.555  1.00  0.00    -0.206 F 
ATOM     79  C   UNL A   1      48.627  26.966  23.558  1.00  0.00     0.040 A 
ATOM     80  C   UNL A   1      49.587  26.204  25.631  1.00  0.00     0.040 A 
ATOM     81  F   UNL A   1      48.428  26.517  27.647  1.00  0.00    -0.206 F 
ATOM     82  C   UNL A   1      49.667  26.345  24.248  1.00  0.00     0.006 A 
ENDBRANCH  58  75
ENDBRANCH  32  33
ENDBRANCH  25  27
ENDBRANCH  24  25
ENDBRANCH  23  24
ENDBRANCH   1  23
TORSDOF 13
ENDMDL
MODEL 3
REMARK VINA RESULT:     -11.5      0.441      6.182
REMARK SMILES Cc1cc(C[N@H+]2CCN(C)C(=O)C2(C)C)oc1C(=O)OCCOC(=O)c1ccc(-c2c3nc(c(-c4c(F)cccc4F)c4ccc([nH]4)c(-c4c(F)cccc4F)c4nc(c(-c5c(F)cccc5F)c5ccc2[nH]5)C=C4)C=C3)cc1
REMARK SMILES IDX 21 1 20 2 18 3 19 4 17 5 1 6 2 7 3 8 4 9 16 10 5 11 6 12
REMARK SMILES IDX 7 13 13 14 8 16 11 17 14 18 15 19 9 20 12 21 10 22 22 23
REMARK SMILES IDX 23 24 24 25 25 26 26 27 27 28 79 29 28 30 78 31 29 32 30 33
REMARK SMILES IDX 31 34 72 35 32 36 77 37 71 38 73 39 33 40 76 41 70 42 69 43
REMARK SMILES IDX 34 45 60 46 43 47 59 48 44 49 47 50 58 51 74 52 45 53 46 54
REMARK SMILES IDX 57 56 75 57 48 58 35 59 36 60 41 61 37 62 38 63 40 64 42 65
REMARK SMILES IDX 39 66 61 67 62 68 67 69 63 70 64 71 66 72 68 73 65 74 49 75
REMARK SMILES IDX 50 76 55 77 51 78 52 79 54 80 56 81 53 82
REMARK H PARENT 6 15 73 44 47 55
REMARK Flexibility Score: inf
ROOT
ATOM      1  C   UNL A   1      42.749  21.429  26.043  1.00  0.00     0.275 C 
ENDROOT
BRANCH   1   2
ATOM      2  O   UNL A   1      41.358  21.268  25.709  1.00  0.00    -0.456 OA
BRANCH   2   3
ATOM      3  C   UNL A   1      40.469  21.486  26.726  1.00  0.00     0.374 C 
ATOM      4  O   UNL A   1      40.746  21.401  27.908  1.00  0.00    -0.242 OA
BRANCH   3   5
ATOM      5  C   UNL A   1      39.187  21.910  26.191  1.00  0.00     0.215 A 
ATOM      6  C   UNL A   1      38.902  24.456  26.625  1.00  0.00     0.049 C 
ATOM      7  C   UNL A   1      38.507  23.116  26.125  1.00  0.00     0.003 A 
ATOM      8  C   UNL A   1      37.280  22.837  25.457  1.00  0.00     0.056 A 
ATOM      9  C   UNL A   1      37.216  21.476  25.267  1.00  0.00     0.159 A 
ATOM     10  O   UNL A   1      38.408  20.925  25.632  1.00  0.00    -0.448 OA
BRANCH   9  11
ATOM     11  C   UNL A   1      36.182  20.529  24.747  1.00  0.00     0.339 C 
BRANCH  11  12
ATOM     12  N   UNL A   1      34.965  20.325  25.559  1.00  0.00    -0.315 N 
ATOM     13  C   UNL A   1      34.473  21.549  26.201  1.00  0.00     0.285 C 
ATOM     14  C   UNL A   1      33.853  19.530  24.964  1.00  0.00     0.172 C 
ATOM     15  H   UNL A   1      35.327  19.704  26.283  1.00  0.00     0.349 HD
ATOM     16  C   UNL A   1      33.594  22.428  25.308  1.00  0.00     0.180 C 
ATOM     17  C   UNL A   1      32.953  20.385  24.017  1.00  0.00     0.283 C 
ATOM     18  C   UNL A   1      34.369  18.262  24.249  1.00  0.00     0.090 C 
ATOM     19  C   UNL A   1      32.903  19.021  26.079  1.00  0.00     0.090 C 
ATOM     20  N   UNL A   1      32.721  21.708  24.385  1.00  0.00    -0.335 N 
ATOM     21  O   UNL A   1      32.392  19.873  23.044  1.00  0.00    -0.268 OA
ATOM     22  C   UNL A   1      31.789  22.520  23.622  1.00  0.00     0.147 C 
ENDBRANCH  11  12
ENDBRANCH   9  11
ENDBRANCH   3   5
ENDBRANCH   2   3
ENDBRANCH   1   2
BRANCH   1  23
ATOM     23  C   UNL A   1      43.487  22.297  25.018  1.00  0.00     0.275 C 
BRANCH  23  24
ATOM     24  O   UNL A   1      42.960  23.637  24.973  1.00  0.00    -0.458 OA
BRANCH  24  25
ATOM     25  C   UNL A   1      43.816  24.612  25.359  1.00  0.00     0.338 C 
ATOM     26  O   UNL A   1      44.871  24.920  24.829  1.00  0.00    -0.246 OA
BRANCH  25  27
ATOM     27  C   UNL A   1      43.221  25.390  26.461  1.00  0.00     0.060 A 
ATOM     28  C   UNL A   1      43.648  26.710  26.620  1.00  0.00     0.016 A 
ATOM     29  C   UNL A   1      42.298  24.840  27.352  1.00  0.00     0.016 A 
ATOM     30  C   UNL A   1      43.162  27.492  27.661  1.00  0.00     0.010 A 
ATOM     31  C   UNL A   1      41.813  25.622  28.408  1.00  0.00     0.010 A 
ATOM     32  C   UNL A   1      42.249  26.948  28.570  1.00  0.00    -0.014 A 
BRANCH  32  33
ATOM     33  C   UNL A   1      41.807  27.769  29.721  1.00  0.00     0.031 A 
ATOM     34  C   UNL A   1      40.594  28.641  29.588  1.00  0.00     0.074 A 
ATOM     35  C   UNL A   1      42.459  27.687  30.895  1.00  0.00     0.049 A 
ATOM     36  N   UNL A   1      40.057  29.451  30.465  1.00  0.00    -0.248 NA
ATOM     37  C   UNL A   1      39.888  28.591  28.299  1.00  0.00     0.031 C 
ATOM     38  C   UNL A   1      43.615  26.831  31.161  1.00  0.00     0.029 A 
ATOM     39  N   UNL A   1      42.233  28.328  32.087  1.00  0.00    -0.354 N 
ATOM     40  C   UNL A   1      38.960  30.017  29.832  1.00  0.00     0.074 A 
ATOM     41  C   UNL A   1      38.913  29.469  28.492  1.00  0.00     0.031 C 
ATOM     42  C   UNL A   1      43.996  26.996  32.438  1.00  0.00     0.029 A 
ATOM     43  C   UNL A   1      43.134  27.994  33.067  1.00  0.00     0.049 A 
ATOM     44  H   UNL A   1      41.496  28.965  32.225  1.00  0.00     0.167 HD
ATOM     45  C   UNL A   1      38.071  30.911  30.324  1.00  0.00     0.037 A 
ATOM     46  C   UNL A   1      43.260  28.458  34.325  1.00  0.00     0.037 A 
ATOM     47  C   UNL A   1      38.113  31.448  31.659  1.00  0.00     0.049 A 
ATOM     48  C   UNL A   1      42.296  29.496  34.827  1.00  0.00     0.074 A 
ATOM     49  C   UNL A   1      37.252  32.356  32.251  1.00  0.00     0.029 A 
ATOM     50  N   UNL A   1      39.068  31.122  32.609  1.00  0.00    -0.354 N 
ATOM     51  N   UNL A   1      41.267  30.033  34.217  1.00  0.00    -0.248 NA
ATOM     52  C   UNL A   1      42.516  30.002  36.190  1.00  0.00     0.031 C 
ATOM     53  C   UNL A   1      37.708  32.605  33.551  1.00  0.00     0.029 A 
ATOM     54  C   UNL A   1      38.830  31.825  33.778  1.00  0.00     0.049 A 
ATOM     55  H   UNL A   1      39.806  30.484  32.473  1.00  0.00     0.167 HD
ATOM     56  C   UNL A   1      40.708  30.922  35.124  1.00  0.00     0.074 A 
ATOM     57  C   UNL A   1      41.503  30.845  36.332  1.00  0.00     0.031 C 
ATOM     58  C   UNL A   1      39.632  31.732  34.970  1.00  0.00     0.037 A 
BRANCH  45  59
ATOM     59  C   UNL A   1      36.995  31.389  29.398  1.00  0.00     0.057 A 
ATOM     60  C   UNL A   1      37.033  32.659  28.812  1.00  0.00     0.134 A 
ATOM     61  C   UNL A   1      35.918  30.555  29.071  1.00  0.00     0.134 A 
ATOM     62  F   UNL A   1      38.029  33.510  29.100  1.00  0.00    -0.206 F 
ATOM     63  C   UNL A   1      36.030  33.092  27.944  1.00  0.00     0.040 A 
ATOM     64  C   UNL A   1      34.918  30.969  28.189  1.00  0.00     0.040 A 
ATOM     65  F   UNL A   1      35.823  29.326  29.599  1.00  0.00    -0.206 F 
ATOM     66  C   UNL A   1      34.970  32.242  27.626  1.00  0.00     0.006 A 
ENDBRANCH  45  59
BRANCH  46  67
ATOM     67  C   UNL A   1      44.354  27.959  35.194  1.00  0.00     0.057 A 
ATOM     68  C   UNL A   1      45.575  28.634  35.282  1.00  0.00     0.134 A 
ATOM     69  C   UNL A   1      44.206  26.786  35.945  1.00  0.00     0.134 A 
ATOM     70  F   UNL A   1      45.783  29.748  34.566  1.00  0.00    -0.206 F 
ATOM     71  C   UNL A   1      46.618  28.155  36.078  1.00  0.00     0.040 A 
ATOM     72  C   UNL A   1      45.231  26.309  36.762  1.00  0.00     0.040 A 
ATOM     73  F   UNL A   1      43.059  26.092  35.900  1.00  0.00    -0.206 F 
ATOM     74  C   UNL A   1      46.444  26.991  36.826  1.00  0.00     0.006 A 
ENDBRANCH  46  67
BRANCH  58  75
ATOM     75  C   UNL A   1      39.244  32.582  36.143  1.00  0.00     0.057 A 
ATOM     76  C   UNL A   1      38.351  32.123  37.118  1.00  0.00     0.134 A 
ATOM     77  C   UNL A   1      39.796  33.857  36.315  1.00  0.00     0.134 A 
ATOM     78  F   UNL A   1      37.778  30.916  37.002  1.00  0.00    -0.206 F 
ATOM     79  C   UNL A   1      38.008  32.911  38.218  1.00  0.00     0.040 A 
ATOM     80  C   UNL A   1      39.475  34.646  37.420  1.00  0.00     0.040 A 
ATOM     81  F   UNL A   1      40.663  34.351  35.418  1.00  0.00    -0.206 F 
ATOM     82  C   UNL A   1      38.576  34.174  38.373  1.00  0.00     0.006 A 
ENDBRANCH  58  75
ENDBRANCH  32  33
ENDBRANCH  25  27
ENDBRANCH  24  25
ENDBRANCH  23  24
ENDBRANCH   1  23
TORSDOF 13
ENDMDL
