MODEL 1
REMARK VINA RESULT:     -12.0      0.000      0.000
REMARK SMILES O=C(Cc1cncnc1N1CCC2(CC1)OCCC[C@@H]2O)OCCOC(=O)c1ccc(-c2c3nc(c(-c4c(F)cccc4F)c4ccc([nH]4)c(-c4c(F)cccc4F)c4nc(c(-c5c(F)cccc5F)c5ccc2[nH]5)C=C4)C=C3)cc1
REMARK SMILES IDX 23 1 22 2 2 3 1 4 3 5 4 6 5 7 9 8 6 9 8 10 7 11 10 12 11 13
REMARK SMILES IDX 15 14 12 15 14 16 13 17 16 18 20 19 17 20 19 21 18 22 21 23
REMARK SMILES IDX 24 25 25 26 26 27 27 28 28 29 29 30 81 31 30 32 80 33 31 34
REMARK SMILES IDX 32 35 33 36 74 37 34 38 79 39 73 40 75 41 35 42 78 43 72 44
REMARK SMILES IDX 71 45 36 47 62 48 45 49 61 50 46 51 49 52 60 53 76 54 47 55
REMARK SMILES IDX 48 56 59 58 77 59 50 60 37 61 38 62 43 63 39 64 40 65 42 66
REMARK SMILES IDX 44 67 41 68 63 69 64 70 69 71 65 72 66 73 68 74 70 75 67 76
REMARK SMILES IDX 51 77 52 78 57 79 53 80 54 81 56 82 58 83 55 84
REMARK H PARENT 21 24 75 46 49 57
REMARK Flexibility Score: inf
ROOT
ATOM      1  C   UNL A   1      37.108  21.818  24.339  1.00  0.00     0.274 C 
ENDROOT
BRANCH   1   2
ATOM      2  O   UNL A   1      37.036  23.063  25.043  1.00  0.00    -0.462 OA
BRANCH   2   3
ATOM      3  C   UNL A   1      35.930  23.822  24.778  1.00  0.00     0.310 C 
ATOM      4  O   UNL A   1      35.357  24.444  25.666  1.00  0.00    -0.252 OA
BRANCH   3   5
ATOM      5  C   UNL A   1      35.337  23.621  23.399  1.00  0.00     0.163 C 
BRANCH   5   6
ATOM      6  C   UNL A   1      33.846  23.775  23.269  1.00  0.00     0.024 A 
ATOM      7  C   UNL A   1      33.357  25.033  22.937  1.00  0.00     0.121 A 
ATOM      8  C   UNL A   1      32.875  22.804  23.527  1.00  0.00     0.135 A 
ATOM      9  N   UNL A   1      32.056  25.355  22.875  1.00  0.00    -0.244 NA
ATOM     10  N   UNL A   1      31.561  23.100  23.472  1.00  0.00    -0.219 NA
ATOM     11  C   UNL A   1      31.218  24.356  23.153  1.00  0.00     0.224 A 
BRANCH   8  12
ATOM     12  N   UNL A   1      33.207  21.473  23.829  1.00  0.00    -0.356 N 
ATOM     13  C   UNL A   1      32.143  20.532  23.453  1.00  0.00     0.121 C 
ATOM     14  C   UNL A   1      33.606  21.245  25.227  1.00  0.00     0.121 C 
ATOM     15  C   UNL A   1      32.760  19.146  23.337  1.00  0.00     0.060 C 
ATOM     16  C   UNL A   1      34.192  19.832  25.394  1.00  0.00     0.060 C 
ATOM     17  C   UNL A   1      33.511  18.674  24.609  1.00  0.00     0.097 C 
ATOM     18  O   UNL A   1      32.591  18.123  25.578  1.00  0.00    -0.372 OA
ATOM     19  C   UNL A   1      34.581  17.601  24.168  1.00  0.00     0.146 C 
ATOM     20  C   UNL A   1      32.058  16.828  25.324  1.00  0.00     0.161 C 
ATOM     21  C   UNL A   1      33.955  16.254  23.828  1.00  0.00     0.037 C 
ATOM     22  C   UNL A   1      33.116  15.786  25.000  1.00  0.00     0.031 C 
BRANCH  19  23
ATOM     23  O   UNL A   1      35.587  17.409  25.169  1.00  0.00    -0.390 OA
ATOM     24  H   UNL A   1      36.445  17.263  24.739  1.00  0.00     0.211 HD
ENDBRANCH  19  23
ENDBRANCH   8  12
ENDBRANCH   5   6
ENDBRANCH   3   5
ENDBRANCH   2   3
ENDBRANCH   1   2
BRANCH   1  25
ATOM     25  C   UNL A   1      37.893  20.687  25.001  1.00  0.00     0.275 C 
BRANCH  25  26
ATOM     26  O   UNL A   1      38.813  21.249  25.921  1.00  0.00    -0.458 OA
BRANCH  26  27
ATOM     27  C   UNL A   1      39.872  20.428  26.086  1.00  0.00     0.338 C 
ATOM     28  O   UNL A   1      39.970  19.262  25.762  1.00  0.00    -0.246 OA
BRANCH  27  29
ATOM     29  C   UNL A   1      40.992  21.257  26.520  1.00  0.00     0.060 A 
ATOM     30  C   UNL A   1      41.160  21.392  27.900  1.00  0.00     0.016 A 
ATOM     31  C   UNL A   1      41.793  21.939  25.598  1.00  0.00     0.016 A 
ATOM     32  C   UNL A   1      42.003  22.376  28.366  1.00  0.00     0.010 A 
ATOM     33  C   UNL A   1      42.657  22.914  26.067  1.00  0.00     0.010 A 
ATOM     34  C   UNL A   1      42.654  23.200  27.438  1.00  0.00    -0.014 A 
BRANCH  34  35
ATOM     35  C   UNL A   1      43.019  24.546  27.894  1.00  0.00     0.031 A 
ATOM     36  C   UNL A   1      44.469  24.939  27.812  1.00  0.00     0.074 A 
ATOM     37  C   UNL A   1      42.048  25.401  28.235  1.00  0.00     0.049 A 
ATOM     38  N   UNL A   1      45.029  26.093  28.050  1.00  0.00    -0.248 NA
ATOM     39  C   UNL A   1      45.422  23.888  27.405  1.00  0.00     0.031 C 
ATOM     40  C   UNL A   1      40.622  25.081  28.277  1.00  0.00     0.029 A 
ATOM     41  N   UNL A   1      42.118  26.717  28.583  1.00  0.00    -0.354 N 
ATOM     42  C   UNL A   1      46.389  25.900  27.832  1.00  0.00     0.074 A 
ATOM     43  C   UNL A   1      46.583  24.515  27.488  1.00  0.00     0.031 C 
ATOM     44  C   UNL A   1      39.942  26.189  28.613  1.00  0.00     0.029 A 
ATOM     45  C   UNL A   1      40.893  27.275  28.832  1.00  0.00     0.049 A 
ATOM     46  H   UNL A   1      42.964  27.216  28.647  1.00  0.00     0.167 HD
ATOM     47  C   UNL A   1      47.383  26.814  27.900  1.00  0.00     0.037 A 
ATOM     48  C   UNL A   1      40.593  28.531  29.196  1.00  0.00     0.037 A 
ATOM     49  C   UNL A   1      47.147  28.191  28.239  1.00  0.00     0.049 A 
ATOM     50  C   UNL A   1      41.723  29.517  29.308  1.00  0.00     0.074 A 
ATOM     51  C   UNL A   1      48.054  29.227  28.341  1.00  0.00     0.029 A 
ATOM     52  N   UNL A   1      45.895  28.716  28.535  1.00  0.00    -0.354 N 
ATOM     53  N   UNL A   1      43.006  29.339  29.088  1.00  0.00    -0.248 NA
ATOM     54  C   UNL A   1      41.362  30.882  29.700  1.00  0.00     0.031 C 
ATOM     55  C   UNL A   1      47.358  30.366  28.761  1.00  0.00     0.029 A 
ATOM     56  C   UNL A   1      46.007  30.058  28.847  1.00  0.00     0.049 A 
ATOM     57  H   UNL A   1      45.052  28.207  28.524  1.00  0.00     0.167 HD
ATOM     58  C   UNL A   1      43.602  30.577  29.277  1.00  0.00     0.074 A 
ATOM     59  C   UNL A   1      42.533  31.497  29.617  1.00  0.00     0.031 C 
ATOM     60  C   UNL A   1      44.908  30.932  29.176  1.00  0.00     0.037 A 
BRANCH  47  61
ATOM     61  C   UNL A   1      48.788  26.340  27.655  1.00  0.00     0.057 A 
ATOM     62  C   UNL A   1      49.631  25.909  28.690  1.00  0.00     0.134 A 
ATOM     63  C   UNL A   1      49.312  26.322  26.355  1.00  0.00     0.134 A 
ATOM     64  F   UNL A   1      49.207  25.922  29.963  1.00  0.00    -0.206 F 
ATOM     65  C   UNL A   1      50.947  25.507  28.445  1.00  0.00     0.040 A 
ATOM     66  C   UNL A   1      50.614  25.893  26.094  1.00  0.00     0.040 A 
ATOM     67  F   UNL A   1      48.566  26.726  25.316  1.00  0.00    -0.206 F 
ATOM     68  C   UNL A   1      51.439  25.491  27.141  1.00  0.00     0.006 A 
ENDBRANCH  47  61
BRANCH  48  69
ATOM     69  C   UNL A   1      39.183  28.912  29.445  1.00  0.00     0.057 A 
ATOM     70  C   UNL A   1      38.380  29.436  28.428  1.00  0.00     0.134 A 
ATOM     71  C   UNL A   1      38.597  28.740  30.706  1.00  0.00     0.134 A 
ATOM     72  F   UNL A   1      38.882  29.628  27.200  1.00  0.00    -0.206 F 
ATOM     73  C   UNL A   1      37.051  29.799  28.660  1.00  0.00     0.040 A 
ATOM     74  C   UNL A   1      37.264  29.070  30.945  1.00  0.00     0.040 A 
ATOM     75  F   UNL A   1      39.310  28.224  31.720  1.00  0.00    -0.206 F 
ATOM     76  C   UNL A   1      36.489  29.611  29.921  1.00  0.00     0.006 A 
ENDBRANCH  48  69
BRANCH  60  77
ATOM     77  C   UNL A   1      45.226  32.384  29.383  1.00  0.00     0.057 A 
ATOM     78  C   UNL A   1      45.589  32.897  30.635  1.00  0.00     0.134 A 
ATOM     79  C   UNL A   1      45.185  33.274  28.301  1.00  0.00     0.134 A 
ATOM     80  F   UNL A   1      45.638  32.096  31.710  1.00  0.00    -0.206 F 
ATOM     81  C   UNL A   1      45.854  34.254  30.812  1.00  0.00     0.040 A 
ATOM     82  C   UNL A   1      45.486  34.626  28.460  1.00  0.00     0.040 A 
ATOM     83  F   UNL A   1      44.863  32.843  27.073  1.00  0.00    -0.206 F 
ATOM     84  C   UNL A   1      45.808  35.122  29.722  1.00  0.00     0.006 A 
ENDBRANCH  60  77
ENDBRANCH  34  35
ENDBRANCH  27  29
ENDBRANCH  26  27
ENDBRANCH  25  26
ENDBRANCH   1  25
TORSDOF 14
ENDMDL
MODEL 2
REMARK VINA RESULT:     -12.0      5.140     10.078
REMARK SMILES O=C(Cc1cncnc1N1CCC2(CC1)OCCC[C@@H]2O)OCCOC(=O)c1ccc(-c2c3nc(c(-c4c(F)cccc4F)c4ccc([nH]4)c(-c4c(F)cccc4F)c4nc(c(-c5c(F)cccc5F)c5ccc2[nH]5)C=C4)C=C3)cc1
REMARK SMILES IDX 23 1 22 2 2 3 1 4 3 5 4 6 5 7 9 8 6 9 8 10 7 11 10 12 11 13
REMARK SMILES IDX 15 14 12 15 14 16 13 17 16 18 20 19 17 20 19 21 18 22 21 23
REMARK SMILES IDX 24 25 25 26 26 27 27 28 28 29 29 30 81 31 30 32 80 33 31 34
REMARK SMILES IDX 32 35 33 36 74 37 34 38 79 39 73 40 75 41 35 42 78 43 72 44
REMARK SMILES IDX 71 45 36 47 62 48 45 49 61 50 46 51 49 52 60 53 76 54 47 55
REMARK SMILES IDX 48 56 59 58 77 59 50 60 37 61 38 62 43 63 39 64 40 65 42 66
REMARK SMILES IDX 44 67 41 68 63 69 64 70 69 71 65 72 66 73 68 74 70 75 67 76
REMARK SMILES IDX 51 77 52 78 57 79 53 80 54 81 56 82 58 83 55 84
REMARK H PARENT 21 24 75 46 49 57
REMARK Flexibility Score: inf
ROOT
ATOM      1  C   UNL A   1      31.833  29.686  26.946  1.00  0.00     0.274 C 
ENDROOT
BRANCH   1   2
ATOM      2  O   UNL A   1      33.018  28.923  27.196  1.00  0.00    -0.462 OA
BRANCH   2   3
ATOM      3  C   UNL A   1      33.026  27.663  26.664  1.00  0.00     0.310 C 
ATOM      4  O   UNL A   1      33.913  27.302  25.898  1.00  0.00    -0.252 OA
BRANCH   3   5
ATOM      5  C   UNL A   1      31.752  26.875  26.880  1.00  0.00     0.163 C 
BRANCH   5   6
ATOM      6  C   UNL A   1      31.399  25.851  25.835  1.00  0.00     0.024 A 
ATOM      7  C   UNL A   1      31.757  24.531  26.081  1.00  0.00     0.121 A 
ATOM      8  C   UNL A   1      30.814  26.090  24.588  1.00  0.00     0.135 A 
ATOM      9  N   UNL A   1      31.597  23.521  25.213  1.00  0.00    -0.244 NA
ATOM     10  N   UNL A   1      30.643  25.094  23.696  1.00  0.00    -0.219 NA
ATOM     11  C   UNL A   1      31.043  23.865  24.050  1.00  0.00     0.224 A 
BRANCH   8  12
ATOM     12  N   UNL A   1      30.354  27.361  24.207  1.00  0.00    -0.356 N 
ATOM     13  C   UNL A   1      29.144  27.292  23.376  1.00  0.00     0.121 C 
ATOM     14  C   UNL A   1      31.365  28.205  23.550  1.00  0.00     0.121 C 
ATOM     15  C   UNL A   1      28.451  28.645  23.440  1.00  0.00     0.060 C 
ATOM     16  C   UNL A   1      30.848  29.647  23.406  1.00  0.00     0.060 C 
ATOM     17  C   UNL A   1      29.350  29.841  23.033  1.00  0.00     0.097 C 
ATOM     18  O   UNL A   1      29.391  29.992  21.597  1.00  0.00    -0.372 OA
ATOM     19  C   UNL A   1      28.772  31.137  23.724  1.00  0.00     0.146 C 
ATOM     20  C   UNL A   1      28.246  30.540  20.954  1.00  0.00     0.161 C 
ATOM     21  C   UNL A   1      27.500  31.640  23.052  1.00  0.00     0.037 C 
ATOM     22  C   UNL A   1      27.766  31.843  21.574  1.00  0.00     0.031 C 
BRANCH  19  23
ATOM     23  O   UNL A   1      29.733  32.197  23.758  1.00  0.00    -0.390 OA
ATOM     24  H   UNL A   1      29.918  32.435  24.681  1.00  0.00     0.211 HD
ENDBRANCH  19  23
ENDBRANCH   8  12
ENDBRANCH   5   6
ENDBRANCH   3   5
ENDBRANCH   2   3
ENDBRANCH   1   2
BRANCH   1  25
ATOM     25  C   UNL A   1      32.008  31.180  26.677  1.00  0.00     0.275 C 
BRANCH  25  26
ATOM     26  O   UNL A   1      33.257  31.593  27.204  1.00  0.00    -0.458 OA
BRANCH  26  27
ATOM     27  C   UNL A   1      33.174  32.857  27.670  1.00  0.00     0.338 C 
ATOM     28  O   UNL A   1      32.251  33.637  27.553  1.00  0.00    -0.246 OA
BRANCH  27  29
ATOM     29  C   UNL A   1      34.313  33.060  28.561  1.00  0.00     0.060 A 
ATOM     30  C   UNL A   1      35.476  33.558  27.971  1.00  0.00     0.016 A 
ATOM     31  C   UNL A   1      34.254  32.695  29.911  1.00  0.00     0.016 A 
ATOM     32  C   UNL A   1      36.652  33.497  28.684  1.00  0.00     0.010 A 
ATOM     33  C   UNL A   1      35.433  32.655  30.635  1.00  0.00     0.010 A 
ATOM     34  C   UNL A   1      36.632  32.939  29.970  1.00  0.00    -0.014 A 
BRANCH  34  35
ATOM     35  C   UNL A   1      37.881  32.333  30.445  1.00  0.00     0.031 A 
ATOM     36  C   UNL A   1      38.473  32.870  31.720  1.00  0.00     0.074 A 
ATOM     37  C   UNL A   1      38.366  31.261  29.809  1.00  0.00     0.049 A 
ATOM     38  N   UNL A   1      39.501  32.443  32.400  1.00  0.00    -0.248 NA
ATOM     39  C   UNL A   1      37.817  34.052  32.314  1.00  0.00     0.031 C 
ATOM     40  C   UNL A   1      37.794  30.671  28.599  1.00  0.00     0.029 A 
ATOM     41  N   UNL A   1      39.430  30.467  30.112  1.00  0.00    -0.354 N 
ATOM     42  C   UNL A   1      39.616  33.305  33.486  1.00  0.00     0.074 A 
ATOM     43  C   UNL A   1      38.589  34.307  33.356  1.00  0.00     0.031 C 
ATOM     44  C   UNL A   1      38.509  29.584  28.271  1.00  0.00     0.029 A 
ATOM     45  C   UNL A   1      39.595  29.429  29.234  1.00  0.00     0.049 A 
ATOM     46  H   UNL A   1      40.021  30.623  30.884  1.00  0.00     0.167 HD
ATOM     47  C   UNL A   1      40.500  33.247  34.508  1.00  0.00     0.037 A 
ATOM     48  C   UNL A   1      40.530  28.466  29.229  1.00  0.00     0.037 A 
ATOM     49  C   UNL A   1      41.505  32.225  34.604  1.00  0.00     0.049 A 
ATOM     50  C   UNL A   1      41.528  28.450  30.353  1.00  0.00     0.074 A 
ATOM     51  C   UNL A   1      42.461  32.038  35.583  1.00  0.00     0.029 A 
ATOM     52  N   UNL A   1      41.678  31.211  33.670  1.00  0.00    -0.354 N 
ATOM     53  N   UNL A   1      41.628  29.256  31.386  1.00  0.00    -0.248 NA
ATOM     54  C   UNL A   1      42.531  27.382  30.321  1.00  0.00     0.031 C 
ATOM     55  C   UNL A   1      43.254  30.948  35.206  1.00  0.00     0.029 A 
ATOM     56  C   UNL A   1      42.744  30.410  34.033  1.00  0.00     0.049 A 
ATOM     57  H   UNL A   1      41.123  31.083  32.866  1.00  0.00     0.167 HD
ATOM     58  C   UNL A   1      42.680  28.771  32.149  1.00  0.00     0.074 A 
ATOM     59  C   UNL A   1      43.174  27.593  31.461  1.00  0.00     0.031 C 
ATOM     60  C   UNL A   1      43.194  29.244  33.313  1.00  0.00     0.037 A 
BRANCH  47  61
ATOM     61  C   UNL A   1      40.439  34.331  35.547  1.00  0.00     0.057 A 
ATOM     62  C   UNL A   1      39.673  34.215  36.716  1.00  0.00     0.134 A 
ATOM     63  C   UNL A   1      41.158  35.521  35.370  1.00  0.00     0.134 A 
ATOM     64  F   UNL A   1      38.939  33.114  36.942  1.00  0.00    -0.206 F 
ATOM     65  C   UNL A   1      39.601  35.250  37.652  1.00  0.00     0.040 A 
ATOM     66  C   UNL A   1      41.119  36.550  36.313  1.00  0.00     0.040 A 
ATOM     67  F   UNL A   1      41.908  35.706  34.273  1.00  0.00    -0.206 F 
ATOM     68  C   UNL A   1      40.332  36.419  37.454  1.00  0.00     0.006 A 
ENDBRANCH  47  61
BRANCH  48  69
ATOM     69  C   UNL A   1      40.536  27.448  28.152  1.00  0.00     0.057 A 
ATOM     70  C   UNL A   1      39.835  26.245  28.282  1.00  0.00     0.134 A 
ATOM     71  C   UNL A   1      41.228  27.665  26.953  1.00  0.00     0.134 A 
ATOM     72  F   UNL A   1      39.155  25.977  29.406  1.00  0.00    -0.206 F 
ATOM     73  C   UNL A   1      39.841  25.283  27.270  1.00  0.00     0.040 A 
ATOM     74  C   UNL A   1      41.219  26.725  25.922  1.00  0.00     0.040 A 
ATOM     75  F   UNL A   1      41.906  28.807  26.758  1.00  0.00    -0.206 F 
ATOM     76  C   UNL A   1      40.531  25.525  26.084  1.00  0.00     0.006 A 
ENDBRANCH  48  69
BRANCH  60  77
ATOM     77  C   UNL A   1      44.306  28.446  33.928  1.00  0.00     0.057 A 
ATOM     78  C   UNL A   1      44.061  27.366  34.787  1.00  0.00     0.134 A 
ATOM     79  C   UNL A   1      45.640  28.757  33.637  1.00  0.00     0.134 A 
ATOM     80  F   UNL A   1      42.805  27.024  35.109  1.00  0.00    -0.206 F 
ATOM     81  C   UNL A   1      45.108  26.654  35.370  1.00  0.00     0.040 A 
ATOM     82  C   UNL A   1      46.693  28.027  34.184  1.00  0.00     0.040 A 
ATOM     83  F   UNL A   1      45.940  29.768  32.808  1.00  0.00    -0.206 F 
ATOM     84  C   UNL A   1      46.429  26.980  35.065  1.00  0.00     0.006 A 
ENDBRANCH  60  77
ENDBRANCH  34  35
ENDBRANCH  27  29
ENDBRANCH  26  27
ENDBRANCH  25  26
ENDBRANCH   1  25
TORSDOF 14
ENDMDL
MODEL 3
REMARK VINA RESULT:     -11.7      2.048      4.136
REMARK SMILES O=C(Cc1cncnc1N1CCC2(CC1)OCCC[C@@H]2O)OCCOC(=O)c1ccc(-c2c3nc(c(-c4c(F)cccc4F)c4ccc([nH]4)c(-c4c(F)cccc4F)c4nc(c(-c5c(F)cccc5F)c5ccc2[nH]5)C=C4)C=C3)cc1
REMARK SMILES IDX 23 1 22 2 2 3 1 4 3 5 4 6 5 7 9 8 6 9 8 10 7 11 10 12 11 13
REMARK SMILES IDX 15 14 12 15 14 16 13 17 16 18 20 19 17 20 19 21 18 22 21 23
REMARK SMILES IDX 24 25 25 26 26 27 27 28 28 29 29 30 81 31 30 32 80 33 31 34
REMARK SMILES IDX 32 35 33 36 74 37 34 38 79 39 73 40 75 41 35 42 78 43 72 44
REMARK SMILES IDX 71 45 36 47 62 48 45 49 61 50 46 51 49 52 60 53 76 54 47 55
REMARK SMILES IDX 48 56 59 58 77 59 50 60 37 61 38 62 43 63 39 64 40 65 42 66
REMARK SMILES IDX 44 67 41 68 63 69 64 70 69 71 65 72 66 73 68 74 70 75 67 76
REMARK SMILES IDX 51 77 52 78 57 79 53 80 54 81 56 82 58 83 55 84
REMARK H PARENT 21 24 75 46 49 57
REMARK Flexibility Score: inf
ROOT
ATOM      1  C   UNL A   1      36.836  21.403  24.984  1.00  0.00     0.274 C 
ENDROOT
BRANCH   1   2
ATOM      2  O   UNL A   1      36.885  22.730  24.448  1.00  0.00    -0.462 OA
BRANCH   2   3
ATOM      3  C   UNL A   1      35.672  23.278  24.133  1.00  0.00     0.310 C 
ATOM      4  O   UNL A   1      35.183  23.142  23.016  1.00  0.00    -0.252 OA
BRANCH   3   5
ATOM      5  C   UNL A   1      35.134  24.257  25.154  1.00  0.00     0.163 C 
BRANCH   5   6
ATOM      6  C   UNL A   1      34.159  23.719  26.166  1.00  0.00     0.024 A 
ATOM      7  C   UNL A   1      34.636  22.806  27.097  1.00  0.00     0.121 A 
ATOM      8  C   UNL A   1      32.786  23.974  26.227  1.00  0.00     0.135 A 
ATOM      9  N   UNL A   1      33.878  22.168  28.001  1.00  0.00    -0.244 NA
ATOM     10  N   UNL A   1      31.999  23.346  27.124  1.00  0.00    -0.219 NA
ATOM     11  C   UNL A   1      32.581  22.476  27.961  1.00  0.00     0.224 A 
BRANCH   8  12
ATOM     12  N   UNL A   1      32.157  24.907  25.385  1.00  0.00    -0.356 N 
ATOM     13  C   UNL A   1      31.050  25.605  26.052  1.00  0.00     0.121 C 
ATOM     14  C   UNL A   1      31.701  24.358  24.098  1.00  0.00     0.121 C 
ATOM     15  C   UNL A   1      30.778  26.893  25.289  1.00  0.00     0.060 C 
ATOM     16  C   UNL A   1      31.267  25.493  23.155  1.00  0.00     0.060 C 
ATOM     17  C   UNL A   1      30.492  26.690  23.779  1.00  0.00     0.097 C 
ATOM     18  O   UNL A   1      29.110  26.332  23.557  1.00  0.00    -0.372 OA
ATOM     19  C   UNL A   1      30.857  28.033  23.034  1.00  0.00     0.146 C 
ATOM     20  C   UNL A   1      28.131  27.358  23.679  1.00  0.00     0.161 C 
ATOM     21  C   UNL A   1      29.822  29.128  23.260  1.00  0.00     0.037 C 
ATOM     22  C   UNL A   1      28.453  28.606  22.872  1.00  0.00     0.031 C 
BRANCH  19  23
ATOM     23  O   UNL A   1      31.026  27.833  21.626  1.00  0.00    -0.390 OA
ATOM     24  H   UNL A   1      30.170  27.942  21.181  1.00  0.00     0.211 HD
ENDBRANCH  19  23
ENDBRANCH   8  12
ENDBRANCH   5   6
ENDBRANCH   3   5
ENDBRANCH   2   3
ENDBRANCH   1   2
BRANCH   1  25
ATOM     25  C   UNL A   1      38.129  20.590  24.952  1.00  0.00     0.275 C 
BRANCH  25  26
ATOM     26  O   UNL A   1      38.987  21.060  25.976  1.00  0.00    -0.458 OA
BRANCH  26  27
ATOM     27  C   UNL A   1      40.083  20.278  26.066  1.00  0.00     0.338 C 
ATOM     28  O   UNL A   1      40.195  19.110  25.752  1.00  0.00    -0.246 OA
BRANCH  27  29
ATOM     29  C   UNL A   1      41.207  21.150  26.395  1.00  0.00     0.060 A 
ATOM     30  C   UNL A   1      41.518  21.269  27.751  1.00  0.00     0.016 A 
ATOM     31  C   UNL A   1      41.873  21.883  25.406  1.00  0.00     0.016 A 
ATOM     32  C   UNL A   1      42.362  22.283  28.144  1.00  0.00     0.010 A 
ATOM     33  C   UNL A   1      42.738  22.888  25.800  1.00  0.00     0.010 A 
ATOM     34  C   UNL A   1      42.871  23.152  27.170  1.00  0.00    -0.014 A 
BRANCH  34  35
ATOM     35  C   UNL A   1      43.224  24.506  27.612  1.00  0.00     0.031 A 
ATOM     36  C   UNL A   1      44.660  24.932  27.469  1.00  0.00     0.074 A 
ATOM     37  C   UNL A   1      42.249  25.337  27.996  1.00  0.00     0.049 A 
ATOM     38  N   UNL A   1      45.203  26.099  27.685  1.00  0.00    -0.248 NA
ATOM     39  C   UNL A   1      45.619  23.904  27.019  1.00  0.00     0.031 C 
ATOM     40  C   UNL A   1      40.834  24.984  28.099  1.00  0.00     0.029 A 
ATOM     41  N   UNL A   1      42.303  26.654  28.344  1.00  0.00    -0.354 N 
ATOM     42  C   UNL A   1      46.556  25.938  27.409  1.00  0.00     0.074 A 
ATOM     43  C   UNL A   1      46.768  24.558  27.054  1.00  0.00     0.031 C 
ATOM     44  C   UNL A   1      40.143  26.075  28.466  1.00  0.00     0.029 A 
ATOM     45  C   UNL A   1      41.077  27.182  28.647  1.00  0.00     0.049 A 
ATOM     46  H   UNL A   1      43.140  27.172  28.373  1.00  0.00     0.167 HD
ATOM     47  C   UNL A   1      47.531  26.875  27.436  1.00  0.00     0.037 A 
ATOM     48  C   UNL A   1      40.764  28.431  29.025  1.00  0.00     0.037 A 
ATOM     49  C   UNL A   1      47.277  28.246  27.787  1.00  0.00     0.049 A 
ATOM     50  C   UNL A   1      41.875  29.443  29.090  1.00  0.00     0.074 A 
ATOM     51  C   UNL A   1      48.163  29.303  27.853  1.00  0.00     0.029 A 
ATOM     52  N   UNL A   1      46.027  28.741  28.138  1.00  0.00    -0.354 N 
ATOM     53  N   UNL A   1      43.150  29.295  28.816  1.00  0.00    -0.248 NA
ATOM     54  C   UNL A   1      41.498  30.799  29.501  1.00  0.00     0.031 C 
ATOM     55  C   UNL A   1      47.459  30.424  28.305  1.00  0.00     0.029 A 
ATOM     56  C   UNL A   1      46.121  30.084  28.448  1.00  0.00     0.049 A 
ATOM     57  H   UNL A   1      45.196  28.213  28.163  1.00  0.00     0.167 HD
ATOM     58  C   UNL A   1      43.725  30.547  28.981  1.00  0.00     0.074 A 
ATOM     59  C   UNL A   1      42.651  31.441  29.369  1.00  0.00     0.031 C 
ATOM     60  C   UNL A   1      45.017  30.933  28.826  1.00  0.00     0.037 A 
BRANCH  47  61
ATOM     61  C   UNL A   1      48.934  26.434  27.130  1.00  0.00     0.057 A 
ATOM     62  C   UNL A   1      49.448  26.401  25.825  1.00  0.00     0.134 A 
ATOM     63  C   UNL A   1      49.789  26.025  28.163  1.00  0.00     0.134 A 
ATOM     64  F   UNL A   1      48.680  26.755  24.783  1.00  0.00    -0.206 F 
ATOM     65  C   UNL A   1      50.744  25.952  25.558  1.00  0.00     0.040 A 
ATOM     66  C   UNL A   1      51.096  25.604  27.912  1.00  0.00     0.040 A 
ATOM     67  F   UNL A   1      49.365  26.024  29.436  1.00  0.00    -0.206 F 
ATOM     68  C   UNL A   1      51.575  25.559  26.605  1.00  0.00     0.006 A 
ENDBRANCH  47  61
BRANCH  48  69
ATOM     69  C   UNL A   1      39.358  28.779  29.336  1.00  0.00     0.057 A 
ATOM     70  C   UNL A   1      38.484  29.235  28.343  1.00  0.00     0.134 A 
ATOM     71  C   UNL A   1      38.846  28.641  30.632  1.00  0.00     0.134 A 
ATOM     72  F   UNL A   1      38.914  29.390  27.083  1.00  0.00    -0.206 F 
ATOM     73  C   UNL A   1      37.159  29.566  28.633  1.00  0.00     0.040 A 
ATOM     74  C   UNL A   1      37.517  28.940  30.931  1.00  0.00     0.040 A 
ATOM     75  F   UNL A   1      39.628  28.191  31.626  1.00  0.00    -0.206 F 
ATOM     76  C   UNL A   1      36.671  29.414  29.929  1.00  0.00     0.006 A 
ENDBRANCH  48  69
BRANCH  60  77
ATOM     77  C   UNL A   1      45.310  32.391  29.022  1.00  0.00     0.057 A 
ATOM     78  C   UNL A   1      45.208  33.319  27.977  1.00  0.00     0.134 A 
ATOM     79  C   UNL A   1      45.680  32.871  30.285  1.00  0.00     0.134 A 
ATOM     80  F   UNL A   1      44.865  32.919  26.743  1.00  0.00    -0.206 F 
ATOM     81  C   UNL A   1      45.510  34.666  28.172  1.00  0.00     0.040 A 
ATOM     82  C   UNL A   1      45.947  34.222  30.499  1.00  0.00     0.040 A 
ATOM     83  F   UNL A   1      45.778  32.038  31.330  1.00  0.00    -0.206 F 
ATOM     84  C   UNL A   1      45.876  35.121  29.437  1.00  0.00     0.006 A 
ENDBRANCH  60  77
ENDBRANCH  34  35
ENDBRANCH  27  29
ENDBRANCH  26  27
ENDBRANCH  25  26
ENDBRANCH   1  25
TORSDOF 14
ENDMDL
