MODEL 1
REMARK VINA RESULT:     -11.8      0.000      0.000
REMARK SMILES CC[C@](C)(NC(=O)N1Cc2ccccc2C1)C(=O)OCCOC(=O)c1ccc(-c2c3nc(c(-c4c(F)cccc4F)c4ccc([nH]4)c(-c4c(F)cccc4F)c4nc(c(-c5c(F)cccc5F)c5ccc2[nH]5)C=C4)C=C3)cc1
REMARK SMILES IDX 21 1 20 2 19 3 17 4 18 5 3 6 4 7 2 8 1 9 5 10 6 11 7 13 8 14
REMARK SMILES IDX 9 15 16 16 10 17 15 18 11 19 14 20 12 21 13 22 22 23 23 24
REMARK SMILES IDX 24 25 25 26 26 27 78 28 27 29 77 30 28 31 29 32 30 33 71 34
REMARK SMILES IDX 31 35 76 36 70 37 72 38 32 39 75 40 69 41 68 42 33 44 59 45
REMARK SMILES IDX 42 46 58 47 43 48 46 49 57 50 73 51 44 52 45 53 56 55 74 56
REMARK SMILES IDX 47 57 34 58 35 59 40 60 36 61 37 62 39 63 41 64 38 65 60 66
REMARK SMILES IDX 61 67 66 68 62 69 63 70 65 71 67 72 64 73 48 74 49 75 54 76
REMARK SMILES IDX 50 77 51 78 53 79 55 80 52 81
REMARK H PARENT 5 12 72 43 46 54
REMARK Flexibility Score: inf
ROOT
ATOM      1  C   UNL A   1      31.741  30.932  26.148  1.00  0.00     0.275 C 
ENDROOT
BRANCH   1   2
ATOM      2  C   UNL A   1      31.562  29.621  25.394  1.00  0.00     0.274 C 
BRANCH   2   3
ATOM      3  O   UNL A   1      32.435  28.604  25.926  1.00  0.00    -0.460 OA
BRANCH   3   4
ATOM      4  C   UNL A   1      31.850  27.497  26.453  1.00  0.00     0.331 C 
ATOM      5  O   UNL A   1      31.125  27.522  27.445  1.00  0.00    -0.249 OA
BRANCH   4   6
ATOM      6  C   UNL A   1      32.248  26.172  25.725  1.00  0.00     0.136 C 
ATOM      7  C   UNL A   1      32.183  25.044  26.770  1.00  0.00     0.047 C 
BRANCH   6   8
ATOM      8  C   UNL A   1      33.714  26.416  25.260  1.00  0.00     0.037 C 
ATOM      9  C   UNL A   1      34.627  25.200  25.331  1.00  0.00     0.007 C 
ENDBRANCH   6   8
BRANCH   6  10
ATOM     10  N   UNL A   1      31.394  25.892  24.541  1.00  0.00    -0.322 N 
ATOM     11  C   UNL A   1      30.038  26.074  24.534  1.00  0.00     0.318 C 
ATOM     12  H   UNL A   1      31.824  25.558  23.721  1.00  0.00     0.166 HD
ATOM     13  O   UNL A   1      29.323  25.571  25.397  1.00  0.00    -0.249 OA
ATOM     14  N   UNL A   1      29.536  26.827  23.506  1.00  0.00    -0.316 N 
ATOM     15  C   UNL A   1      28.166  27.335  23.612  1.00  0.00     0.157 C 
ATOM     16  C   UNL A   1      30.286  27.589  22.503  1.00  0.00     0.157 C 
ATOM     17  C   UNL A   1      28.303  28.742  23.105  1.00  0.00    -0.023 A 
ATOM     18  C   UNL A   1      29.539  28.892  22.458  1.00  0.00    -0.023 A 
ATOM     19  C   UNL A   1      27.451  29.817  23.292  1.00  0.00     0.006 A 
ATOM     20  C   UNL A   1      29.935  30.125  21.964  1.00  0.00     0.006 A 
ATOM     21  C   UNL A   1      27.857  31.069  22.826  1.00  0.00     0.000 A 
ATOM     22  C   UNL A   1      29.087  31.221  22.162  1.00  0.00     0.000 A 
ENDBRANCH   6  10
ENDBRANCH   4   6
ENDBRANCH   3   4
ENDBRANCH   2   3
ENDBRANCH   1   2
BRANCH   1  23
ATOM     23  O   UNL A   1      32.719  30.758  27.178  1.00  0.00    -0.458 OA
BRANCH  23  24
ATOM     24  C   UNL A   1      33.376  31.877  27.545  1.00  0.00     0.338 C 
ATOM     25  O   UNL A   1      32.998  33.036  27.495  1.00  0.00    -0.246 OA
BRANCH  24  26
ATOM     26  C   UNL A   1      34.727  31.512  27.948  1.00  0.00     0.060 A 
ATOM     27  C   UNL A   1      35.724  32.483  28.043  1.00  0.00     0.016 A 
ATOM     28  C   UNL A   1      34.982  30.174  28.238  1.00  0.00     0.016 A 
ATOM     29  C   UNL A   1      37.000  32.117  28.428  1.00  0.00     0.010 A 
ATOM     30  C   UNL A   1      36.227  29.828  28.737  1.00  0.00     0.010 A 
ATOM     31  C   UNL A   1      37.227  30.807  28.858  1.00  0.00    -0.014 A 
BRANCH  31  32
ATOM     32  C   UNL A   1      38.466  30.478  29.584  1.00  0.00     0.031 A 
ATOM     33  C   UNL A   1      39.444  29.525  28.987  1.00  0.00     0.074 A 
ATOM     34  C   UNL A   1      38.605  30.971  30.830  1.00  0.00     0.049 A 
ATOM     35  N   UNL A   1      40.449  28.919  29.554  1.00  0.00    -0.248 NA
ATOM     36  C   UNL A   1      39.239  29.177  27.572  1.00  0.00     0.031 C 
ATOM     37  C   UNL A   1      37.668  31.894  31.482  1.00  0.00     0.029 A 
ATOM     38  N   UNL A   1      39.562  30.747  31.780  1.00  0.00    -0.354 N 
ATOM     39  C   UNL A   1      40.969  28.075  28.584  1.00  0.00     0.074 A 
ATOM     40  C   UNL A   1      40.164  28.243  27.394  1.00  0.00     0.031 C 
ATOM     41  C   UNL A   1      38.104  32.168  32.718  1.00  0.00     0.029 A 
ATOM     42  C   UNL A   1      39.296  31.374  32.973  1.00  0.00     0.049 A 
ATOM     43  H   UNL A   1      40.362  30.194  31.625  1.00  0.00     0.167 HD
ATOM     44  C   UNL A   1      42.019  27.229  28.702  1.00  0.00     0.037 A 
ATOM     45  C   UNL A   1      39.913  31.272  34.162  1.00  0.00     0.037 A 
ATOM     46  C   UNL A   1      42.797  27.110  29.907  1.00  0.00     0.049 A 
ATOM     47  C   UNL A   1      41.087  30.349  34.259  1.00  0.00     0.074 A 
ATOM     48  C   UNL A   1      43.909  26.325  30.148  1.00  0.00     0.029 A 
ATOM     49  N   UNL A   1      42.534  27.807  31.083  1.00  0.00    -0.354 N 
ATOM     50  N   UNL A   1      41.587  29.561  33.337  1.00  0.00    -0.248 NA
ATOM     51  C   UNL A   1      41.778  30.288  35.549  1.00  0.00     0.031 C 
ATOM     52  C   UNL A   1      44.294  26.518  31.479  1.00  0.00     0.029 A 
ATOM     53  C   UNL A   1      43.452  27.458  32.058  1.00  0.00     0.049 A 
ATOM     54  H   UNL A   1      41.800  28.453  31.204  1.00  0.00     0.167 HD
ATOM     55  C   UNL A   1      42.659  28.915  33.927  1.00  0.00     0.074 A 
ATOM     56  C   UNL A   1      42.744  29.418  35.286  1.00  0.00     0.031 C 
ATOM     57  C   UNL A   1      43.496  27.989  33.398  1.00  0.00     0.037 A 
BRANCH  44  58
ATOM     58  C   UNL A   1      42.334  26.355  27.524  1.00  0.00     0.057 A 
ATOM     59  C   UNL A   1      41.821  25.057  27.395  1.00  0.00     0.134 A 
ATOM     60  C   UNL A   1      43.189  26.809  26.510  1.00  0.00     0.134 A 
ATOM     61  F   UNL A   1      41.010  24.550  28.336  1.00  0.00    -0.206 F 
ATOM     62  C   UNL A   1      42.177  24.230  26.326  1.00  0.00     0.040 A 
ATOM     63  C   UNL A   1      43.530  26.002  25.422  1.00  0.00     0.040 A 
ATOM     64  F   UNL A   1      43.717  28.041  26.566  1.00  0.00    -0.206 F 
ATOM     65  C   UNL A   1      43.032  24.705  25.334  1.00  0.00     0.006 A 
ENDBRANCH  44  58
BRANCH  45  66
ATOM     66  C   UNL A   1      39.403  32.050  35.318  1.00  0.00     0.057 A 
ATOM     67  C   UNL A   1      39.766  33.387  35.506  1.00  0.00     0.134 A 
ATOM     68  C   UNL A   1      38.468  31.504  36.210  1.00  0.00     0.134 A 
ATOM     69  F   UNL A   1      40.660  33.964  34.690  1.00  0.00    -0.206 F 
ATOM     70  C   UNL A   1      39.218  34.155  36.535  1.00  0.00     0.040 A 
ATOM     71  C   UNL A   1      37.893  32.268  37.227  1.00  0.00     0.040 A 
ATOM     72  F   UNL A   1      38.062  30.234  36.071  1.00  0.00    -0.206 F 
ATOM     73  C   UNL A   1      38.270  33.598  37.392  1.00  0.00     0.006 A 
ENDBRANCH  45  66
BRANCH  57  74
ATOM     74  C   UNL A   1      44.588  27.490  34.292  1.00  0.00     0.057 A 
ATOM     75  C   UNL A   1      45.814  28.155  34.396  1.00  0.00     0.134 A 
ATOM     76  C   UNL A   1      44.382  26.364  35.098  1.00  0.00     0.134 A 
ATOM     77  F   UNL A   1      46.074  29.230  33.636  1.00  0.00    -0.206 F 
ATOM     78  C   UNL A   1      46.807  27.710  35.268  1.00  0.00     0.040 A 
ATOM     79  C   UNL A   1      45.357  25.923  35.990  1.00  0.00     0.040 A 
ATOM     80  F   UNL A   1      43.224  25.689  35.043  1.00  0.00    -0.206 F 
ATOM     81  C   UNL A   1      46.574  26.596  36.076  1.00  0.00     0.006 A 
ENDBRANCH  57  74
ENDBRANCH  31  32
ENDBRANCH  24  26
ENDBRANCH  23  24
ENDBRANCH   1  23
TORSDOF 13
ENDMDL
MODEL 2
REMARK VINA RESULT:     -11.7      4.969      9.609
REMARK SMILES CC[C@](C)(NC(=O)N1Cc2ccccc2C1)C(=O)OCCOC(=O)c1ccc(-c2c3nc(c(-c4c(F)cccc4F)c4ccc([nH]4)c(-c4c(F)cccc4F)c4nc(c(-c5c(F)cccc5F)c5ccc2[nH]5)C=C4)C=C3)cc1
REMARK SMILES IDX 21 1 20 2 19 3 17 4 18 5 3 6 4 7 2 8 1 9 5 10 6 11 7 13 8 14
REMARK SMILES IDX 9 15 16 16 10 17 15 18 11 19 14 20 12 21 13 22 22 23 23 24
REMARK SMILES IDX 24 25 25 26 26 27 78 28 27 29 77 30 28 31 29 32 30 33 71 34
REMARK SMILES IDX 31 35 76 36 70 37 72 38 32 39 75 40 69 41 68 42 33 44 59 45
REMARK SMILES IDX 42 46 58 47 43 48 46 49 57 50 73 51 44 52 45 53 56 55 74 56
REMARK SMILES IDX 47 57 34 58 35 59 40 60 36 61 37 62 39 63 41 64 38 65 60 66
REMARK SMILES IDX 61 67 66 68 62 69 63 70 65 71 67 72 64 73 48 74 49 75 54 76
REMARK SMILES IDX 50 77 51 78 53 79 55 80 52 81
REMARK H PARENT 5 12 72 43 46 54
REMARK Flexibility Score: inf
ROOT
ATOM      1  C   UNL A   1      37.688  19.967  24.991  1.00  0.00     0.275 C 
ENDROOT
BRANCH   1   2
ATOM      2  C   UNL A   1      36.218  20.363  24.934  1.00  0.00     0.274 C 
BRANCH   2   3
ATOM      3  O   UNL A   1      35.995  21.598  25.644  1.00  0.00    -0.460 OA
BRANCH   3   4
ATOM      4  C   UNL A   1      35.495  22.642  24.932  1.00  0.00     0.331 C 
ATOM      5  O   UNL A   1      36.016  23.071  23.904  1.00  0.00    -0.249 OA
BRANCH   4   6
ATOM      6  C   UNL A   1      34.237  23.300  25.586  1.00  0.00     0.136 C 
ATOM      7  C   UNL A   1      34.270  24.796  25.225  1.00  0.00     0.047 C 
BRANCH   6   8
ATOM      8  C   UNL A   1      34.447  23.092  27.114  1.00  0.00     0.037 C 
ATOM      9  C   UNL A   1      33.288  22.426  27.843  1.00  0.00     0.007 C 
ENDBRANCH   6   8
BRANCH   6  10
ATOM     10  N   UNL A   1      32.969  22.647  25.167  1.00  0.00    -0.322 N 
ATOM     11  C   UNL A   1      32.819  21.992  23.975  1.00  0.00     0.318 C 
ATOM     12  H   UNL A   1      32.197  22.690  25.776  1.00  0.00     0.166 HD
ATOM     13  O   UNL A   1      33.106  22.533  22.910  1.00  0.00    -0.249 OA
ATOM     14  N   UNL A   1      32.320  20.718  24.046  1.00  0.00    -0.316 N 
ATOM     15  C   UNL A   1      32.442  19.850  22.873  1.00  0.00     0.157 C 
ATOM     16  C   UNL A   1      32.072  19.917  25.249  1.00  0.00     0.157 C 
ATOM     17  C   UNL A   1      32.846  18.539  23.482  1.00  0.00    -0.023 A 
ATOM     18  C   UNL A   1      32.631  18.576  24.867  1.00  0.00    -0.023 A 
ATOM     19  C   UNL A   1      33.445  17.448  22.873  1.00  0.00     0.006 A 
ATOM     20  C   UNL A   1      32.994  17.506  25.670  1.00  0.00     0.006 A 
ATOM     21  C   UNL A   1      33.844  16.381  23.680  1.00  0.00     0.000 A 
ATOM     22  C   UNL A   1      33.615  16.406  25.066  1.00  0.00     0.000 A 
ENDBRANCH   6  10
ENDBRANCH   4   6
ENDBRANCH   3   4
ENDBRANCH   2   3
ENDBRANCH   1   2
BRANCH   1  23
ATOM     23  O   UNL A   1      38.473  21.107  25.353  1.00  0.00    -0.458 OA
BRANCH  23  24
ATOM     24  C   UNL A   1      39.584  20.840  26.070  1.00  0.00     0.338 C 
ATOM     25  O   UNL A   1      40.124  19.764  26.268  1.00  0.00    -0.246 OA
BRANCH  24  26
ATOM     26  C   UNL A   1      40.036  22.070  26.704  1.00  0.00     0.060 A 
ATOM     27  C   UNL A   1      41.007  22.035  27.704  1.00  0.00     0.016 A 
ATOM     28  C   UNL A   1      39.475  23.270  26.273  1.00  0.00     0.016 A 
ATOM     29  C   UNL A   1      41.425  23.214  28.293  1.00  0.00     0.010 A 
ATOM     30  C   UNL A   1      39.978  24.457  26.779  1.00  0.00     0.010 A 
ATOM     31  C   UNL A   1      40.973  24.428  27.769  1.00  0.00    -0.014 A 
BRANCH  31  32
ATOM     32  C   UNL A   1      41.649  25.684  28.141  1.00  0.00     0.031 A 
ATOM     33  C   UNL A   1      40.897  26.738  28.878  1.00  0.00     0.074 A 
ATOM     34  C   UNL A   1      42.903  25.872  27.688  1.00  0.00     0.049 A 
ATOM     35  N   UNL A   1      41.218  27.987  29.075  1.00  0.00    -0.248 NA
ATOM     36  C   UNL A   1      39.591  26.348  29.433  1.00  0.00     0.031 C 
ATOM     37  C   UNL A   1      43.688  24.883  26.939  1.00  0.00     0.029 A 
ATOM     38  N   UNL A   1      43.727  26.960  27.759  1.00  0.00    -0.354 N 
ATOM     39  C   UNL A   1      40.132  28.550  29.731  1.00  0.00     0.074 A 
ATOM     40  C   UNL A   1      39.142  27.507  29.892  1.00  0.00     0.031 C 
ATOM     41  C   UNL A   1      44.882  25.404  26.634  1.00  0.00     0.029 A 
ATOM     42  C   UNL A   1      44.911  26.787  27.085  1.00  0.00     0.049 A 
ATOM     43  H   UNL A   1      43.496  27.785  28.245  1.00  0.00     0.167 HD
ATOM     44  C   UNL A   1      39.989  29.832  30.141  1.00  0.00     0.037 A 
ATOM     45  C   UNL A   1      45.889  27.666  26.810  1.00  0.00     0.037 A 
ATOM     46  C   UNL A   1      41.013  30.828  29.968  1.00  0.00     0.049 A 
ATOM     47  C   UNL A   1      45.716  29.071  27.295  1.00  0.00     0.074 A 
ATOM     48  C   UNL A   1      41.014  32.150  30.372  1.00  0.00     0.029 A 
ATOM     49  N   UNL A   1      42.229  30.601  29.330  1.00  0.00    -0.354 N 
ATOM     50  N   UNL A   1      44.695  29.599  27.927  1.00  0.00    -0.248 NA
ATOM     51  C   UNL A   1      46.815  30.004  27.030  1.00  0.00     0.031 C 
ATOM     52  C   UNL A   1      42.213  32.731  29.945  1.00  0.00     0.029 A 
ATOM     53  C   UNL A   1      42.982  31.762  29.315  1.00  0.00     0.049 A 
ATOM     54  H   UNL A   1      42.512  29.740  28.944  1.00  0.00     0.167 HD
ATOM     55  C   UNL A   1      45.027  30.925  28.147  1.00  0.00     0.074 A 
ATOM     56  C   UNL A   1      46.355  31.114  27.591  1.00  0.00     0.031 C 
ATOM     57  C   UNL A   1      44.302  31.900  28.750  1.00  0.00     0.037 A 
BRANCH  44  58
ATOM     58  C   UNL A   1      38.674  30.214  30.756  1.00  0.00     0.057 A 
ATOM     59  C   UNL A   1      38.422  30.081  32.128  1.00  0.00     0.134 A 
ATOM     60  C   UNL A   1      37.632  30.702  29.957  1.00  0.00     0.134 A 
ATOM     61  F   UNL A   1      39.369  29.604  32.951  1.00  0.00    -0.206 F 
ATOM     62  C   UNL A   1      37.171  30.377  32.676  1.00  0.00     0.040 A 
ATOM     63  C   UNL A   1      36.385  31.029  30.497  1.00  0.00     0.040 A 
ATOM     64  F   UNL A   1      37.801  30.858  28.635  1.00  0.00    -0.206 F 
ATOM     65  C   UNL A   1      36.149  30.856  31.859  1.00  0.00     0.006 A 
ENDBRANCH  44  58
BRANCH  45  66
ATOM     66  C   UNL A   1      47.071  27.223  26.030  1.00  0.00     0.057 A 
ATOM     67  C   UNL A   1      47.128  27.394  24.644  1.00  0.00     0.134 A 
ATOM     68  C   UNL A   1      48.210  26.703  26.663  1.00  0.00     0.134 A 
ATOM     69  F   UNL A   1      46.070  27.882  23.981  1.00  0.00    -0.206 F 
ATOM     70  C   UNL A   1      48.272  27.067  23.914  1.00  0.00     0.040 A 
ATOM     71  C   UNL A   1      49.369  26.396  25.949  1.00  0.00     0.040 A 
ATOM     72  F   UNL A   1      48.228  26.534  27.993  1.00  0.00    -0.206 F 
ATOM     73  C   UNL A   1      49.401  26.578  24.569  1.00  0.00     0.006 A 
ENDBRANCH  45  66
BRANCH  57  74
ATOM     74  C   UNL A   1      44.952  33.244  28.857  1.00  0.00     0.057 A 
ATOM     75  C   UNL A   1      44.745  34.239  27.896  1.00  0.00     0.134 A 
ATOM     76  C   UNL A   1      45.746  33.557  29.966  1.00  0.00     0.134 A 
ATOM     77  F   UNL A   1      44.007  33.989  26.803  1.00  0.00    -0.206 F 
ATOM     78  C   UNL A   1      45.316  35.503  28.030  1.00  0.00     0.040 A 
ATOM     79  C   UNL A   1      46.303  34.825  30.123  1.00  0.00     0.040 A 
ATOM     80  F   UNL A   1      45.976  32.643  30.921  1.00  0.00    -0.206 F 
ATOM     81  C   UNL A   1      46.089  35.802  29.153  1.00  0.00     0.006 A 
ENDBRANCH  57  74
ENDBRANCH  31  32
ENDBRANCH  24  26
ENDBRANCH  23  24
ENDBRANCH   1  23
TORSDOF 13
ENDMDL
MODEL 3
REMARK VINA RESULT:     -11.4      5.263      9.609
REMARK SMILES CC[C@](C)(NC(=O)N1Cc2ccccc2C1)C(=O)OCCOC(=O)c1ccc(-c2c3nc(c(-c4c(F)cccc4F)c4ccc([nH]4)c(-c4c(F)cccc4F)c4nc(c(-c5c(F)cccc5F)c5ccc2[nH]5)C=C4)C=C3)cc1
REMARK SMILES IDX 21 1 20 2 19 3 17 4 18 5 3 6 4 7 2 8 1 9 5 10 6 11 7 13 8 14
REMARK SMILES IDX 9 15 16 16 10 17 15 18 11 19 14 20 12 21 13 22 22 23 23 24
REMARK SMILES IDX 24 25 25 26 26 27 78 28 27 29 77 30 28 31 29 32 30 33 71 34
REMARK SMILES IDX 31 35 76 36 70 37 72 38 32 39 75 40 69 41 68 42 33 44 59 45
REMARK SMILES IDX 42 46 58 47 43 48 46 49 57 50 73 51 44 52 45 53 56 55 74 56
REMARK SMILES IDX 47 57 34 58 35 59 40 60 36 61 37 62 39 63 41 64 38 65 60 66
REMARK SMILES IDX 61 67 66 68 62 69 63 70 65 71 67 72 64 73 48 74 49 75 54 76
REMARK SMILES IDX 50 77 51 78 53 79 55 80 52 81
REMARK H PARENT 5 12 72 43 46 54
REMARK Flexibility Score: inf
ROOT
ATOM      1  C   UNL A   1      37.974  19.764  24.818  1.00  0.00     0.275 C 
ENDROOT
BRANCH   1   2
ATOM      2  C   UNL A   1      36.503  20.125  24.982  1.00  0.00     0.274 C 
BRANCH   2   3
ATOM      3  O   UNL A   1      36.360  21.484  25.444  1.00  0.00    -0.460 OA
BRANCH   3   4
ATOM      4  C   UNL A   1      35.825  22.382  24.577  1.00  0.00     0.331 C 
ATOM      5  O   UNL A   1      36.255  22.563  23.440  1.00  0.00    -0.249 OA
BRANCH   4   6
ATOM      6  C   UNL A   1      34.657  23.222  25.187  1.00  0.00     0.136 C 
ATOM      7  C   UNL A   1      34.698  24.607  24.518  1.00  0.00     0.047 C 
BRANCH   6   8
ATOM      8  C   UNL A   1      35.009  23.324  26.700  1.00  0.00     0.037 C 
ATOM      9  C   UNL A   1      34.036  22.626  27.641  1.00  0.00     0.007 C 
ENDBRANCH   6   8
BRANCH   6  10
ATOM     10  N   UNL A   1      33.335  22.560  25.030  1.00  0.00    -0.322 N 
ATOM     11  C   UNL A   1      32.969  21.870  23.906  1.00  0.00     0.318 C 
ATOM     12  H   UNL A   1      32.689  22.621  25.771  1.00  0.00     0.166 HD
ATOM     13  O   UNL A   1      33.051  22.380  22.792  1.00  0.00    -0.249 OA
ATOM     14  N   UNL A   1      32.495  20.601  24.105  1.00  0.00    -0.316 N 
ATOM     15  C   UNL A   1      32.401  19.699  22.955  1.00  0.00     0.157 C 
ATOM     16  C   UNL A   1      32.478  19.835  25.355  1.00  0.00     0.157 C 
ATOM     17  C   UNL A   1      32.914  18.404  23.516  1.00  0.00    -0.023 A 
ATOM     18  C   UNL A   1      32.960  18.482  24.916  1.00  0.00    -0.023 A 
ATOM     19  C   UNL A   1      33.394  17.296  22.839  1.00  0.00     0.006 A 
ATOM     20  C   UNL A   1      33.470  17.436  25.668  1.00  0.00     0.006 A 
ATOM     21  C   UNL A   1      33.939  16.251  23.587  1.00  0.00     0.000 A 
ATOM     22  C   UNL A   1      33.971  16.317  24.991  1.00  0.00     0.000 A 
ENDBRANCH   6  10
ENDBRANCH   4   6
ENDBRANCH   3   4
ENDBRANCH   2   3
ENDBRANCH   1   2
BRANCH   1  23
ATOM     23  O   UNL A   1      38.740  20.426  25.828  1.00  0.00    -0.458 OA
BRANCH  23  24
ATOM     24  C   UNL A   1      40.020  20.016  25.943  1.00  0.00     0.338 C 
ATOM     25  O   UNL A   1      40.488  18.906  25.742  1.00  0.00    -0.246 OA
BRANCH  24  26
ATOM     26  C   UNL A   1      40.817  21.116  26.468  1.00  0.00     0.060 A 
ATOM     27  C   UNL A   1      41.448  22.009  25.602  1.00  0.00     0.016 A 
ATOM     28  C   UNL A   1      40.916  21.247  27.850  1.00  0.00     0.016 A 
ATOM     29  C   UNL A   1      42.199  23.048  26.119  1.00  0.00     0.010 A 
ATOM     30  C   UNL A   1      41.568  22.354  28.367  1.00  0.00     0.010 A 
ATOM     31  C   UNL A   1      42.186  23.269  27.499  1.00  0.00    -0.014 A 
BRANCH  31  32
ATOM     32  C   UNL A   1      42.685  24.545  28.042  1.00  0.00     0.031 A 
ATOM     33  C   UNL A   1      41.721  25.612  28.432  1.00  0.00     0.074 A 
ATOM     34  C   UNL A   1      44.018  24.737  28.049  1.00  0.00     0.049 A 
ATOM     35  N   UNL A   1      41.949  26.870  28.686  1.00  0.00    -0.248 NA
ATOM     36  C   UNL A   1      40.304  25.220  28.507  1.00  0.00     0.031 C 
ATOM     37  C   UNL A   1      45.018  23.736  27.657  1.00  0.00     0.029 A 
ATOM     38  N   UNL A   1      44.763  25.838  28.367  1.00  0.00    -0.354 N 
ATOM     39  C   UNL A   1      40.701  27.438  28.900  1.00  0.00     0.074 A 
ATOM     40  C   UNL A   1      39.720  26.387  28.740  1.00  0.00     0.031 C 
ATOM     41  C   UNL A   1      46.243  24.264  27.771  1.00  0.00     0.029 A 
ATOM     42  C   UNL A   1      46.109  25.660  28.156  1.00  0.00     0.049 A 
ATOM     43  H   UNL A   1      44.375  26.674  28.713  1.00  0.00     0.167 HD
ATOM     44  C   UNL A   1      40.421  28.730  29.190  1.00  0.00     0.037 A 
ATOM     45  C   UNL A   1      47.119  26.545  28.211  1.00  0.00     0.037 A 
ATOM     46  C   UNL A   1      41.438  29.734  29.353  1.00  0.00     0.049 A 
ATOM     47  C   UNL A   1      46.784  27.961  28.557  1.00  0.00     0.074 A 
ATOM     48  C   UNL A   1      41.295  31.068  29.686  1.00  0.00     0.029 A 
ATOM     49  N   UNL A   1      42.802  29.505  29.189  1.00  0.00    -0.354 N 
ATOM     50  N   UNL A   1      45.605  28.494  28.773  1.00  0.00    -0.248 NA
ATOM     51  C   UNL A   1      47.904  28.901  28.661  1.00  0.00     0.031 C 
ATOM     52  C   UNL A   1      42.567  31.653  29.686  1.00  0.00     0.029 A 
ATOM     53  C   UNL A   1      43.509  30.675  29.399  1.00  0.00     0.049 A 
ATOM     54  H   UNL A   1      43.203  28.636  28.956  1.00  0.00     0.167 HD
ATOM     55  C   UNL A   1      45.835  29.831  29.050  1.00  0.00     0.074 A 
ATOM     56  C   UNL A   1      47.274  30.021  28.988  1.00  0.00     0.031 C 
ATOM     57  C   UNL A   1      44.943  30.814  29.327  1.00  0.00     0.037 A 
BRANCH  44  58
ATOM     58  C   UNL A   1      38.973  29.113  29.293  1.00  0.00     0.057 A 
ATOM     59  C   UNL A   1      38.261  29.036  30.498  1.00  0.00     0.134 A 
ATOM     60  C   UNL A   1      38.270  29.543  28.160  1.00  0.00     0.134 A 
ATOM     61  F   UNL A   1      38.867  28.616  31.620  1.00  0.00    -0.206 F 
ATOM     62  C   UNL A   1      36.897  29.331  30.564  1.00  0.00     0.040 A 
ATOM     63  C   UNL A   1      36.913  29.868  28.219  1.00  0.00     0.040 A 
ATOM     64  F   UNL A   1      38.887  29.643  26.973  1.00  0.00    -0.206 F 
ATOM     65  C   UNL A   1      36.220  29.753  29.421  1.00  0.00     0.006 A 
ENDBRANCH  44  58
BRANCH  45  66
ATOM     66  C   UNL A   1      48.500  26.094  27.910  1.00  0.00     0.057 A 
ATOM     67  C   UNL A   1      49.039  26.226  26.627  1.00  0.00     0.134 A 
ATOM     68  C   UNL A   1      49.344  25.606  28.918  1.00  0.00     0.134 A 
ATOM     69  F   UNL A   1      48.281  26.682  25.620  1.00  0.00    -0.206 F 
ATOM     70  C   UNL A   1      50.368  25.893  26.356  1.00  0.00     0.040 A 
ATOM     71  C   UNL A   1      50.681  25.293  28.666  1.00  0.00     0.040 A 
ATOM     72  F   UNL A   1      48.894  25.475  30.174  1.00  0.00    -0.206 F 
ATOM     73  C   UNL A   1      51.196  25.435  27.380  1.00  0.00     0.006 A 
ENDBRANCH  45  66
BRANCH  57  74
ATOM     74  C   UNL A   1      45.511  32.169  29.609  1.00  0.00     0.057 A 
ATOM     75  C   UNL A   1      45.924  32.540  30.893  1.00  0.00     0.134 A 
ATOM     76  C   UNL A   1      45.697  33.088  28.569  1.00  0.00     0.134 A 
ATOM     77  F   UNL A   1      45.754  31.707  31.931  1.00  0.00    -0.206 F 
ATOM     78  C   UNL A   1      46.496  33.788  31.136  1.00  0.00     0.040 A 
ATOM     79  C   UNL A   1      46.290  34.329  28.795  1.00  0.00     0.040 A 
ATOM     80  F   UNL A   1      45.323  32.784  27.316  1.00  0.00    -0.206 F 
ATOM     81  C   UNL A   1      46.690  34.682  30.083  1.00  0.00     0.006 A 
ENDBRANCH  57  74
ENDBRANCH  31  32
ENDBRANCH  24  26
ENDBRANCH  23  24
ENDBRANCH   1  23
TORSDOF 13
ENDMDL
