MODEL 1
REMARK VINA RESULT:     -11.8      0.000      0.000
REMARK SMILES CN1C(=O)/C(=N\Nc2cccc(C(=O)OCCOC(=O)c3ccc(-c4c5nc(c(-c6c(F)cccc6F)c6ccc([nH]6)c(-c6c(F)cccc6F)c6nc(c(-c7c(F)cccc7F)c7ccc4[nH]7)C=C6)C=C5)cc3)c2)c2ccccc21
REMARK SMILES IDX 16 1 15 2 13 3 14 4 12 5 8 6 9 7 75 8 10 9 11 10 7 11 6 13
REMARK SMILES IDX 1 14 2 15 3 16 81 17 4 18 5 19 76 20 80 21 77 22 79 23 78 24
REMARK SMILES IDX 17 25 18 26 19 27 20 28 21 29 22 30 74 31 23 32 73 33 24 34
REMARK SMILES IDX 25 35 26 36 67 37 27 38 72 39 66 40 68 41 28 42 71 43 65 44
REMARK SMILES IDX 64 45 29 47 55 48 38 49 54 50 39 51 42 52 53 53 69 54 40 55
REMARK SMILES IDX 41 56 52 58 70 59 43 60 30 61 31 62 36 63 32 64 33 65 35 66
REMARK SMILES IDX 37 67 34 68 56 69 57 70 62 71 58 72 59 73 61 74 63 75 60 76
REMARK SMILES IDX 44 77 45 78 50 79 46 80 47 81 49 82 51 83 48 84
REMARK H PARENT 7 12 68 46 42 57
REMARK Flexibility Score: inf
ROOT
ATOM      1  C   UNL A   1      33.596  36.025  28.769  1.00  0.00     0.275 C 
ENDROOT
BRANCH   1   2
ATOM      2  O   UNL A   1      33.813  34.641  29.114  1.00  0.00    -0.458 OA
BRANCH   2   3
ATOM      3  C   UNL A   1      33.279  33.737  28.257  1.00  0.00     0.338 C 
ATOM      4  O   UNL A   1      32.235  33.850  27.635  1.00  0.00    -0.246 OA
BRANCH   3   5
ATOM      5  C   UNL A   1      34.160  32.555  28.135  1.00  0.00     0.062 A 
ATOM      6  C   UNL A   1      34.506  30.342  27.225  1.00  0.00     0.057 A 
ATOM      7  C   UNL A   1      35.882  30.475  27.471  1.00  0.00     0.028 A 
ATOM      8  C   UNL A   1      33.638  31.348  27.668  1.00  0.00     0.043 A 
ATOM      9  C   UNL A   1      36.400  31.649  28.013  1.00  0.00     0.003 A 
ATOM     10  C   UNL A   1      35.543  32.709  28.288  1.00  0.00     0.016 A 
BRANCH   6  11
ATOM     11  N   UNL A   1      34.093  29.341  26.320  1.00  0.00    -0.278 N 
ATOM     12  H   UNL A   1      34.590  28.491  26.324  1.00  0.00     0.190 HD
BRANCH  11  13
ATOM     13  N   UNL A   1      33.063  29.460  25.448  1.00  0.00    -0.169 NA
ATOM     14  C   UNL A   1      30.400  25.385  26.133  1.00  0.00     0.153 C 
ATOM     15  N   UNL A   1      30.807  26.711  25.755  1.00  0.00    -0.309 N 
ATOM     16  C   UNL A   1      31.689  27.502  26.474  1.00  0.00     0.279 C 
ATOM     17  C   UNL A   1      30.337  27.404  24.631  1.00  0.00     0.053 A 
ATOM     18  O   UNL A   1      32.076  27.345  27.613  1.00  0.00    -0.267 OA
ATOM     19  C   UNL A   1      32.032  28.668  25.522  1.00  0.00     0.158 C 
ATOM     20  C   UNL A   1      30.992  28.628  24.496  1.00  0.00     0.031 A 
ATOM     21  C   UNL A   1      29.339  27.043  23.748  1.00  0.00     0.027 A 
ATOM     22  C   UNL A   1      30.686  29.540  23.506  1.00  0.00     0.013 A 
ATOM     23  C   UNL A   1      28.990  27.961  22.749  1.00  0.00     0.002 A 
ATOM     24  C   UNL A   1      29.652  29.200  22.634  1.00  0.00     0.001 A 
ENDBRANCH  11  13
ENDBRANCH   6  11
ENDBRANCH   3   5
ENDBRANCH   2   3
ENDBRANCH   1   2
BRANCH   1  25
ATOM     25  C   UNL A   1      33.005  36.777  29.959  1.00  0.00     0.275 C 
BRANCH  25  26
ATOM     26  O   UNL A   1      32.263  35.853  30.773  1.00  0.00    -0.458 OA
BRANCH  26  27
ATOM     27  C   UNL A   1      32.376  36.005  32.112  1.00  0.00     0.338 C 
ATOM     28  O   UNL A   1      31.675  36.690  32.839  1.00  0.00    -0.246 OA
BRANCH  27  29
ATOM     29  C   UNL A   1      33.521  35.207  32.598  1.00  0.00     0.060 A 
ATOM     30  C   UNL A   1      34.785  35.783  32.726  1.00  0.00     0.016 A 
ATOM     31  C   UNL A   1      33.353  33.849  32.869  1.00  0.00     0.016 A 
ATOM     32  C   UNL A   1      35.892  35.005  33.056  1.00  0.00     0.010 A 
ATOM     33  C   UNL A   1      34.447  33.087  33.293  1.00  0.00     0.010 A 
ATOM     34  C   UNL A   1      35.735  33.650  33.368  1.00  0.00    -0.014 A 
BRANCH  34  35
ATOM     35  C   UNL A   1      36.908  32.812  33.742  1.00  0.00     0.031 A 
ATOM     36  C   UNL A   1      37.591  33.026  35.066  1.00  0.00     0.074 A 
ATOM     37  C   UNL A   1      37.374  31.862  32.907  1.00  0.00     0.049 A 
ATOM     38  N   UNL A   1      38.752  32.584  35.480  1.00  0.00    -0.248 NA
ATOM     39  C   UNL A   1      36.880  33.860  36.046  1.00  0.00     0.031 C 
ATOM     40  C   UNL A   1      36.788  31.500  31.615  1.00  0.00     0.029 A 
ATOM     41  N   UNL A   1      38.456  31.024  33.026  1.00  0.00    -0.354 N 
ATOM     42  C   UNL A   1      38.940  33.142  36.738  1.00  0.00     0.074 A 
ATOM     43  C   UNL A   1      37.770  33.943  37.025  1.00  0.00     0.031 C 
ATOM     44  C   UNL A   1      37.495  30.494  31.077  1.00  0.00     0.029 A 
ATOM     45  C   UNL A   1      38.632  30.198  31.942  1.00  0.00     0.049 A 
ATOM     46  H   UNL A   1      39.048  31.015  33.812  1.00  0.00     0.167 HD
ATOM     47  C   UNL A   1      39.997  33.003  37.573  1.00  0.00     0.037 A 
ATOM     48  C   UNL A   1      39.623  29.334  31.648  1.00  0.00     0.037 A 
ATOM     49  C   UNL A   1      41.132  32.157  37.316  1.00  0.00     0.049 A 
ATOM     50  C   UNL A   1      40.787  29.200  32.584  1.00  0.00     0.074 A 
ATOM     51  C   UNL A   1      42.255  31.954  38.100  1.00  0.00     0.029 A 
ATOM     52  N   UNL A   1      41.275  31.352  36.197  1.00  0.00    -0.354 N 
ATOM     53  N   UNL A   1      41.003  29.807  33.725  1.00  0.00    -0.248 NA
ATOM     54  C   UNL A   1      41.862  28.283  32.177  1.00  0.00     0.031 C 
ATOM     55  C   UNL A   1      43.085  31.035  37.447  1.00  0.00     0.029 A 
ATOM     56  C   UNL A   1      42.466  30.650  36.269  1.00  0.00     0.049 A 
ATOM     57  H   UNL A   1      40.626  31.289  35.460  1.00  0.00     0.167 HD
ATOM     58  C   UNL A   1      42.239  29.355  34.167  1.00  0.00     0.074 A 
ATOM     59  C   UNL A   1      42.714  28.401  33.186  1.00  0.00     0.031 C 
ATOM     60  C   UNL A   1      42.925  29.711  35.280  1.00  0.00     0.037 A 
BRANCH  47  61
ATOM     61  C   UNL A   1      39.989  33.817  38.831  1.00  0.00     0.057 A 
ATOM     62  C   UNL A   1      39.337  33.385  39.991  1.00  0.00     0.134 A 
ATOM     63  C   UNL A   1      40.663  35.044  38.882  1.00  0.00     0.134 A 
ATOM     64  F   UNL A   1      38.659  32.228  39.999  1.00  0.00    -0.206 F 
ATOM     65  C   UNL A   1      39.341  34.155  41.156  1.00  0.00     0.040 A 
ATOM     66  C   UNL A   1      40.690  35.813  40.046  1.00  0.00     0.040 A 
ATOM     67  F   UNL A   1      41.308  35.512  37.803  1.00  0.00    -0.206 F 
ATOM     68  C   UNL A   1      40.024  35.371  41.187  1.00  0.00     0.006 A 
ENDBRANCH  47  61
BRANCH  48  69
ATOM     69  C   UNL A   1      39.576  28.566  30.380  1.00  0.00     0.057 A 
ATOM     70  C   UNL A   1      39.006  27.291  30.330  1.00  0.00     0.134 A 
ATOM     71  C   UNL A   1      40.083  29.098  29.188  1.00  0.00     0.134 A 
ATOM     72  F   UNL A   1      38.527  26.720  31.445  1.00  0.00    -0.206 F 
ATOM     73  C   UNL A   1      38.942  26.568  29.138  1.00  0.00     0.040 A 
ATOM     74  C   UNL A   1      40.007  28.396  27.986  1.00  0.00     0.040 A 
ATOM     75  F   UNL A   1      40.643  30.316  29.175  1.00  0.00    -0.206 F 
ATOM     76  C   UNL A   1      39.437  27.124  27.959  1.00  0.00     0.006 A 
ENDBRANCH  48  69
BRANCH  60  77
ATOM     77  C   UNL A   1      44.257  29.061  35.491  1.00  0.00     0.057 A 
ATOM     78  C   UNL A   1      44.376  27.856  36.193  1.00  0.00     0.134 A 
ATOM     79  C   UNL A   1      45.423  29.629  34.966  1.00  0.00     0.134 A 
ATOM     80  F   UNL A   1      43.294  27.272  36.731  1.00  0.00    -0.206 F 
ATOM     81  C   UNL A   1      45.616  27.243  36.377  1.00  0.00     0.040 A 
ATOM     82  C   UNL A   1      46.666  29.017  35.132  1.00  0.00     0.040 A 
ATOM     83  F   UNL A   1      45.371  30.782  34.282  1.00  0.00    -0.206 F 
ATOM     84  C   UNL A   1      46.765  27.822  35.841  1.00  0.00     0.006 A 
ENDBRANCH  60  77
ENDBRANCH  34  35
ENDBRANCH  27  29
ENDBRANCH  26  27
ENDBRANCH  25  26
ENDBRANCH   1  25
TORSDOF 13
ENDMDL
MODEL 2
REMARK VINA RESULT:     -11.7      7.800     13.038
REMARK SMILES CN1C(=O)/C(=N\Nc2cccc(C(=O)OCCOC(=O)c3ccc(-c4c5nc(c(-c6c(F)cccc6F)c6ccc([nH]6)c(-c6c(F)cccc6F)c6nc(c(-c7c(F)cccc7F)c7ccc4[nH]7)C=C6)C=C5)cc3)c2)c2ccccc21
REMARK SMILES IDX 16 1 15 2 13 3 14 4 12 5 8 6 9 7 75 8 10 9 11 10 7 11 6 13
REMARK SMILES IDX 1 14 2 15 3 16 81 17 4 18 5 19 76 20 80 21 77 22 79 23 78 24
REMARK SMILES IDX 17 25 18 26 19 27 20 28 21 29 22 30 74 31 23 32 73 33 24 34
REMARK SMILES IDX 25 35 26 36 67 37 27 38 72 39 66 40 68 41 28 42 71 43 65 44
REMARK SMILES IDX 64 45 29 47 55 48 38 49 54 50 39 51 42 52 53 53 69 54 40 55
REMARK SMILES IDX 41 56 52 58 70 59 43 60 30 61 31 62 36 63 32 64 33 65 35 66
REMARK SMILES IDX 37 67 34 68 56 69 57 70 62 71 58 72 59 73 61 74 63 75 60 76
REMARK SMILES IDX 44 77 45 78 50 79 46 80 47 81 49 82 51 83 48 84
REMARK H PARENT 7 12 68 46 42 57
REMARK Flexibility Score: inf
ROOT
ATOM      1  C   UNL A   1      41.987  18.812  26.125  1.00  0.00     0.275 C 
ENDROOT
BRANCH   1   2
ATOM      2  O   UNL A   1      41.752  20.234  26.155  1.00  0.00    -0.458 OA
BRANCH   2   3
ATOM      3  C   UNL A   1      41.027  20.683  27.208  1.00  0.00     0.338 C 
ATOM      4  O   UNL A   1      41.052  20.248  28.349  1.00  0.00    -0.246 OA
BRANCH   3   5
ATOM      5  C   UNL A   1      40.184  21.830  26.806  1.00  0.00     0.062 A 
ATOM      6  C   UNL A   1      38.153  22.610  25.752  1.00  0.00     0.057 A 
ATOM      7  C   UNL A   1      38.319  23.850  26.391  1.00  0.00     0.028 A 
ATOM      8  C   UNL A   1      39.157  21.642  25.880  1.00  0.00     0.043 A 
ATOM      9  C   UNL A   1      39.389  24.070  27.255  1.00  0.00     0.003 A 
ATOM     10  C   UNL A   1      40.285  23.037  27.506  1.00  0.00     0.016 A 
BRANCH   6  11
ATOM     11  N   UNL A   1      36.876  22.301  25.238  1.00  0.00    -0.278 N 
ATOM     12  H   UNL A   1      36.275  23.053  25.031  1.00  0.00     0.190 HD
BRANCH  11  13
ATOM     13  N   UNL A   1      36.415  21.049  25.005  1.00  0.00    -0.169 NA
ATOM     14  C   UNL A   1      31.529  21.453  25.377  1.00  0.00     0.153 C 
ATOM     15  N   UNL A   1      32.847  20.973  25.058  1.00  0.00    -0.309 N 
ATOM     16  C   UNL A   1      33.930  21.782  24.753  1.00  0.00     0.279 C 
ATOM     17  C   UNL A   1      33.207  19.621  24.969  1.00  0.00     0.053 A 
ATOM     18  O   UNL A   1      33.927  22.961  24.471  1.00  0.00    -0.267 OA
ATOM     19  C   UNL A   1      35.148  20.833  24.795  1.00  0.00     0.158 C 
ATOM     20  C   UNL A   1      34.575  19.491  24.730  1.00  0.00     0.031 A 
ATOM     21  C   UNL A   1      32.399  18.504  25.040  1.00  0.00     0.027 A 
ATOM     22  C   UNL A   1      35.192  18.270  24.543  1.00  0.00     0.013 A 
ATOM     23  C   UNL A   1      32.994  17.255  24.828  1.00  0.00     0.002 A 
ATOM     24  C   UNL A   1      34.376  17.140  24.574  1.00  0.00     0.001 A 
ENDBRANCH  11  13
ENDBRANCH   6  11
ENDBRANCH   3   5
ENDBRANCH   2   3
ENDBRANCH   1   2
BRANCH   1  25
ATOM     25  C   UNL A   1      43.411  18.523  25.655  1.00  0.00     0.275 C 
BRANCH  25  26
ATOM     26  O   UNL A   1      43.634  19.194  24.404  1.00  0.00    -0.458 OA
BRANCH  26  27
ATOM     27  C   UNL A   1      44.913  19.532  24.120  1.00  0.00     0.338 C 
ATOM     28  O   UNL A   1      45.777  18.817  23.642  1.00  0.00    -0.246 OA
BRANCH  27  29
ATOM     29  C   UNL A   1      45.138  20.944  24.497  1.00  0.00     0.060 A 
ATOM     30  C   UNL A   1      45.653  21.271  25.751  1.00  0.00     0.016 A 
ATOM     31  C   UNL A   1      44.771  21.962  23.617  1.00  0.00     0.016 A 
ATOM     32  C   UNL A   1      45.743  22.599  26.160  1.00  0.00     0.010 A 
ATOM     33  C   UNL A   1      44.951  23.298  23.990  1.00  0.00     0.010 A 
ATOM     34  C   UNL A   1      45.416  23.634  25.276  1.00  0.00    -0.014 A 
BRANCH  34  35
ATOM     35  C   UNL A   1      45.527  25.059  25.694  1.00  0.00     0.031 A 
ATOM     36  C   UNL A   1      46.845  25.775  25.574  1.00  0.00     0.074 A 
ATOM     37  C   UNL A   1      44.460  25.721  26.185  1.00  0.00     0.049 A 
ATOM     38  N   UNL A   1      47.217  26.917  26.095  1.00  0.00    -0.248 NA
ATOM     39  C   UNL A   1      47.885  25.109  24.776  1.00  0.00     0.031 C 
ATOM     40  C   UNL A   1      43.105  25.181  26.312  1.00  0.00     0.029 A 
ATOM     41  N   UNL A   1      44.353  27.001  26.671  1.00  0.00    -0.354 N 
ATOM     42  C   UNL A   1      48.553  27.072  25.745  1.00  0.00     0.074 A 
ATOM     43  C   UNL A   1      48.922  25.915  24.959  1.00  0.00     0.031 C 
ATOM     44  C   UNL A   1      42.298  26.131  26.809  1.00  0.00     0.029 A 
ATOM     45  C   UNL A   1      43.091  27.316  27.116  1.00  0.00     0.049 A 
ATOM     46  H   UNL A   1      45.107  27.634  26.698  1.00  0.00     0.167 HD
ATOM     47  C   UNL A   1      49.395  28.085  26.060  1.00  0.00     0.037 A 
ATOM     48  C   UNL A   1      42.631  28.413  27.747  1.00  0.00     0.037 A 
ATOM     49  C   UNL A   1      49.013  29.265  26.788  1.00  0.00     0.049 A 
ATOM     50  C   UNL A   1      43.582  29.521  28.091  1.00  0.00     0.074 A 
ATOM     51  C   UNL A   1      49.796  30.345  27.159  1.00  0.00     0.029 A 
ATOM     52  N   UNL A   1      47.727  29.532  27.234  1.00  0.00    -0.354 N 
ATOM     53  N   UNL A   1      44.865  29.613  27.843  1.00  0.00    -0.248 NA
ATOM     54  C   UNL A   1      43.027  30.664  28.830  1.00  0.00     0.031 C 
ATOM     55  C   UNL A   1      48.987  31.260  27.843  1.00  0.00     0.029 A 
ATOM     56  C   UNL A   1      47.695  30.759  27.875  1.00  0.00     0.049 A 
ATOM     57  H   UNL A   1      46.952  28.937  27.112  1.00  0.00     0.167 HD
ATOM     58  C   UNL A   1      45.274  30.816  28.403  1.00  0.00     0.074 A 
ATOM     59  C   UNL A   1      44.097  31.433  28.979  1.00  0.00     0.031 C 
ATOM     60  C   UNL A   1      46.516  31.353  28.448  1.00  0.00     0.037 A 
BRANCH  47  61
ATOM     61  C   UNL A   1      50.827  27.940  25.647  1.00  0.00     0.057 A 
ATOM     62  C   UNL A   1      51.823  27.538  26.544  1.00  0.00     0.134 A 
ATOM     63  C   UNL A   1      51.209  28.190  24.322  1.00  0.00     0.134 A 
ATOM     64  F   UNL A   1      51.524  27.301  27.829  1.00  0.00    -0.206 F 
ATOM     65  C   UNL A   1      53.154  27.406  26.142  1.00  0.00     0.040 A 
ATOM     66  C   UNL A   1      52.532  28.043  23.904  1.00  0.00     0.040 A 
ATOM     67  F   UNL A   1      50.301  28.578  23.413  1.00  0.00    -0.206 F 
ATOM     68  C   UNL A   1      53.510  27.655  24.817  1.00  0.00     0.006 A 
ENDBRANCH  47  61
BRANCH  48  69
ATOM     69  C   UNL A   1      41.202  28.489  28.139  1.00  0.00     0.057 A 
ATOM     70  C   UNL A   1      40.785  28.114  29.419  1.00  0.00     0.134 A 
ATOM     71  C   UNL A   1      40.227  28.955  27.249  1.00  0.00     0.134 A 
ATOM     72  F   UNL A   1      41.671  27.636  30.306  1.00  0.00    -0.206 F 
ATOM     73  C   UNL A   1      39.446  28.198  29.803  1.00  0.00     0.040 A 
ATOM     74  C   UNL A   1      38.889  29.065  27.626  1.00  0.00     0.040 A 
ATOM     75  F   UNL A   1      40.567  29.328  26.007  1.00  0.00    -0.206 F 
ATOM     76  C   UNL A   1      38.494  28.683  28.907  1.00  0.00     0.006 A 
ENDBRANCH  48  69
BRANCH  60  77
ATOM     77  C   UNL A   1      46.659  32.673  29.140  1.00  0.00     0.057 A 
ATOM     78  C   UNL A   1      46.484  33.879  28.452  1.00  0.00     0.134 A 
ATOM     79  C   UNL A   1      46.946  32.737  30.508  1.00  0.00     0.134 A 
ATOM     80  F   UNL A   1      46.220  33.879  27.136  1.00  0.00    -0.206 F 
ATOM     81  C   UNL A   1      46.602  35.109  29.100  1.00  0.00     0.040 A 
ATOM     82  C   UNL A   1      47.052  33.962  31.170  1.00  0.00     0.040 A 
ATOM     83  F   UNL A   1      47.123  31.615  31.221  1.00  0.00    -0.206 F 
ATOM     84  C   UNL A   1      46.883  35.151  30.464  1.00  0.00     0.006 A 
ENDBRANCH  60  77
ENDBRANCH  34  35
ENDBRANCH  27  29
ENDBRANCH  26  27
ENDBRANCH  25  26
ENDBRANCH   1  25
TORSDOF 13
ENDMDL
MODEL 3
REMARK VINA RESULT:     -11.7      4.904      7.359
REMARK SMILES CN1C(=O)/C(=N\Nc2cccc(C(=O)OCCOC(=O)c3ccc(-c4c5nc(c(-c6c(F)cccc6F)c6ccc([nH]6)c(-c6c(F)cccc6F)c6nc(c(-c7c(F)cccc7F)c7ccc4[nH]7)C=C6)C=C5)cc3)c2)c2ccccc21
REMARK SMILES IDX 16 1 15 2 13 3 14 4 12 5 8 6 9 7 75 8 10 9 11 10 7 11 6 13
REMARK SMILES IDX 1 14 2 15 3 16 81 17 4 18 5 19 76 20 80 21 77 22 79 23 78 24
REMARK SMILES IDX 17 25 18 26 19 27 20 28 21 29 22 30 74 31 23 32 73 33 24 34
REMARK SMILES IDX 25 35 26 36 67 37 27 38 72 39 66 40 68 41 28 42 71 43 65 44
REMARK SMILES IDX 64 45 29 47 55 48 38 49 54 50 39 51 42 52 53 53 69 54 40 55
REMARK SMILES IDX 41 56 52 58 70 59 43 60 30 61 31 62 36 63 32 64 33 65 35 66
REMARK SMILES IDX 37 67 34 68 56 69 57 70 62 71 58 72 59 73 61 74 63 75 60 76
REMARK SMILES IDX 44 77 45 78 50 79 46 80 47 81 49 82 51 83 48 84
REMARK H PARENT 7 12 68 46 42 57
REMARK Flexibility Score: inf
ROOT
ATOM      1  C   UNL A   1      34.247  34.510  29.778  1.00  0.00     0.275 C 
ENDROOT
BRANCH   1   2
ATOM      2  O   UNL A   1      33.729  33.477  28.915  1.00  0.00    -0.458 OA
BRANCH   2   3
ATOM      3  C   UNL A   1      34.608  32.978  28.011  1.00  0.00     0.338 C 
ATOM      4  O   UNL A   1      35.500  33.591  27.446  1.00  0.00    -0.246 OA
BRANCH   3   5
ATOM      5  C   UNL A   1      34.369  31.534  27.799  1.00  0.00     0.062 A 
ATOM      6  C   UNL A   1      32.993  29.807  26.814  1.00  0.00     0.057 A 
ATOM      7  C   UNL A   1      34.054  28.899  26.967  1.00  0.00     0.028 A 
ATOM      8  C   UNL A   1      33.125  31.098  27.340  1.00  0.00     0.043 A 
ATOM      9  C   UNL A   1      35.273  29.310  27.500  1.00  0.00     0.003 A 
ATOM     10  C   UNL A   1      35.446  30.642  27.859  1.00  0.00     0.016 A 
BRANCH   6  11
ATOM     11  N   UNL A   1      31.960  29.466  25.916  1.00  0.00    -0.278 N 
ATOM     12  H   UNL A   1      31.053  29.790  26.121  1.00  0.00     0.190 HD
BRANCH  11  13
ATOM     13  N   UNL A   1      32.121  28.729  24.791  1.00  0.00    -0.169 NA
ATOM     14  C   UNL A   1      31.850  24.068  26.332  1.00  0.00     0.153 C 
ATOM     15  N   UNL A   1      31.844  25.242  25.501  1.00  0.00    -0.309 N 
ATOM     16  C   UNL A   1      31.391  26.490  25.900  1.00  0.00     0.279 C 
ATOM     17  C   UNL A   1      32.254  25.277  24.161  1.00  0.00     0.053 A 
ATOM     18  O   UNL A   1      30.728  26.768  26.876  1.00  0.00    -0.267 OA
ATOM     19  C   UNL A   1      31.872  27.451  24.791  1.00  0.00     0.158 C 
ATOM     20  C   UNL A   1      32.210  26.580  23.667  1.00  0.00     0.031 A 
ATOM     21  C   UNL A   1      32.619  24.228  23.341  1.00  0.00     0.027 A 
ATOM     22  C   UNL A   1      32.509  26.898  22.357  1.00  0.00     0.013 A 
ATOM     23  C   UNL A   1      32.903  24.518  22.001  1.00  0.00     0.002 A 
ATOM     24  C   UNL A   1      32.841  25.838  21.512  1.00  0.00     0.001 A 
ENDBRANCH  11  13
ENDBRANCH   6  11
ENDBRANCH   3   5
ENDBRANCH   2   3
ENDBRANCH   1   2
BRANCH   1  25
ATOM     25  C   UNL A   1      34.319  34.006  31.218  1.00  0.00     0.275 C 
BRANCH  25  26
ATOM     26  O   UNL A   1      34.767  32.640  31.212  1.00  0.00    -0.458 OA
BRANCH  26  27
ATOM     27  C   UNL A   1      35.629  32.285  32.192  1.00  0.00     0.338 C 
ATOM     28  O   UNL A   1      35.495  32.461  33.392  1.00  0.00    -0.246 OA
BRANCH  27  29
ATOM     29  C   UNL A   1      36.813  31.638  31.589  1.00  0.00     0.060 A 
ATOM     30  C   UNL A   1      37.527  30.667  32.292  1.00  0.00     0.016 A 
ATOM     31  C   UNL A   1      37.261  32.047  30.333  1.00  0.00     0.016 A 
ATOM     32  C   UNL A   1      38.717  30.151  31.784  1.00  0.00     0.010 A 
ATOM     33  C   UNL A   1      38.404  31.459  29.781  1.00  0.00     0.010 A 
ATOM     34  C   UNL A   1      39.160  30.522  30.509  1.00  0.00    -0.014 A 
BRANCH  34  35
ATOM     35  C   UNL A   1      40.420  29.962  29.946  1.00  0.00     0.031 A 
ATOM     36  C   UNL A   1      41.646  30.828  29.846  1.00  0.00     0.074 A 
ATOM     37  C   UNL A   1      40.479  28.685  29.517  1.00  0.00     0.049 A 
ATOM     38  N   UNL A   1      42.754  30.622  29.179  1.00  0.00    -0.248 NA
ATOM     39  C   UNL A   1      41.614  32.101  30.582  1.00  0.00     0.031 C 
ATOM     40  C   UNL A   1      39.393  27.707  29.597  1.00  0.00     0.029 A 
ATOM     41  N   UNL A   1      41.506  27.991  28.926  1.00  0.00    -0.354 N 
ATOM     42  C   UNL A   1      43.520  31.767  29.359  1.00  0.00     0.074 A 
ATOM     43  C   UNL A   1      42.757  32.658  30.206  1.00  0.00     0.031 C 
ATOM     44  C   UNL A   1      39.819  26.533  29.106  1.00  0.00     0.029 A 
ATOM     45  C   UNL A   1      41.177  26.697  28.598  1.00  0.00     0.049 A 
ATOM     46  H   UNL A   1      42.393  28.381  28.753  1.00  0.00     0.167 HD
ATOM     47  C   UNL A   1      44.744  32.050  28.855  1.00  0.00     0.037 A 
ATOM     48  C   UNL A   1      41.868  25.760  27.921  1.00  0.00     0.037 A 
ATOM     49  C   UNL A   1      45.530  31.140  28.064  1.00  0.00     0.049 A 
ATOM     50  C   UNL A   1      43.220  26.096  27.366  1.00  0.00     0.074 A 
ATOM     51  C   UNL A   1      46.781  31.338  27.505  1.00  0.00     0.029 A 
ATOM     52  N   UNL A   1      45.148  29.846  27.744  1.00  0.00    -0.354 N 
ATOM     53  N   UNL A   1      43.894  27.217  27.457  1.00  0.00    -0.248 NA
ATOM     54  C   UNL A   1      43.896  25.048  26.588  1.00  0.00     0.031 C 
ATOM     55  C   UNL A   1      47.150  30.167  26.833  1.00  0.00     0.029 A 
ATOM     56  C   UNL A   1      46.139  29.233  26.995  1.00  0.00     0.049 A 
ATOM     57  H   UNL A   1      44.299  29.426  28.009  1.00  0.00     0.167 HD
ATOM     58  C   UNL A   1      45.066  27.014  26.742  1.00  0.00     0.074 A 
ATOM     59  C   UNL A   1      45.026  25.653  26.246  1.00  0.00     0.031 C 
ATOM     60  C   UNL A   1      46.078  27.882  26.505  1.00  0.00     0.037 A 
BRANCH  47  61
ATOM     61  C   UNL A   1      45.294  33.419  29.115  1.00  0.00     0.057 A 
ATOM     62  C   UNL A   1      46.114  33.694  30.216  1.00  0.00     0.134 A 
ATOM     63  C   UNL A   1      45.010  34.473  28.237  1.00  0.00     0.134 A 
ATOM     64  F   UNL A   1      46.406  32.731  31.102  1.00  0.00    -0.206 F 
ATOM     65  C   UNL A   1      46.619  34.976  30.443  1.00  0.00     0.040 A 
ATOM     66  C   UNL A   1      45.525  35.753  28.443  1.00  0.00     0.040 A 
ATOM     67  F   UNL A   1      44.231  34.273  27.163  1.00  0.00    -0.206 F 
ATOM     68  C   UNL A   1      46.329  36.008  29.552  1.00  0.00     0.006 A 
ENDBRANCH  47  61
BRANCH  48  69
ATOM     69  C   UNL A   1      41.262  24.427  27.687  1.00  0.00     0.057 A 
ATOM     70  C   UNL A   1      40.249  24.251  26.740  1.00  0.00     0.134 A 
ATOM     71  C   UNL A   1      41.693  23.297  28.394  1.00  0.00     0.134 A 
ATOM     72  F   UNL A   1      39.778  25.301  26.051  1.00  0.00    -0.206 F 
ATOM     73  C   UNL A   1      39.685  22.997  26.501  1.00  0.00     0.040 A 
ATOM     74  C   UNL A   1      41.154  22.035  28.150  1.00  0.00     0.040 A 
ATOM     75  F   UNL A   1      42.660  23.405  29.316  1.00  0.00    -0.206 F 
ATOM     76  C   UNL A   1      40.143  21.882  27.203  1.00  0.00     0.006 A 
ENDBRANCH  48  69
BRANCH  60  77
ATOM     77  C   UNL A   1      47.221  27.382  25.677  1.00  0.00     0.057 A 
ATOM     78  C   UNL A   1      48.296  26.700  26.258  1.00  0.00     0.134 A 
ATOM     79  C   UNL A   1      47.232  27.558  24.289  1.00  0.00     0.134 A 
ATOM     80  F   UNL A   1      48.346  26.512  27.586  1.00  0.00    -0.206 F 
ATOM     81  C   UNL A   1      49.354  26.220  25.484  1.00  0.00     0.040 A 
ATOM     82  C   UNL A   1      48.278  27.070  23.504  1.00  0.00     0.040 A 
ATOM     83  F   UNL A   1      46.227  28.202  23.676  1.00  0.00    -0.206 F 
ATOM     84  C   UNL A   1      49.343  26.401  24.103  1.00  0.00     0.006 A 
ENDBRANCH  60  77
ENDBRANCH  34  35
ENDBRANCH  27  29
ENDBRANCH  26  27
ENDBRANCH  25  26
ENDBRANCH   1  25
TORSDOF 13
ENDMDL
