MODEL 1
REMARK VINA RESULT:      -8.1      0.000      0.000
REMARK SMILES CCCC[C@H](C(=O)OC)[C@H](O)C(=O)OCCOC(=O)c1ccc(-c2c3nc(c(-c4c(F)cccc4F)c4ccc([nH]4)c(-c4c(F)cccc4F)c4nc(c(-c5c(F)cccc5F)c5ccc2[nH]5)C=C4)C=C3)cc1
REMARK SMILES IDX 15 1 14 2 12 3 13 4 10 5 5 6 4 7 3 8 2 9 1 10 6 11 7 12 8 13
REMARK SMILES IDX 9 14 11 15 16 17 17 18 18 19 19 20 20 21 21 22 73 23 22 24
REMARK SMILES IDX 72 25 23 26 24 27 25 28 66 29 26 30 71 31 65 32 67 33 27 34
REMARK SMILES IDX 70 35 64 36 63 37 28 39 54 40 37 41 53 42 38 43 41 44 52 45
REMARK SMILES IDX 68 46 39 47 40 48 51 50 69 51 42 52 29 53 30 54 35 55 31 56
REMARK SMILES IDX 32 57 34 58 36 59 33 60 55 61 56 62 61 63 57 64 58 65 60 66
REMARK SMILES IDX 62 67 59 68 43 69 44 70 49 71 45 72 46 73 48 74 50 75 47 76
REMARK H PARENT 11 16 67 38 41 49
REMARK Flexibility Score: inf
ROOT
ATOM      1  C   UNL A   1      42.383  19.890  26.610  1.00  0.00     0.274 C 
ENDROOT
BRANCH   1   2
ATOM      2  O   UNL A   1      42.837  20.202  25.282  1.00  0.00    -0.460 OA
BRANCH   2   3
ATOM      3  C   UNL A   1      44.152  20.533  25.157  1.00  0.00     0.335 C 
ATOM      4  O   UNL A   1      45.081  19.734  25.186  1.00  0.00    -0.249 OA
BRANCH   3   5
ATOM      5  C   UNL A   1      44.335  22.041  24.901  1.00  0.00     0.238 C 
BRANCH   5   6
ATOM      6  C   UNL A   1      45.035  22.797  26.042  1.00  0.00     0.139 C 
BRANCH   6   7
ATOM      7  C   UNL A   1      44.023  23.333  27.082  1.00  0.00     0.019 C 
BRANCH   7   8
ATOM      8  C   UNL A   1      44.628  23.782  28.419  1.00  0.00     0.001 C 
BRANCH   8   9
ATOM      9  C   UNL A   1      43.627  24.044  29.545  1.00  0.00    -0.003 C 
ATOM     10  C   UNL A   1      43.890  23.230  30.804  1.00  0.00     0.004 C 
ENDBRANCH   8   9
ENDBRANCH   7   8
ENDBRANCH   6   7
BRANCH   6  11
ATOM     11  C   UNL A   1      45.881  23.949  25.527  1.00  0.00     0.311 C 
ATOM     12  O   UNL A   1      45.534  24.754  24.674  1.00  0.00    -0.252 OA
BRANCH  11  13
ATOM     13  O   UNL A   1      47.100  23.932  26.136  1.00  0.00    -0.469 OA
ATOM     14  C   UNL A   1      47.691  25.222  26.295  1.00  0.00     0.282 C 
ENDBRANCH  11  13
ENDBRANCH   6  11
ENDBRANCH   5   6
BRANCH   5  15
ATOM     15  O   UNL A   1      43.118  22.714  24.566  1.00  0.00    -0.381 OA
ATOM     16  H   UNL A   1      42.985  22.683  23.606  1.00  0.00     0.211 HD
ENDBRANCH   5  15
ENDBRANCH   3   5
ENDBRANCH   2   3
ENDBRANCH   1   2
BRANCH   1  17
ATOM     17  C   UNL A   1      41.195  20.771  27.014  1.00  0.00     0.275 C 
BRANCH  17  18
ATOM     18  O   UNL A   1      41.009  21.891  26.125  1.00  0.00    -0.458 OA
BRANCH  18  19
ATOM     19  C   UNL A   1      39.830  22.547  26.248  1.00  0.00     0.338 C 
ATOM     20  O   UNL A   1      38.713  22.088  26.062  1.00  0.00    -0.246 OA
BRANCH  19  21
ATOM     21  C   UNL A   1      40.054  23.893  26.809  1.00  0.00     0.060 A 
ATOM     22  C   UNL A   1      40.261  24.945  25.912  1.00  0.00     0.016 A 
ATOM     23  C   UNL A   1      40.123  24.121  28.185  1.00  0.00     0.016 A 
ATOM     24  C   UNL A   1      40.553  26.221  26.376  1.00  0.00     0.010 A 
ATOM     25  C   UNL A   1      40.417  25.406  28.654  1.00  0.00     0.010 A 
ATOM     26  C   UNL A   1      40.648  26.459  27.750  1.00  0.00    -0.014 A 
BRANCH  26  27
ATOM     27  C   UNL A   1      41.054  27.802  28.224  1.00  0.00     0.031 A 
ATOM     28  C   UNL A   1      42.505  28.184  28.221  1.00  0.00     0.074 A 
ATOM     29  C   UNL A   1      40.120  28.687  28.614  1.00  0.00     0.049 A 
ATOM     30  N   UNL A   1      43.072  29.284  28.646  1.00  0.00    -0.248 NA
ATOM     31  C   UNL A   1      43.443  27.198  27.664  1.00  0.00     0.031 C 
ATOM     32  C   UNL A   1      38.676  28.448  28.610  1.00  0.00     0.029 A 
ATOM     33  N   UNL A   1      40.247  29.968  29.087  1.00  0.00    -0.354 N 
ATOM     34  C   UNL A   1      44.433  29.114  28.428  1.00  0.00     0.074 A 
ATOM     35  C   UNL A   1      44.609  27.800  27.846  1.00  0.00     0.031 C 
ATOM     36  C   UNL A   1      38.050  29.547  29.061  1.00  0.00     0.029 A 
ATOM     37  C   UNL A   1      39.049  30.548  29.425  1.00  0.00     0.049 A 
ATOM     38  H   UNL A   1      41.113  30.428  29.175  1.00  0.00     0.167 HD
ATOM     39  C   UNL A   1      45.442  29.979  28.688  1.00  0.00     0.037 A 
ATOM     40  C   UNL A   1      38.791  31.741  29.993  1.00  0.00     0.037 A 
ATOM     41  C   UNL A   1      45.259  31.291  29.249  1.00  0.00     0.049 A 
ATOM     42  C   UNL A   1      39.932  32.661  30.321  1.00  0.00     0.074 A 
ATOM     43  C   UNL A   1      46.216  32.250  29.534  1.00  0.00     0.029 A 
ATOM     44  N   UNL A   1      44.033  31.832  29.611  1.00  0.00    -0.354 N 
ATOM     45  N   UNL A   1      41.217  32.490  30.117  1.00  0.00    -0.248 NA
ATOM     46  C   UNL A   1      39.592  33.938  30.964  1.00  0.00     0.031 C 
ATOM     47  C   UNL A   1      45.574  33.353  30.107  1.00  0.00     0.029 A 
ATOM     48  C   UNL A   1      44.213  33.101  30.137  1.00  0.00     0.049 A 
ATOM     49  H   UNL A   1      43.164  31.379  29.508  1.00  0.00     0.167 HD
ATOM     50  C   UNL A   1      41.834  33.643  30.587  1.00  0.00     0.074 A 
ATOM     51  C   UNL A   1      40.782  34.511  31.073  1.00  0.00     0.031 C 
ATOM     52  C   UNL A   1      43.154  33.952  30.615  1.00  0.00     0.037 A 
BRANCH  39  53
ATOM     53  C   UNL A   1      46.839  29.517  28.399  1.00  0.00     0.057 A 
ATOM     54  C   UNL A   1      47.466  29.770  27.173  1.00  0.00     0.134 A 
ATOM     55  C   UNL A   1      47.577  28.837  29.375  1.00  0.00     0.134 A 
ATOM     56  F   UNL A   1      46.809  30.403  26.189  1.00  0.00    -0.206 F 
ATOM     57  C   UNL A   1      48.772  29.344  26.921  1.00  0.00     0.040 A 
ATOM     58  C   UNL A   1      48.891  28.426  29.143  1.00  0.00     0.040 A 
ATOM     59  F   UNL A   1      47.036  28.566  30.573  1.00  0.00    -0.206 F 
ATOM     60  C   UNL A   1      49.490  28.676  27.911  1.00  0.00     0.006 A 
ENDBRANCH  39  53
BRANCH  40  61
ATOM     61  C   UNL A   1      37.392  32.121  30.309  1.00  0.00     0.057 A 
ATOM     62  C   UNL A   1      36.623  32.874  29.416  1.00  0.00     0.134 A 
ATOM     63  C   UNL A   1      36.792  31.742  31.517  1.00  0.00     0.134 A 
ATOM     64  F   UNL A   1      37.150  33.288  28.255  1.00  0.00    -0.206 F 
ATOM     65  C   UNL A   1      35.311  33.246  29.716  1.00  0.00     0.040 A 
ATOM     66  C   UNL A   1      35.474  32.085  31.819  1.00  0.00     0.040 A 
ATOM     67  F   UNL A   1      37.478  31.019  32.415  1.00  0.00    -0.206 F 
ATOM     68  C   UNL A   1      34.731  32.845  30.919  1.00  0.00     0.006 A 
ENDBRANCH  40  61
BRANCH  52  69
ATOM     69  C   UNL A   1      43.530  35.296  31.163  1.00  0.00     0.057 A 
ATOM     70  C   UNL A   1      43.630  36.426  30.342  1.00  0.00     0.134 A 
ATOM     71  C   UNL A   1      43.757  35.469  32.535  1.00  0.00     0.134 A 
ATOM     72  F   UNL A   1      43.437  36.323  29.018  1.00  0.00    -0.206 F 
ATOM     73  C   UNL A   1      43.962  37.677  30.863  1.00  0.00     0.040 A 
ATOM     74  C   UNL A   1      44.066  36.719  33.070  1.00  0.00     0.040 A 
ATOM     75  F   UNL A   1      43.668  34.428  33.376  1.00  0.00    -0.206 F 
ATOM     76  C   UNL A   1      44.175  37.827  32.232  1.00  0.00     0.006 A 
ENDBRANCH  52  69
ENDBRANCH  26  27
ENDBRANCH  19  21
ENDBRANCH  18  19
ENDBRANCH  17  18
ENDBRANCH   1  17
TORSDOF 18
ENDMDL
MODEL 2
REMARK VINA RESULT:      -8.0      4.212      9.278
REMARK SMILES CCCC[C@H](C(=O)OC)[C@H](O)C(=O)OCCOC(=O)c1ccc(-c2c3nc(c(-c4c(F)cccc4F)c4ccc([nH]4)c(-c4c(F)cccc4F)c4nc(c(-c5c(F)cccc5F)c5ccc2[nH]5)C=C4)C=C3)cc1
REMARK SMILES IDX 15 1 14 2 12 3 13 4 10 5 5 6 4 7 3 8 2 9 1 10 6 11 7 12 8 13
REMARK SMILES IDX 9 14 11 15 16 17 17 18 18 19 19 20 20 21 21 22 73 23 22 24
REMARK SMILES IDX 72 25 23 26 24 27 25 28 66 29 26 30 71 31 65 32 67 33 27 34
REMARK SMILES IDX 70 35 64 36 63 37 28 39 54 40 37 41 53 42 38 43 41 44 52 45
REMARK SMILES IDX 68 46 39 47 40 48 51 50 69 51 42 52 29 53 30 54 35 55 31 56
REMARK SMILES IDX 32 57 34 58 36 59 33 60 55 61 56 62 61 63 57 64 58 65 60 66
REMARK SMILES IDX 62 67 59 68 43 69 44 70 49 71 45 72 46 73 48 74 50 75 47 76
REMARK H PARENT 11 16 67 38 41 49
REMARK Flexibility Score: inf
ROOT
ATOM      1  C   UNL A   1      39.091  22.455  26.346  1.00  0.00     0.274 C 
ENDROOT
BRANCH   1   2
ATOM      2  O   UNL A   1      40.219  21.787  25.755  1.00  0.00    -0.460 OA
BRANCH   2   3
ATOM      3  C   UNL A   1      40.409  20.489  26.120  1.00  0.00     0.335 C 
ATOM      4  O   UNL A   1      39.814  19.532  25.638  1.00  0.00    -0.249 OA
BRANCH   3   5
ATOM      5  C   UNL A   1      41.524  20.354  27.173  1.00  0.00     0.238 C 
BRANCH   5   6
ATOM      6  C   UNL A   1      42.944  20.278  26.586  1.00  0.00     0.139 C 
BRANCH   6   7
ATOM      7  C   UNL A   1      43.357  21.606  25.908  1.00  0.00     0.019 C 
BRANCH   7   8
ATOM      8  C   UNL A   1      44.686  22.205  26.389  1.00  0.00     0.001 C 
BRANCH   8   9
ATOM      9  C   UNL A   1      45.632  22.688  25.288  1.00  0.00    -0.003 C 
ATOM     10  C   UNL A   1      44.964  22.848  23.930  1.00  0.00     0.004 C 
ENDBRANCH   8   9
ENDBRANCH   7   8
ENDBRANCH   6   7
BRANCH   6  11
ATOM     11  C   UNL A   1      43.088  19.141  25.590  1.00  0.00     0.311 C 
ATOM     12  O   UNL A   1      42.799  17.973  25.806  1.00  0.00    -0.252 OA
BRANCH  11  13
ATOM     13  O   UNL A   1      43.617  19.613  24.426  1.00  0.00    -0.469 OA
ATOM     14  C   UNL A   1      44.786  18.919  23.992  1.00  0.00     0.282 C 
ENDBRANCH  11  13
ENDBRANCH   6  11
ENDBRANCH   5   6
BRANCH   5  15
ATOM     15  O   UNL A   1      41.329  19.260  28.075  1.00  0.00    -0.381 OA
ATOM     16  H   UNL A   1      40.380  19.091  28.177  1.00  0.00     0.211 HD
ENDBRANCH   5  15
ENDBRANCH   3   5
ENDBRANCH   2   3
ENDBRANCH   1   2
BRANCH   1  17
ATOM     17  C   UNL A   1      39.485  23.831  26.895  1.00  0.00     0.275 C 
BRANCH  17  18
ATOM     18  O   UNL A   1      40.858  24.168  26.614  1.00  0.00    -0.458 OA
BRANCH  18  19
ATOM     19  C   UNL A   1      41.688  24.183  27.685  1.00  0.00     0.338 C 
ATOM     20  O   UNL A   1      41.612  23.481  28.681  1.00  0.00    -0.246 OA
BRANCH  19  21
ATOM     21  C   UNL A   1      42.835  25.075  27.425  1.00  0.00     0.060 A 
ATOM     22  C   UNL A   1      43.573  25.521  28.525  1.00  0.00     0.016 A 
ATOM     23  C   UNL A   1      43.152  25.519  26.139  1.00  0.00     0.016 A 
ATOM     24  C   UNL A   1      44.616  26.423  28.355  1.00  0.00     0.010 A 
ATOM     25  C   UNL A   1      44.203  26.427  25.967  1.00  0.00     0.010 A 
ATOM     26  C   UNL A   1      44.930  26.894  27.077  1.00  0.00    -0.014 A 
BRANCH  26  27
ATOM     27  C   UNL A   1      45.982  27.926  26.926  1.00  0.00     0.031 A 
ATOM     28  C   UNL A   1      45.603  29.378  26.917  1.00  0.00     0.074 A 
ATOM     29  C   UNL A   1      47.273  27.561  26.842  1.00  0.00     0.049 A 
ATOM     30  N   UNL A   1      46.360  30.430  26.740  1.00  0.00    -0.248 NA
ATOM     31  C   UNL A   1      44.181  29.687  27.137  1.00  0.00     0.031 C 
ATOM     32  C   UNL A   1      47.767  26.184  26.894  1.00  0.00     0.029 A 
ATOM     33  N   UNL A   1      48.407  28.320  26.698  1.00  0.00    -0.354 N 
ATOM     34  C   UNL A   1      45.507  31.524  26.805  1.00  0.00     0.074 A 
ATOM     35  C   UNL A   1      44.171  31.007  27.024  1.00  0.00     0.031 C 
ATOM     36  C   UNL A   1      49.105  26.196  26.781  1.00  0.00     0.029 A 
ATOM     37  C   UNL A   1      49.556  27.574  26.606  1.00  0.00     0.049 A 
ATOM     38  H   UNL A   1      48.398  29.303  26.663  1.00  0.00     0.167 HD
ATOM     39  C   UNL A   1      45.812  32.838  26.696  1.00  0.00     0.037 A 
ATOM     40  C   UNL A   1      50.826  27.959  26.378  1.00  0.00     0.037 A 
ATOM     41  C   UNL A   1      47.144  33.346  26.497  1.00  0.00     0.049 A 
ATOM     42  C   UNL A   1      51.131  29.420  26.206  1.00  0.00     0.074 A 
ATOM     43  C   UNL A   1      47.559  34.662  26.391  1.00  0.00     0.029 A 
ATOM     44  N   UNL A   1      48.279  32.558  26.376  1.00  0.00    -0.354 N 
ATOM     45  N   UNL A   1      50.317  30.447  26.264  1.00  0.00    -0.248 NA
ATOM     46  C   UNL A   1      52.530  29.778  25.932  1.00  0.00     0.031 C 
ATOM     47  C   UNL A   1      48.939  34.669  26.163  1.00  0.00     0.029 A 
ATOM     48  C   UNL A   1      49.391  33.360  26.173  1.00  0.00     0.049 A 
ATOM     49  H   UNL A   1      48.292  31.575  26.426  1.00  0.00     0.167 HD
ATOM     50  C   UNL A   1      51.106  31.570  26.053  1.00  0.00     0.074 A 
ATOM     51  C   UNL A   1      52.465  31.101  25.880  1.00  0.00     0.031 C 
ATOM     52  C   UNL A   1      50.737  32.874  26.005  1.00  0.00     0.037 A 
BRANCH  39  53
ATOM     53  C   UNL A   1      44.678  33.818  26.755  1.00  0.00     0.057 A 
ATOM     54  C   UNL A   1      43.908  34.132  25.628  1.00  0.00     0.134 A 
ATOM     55  C   UNL A   1      44.334  34.431  27.966  1.00  0.00     0.134 A 
ATOM     56  F   UNL A   1      44.195  33.590  24.435  1.00  0.00    -0.206 F 
ATOM     57  C   UNL A   1      42.848  35.038  25.700  1.00  0.00     0.040 A 
ATOM     58  C   UNL A   1      43.262  35.321  28.055  1.00  0.00     0.040 A 
ATOM     59  F   UNL A   1      45.030  34.171  29.083  1.00  0.00    -0.206 F 
ATOM     60  C   UNL A   1      42.518  35.630  26.918  1.00  0.00     0.006 A 
ENDBRANCH  39  53
BRANCH  40  61
ATOM     61  C   UNL A   1      51.899  26.940  26.272  1.00  0.00     0.057 A 
ATOM     62  C   UNL A   1      52.156  26.275  25.068  1.00  0.00     0.134 A 
ATOM     63  C   UNL A   1      52.693  26.605  27.377  1.00  0.00     0.134 A 
ATOM     64  F   UNL A   1      51.413  26.535  23.983  1.00  0.00    -0.206 F 
ATOM     65  C   UNL A   1      53.155  25.305  24.968  1.00  0.00     0.040 A 
ATOM     66  C   UNL A   1      53.712  25.657  27.284  1.00  0.00     0.040 A 
ATOM     67  F   UNL A   1      52.497  27.207  28.559  1.00  0.00    -0.206 F 
ATOM     68  C   UNL A   1      53.941  24.999  26.079  1.00  0.00     0.006 A 
ENDBRANCH  40  61
BRANCH  52  69
ATOM     69  C   UNL A   1      51.823  33.885  25.784  1.00  0.00     0.057 A 
ATOM     70  C   UNL A   1      52.410  34.580  26.849  1.00  0.00     0.134 A 
ATOM     71  C   UNL A   1      52.311  34.138  24.496  1.00  0.00     0.134 A 
ATOM     72  F   UNL A   1      51.977  34.392  28.105  1.00  0.00    -0.206 F 
ATOM     73  C   UNL A   1      53.434  35.505  26.638  1.00  0.00     0.040 A 
ATOM     74  C   UNL A   1      53.349  35.043  24.275  1.00  0.00     0.040 A 
ATOM     75  F   UNL A   1      51.797  33.498  23.435  1.00  0.00    -0.206 F 
ATOM     76  C   UNL A   1      53.910  35.734  25.348  1.00  0.00     0.006 A 
ENDBRANCH  52  69
ENDBRANCH  26  27
ENDBRANCH  19  21
ENDBRANCH  18  19
ENDBRANCH  17  18
ENDBRANCH   1  17
TORSDOF 18
ENDMDL
MODEL 3
REMARK VINA RESULT:      -7.9      5.672     10.923
REMARK SMILES CCCC[C@H](C(=O)OC)[C@H](O)C(=O)OCCOC(=O)c1ccc(-c2c3nc(c(-c4c(F)cccc4F)c4ccc([nH]4)c(-c4c(F)cccc4F)c4nc(c(-c5c(F)cccc5F)c5ccc2[nH]5)C=C4)C=C3)cc1
REMARK SMILES IDX 15 1 14 2 12 3 13 4 10 5 5 6 4 7 3 8 2 9 1 10 6 11 7 12 8 13
REMARK SMILES IDX 9 14 11 15 16 17 17 18 18 19 19 20 20 21 21 22 73 23 22 24
REMARK SMILES IDX 72 25 23 26 24 27 25 28 66 29 26 30 71 31 65 32 67 33 27 34
REMARK SMILES IDX 70 35 64 36 63 37 28 39 54 40 37 41 53 42 38 43 41 44 52 45
REMARK SMILES IDX 68 46 39 47 40 48 51 50 69 51 42 52 29 53 30 54 35 55 31 56
REMARK SMILES IDX 32 57 34 58 36 59 33 60 55 61 56 62 61 63 57 64 58 65 60 66
REMARK SMILES IDX 62 67 59 68 43 69 44 70 49 71 45 72 46 73 48 74 50 75 47 76
REMARK H PARENT 11 16 67 38 41 49
REMARK Flexibility Score: inf
ROOT
ATOM      1  C   UNL A   1      31.303  31.829  26.364  1.00  0.00     0.274 C 
ENDROOT
BRANCH   1   2
ATOM      2  O   UNL A   1      31.867  30.813  27.211  1.00  0.00    -0.460 OA
BRANCH   2   3
ATOM      3  C   UNL A   1      32.070  29.595  26.636  1.00  0.00     0.335 C 
ATOM      4  O   UNL A   1      31.667  28.531  27.089  1.00  0.00    -0.249 OA
BRANCH   3   5
ATOM      5  C   UNL A   1      32.815  29.721  25.293  1.00  0.00     0.238 C 
BRANCH   5   6
ATOM      6  C   UNL A   1      32.090  29.068  24.104  1.00  0.00     0.139 C 
BRANCH   6   7
ATOM      7  C   UNL A   1      30.567  28.961  24.346  1.00  0.00     0.019 C 
BRANCH   7   8
ATOM      8  C   UNL A   1      29.681  29.539  23.234  1.00  0.00     0.001 C 
BRANCH   8   9
ATOM      9  C   UNL A   1      29.156  30.956  23.473  1.00  0.00    -0.003 C 
ATOM     10  C   UNL A   1      27.639  31.046  23.547  1.00  0.00     0.004 C 
ENDBRANCH   8   9
ENDBRANCH   7   8
ENDBRANCH   6   7
BRANCH   6  11
ATOM     11  C   UNL A   1      32.645  27.690  23.788  1.00  0.00     0.311 C 
ATOM     12  O   UNL A   1      32.783  26.782  24.595  1.00  0.00    -0.252 OA
BRANCH  11  13
ATOM     13  O   UNL A   1      32.995  27.625  22.471  1.00  0.00    -0.469 OA
ATOM     14  C   UNL A   1      33.220  26.300  21.991  1.00  0.00     0.282 C 
ENDBRANCH  11  13
ENDBRANCH   6  11
ENDBRANCH   5   6
BRANCH   5  15
ATOM     15  O   UNL A   1      34.163  29.246  25.342  1.00  0.00    -0.381 OA
ATOM     16  H   UNL A   1      34.570  29.514  26.180  1.00  0.00     0.211 HD
ENDBRANCH   5  15
ENDBRANCH   3   5
ENDBRANCH   2   3
ENDBRANCH   1   2
BRANCH   1  17
ATOM     17  C   UNL A   1      31.973  33.188  26.604  1.00  0.00     0.275 C 
BRANCH  17  18
ATOM     18  O   UNL A   1      32.174  33.466  28.004  1.00  0.00    -0.458 OA
BRANCH  18  19
ATOM     19  C   UNL A   1      33.161  34.350  28.289  1.00  0.00     0.338 C 
ATOM     20  O   UNL A   1      33.069  35.568  28.317  1.00  0.00    -0.246 OA
BRANCH  19  21
ATOM     21  C   UNL A   1      34.371  33.633  28.734  1.00  0.00     0.060 A 
ATOM     22  C   UNL A   1      34.215  32.326  29.205  1.00  0.00     0.016 A 
ATOM     23  C   UNL A   1      35.629  34.239  28.749  1.00  0.00     0.016 A 
ATOM     24  C   UNL A   1      35.303  31.623  29.709  1.00  0.00     0.010 A 
ATOM     25  C   UNL A   1      36.725  33.532  29.256  1.00  0.00     0.010 A 
ATOM     26  C   UNL A   1      36.564  32.226  29.753  1.00  0.00    -0.014 A 
BRANCH  26  27
ATOM     27  C   UNL A   1      37.691  31.499  30.380  1.00  0.00     0.031 A 
ATOM     28  C   UNL A   1      38.036  31.760  31.816  1.00  0.00     0.074 A 
ATOM     29  C   UNL A   1      38.371  30.577  29.675  1.00  0.00     0.049 A 
ATOM     30  N   UNL A   1      39.016  31.273  32.534  1.00  0.00    -0.248 NA
ATOM     31  C   UNL A   1      37.161  32.693  32.543  1.00  0.00     0.031 C 
ATOM     32  C   UNL A   1      38.092  30.200  28.289  1.00  0.00     0.029 A 
ATOM     33  N   UNL A   1      39.436  29.789  30.030  1.00  0.00    -0.354 N 
ATOM     34  C   UNL A   1      38.890  31.856  33.788  1.00  0.00     0.074 A 
ATOM     35  C   UNL A   1      37.747  32.743  33.731  1.00  0.00     0.031 C 
ATOM     36  C   UNL A   1      38.965  29.253  27.910  1.00  0.00     0.029 A 
ATOM     37  C   UNL A   1      39.889  28.991  29.010  1.00  0.00     0.049 A 
ATOM     38  H   UNL A   1      39.836  29.796  30.930  1.00  0.00     0.167 HD
ATOM     39  C   UNL A   1      39.657  31.663  34.887  1.00  0.00     0.037 A 
ATOM     40  C   UNL A   1      40.950  28.162  28.961  1.00  0.00     0.037 A 
ATOM     41  C   UNL A   1      40.780  30.765  34.944  1.00  0.00     0.049 A 
ATOM     42  C   UNL A   1      41.818  28.007  30.178  1.00  0.00     0.074 A 
ATOM     43  C   UNL A   1      41.610  30.487  36.016  1.00  0.00     0.029 A 
ATOM     44  N   UNL A   1      41.231  29.997  33.880  1.00  0.00    -0.354 N 
ATOM     45  N   UNL A   1      41.695  28.566  31.358  1.00  0.00    -0.248 NA
ATOM     46  C   UNL A   1      42.976  27.111  30.057  1.00  0.00     0.031 C 
ATOM     47  C   UNL A   1      42.589  29.583  35.589  1.00  0.00     0.029 A 
ATOM     48  C   UNL A   1      42.341  29.263  34.265  1.00  0.00     0.049 A 
ATOM     49  H   UNL A   1      40.822  29.977  32.984  1.00  0.00     0.167 HD
ATOM     50  C   UNL A   1      42.745  28.075  32.123  1.00  0.00     0.074 A 
ATOM     51  C   UNL A   1      43.487  27.163  31.279  1.00  0.00     0.031 C 
ATOM     52  C   UNL A   1      43.066  28.358  33.410  1.00  0.00     0.037 A 
BRANCH  39  53
ATOM     53  C   UNL A   1      39.326  32.466  36.110  1.00  0.00     0.057 A 
ATOM     54  C   UNL A   1      39.879  33.731  36.341  1.00  0.00     0.134 A 
ATOM     55  C   UNL A   1      38.414  31.977  37.054  1.00  0.00     0.134 A 
ATOM     56  F   UNL A   1      40.771  34.251  35.483  1.00  0.00    -0.206 F 
ATOM     57  C   UNL A   1      39.553  34.473  37.478  1.00  0.00     0.040 A 
ATOM     58  C   UNL A   1      38.063  32.718  38.183  1.00  0.00     0.040 A 
ATOM     59  F   UNL A   1      37.845  30.772  36.891  1.00  0.00    -0.206 F 
ATOM     60  C   UNL A   1      38.637  33.969  38.400  1.00  0.00     0.006 A 
ENDBRANCH  39  53
BRANCH  40  61
ATOM     61  C   UNL A   1      41.263  27.437  27.706  1.00  0.00     0.057 A 
ATOM     62  C   UNL A   1      42.102  27.993  26.734  1.00  0.00     0.134 A 
ATOM     63  C   UNL A   1      40.727  26.168  27.447  1.00  0.00     0.134 A 
ATOM     64  F   UNL A   1      42.625  29.213  26.913  1.00  0.00    -0.206 F 
ATOM     65  C   UNL A   1      42.388  27.319  25.545  1.00  0.00     0.040 A 
ATOM     66  C   UNL A   1      41.025  25.473  26.275  1.00  0.00     0.040 A 
ATOM     67  F   UNL A   1      39.916  25.582  28.340  1.00  0.00    -0.206 F 
ATOM     68  C   UNL A   1      41.853  26.052  25.316  1.00  0.00     0.006 A 
ENDBRANCH  40  61
BRANCH  52  69
ATOM     69  C   UNL A   1      44.255  27.649  33.989  1.00  0.00     0.057 A 
ATOM     70  C   UNL A   1      44.135  26.406  34.622  1.00  0.00     0.134 A 
ATOM     71  C   UNL A   1      45.537  28.201  33.879  1.00  0.00     0.134 A 
ATOM     72  F   UNL A   1      42.932  25.832  34.771  1.00  0.00    -0.206 F 
ATOM     73  C   UNL A   1      45.249  25.744  35.142  1.00  0.00     0.040 A 
ATOM     74  C   UNL A   1      46.660  27.538  34.374  1.00  0.00     0.040 A 
ATOM     75  F   UNL A   1      45.720  29.385  33.277  1.00  0.00    -0.206 F 
ATOM     76  C   UNL A   1      46.517  26.308  35.013  1.00  0.00     0.006 A 
ENDBRANCH  52  69
ENDBRANCH  26  27
ENDBRANCH  19  21
ENDBRANCH  18  19
ENDBRANCH  17  18
ENDBRANCH   1  17
TORSDOF 18
ENDMDL
