MODEL 1
REMARK VINA RESULT:     -13.4      0.000      0.000
REMARK SMILES O=C(OCCOC(=O)C1CC[NH+]([C@H]2CC(=O)N(c3ccc4c(c3)OCCO4)C2=O)CC1)c1ccc(-c2c3nc(c(-c4c(F)cccc4F)c4ccc([nH]4)c(-c4c(F)cccc4F)c4nc(c(-c5c(F)cccc5F)c5ccc2[nH]5)C=C4)C=C3)cc1
REMARK SMILES IDX 4 1 3 2 2 3 1 4 32 5 33 6 85 7 34 8 84 9 35 10 36 11 37 12
REMARK SMILES IDX 78 13 38 14 83 15 77 16 79 17 39 18 82 19 76 20 75 21 40 23
REMARK SMILES IDX 66 24 49 25 65 26 50 27 53 28 64 29 80 30 51 31 52 32 63 34
REMARK SMILES IDX 81 35 54 36 41 37 42 38 47 39 43 40 44 41 46 42 48 43 45 44
REMARK SMILES IDX 67 45 68 46 73 47 69 48 70 49 72 50 74 51 71 52 55 53 56 54
REMARK SMILES IDX 61 55 57 56 58 57 60 58 62 59 59 60 5 61 6 62 7 63 8 64 9 65
REMARK SMILES IDX 10 66 31 67 11 68 30 69 12 70 13 72 14 73 28 74 15 75 17 76
REMARK SMILES IDX 29 77 16 78 18 79 19 80 23 81 20 82 22 83 21 84 24 85 27 86
REMARK SMILES IDX 25 87 26 88
REMARK H PARENT 79 22 53 33 12 71
REMARK Flexibility Score: inf
ROOT
ATOM      1  C   UNL A   1      31.035  27.159  24.583  1.00  0.00     0.275 C 
ENDROOT
BRANCH   1   2
ATOM      2  O   UNL A   1      31.203  28.059  25.719  1.00  0.00    -0.458 OA
BRANCH   2   3
ATOM      3  C   UNL A   1      31.564  29.371  25.626  1.00  0.00     0.338 C 
ATOM      4  O   UNL A   1      30.990  30.193  24.929  1.00  0.00    -0.246 OA
BRANCH   3   5
ATOM      5  C   UNL A   1      32.883  29.636  26.198  1.00  0.00     0.060 A 
ATOM      6  C   UNL A   1      33.108  30.784  26.866  1.00  0.00     0.016 A 
ATOM      7  C   UNL A   1      33.976  28.814  26.033  1.00  0.00     0.016 A 
ATOM      8  C   UNL A   1      34.195  30.795  27.745  1.00  0.00     0.010 A 
ATOM      9  C   UNL A   1      35.149  28.958  26.863  1.00  0.00     0.010 A 
ATOM     10  C   UNL A   1      35.342  29.743  28.136  1.00  0.00    -0.014 A 
BRANCH  10  11
ATOM     11  C   UNL A   1      36.869  29.986  29.527  1.00  0.00     0.031 A 
ATOM     12  C   UNL A   1      38.698  29.363  29.108  1.00  0.00     0.074 A 
ATOM     13  C   UNL A   1      37.186  30.631  30.775  1.00  0.00     0.049 A 
ATOM     14  N   UNL A   1      39.933  29.476  29.644  1.00  0.00    -0.248 NA
ATOM     15  C   UNL A   1      38.943  28.391  27.802  1.00  0.00     0.031 C 
ATOM     16  C   UNL A   1      36.346  31.403  31.700  1.00  0.00     0.029 A 
ATOM     17  N   UNL A   1      38.428  30.695  31.486  1.00  0.00    -0.354 N 
ATOM     18  C   UNL A   1      40.895  28.746  28.806  1.00  0.00     0.074 A 
ATOM     19  C   UNL A   1      40.213  28.178  27.696  1.00  0.00     0.031 C 
ATOM     20  C   UNL A   1      37.031  31.825  32.767  1.00  0.00     0.029 A 
ATOM     21  C   UNL A   1      38.396  31.335  32.720  1.00  0.00     0.049 A 
ATOM     22  H   UNL A   1      39.257  30.308  31.121  1.00  0.00     0.167 HD
ATOM     23  C   UNL A   1      42.216  28.391  28.841  1.00  0.00     0.037 A 
ATOM     24  C   UNL A   1      39.255  31.543  33.758  1.00  0.00     0.037 A 
ATOM     25  C   UNL A   1      43.146  28.651  29.873  1.00  0.00     0.049 A 
ATOM     26  C   UNL A   1      40.709  31.118  33.882  1.00  0.00     0.074 A 
ATOM     27  C   UNL A   1      44.484  28.295  29.940  1.00  0.00     0.029 A 
ATOM     28  N   UNL A   1      42.818  29.268  31.041  1.00  0.00    -0.354 N 
ATOM     29  N   UNL A   1      41.489  30.507  33.032  1.00  0.00    -0.248 NA
ATOM     30  C   UNL A   1      41.399  31.447  35.155  1.00  0.00     0.031 C 
ATOM     31  C   UNL A   1      44.958  28.655  31.200  1.00  0.00     0.029 A 
ATOM     32  C   UNL A   1      43.924  29.292  31.859  1.00  0.00     0.049 A 
ATOM     33  H   UNL A   1      41.933  29.638  31.263  1.00  0.00     0.167 HD
ATOM     34  C   UNL A   1      42.749  30.428  33.646  1.00  0.00     0.074 A 
ATOM     35  C   UNL A   1      42.641  31.034  34.942  1.00  0.00     0.031 C 
ATOM     36  C   UNL A   1      43.893  29.903  33.146  1.00  0.00     0.037 A 
BRANCH  23  37
ATOM     37  C   UNL A   1      42.771  27.527  27.697  1.00  0.00     0.057 A 
ATOM     38  C   UNL A   1      42.908  26.135  27.819  1.00  0.00     0.134 A 
ATOM     39  C   UNL A   1      43.236  28.115  26.507  1.00  0.00     0.134 A 
ATOM     40  F   UNL A   1      42.529  25.515  28.948  1.00  0.00    -0.206 F 
ATOM     41  C   UNL A   1      43.531  25.371  26.828  1.00  0.00     0.040 A 
ATOM     42  C   UNL A   1      43.824  27.353  25.493  1.00  0.00     0.040 A 
ATOM     43  F   UNL A   1      43.146  29.440  26.322  1.00  0.00    -0.206 F 
ATOM     44  C   UNL A   1      43.987  25.979  25.660  1.00  0.00     0.006 A 
ENDBRANCH  23  37
BRANCH  24  45
ATOM     45  C   UNL A   1      38.697  32.259  34.955  1.00  0.00     0.057 A 
ATOM     46  C   UNL A   1      38.205  31.558  36.061  1.00  0.00     0.134 A 
ATOM     47  C   UNL A   1      38.646  33.659  34.995  1.00  0.00     0.134 A 
ATOM     48  F   UNL A   1      38.179  30.216  36.054  1.00  0.00    -0.206 F 
ATOM     49  C   UNL A   1      37.690  32.224  37.173  1.00  0.00     0.040 A 
ATOM     50  C   UNL A   1      38.167  34.337  36.115  1.00  0.00     0.040 A 
ATOM     51  F   UNL A   1      39.093  34.380  33.958  1.00  0.00    -0.206 F 
ATOM     52  C   UNL A   1      37.685  33.619  37.207  1.00  0.00     0.006 A 
ENDBRANCH  24  45
BRANCH  36  53
ATOM     53  C   UNL A   1      45.185  29.960  33.902  1.00  0.00     0.057 A 
ATOM     54  C   UNL A   1      45.629  28.898  34.696  1.00  0.00     0.134 A 
ATOM     55  C   UNL A   1      46.086  31.012  33.669  1.00  0.00     0.134 A 
ATOM     56  F   UNL A   1      44.830  27.848  34.933  1.00  0.00    -0.206 F 
ATOM     57  C   UNL A   1      46.918  28.883  35.236  1.00  0.00     0.040 A 
ATOM     58  C   UNL A   1      47.382  30.998  34.186  1.00  0.00     0.040 A 
ATOM     59  F   UNL A   1      45.738  32.043  32.883  1.00  0.00    -0.206 F 
ATOM     60  C   UNL A   1      47.802  29.929  34.973  1.00  0.00     0.006 A 
ENDBRANCH  36  53
ENDBRANCH  10  11
ENDBRANCH   3   5
ENDBRANCH   2   3
ENDBRANCH   1   2
BRANCH   1  61
ATOM     61  C   UNL A   1      30.230  25.875  24.874  1.00  0.00     0.274 C 
BRANCH  61  62
ATOM     62  O   UNL A   1      30.734  24.670  24.225  1.00  0.00    -0.462 OA
BRANCH  62  63
ATOM     63  C   UNL A   1      31.486  23.861  25.018  1.00  0.00     0.309 C 
ATOM     64  O   UNL A   1      31.157  23.597  26.173  1.00  0.00    -0.252 OA
BRANCH  63  65
ATOM     65  C   UNL A   1      32.848  23.341  24.398  1.00  0.00     0.110 C 
ATOM     66  C   UNL A   1      33.518  21.564  24.759  1.00  0.00     0.077 C 
ATOM     67  C   UNL A   1      33.969  24.789  24.790  1.00  0.00     0.077 C 
ATOM     68  C   UNL A   1      34.958  21.441  26.205  1.00  0.00     0.263 C 
ATOM     69  C   UNL A   1      35.473  24.645  25.734  1.00  0.00     0.263 C 
ATOM     70  N   UNL A   1      36.100  23.079  26.516  1.00  0.00    -0.324 N 
ATOM     71  H   UNL A   1      36.071  22.827  27.503  1.00  0.00     0.348 HD
BRANCH  70  72
ATOM     72  C   UNL A   1      37.688  23.413  25.981  1.00  0.00     0.284 C 
ATOM     73  C   UNL A   1      38.753  24.253  26.794  1.00  0.00     0.176 C 
ATOM     74  C   UNL A   1      38.464  22.129  25.705  1.00  0.00     0.292 C 
ATOM     75  C   UNL A   1      39.793  23.275  27.204  1.00  0.00     0.240 C 
ATOM     76  N   UNL A   1      39.626  22.157  26.443  1.00  0.00    -0.245 N 
ATOM     77  O   UNL A   1      38.147  21.307  24.855  1.00  0.00    -0.267 OA
ATOM     78  O   UNL A   1      40.609  23.463  28.095  1.00  0.00    -0.274 OA
BRANCH  76  79
ATOM     79  C   UNL A   1      40.696  21.290  26.249  1.00  0.00     0.056 A 
ATOM     80  C   UNL A   1      40.497  19.921  26.482  1.00  0.00     0.031 A 
ATOM     81  C   UNL A   1      41.883  21.768  25.709  1.00  0.00     0.077 A 
ATOM     82  C   UNL A   1      41.521  19.022  26.216  1.00  0.00     0.052 A 
ATOM     83  C   UNL A   1      42.901  20.864  25.438  1.00  0.00     0.163 A 
ATOM     84  C   UNL A   1      42.730  19.500  25.721  1.00  0.00     0.161 A 
ATOM     85  O   UNL A   1      44.050  21.389  24.906  1.00  0.00    -0.486 OA
ATOM     86  O   UNL A   1      43.724  18.573  25.537  1.00  0.00    -0.486 OA
ATOM     87  C   UNL A   1      44.952  20.365  24.476  1.00  0.00     0.271 C 
ATOM     88  C   UNL A   1      44.996  19.226  25.481  1.00  0.00     0.271 C 
ENDBRANCH  76  79
ENDBRANCH  70  72
ENDBRANCH  63  65
ENDBRANCH  62  63
ENDBRANCH  61  62
ENDBRANCH   1  61
TORSDOF 13
ENDMDL
MODEL 2
REMARK VINA RESULT:     -13.0      3.221      9.894
REMARK SMILES O=C(OCCOC(=O)C1CC[NH+]([C@H]2CC(=O)N(c3ccc4c(c3)OCCO4)C2=O)CC1)c1ccc(-c2c3nc(c(-c4c(F)cccc4F)c4ccc([nH]4)c(-c4c(F)cccc4F)c4nc(c(-c5c(F)cccc5F)c5ccc2[nH]5)C=C4)C=C3)cc1
REMARK SMILES IDX 4 1 3 2 2 3 1 4 32 5 33 6 85 7 34 8 84 9 35 10 36 11 37 12
REMARK SMILES IDX 78 13 38 14 83 15 77 16 79 17 39 18 82 19 76 20 75 21 40 23
REMARK SMILES IDX 66 24 49 25 65 26 50 27 53 28 64 29 80 30 51 31 52 32 63 34
REMARK SMILES IDX 81 35 54 36 41 37 42 38 47 39 43 40 44 41 46 42 48 43 45 44
REMARK SMILES IDX 67 45 68 46 73 47 69 48 70 49 72 50 74 51 71 52 55 53 56 54
REMARK SMILES IDX 61 55 57 56 58 57 60 58 62 59 59 60 5 61 6 62 7 63 8 64 9 65
REMARK SMILES IDX 10 66 31 67 11 68 30 69 12 70 13 72 14 73 28 74 15 75 17 76
REMARK SMILES IDX 29 77 16 78 18 79 19 80 23 81 20 82 22 83 21 84 24 85 27 86
REMARK SMILES IDX 25 87 26 88
REMARK H PARENT 79 22 53 33 12 71
REMARK Flexibility Score: inf
ROOT
ATOM      1  C   UNL A   1      33.475  21.908  24.152  1.00  0.00     0.275 C 
ENDROOT
BRANCH   1   2
ATOM      2  O   UNL A   1      34.916  22.084  24.010  1.00  0.00    -0.458 OA
BRANCH   2   3
ATOM      3  C   UNL A   1      35.860  21.329  24.642  1.00  0.00     0.338 C 
ATOM      4  O   UNL A   1      35.801  20.115  24.761  1.00  0.00    -0.246 OA
BRANCH   3   5
ATOM      5  C   UNL A   1      36.791  22.134  25.430  1.00  0.00     0.060 A 
ATOM      6  C   UNL A   1      38.019  21.656  25.715  1.00  0.00     0.016 A 
ATOM      7  C   UNL A   1      36.476  23.350  25.995  1.00  0.00     0.016 A 
ATOM      8  C   UNL A   1      38.992  22.597  26.064  1.00  0.00     0.010 A 
ATOM      9  C   UNL A   1      37.507  24.233  26.488  1.00  0.00     0.010 A 
ATOM     10  C   UNL A   1      39.000  24.187  26.281  1.00  0.00    -0.014 A 
BRANCH  10  11
ATOM     11  C   UNL A   1      40.618  25.393  26.782  1.00  0.00     0.031 A 
ATOM     12  C   UNL A   1      40.431  26.762  28.197  1.00  0.00     0.074 A 
ATOM     13  C   UNL A   1      42.034  25.551  26.572  1.00  0.00     0.049 A 
ATOM     14  N   UNL A   1      41.243  27.589  28.892  1.00  0.00    -0.248 NA
ATOM     15  C   UNL A   1      38.932  27.149  28.756  1.00  0.00     0.031 C 
ATOM     16  C   UNL A   1      42.964  24.828  25.695  1.00  0.00     0.029 A 
ATOM     17  N   UNL A   1      42.952  26.480  27.162  1.00  0.00    -0.354 N 
ATOM     18  C   UNL A   1      40.438  28.383  29.831  1.00  0.00     0.074 A 
ATOM     19  C   UNL A   1      39.072  28.006  29.713  1.00  0.00     0.031 C 
ATOM     20  C   UNL A   1      44.211  25.299  25.787  1.00  0.00     0.029 A 
ATOM     21  C   UNL A   1      44.259  26.434  26.690  1.00  0.00     0.049 A 
ATOM     22  H   UNL A   1      42.672  27.115  27.861  1.00  0.00     0.167 HD
ATOM     23  C   UNL A   1      40.616  29.423  30.702  1.00  0.00     0.037 A 
ATOM     24  C   UNL A   1      45.406  27.152  26.858  1.00  0.00     0.037 A 
ATOM     25  C   UNL A   1      41.808  30.142  30.946  1.00  0.00     0.049 A 
ATOM     26  C   UNL A   1      45.646  28.352  27.759  1.00  0.00     0.074 A 
ATOM     27  C   UNL A   1      42.015  31.204  31.813  1.00  0.00     0.029 A 
ATOM     28  N   UNL A   1      42.970  29.917  30.276  1.00  0.00    -0.354 N 
ATOM     29  N   UNL A   1      44.853  28.949  28.606  1.00  0.00    -0.248 NA
ATOM     30  C   UNL A   1      46.997  28.967  27.712  1.00  0.00     0.031 C 
ATOM     31  C   UNL A   1      43.315  31.666  31.618  1.00  0.00     0.029 A 
ATOM     32  C   UNL A   1      43.909  30.834  30.688  1.00  0.00     0.049 A 
ATOM     33  H   UNL A   1      43.116  29.211  29.604  1.00  0.00     0.167 HD
ATOM     34  C   UNL A   1      45.617  29.958  29.212  1.00  0.00     0.074 A 
ATOM     35  C   UNL A   1      46.931  29.915  28.637  1.00  0.00     0.031 C 
ATOM     36  C   UNL A   1      45.240  30.829  30.179  1.00  0.00     0.037 A 
BRANCH  23  37
ATOM     37  C   UNL A   1      39.388  29.970  31.449  1.00  0.00     0.057 A 
ATOM     38  C   UNL A   1      38.729  31.139  31.036  1.00  0.00     0.134 A 
ATOM     39  C   UNL A   1      38.925  29.354  32.625  1.00  0.00     0.134 A 
ATOM     40  F   UNL A   1      39.151  31.803  29.949  1.00  0.00    -0.206 F 
ATOM     41  C   UNL A   1      37.696  31.701  31.790  1.00  0.00     0.040 A 
ATOM     42  C   UNL A   1      37.865  29.888  33.364  1.00  0.00     0.040 A 
ATOM     43  F   UNL A   1      39.509  28.238  33.086  1.00  0.00    -0.206 F 
ATOM     44  C   UNL A   1      37.258  31.074  32.955  1.00  0.00     0.006 A 
ENDBRANCH  23  37
BRANCH  24  45
ATOM     45  C   UNL A   1      46.585  26.731  26.029  1.00  0.00     0.057 A 
ATOM     46  C   UNL A   1      46.809  27.262  24.754  1.00  0.00     0.134 A 
ATOM     47  C   UNL A   1      47.499  25.783  26.509  1.00  0.00     0.134 A 
ATOM     48  F   UNL A   1      45.938  28.133  24.223  1.00  0.00    -0.206 F 
ATOM     49  C   UNL A   1      47.907  26.873  23.988  1.00  0.00     0.040 A 
ATOM     50  C   UNL A   1      48.620  25.412  25.768  1.00  0.00     0.040 A 
ATOM     51  F   UNL A   1      47.326  25.232  27.719  1.00  0.00    -0.206 F 
ATOM     52  C   UNL A   1      48.825  25.957  24.502  1.00  0.00     0.006 A 
ENDBRANCH  24  45
BRANCH  36  53
ATOM     53  C   UNL A   1      46.201  31.808  30.780  1.00  0.00     0.057 A 
ATOM     54  C   UNL A   1      47.028  31.472  31.856  1.00  0.00     0.134 A 
ATOM     55  C   UNL A   1      46.439  33.036  30.143  1.00  0.00     0.134 A 
ATOM     56  F   UNL A   1      46.874  30.301  32.491  1.00  0.00    -0.206 F 
ATOM     57  C   UNL A   1      48.052  32.323  32.281  1.00  0.00     0.040 A 
ATOM     58  C   UNL A   1      47.470  33.885  30.544  1.00  0.00     0.040 A 
ATOM     59  F   UNL A   1      45.708  33.403  29.078  1.00  0.00    -0.206 F 
ATOM     60  C   UNL A   1      48.282  33.528  31.618  1.00  0.00     0.006 A 
ENDBRANCH  36  53
ENDBRANCH  10  11
ENDBRANCH   3   5
ENDBRANCH   2   3
ENDBRANCH   1   2
BRANCH   1  61
ATOM     61  C   UNL A   1      32.611  23.020  23.522  1.00  0.00     0.274 C 
BRANCH  61  62
ATOM     62  O   UNL A   1      33.228  23.722  22.403  1.00  0.00    -0.462 OA
BRANCH  62  63
ATOM     63  C   UNL A   1      33.090  25.074  22.425  1.00  0.00     0.309 C 
ATOM     64  O   UNL A   1      33.434  25.777  21.476  1.00  0.00    -0.252 OA
BRANCH  63  65
ATOM     65  C   UNL A   1      32.534  25.701  23.770  1.00  0.00     0.110 C 
ATOM     66  C   UNL A   1      31.371  27.244  23.769  1.00  0.00     0.077 C 
ATOM     67  C   UNL A   1      34.115  25.802  24.770  1.00  0.00     0.077 C 
ATOM     68  C   UNL A   1      32.281  29.035  24.151  1.00  0.00     0.263 C 
ATOM     69  C   UNL A   1      34.744  27.316  25.468  1.00  0.00     0.263 C 
ATOM     70  N   UNL A   1      33.977  28.996  25.250  1.00  0.00    -0.324 N 
ATOM     71  H   UNL A   1      34.303  29.750  24.646  1.00  0.00     0.348 HD
BRANCH  70  72
ATOM     72  C   UNL A   1      34.206  29.348  26.906  1.00  0.00     0.284 C 
ATOM     73  C   UNL A   1      35.616  29.469  27.613  1.00  0.00     0.176 C 
ATOM     74  C   UNL A   1      33.564  30.679  27.286  1.00  0.00     0.292 C 
ATOM     75  C   UNL A   1      35.761  30.907  27.954  1.00  0.00     0.240 C 
ATOM     76  N   UNL A   1      34.526  31.476  27.865  1.00  0.00    -0.245 N 
ATOM     77  O   UNL A   1      32.363  30.905  27.208  1.00  0.00    -0.267 OA
ATOM     78  O   UNL A   1      36.821  31.453  28.225  1.00  0.00    -0.274 OA
BRANCH  76  79
ATOM     79  C   UNL A   1      34.253  32.644  28.567  1.00  0.00     0.056 A 
ATOM     80  C   UNL A   1      33.686  33.724  27.874  1.00  0.00     0.031 A 
ATOM     81  C   UNL A   1      34.419  32.676  29.946  1.00  0.00     0.077 A 
ATOM     82  C   UNL A   1      33.325  34.872  28.565  1.00  0.00     0.052 A 
ATOM     83  C   UNL A   1      34.050  33.824  30.634  1.00  0.00     0.163 A 
ATOM     84  C   UNL A   1      33.534  34.930  29.940  1.00  0.00     0.161 A 
ATOM     85  O   UNL A   1      34.234  33.801  31.991  1.00  0.00    -0.486 OA
ATOM     86  O   UNL A   1      33.215  36.112  30.557  1.00  0.00    -0.486 OA
ATOM     87  C   UNL A   1      33.640  34.938  32.627  1.00  0.00     0.271 C 
ATOM     88  C   UNL A   1      33.887  36.200  31.817  1.00  0.00     0.271 C 
ENDBRANCH  76  79
ENDBRANCH  70  72
ENDBRANCH  63  65
ENDBRANCH  62  63
ENDBRANCH  61  62
ENDBRANCH   1  61
TORSDOF 13
ENDMDL
MODEL 3
REMARK VINA RESULT:     -12.8      2.272      8.782
REMARK SMILES O=C(OCCOC(=O)C1CC[NH+]([C@H]2CC(=O)N(c3ccc4c(c3)OCCO4)C2=O)CC1)c1ccc(-c2c3nc(c(-c4c(F)cccc4F)c4ccc([nH]4)c(-c4c(F)cccc4F)c4nc(c(-c5c(F)cccc5F)c5ccc2[nH]5)C=C4)C=C3)cc1
REMARK SMILES IDX 4 1 3 2 2 3 1 4 32 5 33 6 85 7 34 8 84 9 35 10 36 11 37 12
REMARK SMILES IDX 78 13 38 14 83 15 77 16 79 17 39 18 82 19 76 20 75 21 40 23
REMARK SMILES IDX 66 24 49 25 65 26 50 27 53 28 64 29 80 30 51 31 52 32 63 34
REMARK SMILES IDX 81 35 54 36 41 37 42 38 47 39 43 40 44 41 46 42 48 43 45 44
REMARK SMILES IDX 67 45 68 46 73 47 69 48 70 49 72 50 74 51 71 52 55 53 56 54
REMARK SMILES IDX 61 55 57 56 58 57 60 58 62 59 59 60 5 61 6 62 7 63 8 64 9 65
REMARK SMILES IDX 10 66 31 67 11 68 30 69 12 70 13 72 14 73 28 74 15 75 17 76
REMARK SMILES IDX 29 77 16 78 18 79 19 80 23 81 20 82 22 83 21 84 24 85 27 86
REMARK SMILES IDX 25 87 26 88
REMARK H PARENT 79 22 53 33 12 71
REMARK Flexibility Score: inf
ROOT
ATOM      1  C   UNL A   1      42.651  20.816  25.873  1.00  0.00     0.275 C 
ENDROOT
BRANCH   1   2
ATOM      2  O   UNL A   1      42.251  22.128  25.375  1.00  0.00    -0.458 OA
BRANCH   2   3
ATOM      3  C   UNL A   1      42.988  23.269  25.505  1.00  0.00     0.338 C 
ATOM      4  O   UNL A   1      44.018  23.495  24.890  1.00  0.00    -0.246 OA
BRANCH   3   5
ATOM      5  C   UNL A   1      42.598  24.061  26.670  1.00  0.00     0.060 A 
ATOM      6  C   UNL A   1      43.398  25.055  27.104  1.00  0.00     0.016 A 
ATOM      7  C   UNL A   1      41.481  23.813  27.436  1.00  0.00     0.016 A 
ATOM      8  C   UNL A   1      42.802  26.036  27.903  1.00  0.00     0.010 A 
ATOM      9  C   UNL A   1      40.982  24.797  28.368  1.00  0.00     0.010 A 
ATOM     10  C   UNL A   1      41.334  26.256  28.515  1.00  0.00    -0.014 A 
BRANCH  10  11
ATOM     11  C   UNL A   1      40.668  27.846  29.676  1.00  0.00     0.031 A 
ATOM     12  C   UNL A   1      41.602  28.305  31.357  1.00  0.00     0.074 A 
ATOM     13  C   UNL A   1      39.763  28.968  29.668  1.00  0.00     0.049 A 
ATOM     14  N   UNL A   1      41.585  29.308  32.262  1.00  0.00    -0.248 NA
ATOM     15  C   UNL A   1      42.704  27.254  31.984  1.00  0.00     0.031 C 
ATOM     16  C   UNL A   1      38.756  29.384  28.684  1.00  0.00     0.029 A 
ATOM     17  N   UNL A   1      39.580  30.007  30.638  1.00  0.00    -0.354 N 
ATOM     18  C   UNL A   1      42.565  29.026  33.319  1.00  0.00     0.074 A 
ATOM     19  C   UNL A   1      43.224  27.800  33.033  1.00  0.00     0.031 C 
ATOM     20  C   UNL A   1      38.110  30.490  29.064  1.00  0.00     0.029 A 
ATOM     21  C   UNL A   1      38.561  30.915  30.377  1.00  0.00     0.049 A 
ATOM     22  H   UNL A   1      40.144  30.072  31.443  1.00  0.00     0.167 HD
ATOM     23  C   UNL A   1      42.950  29.553  34.522  1.00  0.00     0.037 A 
ATOM     24  C   UNL A   1      37.965  31.958  31.022  1.00  0.00     0.037 A 
ATOM     25  C   UNL A   1      42.396  30.673  35.184  1.00  0.00     0.049 A 
ATOM     26  C   UNL A   1      38.304  32.546  32.383  1.00  0.00     0.074 A 
ATOM     27  C   UNL A   1      42.757  31.222  36.404  1.00  0.00     0.029 A 
ATOM     28  N   UNL A   1      41.325  31.368  34.713  1.00  0.00    -0.354 N 
ATOM     29  N   UNL A   1      39.251  32.239  33.227  1.00  0.00    -0.248 NA
ATOM     30  C   UNL A   1      37.455  33.667  32.861  1.00  0.00     0.031 C 
ATOM     31  C   UNL A   1      41.846  32.234  36.702  1.00  0.00     0.029 A 
ATOM     32  C   UNL A   1      40.986  32.339  35.627  1.00  0.00     0.049 A 
ATOM     33  H   UNL A   1      40.867  31.203  33.856  1.00  0.00     0.167 HD
ATOM     34  C   UNL A   1      39.136  33.148  34.290  1.00  0.00     0.074 A 
ATOM     35  C   UNL A   1      38.027  34.012  34.006  1.00  0.00     0.031 C 
ATOM     36  C   UNL A   1      39.913  33.248  35.395  1.00  0.00     0.037 A 
BRANCH  23  37
ATOM     37  C   UNL A   1      44.037  28.822  35.327  1.00  0.00     0.057 A 
ATOM     38  C   UNL A   1      43.718  27.851  36.290  1.00  0.00     0.134 A 
ATOM     39  C   UNL A   1      45.394  29.158  35.180  1.00  0.00     0.134 A 
ATOM     40  F   UNL A   1      42.438  27.518  36.517  1.00  0.00    -0.206 F 
ATOM     41  C   UNL A   1      44.699  27.283  37.108  1.00  0.00     0.040 A 
ATOM     42  C   UNL A   1      46.386  28.565  35.966  1.00  0.00     0.040 A 
ATOM     43  F   UNL A   1      45.774  30.082  34.285  1.00  0.00    -0.206 F 
ATOM     44  C   UNL A   1      46.037  27.636  36.944  1.00  0.00     0.006 A 
ENDBRANCH  23  37
BRANCH  24  45
ATOM     45  C   UNL A   1      36.802  32.601  30.323  1.00  0.00     0.057 A 
ATOM     46  C   UNL A   1      35.483  32.238  30.615  1.00  0.00     0.134 A 
ATOM     47  C   UNL A   1      37.006  33.584  29.345  1.00  0.00     0.134 A 
ATOM     48  F   UNL A   1      35.231  31.265  31.504  1.00  0.00    -0.206 F 
ATOM     49  C   UNL A   1      34.404  32.839  29.967  1.00  0.00     0.040 A 
ATOM     50  C   UNL A   1      35.935  34.217  28.716  1.00  0.00     0.040 A 
ATOM     51  F   UNL A   1      38.249  33.962  29.017  1.00  0.00    -0.206 F 
ATOM     52  C   UNL A   1      34.629  33.843  29.026  1.00  0.00     0.006 A 
ENDBRANCH  24  45
BRANCH  36  53
ATOM     53  C   UNL A   1      39.706  34.328  36.412  1.00  0.00     0.057 A 
ATOM     54  C   UNL A   1      38.932  34.128  37.560  1.00  0.00     0.134 A 
ATOM     55  C   UNL A   1      40.454  35.513  36.336  1.00  0.00     0.134 A 
ATOM     56  F   UNL A   1      38.217  33.004  37.709  1.00  0.00    -0.206 F 
ATOM     57  C   UNL A   1      38.905  35.071  38.592  1.00  0.00     0.040 A 
ATOM     58  C   UNL A   1      40.451  36.452  37.369  1.00  0.00     0.040 A 
ATOM     59  F   UNL A   1      41.249  35.749  35.281  1.00  0.00    -0.206 F 
ATOM     60  C   UNL A   1      39.674  36.230  38.503  1.00  0.00     0.006 A 
ENDBRANCH  36  53
ENDBRANCH  10  11
ENDBRANCH   3   5
ENDBRANCH   2   3
ENDBRANCH   1   2
BRANCH   1  61
ATOM     61  C   UNL A   1      41.586  20.078  26.710  1.00  0.00     0.274 C 
BRANCH  61  62
ATOM     62  O   UNL A   1      40.262  20.689  26.703  1.00  0.00    -0.462 OA
BRANCH  62  63
ATOM     63  C   UNL A   1      39.415  20.217  25.751  1.00  0.00     0.309 C 
ATOM     64  O   UNL A   1      39.399  19.031  25.427  1.00  0.00    -0.252 OA
BRANCH  63  65
ATOM     65  C   UNL A   1      38.504  21.292  25.026  1.00  0.00     0.110 C 
ATOM     66  C   UNL A   1      38.445  23.135  25.607  1.00  0.00     0.077 C 
ATOM     67  C   UNL A   1      36.885  20.355  24.940  1.00  0.00     0.077 C 
ATOM     68  C   UNL A   1      36.855  23.635  26.791  1.00  0.00     0.263 C 
ATOM     69  C   UNL A   1      35.358  20.958  25.632  1.00  0.00     0.263 C 
ATOM     70  N   UNL A   1      35.168  22.542  26.586  1.00  0.00    -0.324 N 
ATOM     71  H   UNL A   1      35.060  22.647  27.595  1.00  0.00     0.348 HD
BRANCH  70  72
ATOM     72  C   UNL A   1      33.730  22.913  25.742  1.00  0.00     0.284 C 
ATOM     73  C   UNL A   1      32.270  22.666  26.299  1.00  0.00     0.176 C 
ATOM     74  C   UNL A   1      33.666  24.392  25.374  1.00  0.00     0.292 C 
ATOM     75  C   UNL A   1      31.709  24.020  26.540  1.00  0.00     0.240 C 
ATOM     76  N   UNL A   1      32.492  24.913  25.872  1.00  0.00    -0.245 N 
ATOM     77  O   UNL A   1      34.468  24.948  24.635  1.00  0.00    -0.267 OA
ATOM     78  O   UNL A   1      30.740  24.253  27.248  1.00  0.00    -0.274 OA
BRANCH  76  79
ATOM     79  C   UNL A   1      31.971  26.150  25.511  1.00  0.00     0.056 A 
ATOM     80  C   UNL A   1      32.228  27.251  26.341  1.00  0.00     0.031 A 
ATOM     81  C   UNL A   1      31.331  26.300  24.286  1.00  0.00     0.077 A 
ATOM     82  C   UNL A   1      31.793  28.514  25.963  1.00  0.00     0.052 A 
ATOM     83  C   UNL A   1      30.905  27.566  23.910  1.00  0.00     0.163 A 
ATOM     84  C   UNL A   1      31.108  28.664  24.761  1.00  0.00     0.161 A 
ATOM     85  O   UNL A   1      30.281  27.657  22.693  1.00  0.00    -0.486 OA
ATOM     86  O   UNL A   1      30.650  29.923  24.472  1.00  0.00    -0.486 OA
ATOM     87  C   UNL A   1      30.065  29.018  22.308  1.00  0.00     0.271 C 
ATOM     88  C   UNL A   1      29.608  29.850  23.494  1.00  0.00     0.271 C 
ENDBRANCH  76  79
ENDBRANCH  70  72
ENDBRANCH  63  65
ENDBRANCH  62  63
ENDBRANCH  61  62
ENDBRANCH   1  61
TORSDOF 13
ENDMDL
