MODEL 1
REMARK VINA RESULT:     -12.0      0.000      0.000
REMARK SMILES CC[C@@H](C)[C@@H](NC(=O)Cn1nc(-c2ccc3ccccc3c2)ccc1=O)C(=O)OCCOC(=O)c1ccc(-c2c3nc(c(-c4c(F)cccc4F)c4ccc([nH]4)c(-c4c(F)cccc4F)c4nc(c(-c5c(F)cccc5F)c5ccc2[nH]5)C=C4)C=C3)cc1
REMARK SMILES IDX 30 1 29 2 27 3 28 4 5 5 3 6 4 7 2 8 1 9 6 10 7 11 8 13 9 14
REMARK SMILES IDX 10 15 11 16 25 17 12 18 24 19 26 20 23 21 13 22 14 23 22 24
REMARK SMILES IDX 15 25 21 26 16 27 20 28 17 29 19 30 18 31 31 32 32 33 33 34
REMARK SMILES IDX 34 35 35 36 36 37 88 38 37 39 87 40 38 41 39 42 40 43 81 44
REMARK SMILES IDX 41 45 86 46 80 47 82 48 42 49 85 50 79 51 78 52 43 54 69 55
REMARK SMILES IDX 52 56 68 57 53 58 56 59 67 60 83 61 54 62 55 63 66 65 84 66
REMARK SMILES IDX 57 67 44 68 45 69 50 70 46 71 47 72 49 73 51 74 48 75 70 76
REMARK SMILES IDX 71 77 76 78 72 79 73 80 75 81 77 82 74 83 58 84 59 85 64 86
REMARK SMILES IDX 60 87 61 88 63 89 65 90 62 91
REMARK H PARENT 6 12 82 53 56 64
REMARK Flexibility Score: inf
ROOT
ATOM      1  C   UNL A   1      31.975  28.485  27.288  1.00  0.00     0.274 C 
ENDROOT
BRANCH   1   2
ATOM      2  O   UNL A   1      31.360  27.390  26.553  1.00  0.00    -0.461 OA
BRANCH   2   3
ATOM      3  C   UNL A   1      31.982  27.009  25.411  1.00  0.00     0.329 C 
ATOM      4  O   UNL A   1      33.186  26.756  25.355  1.00  0.00    -0.250 OA
BRANCH   3   5
ATOM      5  C   UNL A   1      31.133  27.074  24.117  1.00  0.00     0.195 C 
BRANCH   5   6
ATOM      6  C   UNL A   1      29.731  27.738  23.984  1.00  0.00     0.019 C 
ATOM      7  C   UNL A   1      28.599  26.710  23.877  1.00  0.00     0.010 C 
BRANCH   6   8
ATOM      8  C   UNL A   1      29.651  28.668  22.736  1.00  0.00     0.002 C 
ATOM      9  C   UNL A   1      28.278  29.289  22.507  1.00  0.00     0.004 C 
ENDBRANCH   6   8
ENDBRANCH   5   6
BRANCH   5  10
ATOM     10  N   UNL A   1      32.022  27.365  22.984  1.00  0.00    -0.341 N 
ATOM     11  C   UNL A   1      32.794  26.571  22.193  1.00  0.00     0.242 C 
ATOM     12  H   UNL A   1      32.069  28.321  22.752  1.00  0.00     0.164 HD
ATOM     13  O   UNL A   1      33.656  27.159  21.526  1.00  0.00    -0.273 OA
BRANCH  11  14
ATOM     14  C   UNL A   1      32.494  25.092  21.923  1.00  0.00     0.248 C 
BRANCH  14  15
ATOM     15  N   UNL A   1      32.902  23.948  22.740  1.00  0.00    -0.220 N 
ATOM     16  N   UNL A   1      34.240  23.686  22.944  1.00  0.00    -0.169 NA
ATOM     17  C   UNL A   1      31.892  23.333  23.477  1.00  0.00     0.267 A 
ATOM     18  C   UNL A   1      34.564  22.842  23.881  1.00  0.00     0.091 A 
ATOM     19  C   UNL A   1      32.312  22.295  24.439  1.00  0.00     0.075 A 
ATOM     20  O   UNL A   1      30.701  23.629  23.421  1.00  0.00    -0.268 OA
ATOM     21  C   UNL A   1      33.601  22.050  24.665  1.00  0.00     0.036 A 
BRANCH  18  22
ATOM     22  C   UNL A   1      35.982  22.720  24.316  1.00  0.00     0.003 A 
ATOM     23  C   UNL A   1      36.599  21.483  24.136  1.00  0.00     0.011 A 
ATOM     24  C   UNL A   1      36.626  23.708  25.060  1.00  0.00     0.019 A 
ATOM     25  C   UNL A   1      37.767  21.168  24.833  1.00  0.00     0.009 A 
ATOM     26  C   UNL A   1      37.839  23.418  25.728  1.00  0.00    -0.018 A 
ATOM     27  C   UNL A   1      38.362  22.104  25.679  1.00  0.00    -0.018 A 
ATOM     28  C   UNL A   1      38.518  24.375  26.498  1.00  0.00     0.009 A 
ATOM     29  C   UNL A   1      39.438  21.745  26.508  1.00  0.00     0.009 A 
ATOM     30  C   UNL A   1      39.617  24.015  27.285  1.00  0.00     0.001 A 
ATOM     31  C   UNL A   1      40.050  22.693  27.324  1.00  0.00     0.001 A 
ENDBRANCH  18  22
ENDBRANCH  14  15
ENDBRANCH  11  14
ENDBRANCH   5  10
ENDBRANCH   3   5
ENDBRANCH   2   3
ENDBRANCH   1   2
BRANCH   1  32
ATOM     32  C   UNL A   1      32.109  29.742  26.433  1.00  0.00     0.275 C 
BRANCH  32  33
ATOM     33  O   UNL A   1      33.484  30.142  26.416  1.00  0.00    -0.458 OA
BRANCH  33  34
ATOM     34  C   UNL A   1      33.741  31.200  27.211  1.00  0.00     0.338 C 
ATOM     35  O   UNL A   1      33.030  32.152  27.445  1.00  0.00    -0.246 OA
BRANCH  34  36
ATOM     36  C   UNL A   1      34.977  30.963  27.930  1.00  0.00     0.060 A 
ATOM     37  C   UNL A   1      35.228  29.709  28.461  1.00  0.00     0.016 A 
ATOM     38  C   UNL A   1      35.907  32.002  28.010  1.00  0.00     0.016 A 
ATOM     39  C   UNL A   1      36.424  29.516  29.125  1.00  0.00     0.010 A 
ATOM     40  C   UNL A   1      37.121  31.803  28.629  1.00  0.00     0.010 A 
ATOM     41  C   UNL A   1      37.361  30.564  29.213  1.00  0.00    -0.014 A 
BRANCH  41  42
ATOM     42  C   UNL A   1      38.613  30.338  29.932  1.00  0.00     0.031 A 
ATOM     43  C   UNL A   1      38.761  30.850  31.324  1.00  0.00     0.074 A 
ATOM     44  C   UNL A   1      39.553  29.613  29.310  1.00  0.00     0.049 A 
ATOM     45  N   UNL A   1      39.676  30.555  32.206  1.00  0.00    -0.248 NA
ATOM     46  C   UNL A   1      37.757  31.821  31.792  1.00  0.00     0.031 C 
ATOM     47  C   UNL A   1      39.477  29.151  27.921  1.00  0.00     0.029 A 
ATOM     48  N   UNL A   1      40.727  29.099  29.775  1.00  0.00    -0.354 N 
ATOM     49  C   UNL A   1      39.336  31.271  33.344  1.00  0.00     0.074 A 
ATOM     50  C   UNL A   1      38.182  32.077  33.020  1.00  0.00     0.031 C 
ATOM     51  C   UNL A   1      40.529  28.360  27.668  1.00  0.00     0.029 A 
ATOM     52  C   UNL A   1      41.353  28.285  28.866  1.00  0.00     0.049 A 
ATOM     53  H   UNL A   1      41.087  29.293  30.670  1.00  0.00     0.167 HD
ATOM     54  C   UNL A   1      39.929  31.220  34.558  1.00  0.00     0.037 A 
ATOM     55  C   UNL A   1      42.462  27.543  29.018  1.00  0.00     0.037 A 
ATOM     56  C   UNL A   1      41.098  30.426  34.824  1.00  0.00     0.049 A 
ATOM     57  C   UNL A   1      43.120  27.539  30.367  1.00  0.00     0.074 A 
ATOM     58  C   UNL A   1      41.796  30.276  36.006  1.00  0.00     0.029 A 
ATOM     59  N   UNL A   1      41.754  29.656  33.868  1.00  0.00    -0.354 N 
ATOM     60  N   UNL A   1      42.748  28.143  31.472  1.00  0.00    -0.248 NA
ATOM     61  C   UNL A   1      44.344  26.744  30.494  1.00  0.00     0.031 C 
ATOM     62  C   UNL A   1      42.905  29.459  35.752  1.00  0.00     0.029 A 
ATOM     63  C   UNL A   1      42.865  29.052  34.426  1.00  0.00     0.049 A 
ATOM     64  H   UNL A   1      41.468  29.557  32.931  1.00  0.00     0.167 HD
ATOM     65  C   UNL A   1      43.683  27.791  32.433  1.00  0.00     0.074 A 
ATOM     66  C   UNL A   1      44.618  26.891  31.782  1.00  0.00     0.031 C 
ATOM     67  C   UNL A   1      43.775  28.174  33.731  1.00  0.00     0.037 A 
BRANCH  54  68
ATOM     68  C   UNL A   1      39.323  32.047  35.654  1.00  0.00     0.057 A 
ATOM     69  C   UNL A   1      38.342  31.514  36.499  1.00  0.00     0.134 A 
ATOM     70  C   UNL A   1      39.717  33.374  35.882  1.00  0.00     0.134 A 
ATOM     71  F   UNL A   1      37.919  30.251  36.341  1.00  0.00    -0.206 F 
ATOM     72  C   UNL A   1      37.775  32.270  37.527  1.00  0.00     0.040 A 
ATOM     73  C   UNL A   1      39.178  34.130  36.925  1.00  0.00     0.040 A 
ATOM     74  F   UNL A   1      40.666  33.943  35.121  1.00  0.00    -0.206 F 
ATOM     75  C   UNL A   1      38.200  33.579  37.748  1.00  0.00     0.006 A 
ENDBRANCH  54  68
BRANCH  55  76
ATOM     76  C   UNL A   1      42.984  26.741  27.886  1.00  0.00     0.057 A 
ATOM     77  C   UNL A   1      43.652  27.349  26.815  1.00  0.00     0.134 A 
ATOM     78  C   UNL A   1      42.836  25.350  27.846  1.00  0.00     0.134 A 
ATOM     79  F   UNL A   1      43.808  28.681  26.783  1.00  0.00    -0.206 F 
ATOM     80  C   UNL A   1      44.159  26.604  25.751  1.00  0.00     0.040 A 
ATOM     81  C   UNL A   1      43.365  24.589  26.802  1.00  0.00     0.040 A 
ATOM     82  F   UNL A   1      42.204  24.709  28.840  1.00  0.00    -0.206 F 
ATOM     83  C   UNL A   1      44.028  25.217  25.749  1.00  0.00     0.006 A 
ENDBRANCH  55  76
BRANCH  67  84
ATOM     84  C   UNL A   1      44.920  27.601  34.511  1.00  0.00     0.057 A 
ATOM     85  C   UNL A   1      44.785  26.382  35.185  1.00  0.00     0.134 A 
ATOM     86  C   UNL A   1      46.155  28.259  34.597  1.00  0.00     0.134 A 
ATOM     87  F   UNL A   1      43.625  25.709  35.150  1.00  0.00    -0.206 F 
ATOM     88  C   UNL A   1      45.838  25.833  35.913  1.00  0.00     0.040 A 
ATOM     89  C   UNL A   1      47.228  27.702  35.293  1.00  0.00     0.040 A 
ATOM     90  F   UNL A   1      46.353  29.423  33.960  1.00  0.00    -0.206 F 
ATOM     91  C   UNL A   1      47.068  26.488  35.958  1.00  0.00     0.006 A 
ENDBRANCH  67  84
ENDBRANCH  41  42
ENDBRANCH  34  36
ENDBRANCH  33  34
ENDBRANCH  32  33
ENDBRANCH   1  32
TORSDOF 17
ENDMDL
MODEL 2
REMARK VINA RESULT:     -11.1      1.781      6.406
REMARK SMILES CC[C@@H](C)[C@@H](NC(=O)Cn1nc(-c2ccc3ccccc3c2)ccc1=O)C(=O)OCCOC(=O)c1ccc(-c2c3nc(c(-c4c(F)cccc4F)c4ccc([nH]4)c(-c4c(F)cccc4F)c4nc(c(-c5c(F)cccc5F)c5ccc2[nH]5)C=C4)C=C3)cc1
REMARK SMILES IDX 30 1 29 2 27 3 28 4 5 5 3 6 4 7 2 8 1 9 6 10 7 11 8 13 9 14
REMARK SMILES IDX 10 15 11 16 25 17 12 18 24 19 26 20 23 21 13 22 14 23 22 24
REMARK SMILES IDX 15 25 21 26 16 27 20 28 17 29 19 30 18 31 31 32 32 33 33 34
REMARK SMILES IDX 34 35 35 36 36 37 88 38 37 39 87 40 38 41 39 42 40 43 81 44
REMARK SMILES IDX 41 45 86 46 80 47 82 48 42 49 85 50 79 51 78 52 43 54 69 55
REMARK SMILES IDX 52 56 68 57 53 58 56 59 67 60 83 61 54 62 55 63 66 65 84 66
REMARK SMILES IDX 57 67 44 68 45 69 50 70 46 71 47 72 49 73 51 74 48 75 70 76
REMARK SMILES IDX 71 77 76 78 72 79 73 80 75 81 77 82 74 83 58 84 59 85 64 86
REMARK SMILES IDX 60 87 61 88 63 89 65 90 62 91
REMARK H PARENT 6 12 82 53 56 64
REMARK Flexibility Score: inf
ROOT
ATOM      1  C   UNL A   1      34.008  28.812  26.089  1.00  0.00     0.274 C 
ENDROOT
BRANCH   1   2
ATOM      2  O   UNL A   1      33.871  28.177  24.787  1.00  0.00    -0.461 OA
BRANCH   2   3
ATOM      3  C   UNL A   1      33.333  26.933  24.779  1.00  0.00     0.329 C 
ATOM      4  O   UNL A   1      33.899  25.954  25.268  1.00  0.00    -0.250 OA
BRANCH   3   5
ATOM      5  C   UNL A   1      32.030  26.758  23.961  1.00  0.00     0.195 C 
BRANCH   5   6
ATOM      6  C   UNL A   1      30.688  27.505  24.220  1.00  0.00     0.019 C 
ATOM      7  C   UNL A   1      29.462  26.630  23.939  1.00  0.00     0.010 C 
BRANCH   6   8
ATOM      8  C   UNL A   1      30.568  28.791  23.347  1.00  0.00     0.002 C 
ATOM      9  C   UNL A   1      29.188  29.004  22.734  1.00  0.00     0.004 C 
ENDBRANCH   6   8
ENDBRANCH   5   6
BRANCH   5  10
ATOM     10  N   UNL A   1      32.376  26.666  22.536  1.00  0.00    -0.341 N 
ATOM     11  C   UNL A   1      32.804  25.634  21.758  1.00  0.00     0.242 C 
ATOM     12  H   UNL A   1      32.281  27.516  22.049  1.00  0.00     0.164 HD
ATOM     13  O   UNL A   1      33.298  25.956  20.669  1.00  0.00    -0.273 OA
BRANCH  11  14
ATOM     14  C   UNL A   1      32.489  24.162  22.052  1.00  0.00     0.248 C 
BRANCH  14  15
ATOM     15  N   UNL A   1      32.970  23.370  23.185  1.00  0.00    -0.220 N 
ATOM     16  N   UNL A   1      34.321  23.159  23.360  1.00  0.00    -0.169 NA
ATOM     17  C   UNL A   1      32.029  23.084  24.173  1.00  0.00     0.267 A 
ATOM     18  C   UNL A   1      34.727  22.691  24.505  1.00  0.00     0.091 A 
ATOM     19  C   UNL A   1      32.532  22.442  25.402  1.00  0.00     0.075 A 
ATOM     20  O   UNL A   1      30.836  23.376  24.112  1.00  0.00    -0.268 OA
ATOM     21  C   UNL A   1      33.837  22.255  25.595  1.00  0.00     0.036 A 
BRANCH  18  22
ATOM     22  C   UNL A   1      36.177  22.691  24.838  1.00  0.00     0.003 A 
ATOM     23  C   UNL A   1      36.886  21.517  24.590  1.00  0.00     0.011 A 
ATOM     24  C   UNL A   1      36.783  23.722  25.555  1.00  0.00     0.019 A 
ATOM     25  C   UNL A   1      38.125  21.298  25.197  1.00  0.00     0.009 A 
ATOM     26  C   UNL A   1      38.061  23.532  26.131  1.00  0.00    -0.018 A 
ATOM     27  C   UNL A   1      38.693  22.271  26.019  1.00  0.00    -0.018 A 
ATOM     28  C   UNL A   1      38.706  24.535  26.872  1.00  0.00     0.009 A 
ATOM     29  C   UNL A   1      39.852  21.998  26.763  1.00  0.00     0.009 A 
ATOM     30  C   UNL A   1      39.886  24.264  27.573  1.00  0.00     0.001 A 
ATOM     31  C   UNL A   1      40.435  22.985  27.554  1.00  0.00     0.001 A 
ENDBRANCH  18  22
ENDBRANCH  14  15
ENDBRANCH  11  14
ENDBRANCH   5  10
ENDBRANCH   3   5
ENDBRANCH   2   3
ENDBRANCH   1   2
BRANCH   1  32
ATOM     32  C   UNL A   1      33.160  30.076  26.199  1.00  0.00     0.275 C 
BRANCH  32  33
ATOM     33  O   UNL A   1      33.162  30.513  27.563  1.00  0.00    -0.458 OA
BRANCH  33  34
ATOM     34  C   UNL A   1      33.767  31.705  27.739  1.00  0.00     0.338 C 
ATOM     35  O   UNL A   1      33.311  32.812  27.563  1.00  0.00    -0.246 OA
BRANCH  34  36
ATOM     36  C   UNL A   1      35.057  31.491  28.367  1.00  0.00     0.060 A 
ATOM     37  C   UNL A   1      36.067  32.421  28.186  1.00  0.00     0.016 A 
ATOM     38  C   UNL A   1      35.217  30.372  29.188  1.00  0.00     0.016 A 
ATOM     39  C   UNL A   1      37.276  32.190  28.814  1.00  0.00     0.010 A 
ATOM     40  C   UNL A   1      36.403  30.161  29.854  1.00  0.00     0.010 A 
ATOM     41  C   UNL A   1      37.442  31.060  29.638  1.00  0.00    -0.014 A 
BRANCH  41  42
ATOM     42  C   UNL A   1      38.735  30.834  30.279  1.00  0.00     0.031 A 
ATOM     43  C   UNL A   1      39.739  29.953  29.615  1.00  0.00     0.074 A 
ATOM     44  C   UNL A   1      38.976  31.494  31.421  1.00  0.00     0.049 A 
ATOM     45  N   UNL A   1      41.007  29.816  29.888  1.00  0.00    -0.248 NA
ATOM     46  C   UNL A   1      39.262  29.115  28.502  1.00  0.00     0.031 C 
ATOM     47  C   UNL A   1      37.995  32.311  32.142  1.00  0.00     0.029 A 
ATOM     48  N   UNL A   1      40.123  31.621  32.145  1.00  0.00    -0.354 N 
ATOM     49  C   UNL A   1      41.488  28.908  28.956  1.00  0.00     0.074 A 
ATOM     50  C   UNL A   1      40.365  28.465  28.164  1.00  0.00     0.031 C 
ATOM     51  C   UNL A   1      38.606  32.914  33.172  1.00  0.00     0.029 A 
ATOM     52  C   UNL A   1      40.004  32.503  33.188  1.00  0.00     0.049 A 
ATOM     53  H   UNL A   1      40.951  31.130  31.940  1.00  0.00     0.167 HD
ATOM     54  C   UNL A   1      42.769  28.518  28.771  1.00  0.00     0.037 A 
ATOM     55  C   UNL A   1      40.946  32.942  34.038  1.00  0.00     0.037 A 
ATOM     56  C   UNL A   1      43.850  28.963  29.609  1.00  0.00     0.049 A 
ATOM     57  C   UNL A   1      42.353  32.458  33.830  1.00  0.00     0.074 A 
ATOM     58  C   UNL A   1      45.193  28.653  29.531  1.00  0.00     0.029 A 
ATOM     59  N   UNL A   1      43.694  29.810  30.702  1.00  0.00    -0.354 N 
ATOM     60  N   UNL A   1      42.828  31.671  32.893  1.00  0.00    -0.248 NA
ATOM     61  C   UNL A   1      43.353  32.929  34.791  1.00  0.00     0.031 C 
ATOM     62  C   UNL A   1      45.842  29.268  30.609  1.00  0.00     0.029 A 
ATOM     63  C   UNL A   1      44.913  30.011  31.324  1.00  0.00     0.049 A 
ATOM     64  H   UNL A   1      42.841  30.208  30.989  1.00  0.00     0.167 HD
ATOM     65  C   UNL A   1      44.187  31.562  33.140  1.00  0.00     0.074 A 
ATOM     66  C   UNL A   1      44.461  32.396  34.297  1.00  0.00     0.031 C 
ATOM     67  C   UNL A   1      45.130  30.841  32.484  1.00  0.00     0.037 A 
BRANCH  54  68
ATOM     68  C   UNL A   1      43.042  27.570  27.641  1.00  0.00     0.057 A 
ATOM     69  C   UNL A   1      43.362  28.046  26.364  1.00  0.00     0.134 A 
ATOM     70  C   UNL A   1      42.997  26.178  27.816  1.00  0.00     0.134 A 
ATOM     71  F   UNL A   1      43.426  29.364  26.124  1.00  0.00    -0.206 F 
ATOM     72  C   UNL A   1      43.626  27.174  25.304  1.00  0.00     0.040 A 
ATOM     73  C   UNL A   1      43.287  25.298  26.772  1.00  0.00     0.040 A 
ATOM     74  F   UNL A   1      42.715  25.652  29.019  1.00  0.00    -0.206 F 
ATOM     75  C   UNL A   1      43.598  25.797  25.510  1.00  0.00     0.006 A 
ENDBRANCH  54  68
BRANCH  55  76
ATOM     76  C   UNL A   1      40.593  33.893  35.118  1.00  0.00     0.057 A 
ATOM     77  C   UNL A   1      40.073  33.442  36.338  1.00  0.00     0.134 A 
ATOM     78  C   UNL A   1      40.770  35.272  34.965  1.00  0.00     0.134 A 
ATOM     79  F   UNL A   1      39.860  32.133  36.541  1.00  0.00    -0.206 F 
ATOM     80  C   UNL A   1      39.750  34.325  37.368  1.00  0.00     0.040 A 
ATOM     81  C   UNL A   1      40.478  36.166  35.998  1.00  0.00     0.040 A 
ATOM     82  F   UNL A   1      41.261  35.767  33.820  1.00  0.00    -0.206 F 
ATOM     83  C   UNL A   1      39.965  35.691  37.204  1.00  0.00     0.006 A 
ENDBRANCH  55  76
BRANCH  67  84
ATOM     84  C   UNL A   1      46.531  30.946  33.010  1.00  0.00     0.057 A 
ATOM     85  C   UNL A   1      47.396  31.939  32.538  1.00  0.00     0.134 A 
ATOM     86  C   UNL A   1      47.021  30.062  33.981  1.00  0.00     0.134 A 
ATOM     87  F   UNL A   1      46.990  32.808  31.600  1.00  0.00    -0.206 F 
ATOM     88  C   UNL A   1      48.700  32.054  33.016  1.00  0.00     0.040 A 
ATOM     89  C   UNL A   1      48.312  30.190  34.494  1.00  0.00     0.040 A 
ATOM     90  F   UNL A   1      46.235  29.099  34.485  1.00  0.00    -0.206 F 
ATOM     91  C   UNL A   1      49.157  31.185  34.006  1.00  0.00     0.006 A 
ENDBRANCH  67  84
ENDBRANCH  41  42
ENDBRANCH  34  36
ENDBRANCH  33  34
ENDBRANCH  32  33
ENDBRANCH   1  32
TORSDOF 17
ENDMDL
MODEL 3
REMARK VINA RESULT:     -11.0      3.758      9.071
REMARK SMILES CC[C@@H](C)[C@@H](NC(=O)Cn1nc(-c2ccc3ccccc3c2)ccc1=O)C(=O)OCCOC(=O)c1ccc(-c2c3nc(c(-c4c(F)cccc4F)c4ccc([nH]4)c(-c4c(F)cccc4F)c4nc(c(-c5c(F)cccc5F)c5ccc2[nH]5)C=C4)C=C3)cc1
REMARK SMILES IDX 30 1 29 2 27 3 28 4 5 5 3 6 4 7 2 8 1 9 6 10 7 11 8 13 9 14
REMARK SMILES IDX 10 15 11 16 25 17 12 18 24 19 26 20 23 21 13 22 14 23 22 24
REMARK SMILES IDX 15 25 21 26 16 27 20 28 17 29 19 30 18 31 31 32 32 33 33 34
REMARK SMILES IDX 34 35 35 36 36 37 88 38 37 39 87 40 38 41 39 42 40 43 81 44
REMARK SMILES IDX 41 45 86 46 80 47 82 48 42 49 85 50 79 51 78 52 43 54 69 55
REMARK SMILES IDX 52 56 68 57 53 58 56 59 67 60 83 61 54 62 55 63 66 65 84 66
REMARK SMILES IDX 57 67 44 68 45 69 50 70 46 71 47 72 49 73 51 74 48 75 70 76
REMARK SMILES IDX 71 77 76 78 72 79 73 80 75 81 77 82 74 83 58 84 59 85 64 86
REMARK SMILES IDX 60 87 61 88 63 89 65 90 62 91
REMARK H PARENT 6 12 82 53 56 64
REMARK Flexibility Score: inf
ROOT
ATOM      1  C   UNL A   1      44.849  22.674  24.049  1.00  0.00     0.274 C 
ENDROOT
BRANCH   1   2
ATOM      2  O   UNL A   1      45.117  21.758  25.147  1.00  0.00    -0.461 OA
BRANCH   2   3
ATOM      3  C   UNL A   1      44.181  21.704  26.126  1.00  0.00     0.329 C 
ATOM      4  O   UNL A   1      44.286  22.315  27.190  1.00  0.00    -0.250 OA
BRANCH   3   5
ATOM      5  C   UNL A   1      43.035  20.682  25.917  1.00  0.00     0.195 C 
BRANCH   5   6
ATOM      6  C   UNL A   1      43.203  19.220  25.407  1.00  0.00     0.019 C 
ATOM      7  C   UNL A   1      42.845  18.179  26.472  1.00  0.00     0.010 C 
BRANCH   6   8
ATOM      8  C   UNL A   1      44.662  18.941  24.935  1.00  0.00     0.002 C 
ATOM      9  C   UNL A   1      44.853  19.011  23.424  1.00  0.00     0.004 C 
ENDBRANCH   6   8
ENDBRANCH   5   6
BRANCH   5  10
ATOM     10  N   UNL A   1      42.088  20.800  27.035  1.00  0.00    -0.341 N 
ATOM     11  C   UNL A   1      40.930  21.499  27.190  1.00  0.00     0.242 C 
ATOM     12  H   UNL A   1      42.341  20.272  27.826  1.00  0.00     0.164 HD
ATOM     13  O   UNL A   1      40.535  21.625  28.357  1.00  0.00    -0.273 OA
BRANCH  11  14
ATOM     14  C   UNL A   1      40.018  21.900  26.024  1.00  0.00     0.248 C 
BRANCH  14  15
ATOM     15  N   UNL A   1      38.660  21.420  25.766  1.00  0.00    -0.220 N 
ATOM     16  N   UNL A   1      37.617  22.315  25.662  1.00  0.00    -0.169 NA
ATOM     17  C   UNL A   1      38.547  20.084  25.385  1.00  0.00     0.267 A 
ATOM     18  C   UNL A   1      36.489  21.891  25.170  1.00  0.00     0.091 A 
ATOM     19  C   UNL A   1      37.212  19.630  24.951  1.00  0.00     0.075 A 
ATOM     20  O   UNL A   1      39.480  19.286  25.336  1.00  0.00    -0.268 OA
ATOM     21  C   UNL A   1      36.202  20.488  24.821  1.00  0.00     0.036 A 
BRANCH  18  22
ATOM     22  C   UNL A   1      35.426  22.862  24.796  1.00  0.00     0.003 A 
ATOM     23  C   UNL A   1      35.494  24.131  25.369  1.00  0.00     0.011 A 
ATOM     24  C   UNL A   1      34.289  22.492  24.077  1.00  0.00     0.019 A 
ATOM     25  C   UNL A   1      34.373  24.964  25.376  1.00  0.00     0.009 A 
ATOM     26  C   UNL A   1      33.166  23.351  24.033  1.00  0.00    -0.018 A 
ATOM     27  C   UNL A   1      33.185  24.560  24.766  1.00  0.00    -0.018 A 
ATOM     28  C   UNL A   1      31.996  23.017  23.333  1.00  0.00     0.009 A 
ATOM     29  C   UNL A   1      32.009  25.314  24.911  1.00  0.00     0.009 A 
ATOM     30  C   UNL A   1      30.842  23.801  23.448  1.00  0.00     0.001 A 
ATOM     31  C   UNL A   1      30.836  24.924  24.270  1.00  0.00     0.001 A 
ENDBRANCH  18  22
ENDBRANCH  14  15
ENDBRANCH  11  14
ENDBRANCH   5  10
ENDBRANCH   3   5
ENDBRANCH   2   3
ENDBRANCH   1   2
BRANCH   1  32
ATOM     32  C   UNL A   1      45.546  24.017  24.242  1.00  0.00     0.275 C 
BRANCH  32  33
ATOM     33  O   UNL A   1      44.595  24.962  24.744  1.00  0.00    -0.458 OA
BRANCH  33  34
ATOM     34  C   UNL A   1      45.154  26.125  25.132  1.00  0.00     0.338 C 
ATOM     35  O   UNL A   1      45.997  26.781  24.562  1.00  0.00    -0.246 OA
BRANCH  34  36
ATOM     36  C   UNL A   1      44.456  26.616  26.306  1.00  0.00     0.060 A 
ATOM     37  C   UNL A   1      44.637  27.929  26.707  1.00  0.00     0.016 A 
ATOM     38  C   UNL A   1      43.573  25.754  26.960  1.00  0.00     0.016 A 
ATOM     39  C   UNL A   1      43.942  28.364  27.820  1.00  0.00     0.010 A 
ATOM     40  C   UNL A   1      42.844  26.195  28.041  1.00  0.00     0.010 A 
ATOM     41  C   UNL A   1      43.056  27.495  28.486  1.00  0.00    -0.014 A 
BRANCH  41  42
ATOM     42  C   UNL A   1      42.345  27.977  29.668  1.00  0.00     0.031 A 
ATOM     43  C   UNL A   1      42.980  27.844  31.010  1.00  0.00     0.074 A 
ATOM     44  C   UNL A   1      41.165  28.581  29.468  1.00  0.00     0.049 A 
ATOM     45  N   UNL A   1      42.634  28.412  32.133  1.00  0.00    -0.248 NA
ATOM     46  C   UNL A   1      44.153  26.960  31.112  1.00  0.00     0.031 C 
ATOM     47  C   UNL A   1      40.474  28.670  28.178  1.00  0.00     0.029 A 
ATOM     48  N   UNL A   1      40.366  29.271  30.330  1.00  0.00    -0.354 N 
ATOM     49  C   UNL A   1      43.570  27.986  33.064  1.00  0.00     0.074 A 
ATOM     50  C   UNL A   1      44.448  27.051  32.400  1.00  0.00     0.031 C 
ATOM     51  C   UNL A   1      39.385  29.438  28.321  1.00  0.00     0.029 A 
ATOM     52  C   UNL A   1      39.298  29.867  29.711  1.00  0.00     0.049 A 
ATOM     53  H   UNL A   1      40.538  29.333  31.297  1.00  0.00     0.167 HD
ATOM     54  C   UNL A   1      43.690  28.381  34.351  1.00  0.00     0.037 A 
ATOM     55  C   UNL A   1      38.374  30.694  30.226  1.00  0.00     0.037 A 
ATOM     56  C   UNL A   1      42.769  29.290  34.979  1.00  0.00     0.049 A 
ATOM     57  C   UNL A   1      38.513  31.082  31.670  1.00  0.00     0.074 A 
ATOM     58  C   UNL A   1      42.775  29.779  36.270  1.00  0.00     0.029 A 
ATOM     59  N   UNL A   1      41.655  29.834  34.347  1.00  0.00    -0.354 N 
ATOM     60  N   UNL A   1      39.449  30.754  32.529  1.00  0.00    -0.248 NA
ATOM     61  C   UNL A   1      37.473  31.961  32.212  1.00  0.00     0.031 C 
ATOM     62  C   UNL A   1      41.636  30.576  36.436  1.00  0.00     0.029 A 
ATOM     63  C   UNL A   1      40.951  30.632  35.230  1.00  0.00     0.049 A 
ATOM     64  H   UNL A   1      41.406  29.675  33.408  1.00  0.00     0.167 HD
ATOM     65  C   UNL A   1      39.123  31.397  33.713  1.00  0.00     0.074 A 
ATOM     66  C   UNL A   1      37.919  32.163  33.443  1.00  0.00     0.031 C 
ATOM     67  C   UNL A   1      39.747  31.363  34.917  1.00  0.00     0.037 A 
BRANCH  54  68
ATOM     68  C   UNL A   1      44.838  27.820  35.138  1.00  0.00     0.057 A 
ATOM     69  C   UNL A   1      46.076  28.473  35.169  1.00  0.00     0.134 A 
ATOM     70  C   UNL A   1      44.719  26.633  35.876  1.00  0.00     0.134 A 
ATOM     71  F   UNL A   1      46.262  29.615  34.490  1.00  0.00    -0.206 F 
ATOM     72  C   UNL A   1      47.151  27.967  35.903  1.00  0.00     0.040 A 
ATOM     73  C   UNL A   1      45.777  26.132  36.636  1.00  0.00     0.040 A 
ATOM     74  F   UNL A   1      43.555  25.964  35.906  1.00  0.00    -0.206 F 
ATOM     75  C   UNL A   1      47.000  26.798  36.647  1.00  0.00     0.006 A 
ENDBRANCH  54  68
BRANCH  55  76
ATOM     76  C   UNL A   1      37.281  31.216  29.373  1.00  0.00     0.057 A 
ATOM     77  C   UNL A   1      36.153  30.437  29.083  1.00  0.00     0.134 A 
ATOM     78  C   UNL A   1      37.328  32.505  28.830  1.00  0.00     0.134 A 
ATOM     79  F   UNL A   1      36.056  29.185  29.555  1.00  0.00    -0.206 F 
ATOM     80  C   UNL A   1      35.111  30.921  28.292  1.00  0.00     0.040 A 
ATOM     81  C   UNL A   1      36.279  33.014  28.062  1.00  0.00     0.040 A 
ATOM     82  F   UNL A   1      38.381  33.300  29.068  1.00  0.00    -0.206 F 
ATOM     83  C   UNL A   1      35.167  32.219  27.791  1.00  0.00     0.006 A 
ENDBRANCH  55  76
BRANCH  67  84
ATOM     84  C   UNL A   1      39.131  32.187  36.007  1.00  0.00     0.057 A 
ATOM     85  C   UNL A   1      38.185  31.629  36.875  1.00  0.00     0.134 A 
ATOM     86  C   UNL A   1      39.473  33.533  36.196  1.00  0.00     0.134 A 
ATOM     87  F   UNL A   1      37.807  30.349  36.739  1.00  0.00    -0.206 F 
ATOM     88  C   UNL A   1      37.603  32.378  37.896  1.00  0.00     0.040 A 
ATOM     89  C   UNL A   1      38.925  34.283  37.237  1.00  0.00     0.040 A 
ATOM     90  F   UNL A   1      40.386  34.121  35.407  1.00  0.00    -0.206 F 
ATOM     91  C   UNL A   1      37.983  33.706  38.086  1.00  0.00     0.006 A 
ENDBRANCH  67  84
ENDBRANCH  41  42
ENDBRANCH  34  36
ENDBRANCH  33  34
ENDBRANCH  32  33
ENDBRANCH   1  32
TORSDOF 17
ENDMDL
