MODEL 1
REMARK VINA RESULT:     -10.8      0.000      0.000
REMARK SMILES CCOc1ncnc(N[C@@H]2C=C[C@H](C(=O)OCCOC(=O)c3ccc(-c4c5nc(c(-c6c(F)cccc6F)c6ccc([nH]6)c(-c6c(F)cccc6F)c6nc(c(-c7c(F)cccc7F)c7ccc4[nH]7)C=C6)C=C5)cc3)C2)c1C
REMARK SMILES IDX 17 1 16 2 14 3 15 4 13 5 10 6 11 7 76 8 12 9 9 10 8 12 4 13
REMARK SMILES IDX 5 14 77 15 6 16 78 17 7 18 3 19 2 20 1 21 18 22 19 23 20 24
REMARK SMILES IDX 21 25 22 26 23 27 75 28 24 29 74 30 25 31 26 32 27 33 68 34
REMARK SMILES IDX 28 35 73 36 67 37 69 38 29 39 72 40 66 41 65 42 30 44 56 45
REMARK SMILES IDX 39 46 55 47 40 48 43 49 54 50 70 51 41 52 42 53 53 55 71 56
REMARK SMILES IDX 44 57 31 58 32 59 37 60 33 61 34 62 36 63 38 64 35 65 57 66
REMARK SMILES IDX 58 67 63 68 59 69 60 70 62 71 64 72 61 73 45 74 46 75 51 76
REMARK SMILES IDX 47 77 48 78 50 79 52 80 49 81
REMARK H PARENT 9 11 69 43 43 54
REMARK Flexibility Score: inf
ROOT
ATOM      1  C   UNL A   1      44.768  21.305  24.341  1.00  0.00     0.274 C 
ENDROOT
BRANCH   1   2
ATOM      2  O   UNL A   1      43.903  21.331  25.498  1.00  0.00    -0.462 OA
BRANCH   2   3
ATOM      3  C   UNL A   1      43.092  20.240  25.661  1.00  0.00     0.312 C 
ATOM      4  O   UNL A   1      43.034  19.305  24.864  1.00  0.00    -0.252 OA
BRANCH   3   5
ATOM      5  C   UNL A   1      42.190  20.328  26.901  1.00  0.00     0.124 C 
ATOM      6  C   UNL A   1      39.980  21.380  27.021  1.00  0.00     0.104 C 
ATOM      7  C   UNL A   1      41.030  22.287  27.561  1.00  0.00    -0.006 C 
ATOM      8  C   UNL A   1      40.688  20.073  26.696  1.00  0.00     0.048 C 
ATOM      9  C   UNL A   1      42.235  21.714  27.508  1.00  0.00    -0.014 C 
BRANCH   6  10
ATOM     10  N   UNL A   1      39.322  21.975  25.893  1.00  0.00    -0.363 N 
ATOM     11  H   UNL A   1      39.882  22.355  25.178  1.00  0.00     0.162 HD
BRANCH  10  12
ATOM     12  C   UNL A   1      37.929  22.046  25.748  1.00  0.00     0.136 A 
ATOM     13  C   UNL A   1      35.555  23.886  24.499  1.00  0.00     0.221 A 
ATOM     14  N   UNL A   1      34.703  22.432  24.059  1.00  0.00    -0.201 NA
ATOM     15  C   UNL A   1      37.312  23.719  25.487  1.00  0.00     0.054 A 
ATOM     16  C   UNL A   1      35.433  20.960  24.474  1.00  0.00     0.228 A 
ATOM     17  C   UNL A   1      38.224  24.510  26.554  1.00  0.00     0.054 C 
ATOM     18  N   UNL A   1      36.958  20.730  25.271  1.00  0.00    -0.219 NA
BRANCH  13  19
ATOM     19  O   UNL A   1      34.521  24.874  24.562  1.00  0.00    -0.478 OA
BRANCH  19  20
ATOM     20  C   UNL A   1      33.942  25.304  25.797  1.00  0.00     0.228 C 
ATOM     21  C   UNL A   1      33.939  26.843  25.876  1.00  0.00     0.049 C 
ENDBRANCH  19  20
ENDBRANCH  13  19
ENDBRANCH  10  12
ENDBRANCH   6  10
ENDBRANCH   3   5
ENDBRANCH   2   3
ENDBRANCH   1   2
BRANCH   1  22
ATOM     22  C   UNL A   1      44.827  22.668  23.623  1.00  0.00     0.275 C 
BRANCH  22  23
ATOM     23  O   UNL A   1      44.376  23.719  24.507  1.00  0.00    -0.458 OA
BRANCH  23  24
ATOM     24  C   UNL A   1      45.330  24.531  25.025  1.00  0.00     0.338 C 
ATOM     25  O   UNL A   1      46.441  24.704  24.537  1.00  0.00    -0.246 OA
BRANCH  24  26
ATOM     26  C   UNL A   1      44.925  25.287  26.339  1.00  0.00     0.060 A 
ATOM     27  C   UNL A   1      43.972  24.808  28.055  1.00  0.00     0.016 A 
ATOM     28  C   UNL A   1      44.912  27.059  25.901  1.00  0.00     0.016 A 
ATOM     29  C   UNL A   1      43.134  25.973  28.990  1.00  0.00     0.010 A 
ATOM     30  C   UNL A   1      44.055  28.186  27.035  1.00  0.00     0.010 A 
ATOM     31  C   UNL A   1      43.229  27.619  28.530  1.00  0.00    -0.014 A 
BRANCH  31  32
ATOM     32  C   UNL A   1      42.597  28.443  29.596  1.00  0.00     0.031 A 
ATOM     33  C   UNL A   1      43.374  28.735  30.817  1.00  0.00     0.074 A 
ATOM     34  C   UNL A   1      41.385  29.019  29.397  1.00  0.00     0.049 A 
ATOM     35  N   UNL A   1      42.961  29.088  31.995  1.00  0.00    -0.248 NA
ATOM     36  C   UNL A   1      44.816  28.534  30.724  1.00  0.00     0.031 C 
ATOM     37  C   UNL A   1      40.525  28.885  28.204  1.00  0.00     0.029 A 
ATOM     38  N   UNL A   1      40.672  29.900  30.168  1.00  0.00    -0.354 N 
ATOM     39  C   UNL A   1      44.085  29.010  32.801  1.00  0.00     0.074 A 
ATOM     40  C   UNL A   1      45.173  28.518  31.994  1.00  0.00     0.031 C 
ATOM     41  C   UNL A   1      39.509  29.748  28.261  1.00  0.00     0.029 A 
ATOM     42  C   UNL A   1      39.496  30.319  29.585  1.00  0.00     0.049 A 
ATOM     43  H   UNL A   1      40.973  30.203  31.055  1.00  0.00     0.167 HD
ATOM     44  C   UNL A   1      44.193  29.379  34.093  1.00  0.00     0.037 A 
ATOM     45  C   UNL A   1      38.459  30.999  30.100  1.00  0.00     0.037 A 
ATOM     46  C   UNL A   1      43.117  30.036  34.777  1.00  0.00     0.049 A 
ATOM     47  C   UNL A   1      38.560  31.337  31.551  1.00  0.00     0.074 A 
ATOM     48  C   UNL A   1      43.056  30.469  36.082  1.00  0.00     0.029 A 
ATOM     49  N   UNL A   1      41.919  30.398  34.166  1.00  0.00    -0.354 N 
ATOM     50  N   UNL A   1      39.560  31.119  32.375  1.00  0.00    -0.248 NA
ATOM     51  C   UNL A   1      37.389  31.963  32.161  1.00  0.00     0.031 C 
ATOM     52  C   UNL A   1      41.798  31.049  36.277  1.00  0.00     0.029 A 
ATOM     53  C   UNL A   1      41.104  31.041  35.072  1.00  0.00     0.049 A 
ATOM     54  H   UNL A   1      41.688  30.219  33.226  1.00  0.00     0.167 HD
ATOM     55  C   UNL A   1      39.147  31.595  33.605  1.00  0.00     0.074 A 
ATOM     56  C   UNL A   1      37.811  32.135  33.404  1.00  0.00     0.031 C 
ATOM     57  C   UNL A   1      39.796  31.582  34.794  1.00  0.00     0.037 A 
BRANCH  44  58
ATOM     58  C   UNL A   1      45.466  29.029  34.800  1.00  0.00     0.057 A 
ATOM     59  C   UNL A   1      46.547  29.914  34.916  1.00  0.00     0.134 A 
ATOM     60  C   UNL A   1      45.640  27.733  35.302  1.00  0.00     0.134 A 
ATOM     61  F   UNL A   1      46.465  31.160  34.424  1.00  0.00    -0.206 F 
ATOM     62  C   UNL A   1      47.770  29.506  35.452  1.00  0.00     0.040 A 
ATOM     63  C   UNL A   1      46.843  27.327  35.879  1.00  0.00     0.040 A 
ATOM     64  F   UNL A   1      44.651  26.831  35.215  1.00  0.00    -0.206 F 
ATOM     65  C   UNL A   1      47.918  28.209  35.940  1.00  0.00     0.006 A 
ENDBRANCH  44  58
BRANCH  45  66
ATOM     66  C   UNL A   1      37.237  31.267  29.290  1.00  0.00     0.057 A 
ATOM     67  C   UNL A   1      37.005  32.521  28.716  1.00  0.00     0.134 A 
ATOM     68  C   UNL A   1      36.279  30.270  29.045  1.00  0.00     0.134 A 
ATOM     69  F   UNL A   1      37.872  33.525  28.916  1.00  0.00    -0.206 F 
ATOM     70  C   UNL A   1      35.867  32.778  27.945  1.00  0.00     0.040 A 
ATOM     71  C   UNL A   1      35.160  30.499  28.243  1.00  0.00     0.040 A 
ATOM     72  F   UNL A   1      36.434  29.038  29.555  1.00  0.00    -0.206 F 
ATOM     73  C   UNL A   1      34.946  31.762  27.698  1.00  0.00     0.006 A 
ENDBRANCH  45  66
BRANCH  57  74
ATOM     74  C   UNL A   1      39.093  32.249  35.930  1.00  0.00     0.057 A 
ATOM     75  C   UNL A   1      38.237  31.548  36.786  1.00  0.00     0.134 A 
ATOM     76  C   UNL A   1      39.321  33.606  36.187  1.00  0.00     0.134 A 
ATOM     77  F   UNL A   1      37.969  30.251  36.571  1.00  0.00    -0.206 F 
ATOM     78  C   UNL A   1      37.608  32.187  37.851  1.00  0.00     0.040 A 
ATOM     79  C   UNL A   1      38.732  34.243  37.273  1.00  0.00     0.040 A 
ATOM     80  F   UNL A   1      40.142  34.320  35.401  1.00  0.00    -0.206 F 
ATOM     81  C   UNL A   1      37.864  33.535  38.103  1.00  0.00     0.006 A 
ENDBRANCH  57  74
ENDBRANCH  31  32
ENDBRANCH  24  26
ENDBRANCH  23  24
ENDBRANCH  22  23
ENDBRANCH   1  22
TORSDOF 15
ENDMDL
MODEL 2
REMARK VINA RESULT:     -10.6      3.515      8.547
REMARK SMILES CCOc1ncnc(N[C@@H]2C=C[C@H](C(=O)OCCOC(=O)c3ccc(-c4c5nc(c(-c6c(F)cccc6F)c6ccc([nH]6)c(-c6c(F)cccc6F)c6nc(c(-c7c(F)cccc7F)c7ccc4[nH]7)C=C6)C=C5)cc3)C2)c1C
REMARK SMILES IDX 17 1 16 2 14 3 15 4 13 5 10 6 11 7 76 8 12 9 9 10 8 12 4 13
REMARK SMILES IDX 5 14 77 15 6 16 78 17 7 18 3 19 2 20 1 21 18 22 19 23 20 24
REMARK SMILES IDX 21 25 22 26 23 27 75 28 24 29 74 30 25 31 26 32 27 33 68 34
REMARK SMILES IDX 28 35 73 36 67 37 69 38 29 39 72 40 66 41 65 42 30 44 56 45
REMARK SMILES IDX 39 46 55 47 40 48 43 49 54 50 70 51 41 52 42 53 53 55 71 56
REMARK SMILES IDX 44 57 31 58 32 59 37 60 33 61 34 62 36 63 38 64 35 65 57 66
REMARK SMILES IDX 58 67 63 68 59 69 60 70 62 71 64 72 61 73 45 74 46 75 51 76
REMARK SMILES IDX 47 77 48 78 50 79 52 80 49 81
REMARK H PARENT 9 11 69 43 43 54
REMARK Flexibility Score: inf
ROOT
ATOM      1  C   UNL A   1      31.170  28.261  24.539  1.00  0.00     0.274 C 
ENDROOT
BRANCH   1   2
ATOM      2  O   UNL A   1      32.006  27.291  23.871  1.00  0.00    -0.462 OA
BRANCH   2   3
ATOM      3  C   UNL A   1      31.959  26.017  24.371  1.00  0.00     0.312 C 
ATOM      4  O   UNL A   1      31.218  25.138  23.935  1.00  0.00    -0.252 OA
BRANCH   3   5
ATOM      5  C   UNL A   1      32.864  25.806  25.594  1.00  0.00     0.124 C 
ATOM      6  C   UNL A   1      34.847  24.372  25.705  1.00  0.00     0.104 C 
ATOM      7  C   UNL A   1      33.665  23.690  26.301  1.00  0.00    -0.006 C 
ATOM      8  C   UNL A   1      34.381  25.774  25.348  1.00  0.00     0.048 C 
ATOM      9  C   UNL A   1      32.583  24.472  26.252  1.00  0.00    -0.014 C 
BRANCH   6  10
ATOM     10  N   UNL A   1      35.354  23.629  24.587  1.00  0.00    -0.363 N 
ATOM     11  H   UNL A   1      36.216  23.906  24.201  1.00  0.00     0.162 HD
BRANCH  10  12
ATOM     12  C   UNL A   1      34.695  22.534  24.011  1.00  0.00     0.136 A 
ATOM     13  C   UNL A   1      33.491  19.592  24.701  1.00  0.00     0.221 A 
ATOM     14  N   UNL A   1      32.169  19.912  23.614  1.00  0.00    -0.201 NA
ATOM     15  C   UNL A   1      34.940  20.989  24.905  1.00  0.00     0.054 A 
ATOM     16  C   UNL A   1      32.180  21.406  22.813  1.00  0.00     0.228 A 
ATOM     17  C   UNL A   1      36.511  21.118  25.237  1.00  0.00     0.054 C 
ATOM     18  N   UNL A   1      33.353  22.676  22.971  1.00  0.00    -0.219 NA
BRANCH  13  19
ATOM     19  O   UNL A   1      33.535  18.163  24.762  1.00  0.00    -0.478 OA
BRANCH  19  20
ATOM     20  C   UNL A   1      34.640  17.405  24.262  1.00  0.00     0.228 C 
ATOM     21  C   UNL A   1      34.238  16.663  22.973  1.00  0.00     0.049 C 
ENDBRANCH  19  20
ENDBRANCH  13  19
ENDBRANCH  10  12
ENDBRANCH   6  10
ENDBRANCH   3   5
ENDBRANCH   2   3
ENDBRANCH   1   2
BRANCH   1  22
ATOM     22  C   UNL A   1      31.931  29.038  25.629  1.00  0.00     0.275 C 
BRANCH  22  23
ATOM     23  O   UNL A   1      31.613  30.446  25.557  1.00  0.00    -0.458 OA
BRANCH  23  24
ATOM     24  C   UNL A   1      32.089  31.231  26.555  1.00  0.00     0.338 C 
ATOM     25  O   UNL A   1      31.483  32.172  27.054  1.00  0.00    -0.246 OA
BRANCH  24  26
ATOM     26  C   UNL A   1      33.520  30.854  27.079  1.00  0.00     0.060 A 
ATOM     27  C   UNL A   1      34.461  29.157  27.639  1.00  0.00     0.016 A 
ATOM     28  C   UNL A   1      34.217  32.400  27.755  1.00  0.00     0.016 A 
ATOM     29  C   UNL A   1      35.769  29.160  28.745  1.00  0.00     0.010 A 
ATOM     30  C   UNL A   1      35.658  32.248  28.847  1.00  0.00     0.010 A 
ATOM     31  C   UNL A   1      36.390  30.663  29.278  1.00  0.00    -0.014 A 
BRANCH  31  32
ATOM     32  C   UNL A   1      37.631  30.409  30.060  1.00  0.00     0.031 A 
ATOM     33  C   UNL A   1      38.771  29.759  29.383  1.00  0.00     0.074 A 
ATOM     34  C   UNL A   1      37.758  30.876  31.327  1.00  0.00     0.049 A 
ATOM     35  N   UNL A   1      39.776  29.116  29.891  1.00  0.00    -0.248 NA
ATOM     36  C   UNL A   1      38.744  29.772  27.925  1.00  0.00     0.031 C 
ATOM     37  C   UNL A   1      36.740  31.607  32.108  1.00  0.00     0.029 A 
ATOM     38  N   UNL A   1      38.829  30.872  32.182  1.00  0.00    -0.354 N 
ATOM     39  C   UNL A   1      40.411  28.538  28.803  1.00  0.00     0.074 A 
ATOM     40  C   UNL A   1      39.643  28.855  27.625  1.00  0.00     0.031 C 
ATOM     41  C   UNL A   1      37.273  32.096  33.230  1.00  0.00     0.029 A 
ATOM     42  C   UNL A   1      38.586  31.516  33.376  1.00  0.00     0.049 A 
ATOM     43  H   UNL A   1      39.690  30.447  31.964  1.00  0.00     0.167 HD
ATOM     44  C   UNL A   1      41.571  27.851  28.803  1.00  0.00     0.037 A 
ATOM     45  C   UNL A   1      39.296  31.543  34.515  1.00  0.00     0.037 A 
ATOM     46  C   UNL A   1      42.375  27.737  29.984  1.00  0.00     0.049 A 
ATOM     47  C   UNL A   1      40.541  30.719  34.524  1.00  0.00     0.074 A 
ATOM     48  C   UNL A   1      43.570  27.075  30.159  1.00  0.00     0.029 A 
ATOM     49  N   UNL A   1      42.069  28.361  31.191  1.00  0.00    -0.354 N 
ATOM     50  N   UNL A   1      41.071  30.026  33.542  1.00  0.00    -0.248 NA
ATOM     51  C   UNL A   1      41.261  30.633  35.793  1.00  0.00     0.031 C 
ATOM     52  C   UNL A   1      43.961  27.256  31.489  1.00  0.00     0.029 A 
ATOM     53  C   UNL A   1      43.048  28.090  32.122  1.00  0.00     0.049 A 
ATOM     54  H   UNL A   1      41.270  28.913  31.354  1.00  0.00     0.167 HD
ATOM     55  C   UNL A   1      42.200  29.428  34.068  1.00  0.00     0.074 A 
ATOM     56  C   UNL A   1      42.285  29.865  35.452  1.00  0.00     0.031 C 
ATOM     57  C   UNL A   1      43.083  28.587  33.477  1.00  0.00     0.037 A 
BRANCH  44  58
ATOM     58  C   UNL A   1      41.961  27.169  27.527  1.00  0.00     0.057 A 
ATOM     59  C   UNL A   1      42.668  27.809  26.500  1.00  0.00     0.134 A 
ATOM     60  C   UNL A   1      41.534  25.856  27.292  1.00  0.00     0.134 A 
ATOM     61  F   UNL A   1      43.075  29.081  26.642  1.00  0.00    -0.206 F 
ATOM     62  C   UNL A   1      42.887  27.190  25.268  1.00  0.00     0.040 A 
ATOM     63  C   UNL A   1      41.785  25.212  26.081  1.00  0.00     0.040 A 
ATOM     64  F   UNL A   1      40.843  25.187  28.226  1.00  0.00    -0.206 F 
ATOM     65  C   UNL A   1      42.448  25.885  25.058  1.00  0.00     0.006 A 
ENDBRANCH  44  58
BRANCH  45  66
ATOM     66  C   UNL A   1      38.783  32.248  35.724  1.00  0.00     0.057 A 
ATOM     67  C   UNL A   1      38.104  31.559  36.735  1.00  0.00     0.134 A 
ATOM     68  C   UNL A   1      38.978  33.625  35.916  1.00  0.00     0.134 A 
ATOM     69  F   UNL A   1      37.872  30.243  36.614  1.00  0.00    -0.206 F 
ATOM     70  C   UNL A   1      37.631  32.209  37.878  1.00  0.00     0.040 A 
ATOM     71  C   UNL A   1      38.547  34.280  37.072  1.00  0.00     0.040 A 
ATOM     72  F   UNL A   1      39.625  34.355  34.995  1.00  0.00    -0.206 F 
ATOM     73  C   UNL A   1      37.861  33.572  38.053  1.00  0.00     0.006 A 
ENDBRANCH  45  66
BRANCH  57  74
ATOM     74  C   UNL A   1      44.250  28.171  34.311  1.00  0.00     0.057 A 
ATOM     75  C   UNL A   1      44.236  26.998  35.072  1.00  0.00     0.134 A 
ATOM     76  C   UNL A   1      45.417  28.944  34.306  1.00  0.00     0.134 A 
ATOM     77  F   UNL A   1      43.134  26.233  35.126  1.00  0.00    -0.206 F 
ATOM     78  C   UNL A   1      45.342  26.620  35.827  1.00  0.00     0.040 A 
ATOM     79  C   UNL A   1      46.543  28.553  35.022  1.00  0.00     0.040 A 
ATOM     80  F   UNL A   1      45.485  30.073  33.584  1.00  0.00    -0.206 F 
ATOM     81  C   UNL A   1      46.504  27.392  35.793  1.00  0.00     0.006 A 
ENDBRANCH  57  74
ENDBRANCH  31  32
ENDBRANCH  24  26
ENDBRANCH  23  24
ENDBRANCH  22  23
ENDBRANCH   1  22
TORSDOF 15
ENDMDL
MODEL 3
REMARK VINA RESULT:     -10.5      1.141      2.227
REMARK SMILES CCOc1ncnc(N[C@@H]2C=C[C@H](C(=O)OCCOC(=O)c3ccc(-c4c5nc(c(-c6c(F)cccc6F)c6ccc([nH]6)c(-c6c(F)cccc6F)c6nc(c(-c7c(F)cccc7F)c7ccc4[nH]7)C=C6)C=C5)cc3)C2)c1C
REMARK SMILES IDX 17 1 16 2 14 3 15 4 13 5 10 6 11 7 76 8 12 9 9 10 8 12 4 13
REMARK SMILES IDX 5 14 77 15 6 16 78 17 7 18 3 19 2 20 1 21 18 22 19 23 20 24
REMARK SMILES IDX 21 25 22 26 23 27 75 28 24 29 74 30 25 31 26 32 27 33 68 34
REMARK SMILES IDX 28 35 73 36 67 37 69 38 29 39 72 40 66 41 65 42 30 44 56 45
REMARK SMILES IDX 39 46 55 47 40 48 43 49 54 50 70 51 41 52 42 53 53 55 71 56
REMARK SMILES IDX 44 57 31 58 32 59 37 60 33 61 34 62 36 63 38 64 35 65 57 66
REMARK SMILES IDX 58 67 63 68 59 69 60 70 62 71 64 72 61 73 45 74 46 75 51 76
REMARK SMILES IDX 47 77 48 78 50 79 52 80 49 81
REMARK H PARENT 9 11 69 43 43 54
REMARK Flexibility Score: inf
ROOT
ATOM      1  C   UNL A   1      43.888  22.012  25.187  1.00  0.00     0.274 C 
ENDROOT
BRANCH   1   2
ATOM      2  O   UNL A   1      42.487  22.347  25.299  1.00  0.00    -0.462 OA
BRANCH   2   3
ATOM      3  C   UNL A   1      41.839  21.843  26.395  1.00  0.00     0.312 C 
ATOM      4  O   UNL A   1      41.839  20.652  26.702  1.00  0.00    -0.252 OA
BRANCH   3   5
ATOM      5  C   UNL A   1      41.034  22.897  27.168  1.00  0.00     0.124 C 
ATOM      6  C   UNL A   1      38.877  23.853  26.510  1.00  0.00     0.104 C 
ATOM      7  C   UNL A   1      39.994  24.775  26.162  1.00  0.00    -0.006 C 
ATOM      8  C   UNL A   1      39.513  22.693  27.259  1.00  0.00     0.048 C 
ATOM      9  C   UNL A   1      41.172  24.262  26.529  1.00  0.00    -0.014 C 
BRANCH   6  10
ATOM     10  N   UNL A   1      38.158  23.456  25.333  1.00  0.00    -0.363 N 
ATOM     11  H   UNL A   1      38.674  23.283  24.513  1.00  0.00     0.162 HD
BRANCH  10  12
ATOM     12  C   UNL A   1      36.765  23.297  25.283  1.00  0.00     0.136 A 
ATOM     13  C   UNL A   1      34.340  21.427  26.377  1.00  0.00     0.221 A 
ATOM     14  N   UNL A   1      33.348  22.852  26.522  1.00  0.00    -0.201 NA
ATOM     15  C   UNL A   1      36.214  21.620  25.641  1.00  0.00     0.054 A 
ATOM     16  C   UNL A   1      34.048  24.323  26.051  1.00  0.00     0.228 A 
ATOM     17  C   UNL A   1      37.321  20.792  24.814  1.00  0.00     0.054 C 
ATOM     18  N   UNL A   1      35.660  24.581  25.461  1.00  0.00    -0.219 NA
BRANCH  13  19
ATOM     19  O   UNL A   1      33.386  20.365  26.279  1.00  0.00    -0.478 OA
BRANCH  19  20
ATOM     20  C   UNL A   1      33.230  19.578  25.095  1.00  0.00     0.228 C 
ATOM     21  C   UNL A   1      32.783  20.467  23.919  1.00  0.00     0.049 C 
ENDBRANCH  19  20
ENDBRANCH  13  19
ENDBRANCH  10  12
ENDBRANCH   6  10
ENDBRANCH   3   5
ENDBRANCH   2   3
ENDBRANCH   1   2
BRANCH   1  22
ATOM     22  C   UNL A   1      44.576  22.753  24.024  1.00  0.00     0.275 C 
BRANCH  22  23
ATOM     23  O   UNL A   1      44.544  24.180  24.249  1.00  0.00    -0.458 OA
BRANCH  23  24
ATOM     24  C   UNL A   1      45.570  24.707  24.962  1.00  0.00     0.338 C 
ATOM     25  O   UNL A   1      46.751  24.641  24.641  1.00  0.00    -0.246 OA
BRANCH  24  26
ATOM     26  C   UNL A   1      45.155  25.456  26.278  1.00  0.00     0.060 A 
ATOM     27  C   UNL A   1      44.200  24.965  27.988  1.00  0.00     0.016 A 
ATOM     28  C   UNL A   1      45.135  27.230  25.847  1.00  0.00     0.016 A 
ATOM     29  C   UNL A   1      43.352  26.121  28.926  1.00  0.00     0.010 A 
ATOM     30  C   UNL A   1      44.267  28.347  26.983  1.00  0.00     0.010 A 
ATOM     31  C   UNL A   1      43.440  27.769  28.473  1.00  0.00    -0.014 A 
BRANCH  31  32
ATOM     32  C   UNL A   1      42.800  28.586  29.540  1.00  0.00     0.031 A 
ATOM     33  C   UNL A   1      43.590  28.924  30.740  1.00  0.00     0.074 A 
ATOM     34  C   UNL A   1      41.562  29.112  29.359  1.00  0.00     0.049 A 
ATOM     35  N   UNL A   1      43.188  29.280  31.921  1.00  0.00    -0.248 NA
ATOM     36  C   UNL A   1      45.036  28.776  30.619  1.00  0.00     0.031 C 
ATOM     37  C   UNL A   1      40.683  28.928  28.187  1.00  0.00     0.029 A 
ATOM     38  N   UNL A   1      40.833  29.977  30.133  1.00  0.00    -0.354 N 
ATOM     39  C   UNL A   1      44.332  29.256  32.704  1.00  0.00     0.074 A 
ATOM     40  C   UNL A   1      45.421  28.793  31.881  1.00  0.00     0.031 C 
ATOM     41  C   UNL A   1      39.637  29.753  28.253  1.00  0.00     0.029 A 
ATOM     42  C   UNL A   1      39.630  30.344  29.569  1.00  0.00     0.049 A 
ATOM     43  H   UNL A   1      41.141  30.305  31.009  1.00  0.00     0.167 HD
ATOM     44  C   UNL A   1      44.452  29.649  33.988  1.00  0.00     0.037 A 
ATOM     45  C   UNL A   1      38.580  30.992  30.096  1.00  0.00     0.037 A 
ATOM     46  C   UNL A   1      43.368  30.275  34.685  1.00  0.00     0.049 A 
ATOM     47  C   UNL A   1      38.698  31.355  31.539  1.00  0.00     0.074 A 
ATOM     48  C   UNL A   1      43.318  30.726  35.985  1.00  0.00     0.029 A 
ATOM     49  N   UNL A   1      42.144  30.582  34.095  1.00  0.00    -0.354 N 
ATOM     50  N   UNL A   1      39.723  31.188  32.345  1.00  0.00    -0.248 NA
ATOM     51  C   UNL A   1      37.518  31.947  32.166  1.00  0.00     0.031 C 
ATOM     52  C   UNL A   1      42.043  31.261  36.198  1.00  0.00     0.029 A 
ATOM     53  C   UNL A   1      41.325  31.209  35.009  1.00  0.00     0.049 A 
ATOM     54  H   UNL A   1      41.900  30.381  33.163  1.00  0.00     0.167 HD
ATOM     55  C   UNL A   1      39.318  31.667  33.576  1.00  0.00     0.074 A 
ATOM     56  C   UNL A   1      37.959  32.153  33.397  1.00  0.00     0.031 C 
ATOM     57  C   UNL A   1      39.991  31.696  34.752  1.00  0.00     0.037 A 
BRANCH  44  58
ATOM     58  C   UNL A   1      45.752  29.357  34.673  1.00  0.00     0.057 A 
ATOM     59  C   UNL A   1      46.000  28.169  35.376  1.00  0.00     0.134 A 
ATOM     60  C   UNL A   1      46.751  30.339  34.699  1.00  0.00     0.134 A 
ATOM     61  F   UNL A   1      45.072  27.200  35.425  1.00  0.00    -0.206 F 
ATOM     62  C   UNL A   1      47.166  27.992  36.123  1.00  0.00     0.040 A 
ATOM     63  C   UNL A   1      47.938  30.156  35.407  1.00  0.00     0.040 A 
ATOM     64  F   UNL A   1      46.577  31.504  34.058  1.00  0.00    -0.206 F 
ATOM     65  C   UNL A   1      48.141  28.987  36.136  1.00  0.00     0.006 A 
ENDBRANCH  44  58
BRANCH  45  66
ATOM     66  C   UNL A   1      37.332  31.201  29.309  1.00  0.00     0.057 A 
ATOM     67  C   UNL A   1      37.056  32.427  28.694  1.00  0.00     0.134 A 
ATOM     68  C   UNL A   1      36.390  30.175  29.128  1.00  0.00     0.134 A 
ATOM     69  F   UNL A   1      37.905  33.456  28.832  1.00  0.00    -0.206 F 
ATOM     70  C   UNL A   1      35.894  32.629  27.944  1.00  0.00     0.040 A 
ATOM     71  C   UNL A   1      35.246  30.349  28.347  1.00  0.00     0.040 A 
ATOM     72  F   UNL A   1      36.585  28.968  29.681  1.00  0.00    -0.206 F 
ATOM     73  C   UNL A   1      34.990  31.585  27.760  1.00  0.00     0.006 A 
ENDBRANCH  45  66
BRANCH  57  74
ATOM     74  C   UNL A   1      39.288  32.354  35.892  1.00  0.00     0.057 A 
ATOM     75  C   UNL A   1      39.455  33.712  36.182  1.00  0.00     0.134 A 
ATOM     76  C   UNL A   1      38.396  31.614  36.678  1.00  0.00     0.134 A 
ATOM     77  F   UNL A   1      40.314  34.460  35.472  1.00  0.00    -0.206 F 
ATOM     78  C   UNL A   1      38.774  34.309  37.239  1.00  0.00     0.040 A 
ATOM     79  C   UNL A   1      37.677  32.211  37.708  1.00  0.00     0.040 A 
ATOM     80  F   UNL A   1      38.192  30.310  36.434  1.00  0.00    -0.206 F 
ATOM     81  C   UNL A   1      37.873  33.560  37.997  1.00  0.00     0.006 A 
ENDBRANCH  57  74
ENDBRANCH  31  32
ENDBRANCH  24  26
ENDBRANCH  23  24
ENDBRANCH  22  23
ENDBRANCH   1  22
TORSDOF 15
ENDMDL
