MODEL 1
REMARK VINA RESULT:     -13.9      0.000      0.000
REMARK SMILES Cc1ccc(NC(=O)CN2C(=O)S/C(=C\c3cc(Cl)c(OCC(=O)OCCOC(=O)c4ccc(-c5c6nc(c(-c7c(F)cccc7F)c7ccc([nH]7)c(-c7c(F)cccc7F)c7nc(c(-c8c(F)cccc8F)c8ccc5[nH]8)C=C7)C=C6)cc4)c(Cl)c3)C2=O)cc1
REMARK SMILES IDX 23 1 24 2 22 3 21 4 20 5 16 6 17 7 87 8 18 9 85 10 19 11
REMARK SMILES IDX 86 12 15 13 10 14 11 15 88 16 12 17 13 18 14 19 89 20 9 21
REMARK SMILES IDX 7 22 6 23 8 25 5 26 1 27 2 28 3 29 91 30 4 31 90 32 25 33
REMARK SMILES IDX 26 34 27 35 28 36 29 37 30 38 31 39 32 40 84 41 33 42 83 43
REMARK SMILES IDX 34 44 35 45 36 46 77 47 37 48 82 49 76 50 78 51 38 52 81 53
REMARK SMILES IDX 75 54 74 55 39 57 65 58 48 59 64 60 49 61 52 62 63 63 79 64
REMARK SMILES IDX 50 65 51 66 62 68 80 69 53 70 40 71 41 72 46 73 42 74 43 75
REMARK SMILES IDX 45 76 47 77 44 78 66 79 67 80 72 81 68 82 69 83 71 84 73 85
REMARK SMILES IDX 70 86 54 87 55 88 60 89 56 90 57 91 59 92 61 93 58 94
REMARK H PARENT 6 24 78 56 52 67
REMARK Flexibility Score: inf
ROOT
ATOM      1  C   UNL A   1      32.896  35.481  29.494  1.00  0.00     0.344 C 
ATOM      2  O   UNL A   1      32.804  36.494  28.758  1.00  0.00    -0.248 OA
ENDROOT
BRANCH   1   3
ATOM      3  C   UNL A   1      33.586  33.435  29.066  1.00  0.00     0.352 C 
BRANCH   3   4
ATOM      4  O   UNL A   1      34.147  32.556  27.865  1.00  0.00    -0.479 OA
BRANCH   4   5
ATOM      5  C   UNL A   1      33.621  31.381  27.364  1.00  0.00     0.157 A 
ATOM      6  C   UNL A   1      32.619  28.686  26.912  1.00  0.00    -0.021 A 
ATOM      7  C   UNL A   1      31.833  29.822  26.635  1.00  0.00     0.032 A 
ATOM      8  C   UNL A   1      33.945  28.977  27.256  1.00  0.00     0.032 A 
ATOM      9  C   UNL A   1      32.326  31.154  26.873  1.00  0.00     0.085 A 
ATOM     10  C   UNL A   1      34.465  30.275  27.357  1.00  0.00     0.085 A 
ATOM     11  Cl  UNL A   1      31.282  32.480  26.502  1.00  0.00    -0.080 Cl
ATOM     12  Cl  UNL A   1      36.181  30.421  27.535  1.00  0.00    -0.080 Cl
BRANCH   6  13
ATOM     13  C   UNL A   1      32.065  27.274  27.017  1.00  0.00     0.029 C 
ATOM     14  N   UNL A   1      32.408  24.157  25.149  1.00  0.00    -0.259 N 
ATOM     15  C   UNL A   1      33.051  24.994  24.287  1.00  0.00     0.294 C 
ATOM     16  C   UNL A   1      31.845  24.806  26.244  1.00  0.00     0.268 C 
ATOM     17  O   UNL A   1      34.034  24.775  23.604  1.00  0.00    -0.261 OA
ATOM     18  S   UNL A   1      32.270  26.541  24.362  1.00  0.00    -0.022 SA
ATOM     19  C   UNL A   1      31.980  26.321  26.054  1.00  0.00     0.083 C 
ATOM     20  O   UNL A   1      31.403  24.274  27.251  1.00  0.00    -0.268 OA
BRANCH  14  21
ATOM     21  C   UNL A   1      32.731  22.732  25.087  1.00  0.00     0.230 C 
BRANCH  21  22
ATOM     22  C   UNL A   1      34.081  22.401  25.776  1.00  0.00     0.244 C 
ATOM     23  N   UNL A   1      34.779  21.256  25.499  1.00  0.00    -0.325 N 
ATOM     24  H   UNL A   1      35.755  21.341  25.591  1.00  0.00     0.169 HD
ATOM     25  O   UNL A   1      34.593  23.208  26.560  1.00  0.00    -0.273 OA
BRANCH  23  26
ATOM     26  C   UNL A   1      34.340  19.985  25.109  1.00  0.00     0.041 A 
ATOM     27  C   UNL A   1      33.099  16.017  23.963  1.00  0.00     0.044 C 
ATOM     28  C   UNL A   1      33.564  17.379  24.384  1.00  0.00    -0.051 A 
ATOM     29  C   UNL A   1      32.637  18.277  24.918  1.00  0.00     0.005 A 
ATOM     30  C   UNL A   1      34.896  17.779  24.253  1.00  0.00     0.005 A 
ATOM     31  C   UNL A   1      33.027  19.563  25.290  1.00  0.00     0.026 A 
ATOM     32  C   UNL A   1      35.285  19.072  24.626  1.00  0.00     0.026 A 
ENDBRANCH  23  26
ENDBRANCH  21  22
ENDBRANCH  14  21
ENDBRANCH   6  13
ENDBRANCH   4   5
ENDBRANCH   3   4
ENDBRANCH   1   3
BRANCH   1  33
ATOM     33  O   UNL A   1      32.579  35.951  30.819  1.00  0.00    -0.460 OA
BRANCH  33  34
ATOM     34  C   UNL A   1      33.416  36.975  31.371  1.00  0.00     0.274 C 
BRANCH  34  35
ATOM     35  C   UNL A   1      33.996  36.488  32.703  1.00  0.00     0.275 C 
BRANCH  35  36
ATOM     36  O   UNL A   1      34.445  35.104  32.764  1.00  0.00    -0.458 OA
BRANCH  36  37
ATOM     37  C   UNL A   1      35.672  34.550  32.601  1.00  0.00     0.338 C 
ATOM     38  O   UNL A   1      36.659  35.017  33.151  1.00  0.00    -0.246 OA
BRANCH  37  39
ATOM     39  C   UNL A   1      35.873  33.565  31.512  1.00  0.00     0.060 A 
ATOM     40  C   UNL A   1      35.711  31.853  32.128  1.00  0.00     0.016 A 
ATOM     41  C   UNL A   1      37.014  33.922  30.164  1.00  0.00     0.016 A 
ATOM     42  C   UNL A   1      36.883  30.596  31.596  1.00  0.00     0.010 A 
ATOM     43  C   UNL A   1      38.162  32.619  29.602  1.00  0.00     0.010 A 
ATOM     44  C   UNL A   1      38.159  31.017  30.418  1.00  0.00    -0.014 A 
BRANCH  44  45
ATOM     45  C   UNL A   1      39.537  30.503  30.616  1.00  0.00     0.031 A 
ATOM     46  C   UNL A   1      39.937  29.377  29.762  1.00  0.00     0.074 A 
ATOM     47  C   UNL A   1      40.459  31.117  31.414  1.00  0.00     0.049 A 
ATOM     48  N   UNL A   1      40.840  28.520  30.074  1.00  0.00    -0.248 NA
ATOM     49  C   UNL A   1      39.248  29.056  28.520  1.00  0.00     0.031 C 
ATOM     50  C   UNL A   1      41.923  30.986  31.367  1.00  0.00     0.029 A 
ATOM     51  N   UNL A   1      40.310  32.009  32.465  1.00  0.00    -0.354 N 
ATOM     52  C   UNL A   1      41.081  27.758  28.952  1.00  0.00     0.074 A 
ATOM     53  C   UNL A   1      39.946  27.998  28.102  1.00  0.00     0.031 C 
ATOM     54  C   UNL A   1      42.474  31.554  32.458  1.00  0.00     0.029 A 
ATOM     55  C   UNL A   1      41.399  31.977  33.330  1.00  0.00     0.049 A 
ATOM     56  H   UNL A   1      39.527  32.594  32.585  1.00  0.00     0.167 HD
ATOM     57  C   UNL A   1      42.302  27.164  28.821  1.00  0.00     0.037 A 
ATOM     58  C   UNL A   1      41.285  31.668  34.657  1.00  0.00     0.037 A 
ATOM     59  C   UNL A   1      43.112  27.454  30.010  1.00  0.00     0.049 A 
ATOM     60  C   UNL A   1      41.855  30.291  34.933  1.00  0.00     0.074 A 
ATOM     61  C   UNL A   1      44.099  28.391  30.261  1.00  0.00     0.029 A 
ATOM     62  N   UNL A   1      42.685  26.994  31.250  1.00  0.00    -0.354 N 
ATOM     63  N   UNL A   1      42.166  29.464  33.971  1.00  0.00    -0.248 NA
ATOM     64  C   UNL A   1      42.153  29.730  36.249  1.00  0.00     0.031 C 
ATOM     65  C   UNL A   1      44.226  28.524  31.672  1.00  0.00     0.029 A 
ATOM     66  C   UNL A   1      43.339  27.648  32.276  1.00  0.00     0.049 A 
ATOM     67  H   UNL A   1      42.006  26.293  31.380  1.00  0.00     0.167 HD
ATOM     68  C   UNL A   1      42.686  28.313  34.481  1.00  0.00     0.074 A 
ATOM     69  C   UNL A   1      42.666  28.529  35.917  1.00  0.00     0.031 C 
ATOM     70  C   UNL A   1      43.074  27.288  33.666  1.00  0.00     0.037 A 
BRANCH  57  71
ATOM     71  C   UNL A   1      42.883  26.567  27.553  1.00  0.00     0.057 A 
ATOM     72  C   UNL A   1      42.457  25.294  27.114  1.00  0.00     0.134 A 
ATOM     73  C   UNL A   1      43.868  27.143  26.728  1.00  0.00     0.134 A 
ATOM     74  F   UNL A   1      41.487  24.619  27.746  1.00  0.00    -0.206 F 
ATOM     75  C   UNL A   1      42.999  24.640  25.998  1.00  0.00     0.040 A 
ATOM     76  C   UNL A   1      44.431  26.494  25.617  1.00  0.00     0.040 A 
ATOM     77  F   UNL A   1      44.330  28.380  26.909  1.00  0.00    -0.206 F 
ATOM     78  C   UNL A   1      44.000  25.234  25.250  1.00  0.00     0.006 A 
ENDBRANCH  57  71
BRANCH  58  79
ATOM     79  C   UNL A   1      40.098  32.308  35.286  1.00  0.00     0.057 A 
ATOM     80  C   UNL A   1      38.988  31.467  35.505  1.00  0.00     0.134 A 
ATOM     81  C   UNL A   1      40.224  33.428  36.110  1.00  0.00     0.134 A 
ATOM     82  F   UNL A   1      38.787  30.399  34.718  1.00  0.00    -0.206 F 
ATOM     83  C   UNL A   1      38.173  31.605  36.631  1.00  0.00     0.040 A 
ATOM     84  C   UNL A   1      39.392  33.593  37.224  1.00  0.00     0.040 A 
ATOM     85  F   UNL A   1      41.252  34.275  35.960  1.00  0.00    -0.206 F 
ATOM     86  C   UNL A   1      38.408  32.646  37.521  1.00  0.00     0.006 A 
ENDBRANCH  58  79
BRANCH  70  87
ATOM     87  C   UNL A   1      43.319  25.867  34.108  1.00  0.00     0.057 A 
ATOM     88  C   UNL A   1      42.388  25.092  34.811  1.00  0.00     0.134 A 
ATOM     89  C   UNL A   1      44.481  25.170  33.695  1.00  0.00     0.134 A 
ATOM     90  F   UNL A   1      41.173  25.558  35.127  1.00  0.00    -0.206 F 
ATOM     91  C   UNL A   1      42.637  23.764  35.174  1.00  0.00     0.040 A 
ATOM     92  C   UNL A   1      44.697  23.820  33.972  1.00  0.00     0.040 A 
ATOM     93  F   UNL A   1      45.450  25.754  32.977  1.00  0.00    -0.206 F 
ATOM     94  C   UNL A   1      43.790  23.120  34.746  1.00  0.00     0.006 A 
ENDBRANCH  70  87
ENDBRANCH  44  45
ENDBRANCH  37  39
ENDBRANCH  36  37
ENDBRANCH  35  36
ENDBRANCH  34  35
ENDBRANCH  33  34
ENDBRANCH   1  33
TORSDOF 17
ENDMDL
MODEL 2
REMARK VINA RESULT:     -13.5      4.674     10.920
REMARK SMILES Cc1ccc(NC(=O)CN2C(=O)S/C(=C\c3cc(Cl)c(OCC(=O)OCCOC(=O)c4ccc(-c5c6nc(c(-c7c(F)cccc7F)c7ccc([nH]7)c(-c7c(F)cccc7F)c7nc(c(-c8c(F)cccc8F)c8ccc5[nH]8)C=C7)C=C6)cc4)c(Cl)c3)C2=O)cc1
REMARK SMILES IDX 23 1 24 2 22 3 21 4 20 5 16 6 17 7 87 8 18 9 85 10 19 11
REMARK SMILES IDX 86 12 15 13 10 14 11 15 88 16 12 17 13 18 14 19 89 20 9 21
REMARK SMILES IDX 7 22 6 23 8 25 5 26 1 27 2 28 3 29 91 30 4 31 90 32 25 33
REMARK SMILES IDX 26 34 27 35 28 36 29 37 30 38 31 39 32 40 84 41 33 42 83 43
REMARK SMILES IDX 34 44 35 45 36 46 77 47 37 48 82 49 76 50 78 51 38 52 81 53
REMARK SMILES IDX 75 54 74 55 39 57 65 58 48 59 64 60 49 61 52 62 63 63 79 64
REMARK SMILES IDX 50 65 51 66 62 68 80 69 53 70 40 71 41 72 46 73 42 74 43 75
REMARK SMILES IDX 45 76 47 77 44 78 66 79 67 80 72 81 68 82 69 83 71 84 73 85
REMARK SMILES IDX 70 86 54 87 55 88 60 89 56 90 57 91 59 92 61 93 58 94
REMARK H PARENT 6 24 78 56 52 67
REMARK Flexibility Score: inf
ROOT
ATOM      1  C   UNL A   1      42.635  19.208  25.699  1.00  0.00     0.344 C 
ATOM      2  O   UNL A   1      42.666  17.956  25.607  1.00  0.00    -0.248 OA
ENDROOT
BRANCH   1   3
ATOM      3  C   UNL A   1      41.367  20.543  26.906  1.00  0.00     0.352 C 
BRANCH   3   4
ATOM      4  O   UNL A   1      39.838  20.936  27.102  1.00  0.00    -0.479 OA
BRANCH   4   5
ATOM      5  C   UNL A   1      39.079  21.784  26.319  1.00  0.00     0.157 A 
ATOM      6  C   UNL A   1      36.980  23.235  24.919  1.00  0.00    -0.021 A 
ATOM      7  C   UNL A   1      37.933  23.900  25.715  1.00  0.00     0.032 A 
ATOM      8  C   UNL A   1      37.236  21.870  24.741  1.00  0.00     0.032 A 
ATOM      9  C   UNL A   1      38.961  23.179  26.418  1.00  0.00     0.085 A 
ATOM     10  C   UNL A   1      38.318  21.191  25.316  1.00  0.00     0.085 A 
ATOM     11  Cl  UNL A   1      40.080  24.089  27.370  1.00  0.00    -0.080 Cl
ATOM     12  Cl  UNL A   1      38.612  19.575  24.768  1.00  0.00    -0.080 Cl
BRANCH   6  13
ATOM     13  C   UNL A   1      35.684  23.868  24.436  1.00  0.00     0.029 C 
ATOM     14  N   UNL A   1      32.130  23.048  24.589  1.00  0.00    -0.259 N 
ATOM     15  C   UNL A   1      32.640  21.875  25.059  1.00  0.00     0.294 C 
ATOM     16  C   UNL A   1      33.103  23.958  24.182  1.00  0.00     0.268 C 
ATOM     17  O   UNL A   1      32.198  21.149  25.930  1.00  0.00    -0.261 OA
ATOM     18  S   UNL A   1      34.144  21.582  24.247  1.00  0.00    -0.022 SA
ATOM     19  C   UNL A   1      34.476  23.281  24.234  1.00  0.00     0.083 C 
ATOM     20  O   UNL A   1      32.925  25.138  23.922  1.00  0.00    -0.268 OA
BRANCH  14  21
ATOM     21  C   UNL A   1      30.753  23.388  24.946  1.00  0.00     0.230 C 
BRANCH  21  22
ATOM     22  C   UNL A   1      30.672  24.233  26.246  1.00  0.00     0.244 C 
ATOM     23  N   UNL A   1      30.173  25.508  26.255  1.00  0.00    -0.325 N 
ATOM     24  H   UNL A   1      29.739  25.770  27.099  1.00  0.00     0.169 HD
ATOM     25  O   UNL A   1      31.005  23.740  27.329  1.00  0.00    -0.273 OA
BRANCH  23  26
ATOM     26  C   UNL A   1      30.176  26.502  25.268  1.00  0.00     0.041 A 
ATOM     27  C   UNL A   1      30.050  29.570  22.241  1.00  0.00     0.044 C 
ATOM     28  C   UNL A   1      30.051  28.509  23.299  1.00  0.00    -0.051 A 
ATOM     29  C   UNL A   1      31.012  28.561  24.312  1.00  0.00     0.005 A 
ATOM     30  C   UNL A   1      29.121  27.465  23.302  1.00  0.00     0.005 A 
ATOM     31  C   UNL A   1      31.063  27.573  25.295  1.00  0.00     0.026 A 
ATOM     32  C   UNL A   1      29.176  26.474  24.290  1.00  0.00     0.026 A 
ENDBRANCH  23  26
ENDBRANCH  21  22
ENDBRANCH  14  21
ENDBRANCH   6  13
ENDBRANCH   4   5
ENDBRANCH   3   4
ENDBRANCH   1   3
BRANCH   1  33
ATOM     33  O   UNL A   1      43.757  19.669  24.921  1.00  0.00    -0.460 OA
BRANCH  33  34
ATOM     34  C   UNL A   1      45.061  19.232  25.326  1.00  0.00     0.274 C 
BRANCH  34  35
ATOM     35  C   UNL A   1      46.114  20.180  24.743  1.00  0.00     0.275 C 
BRANCH  35  36
ATOM     36  O   UNL A   1      45.734  21.577  24.586  1.00  0.00    -0.458 OA
BRANCH  36  37
ATOM     37  C   UNL A   1      45.712  22.606  25.469  1.00  0.00     0.338 C 
ATOM     38  O   UNL A   1      46.742  23.032  25.974  1.00  0.00    -0.246 OA
BRANCH  37  39
ATOM     39  C   UNL A   1      44.416  23.014  26.060  1.00  0.00     0.060 A 
ATOM     40  C   UNL A   1      43.654  24.375  25.111  1.00  0.00     0.016 A 
ATOM     41  C   UNL A   1      44.160  22.919  27.841  1.00  0.00     0.016 A 
ATOM     42  C   UNL A   1      42.901  25.761  25.979  1.00  0.00     0.010 A 
ATOM     43  C   UNL A   1      43.351  24.311  28.699  1.00  0.00     0.010 A 
ATOM     44  C   UNL A   1      42.850  25.763  27.765  1.00  0.00    -0.014 A 
BRANCH  44  45
ATOM     45  C   UNL A   1      43.144  27.016  28.504  1.00  0.00     0.031 A 
ATOM     46  C   UNL A   1      41.982  27.752  29.018  1.00  0.00     0.074 A 
ATOM     47  C   UNL A   1      44.407  27.406  28.847  1.00  0.00     0.049 A 
ATOM     48  N   UNL A   1      41.970  29.015  29.245  1.00  0.00    -0.248 NA
ATOM     49  C   UNL A   1      40.680  27.126  29.204  1.00  0.00     0.031 C 
ATOM     50  C   UNL A   1      44.805  28.342  29.909  1.00  0.00     0.029 A 
ATOM     51  N   UNL A   1      45.644  27.057  28.329  1.00  0.00    -0.354 N 
ATOM     52  C   UNL A   1      40.798  29.297  29.912  1.00  0.00     0.074 A 
ATOM     53  C   UNL A   1      39.966  28.147  29.681  1.00  0.00     0.031 C 
ATOM     54  C   UNL A   1      46.110  28.654  29.786  1.00  0.00     0.029 A 
ATOM     55  C   UNL A   1      46.603  28.036  28.573  1.00  0.00     0.049 A 
ATOM     56  H   UNL A   1      45.823  26.219  27.844  1.00  0.00     0.167 HD
ATOM     57  C   UNL A   1      40.760  30.395  30.720  1.00  0.00     0.037 A 
ATOM     58  C   UNL A   1      47.282  28.677  27.574  1.00  0.00     0.037 A 
ATOM     59  C   UNL A   1      42.048  31.096  30.647  1.00  0.00     0.049 A 
ATOM     60  C   UNL A   1      46.799  30.108  27.436  1.00  0.00     0.074 A 
ATOM     61  C   UNL A   1      43.161  31.090  31.470  1.00  0.00     0.029 A 
ATOM     62  N   UNL A   1      42.461  31.631  29.433  1.00  0.00    -0.354 N 
ATOM     63  N   UNL A   1      45.721  30.536  28.036  1.00  0.00    -0.248 NA
ATOM     64  C   UNL A   1      47.455  31.168  26.675  1.00  0.00     0.031 C 
ATOM     65  C   UNL A   1      44.262  31.584  30.717  1.00  0.00     0.029 A 
ATOM     66  C   UNL A   1      43.813  31.917  29.450  1.00  0.00     0.049 A 
ATOM     67  H   UNL A   1      41.868  31.786  28.662  1.00  0.00     0.167 HD
ATOM     68  C   UNL A   1      45.525  31.859  27.778  1.00  0.00     0.074 A 
ATOM     69  C   UNL A   1      46.645  32.216  26.925  1.00  0.00     0.031 C 
ATOM     70  C   UNL A   1      44.450  32.529  28.288  1.00  0.00     0.037 A 
BRANCH  57  71
ATOM     71  C   UNL A   1      39.711  30.704  31.772  1.00  0.00     0.057 A 
ATOM     72  C   UNL A   1      38.383  30.985  31.382  1.00  0.00     0.134 A 
ATOM     73  C   UNL A   1      39.912  30.777  33.164  1.00  0.00     0.134 A 
ATOM     74  F   UNL A   1      37.995  30.912  30.101  1.00  0.00    -0.206 F 
ATOM     75  C   UNL A   1      37.374  31.355  32.284  1.00  0.00     0.040 A 
ATOM     76  C   UNL A   1      38.917  31.161  34.076  1.00  0.00     0.040 A 
ATOM     77  F   UNL A   1      41.066  30.449  33.745  1.00  0.00    -0.206 F 
ATOM     78  C   UNL A   1      37.640  31.456  33.637  1.00  0.00     0.006 A 
ENDBRANCH  57  71
BRANCH  58  79
ATOM     79  C   UNL A   1      47.704  27.748  26.492  1.00  0.00     0.057 A 
ATOM     80  C   UNL A   1      46.924  27.773  25.318  1.00  0.00     0.134 A 
ATOM     81  C   UNL A   1      49.030  27.325  26.369  1.00  0.00     0.134 A 
ATOM     82  F   UNL A   1      45.631  28.127  25.377  1.00  0.00    -0.206 F 
ATOM     83  C   UNL A   1      47.494  27.607  24.054  1.00  0.00     0.040 A 
ATOM     84  C   UNL A   1      49.602  27.125  25.108  1.00  0.00     0.040 A 
ATOM     85  F   UNL A   1      49.832  27.273  27.442  1.00  0.00    -0.206 F 
ATOM     86  C   UNL A   1      48.852  27.329  23.947  1.00  0.00     0.006 A 
ENDBRANCH  58  79
BRANCH  70  87
ATOM     87  C   UNL A   1      43.940  33.861  27.797  1.00  0.00     0.057 A 
ATOM     88  C   UNL A   1      43.554  34.115  26.474  1.00  0.00     0.134 A 
ATOM     89  C   UNL A   1      43.676  34.916  28.705  1.00  0.00     0.134 A 
ATOM     90  F   UNL A   1      43.585  33.164  25.533  1.00  0.00    -0.206 F 
ATOM     91  C   UNL A   1      43.051  35.355  26.063  1.00  0.00     0.040 A 
ATOM     92  C   UNL A   1      43.090  36.121  28.322  1.00  0.00     0.040 A 
ATOM     93  F   UNL A   1      43.947  34.818  30.014  1.00  0.00    -0.206 F 
ATOM     94  C   UNL A   1      42.808  36.360  26.989  1.00  0.00     0.006 A 
ENDBRANCH  70  87
ENDBRANCH  44  45
ENDBRANCH  37  39
ENDBRANCH  36  37
ENDBRANCH  35  36
ENDBRANCH  34  35
ENDBRANCH  33  34
ENDBRANCH   1  33
TORSDOF 17
ENDMDL
MODEL 3
REMARK VINA RESULT:     -13.3      1.350      2.339
REMARK SMILES Cc1ccc(NC(=O)CN2C(=O)S/C(=C\c3cc(Cl)c(OCC(=O)OCCOC(=O)c4ccc(-c5c6nc(c(-c7c(F)cccc7F)c7ccc([nH]7)c(-c7c(F)cccc7F)c7nc(c(-c8c(F)cccc8F)c8ccc5[nH]8)C=C7)C=C6)cc4)c(Cl)c3)C2=O)cc1
REMARK SMILES IDX 23 1 24 2 22 3 21 4 20 5 16 6 17 7 87 8 18 9 85 10 19 11
REMARK SMILES IDX 86 12 15 13 10 14 11 15 88 16 12 17 13 18 14 19 89 20 9 21
REMARK SMILES IDX 7 22 6 23 8 25 5 26 1 27 2 28 3 29 91 30 4 31 90 32 25 33
REMARK SMILES IDX 26 34 27 35 28 36 29 37 30 38 31 39 32 40 84 41 33 42 83 43
REMARK SMILES IDX 34 44 35 45 36 46 77 47 37 48 82 49 76 50 78 51 38 52 81 53
REMARK SMILES IDX 75 54 74 55 39 57 65 58 48 59 64 60 49 61 52 62 63 63 79 64
REMARK SMILES IDX 50 65 51 66 62 68 80 69 53 70 40 71 41 72 46 73 42 74 43 75
REMARK SMILES IDX 45 76 47 77 44 78 66 79 67 80 72 81 68 82 69 83 71 84 73 85
REMARK SMILES IDX 70 86 54 87 55 88 60 89 56 90 57 91 59 92 61 93 58 94
REMARK H PARENT 6 24 78 56 52 67
REMARK Flexibility Score: inf
ROOT
ATOM      1  C   UNL A   1      33.097  35.248  29.436  1.00  0.00     0.344 C 
ATOM      2  O   UNL A   1      32.586  36.286  28.948  1.00  0.00    -0.248 OA
ENDROOT
BRANCH   1   3
ATOM      3  C   UNL A   1      34.527  33.802  28.595  1.00  0.00     0.352 C 
BRANCH   3   4
ATOM      4  O   UNL A   1      34.604  32.642  27.509  1.00  0.00    -0.479 OA
BRANCH   4   5
ATOM      5  C   UNL A   1      33.825  31.504  27.435  1.00  0.00     0.157 A 
ATOM      6  C   UNL A   1      32.180  29.239  26.641  1.00  0.00    -0.021 A 
ATOM      7  C   UNL A   1      33.364  29.067  27.384  1.00  0.00     0.032 A 
ATOM      8  C   UNL A   1      31.799  30.575  26.472  1.00  0.00     0.032 A 
ATOM      9  C   UNL A   1      34.183  30.188  27.764  1.00  0.00     0.085 A 
ATOM     10  C   UNL A   1      32.527  31.668  26.960  1.00  0.00     0.085 A 
ATOM     11  Cl  UNL A   1      35.618  29.869  28.673  1.00  0.00    -0.080 Cl
ATOM     12  Cl  UNL A   1      31.763  33.220  26.880  1.00  0.00    -0.080 Cl
BRANCH   6  13
ATOM     13  C   UNL A   1      31.458  28.111  25.918  1.00  0.00     0.029 C 
ATOM     14  N   UNL A   1      32.125  24.601  25.172  1.00  0.00    -0.259 N 
ATOM     15  C   UNL A   1      33.348  24.951  25.659  1.00  0.00     0.294 C 
ATOM     16  C   UNL A   1      31.236  25.668  25.074  1.00  0.00     0.268 C 
ATOM     17  O   UNL A   1      34.110  24.296  26.346  1.00  0.00    -0.261 OA
ATOM     18  S   UNL A   1      33.655  26.596  25.203  1.00  0.00    -0.022 SA
ATOM     19  C   UNL A   1      31.976  26.970  25.394  1.00  0.00     0.083 C 
ATOM     20  O   UNL A   1      30.034  25.589  24.868  1.00  0.00    -0.268 OA
BRANCH  14  21
ATOM     21  C   UNL A   1      31.748  23.189  25.222  1.00  0.00     0.230 C 
BRANCH  21  22
ATOM     22  C   UNL A   1      31.902  22.487  23.846  1.00  0.00     0.244 C 
ATOM     23  N   UNL A   1      32.972  21.683  23.555  1.00  0.00    -0.325 N 
ATOM     24  H   UNL A   1      32.776  20.958  22.919  1.00  0.00     0.169 HD
ATOM     25  O   UNL A   1      31.017  22.594  22.991  1.00  0.00    -0.273 OA
BRANCH  23  26
ATOM     26  C   UNL A   1      34.297  21.718  24.008  1.00  0.00     0.041 A 
ATOM     27  C   UNL A   1      38.379  21.687  25.394  1.00  0.00     0.044 C 
ATOM     28  C   UNL A   1      36.963  21.654  24.905  1.00  0.00    -0.051 A 
ATOM     29  C   UNL A   1      36.551  22.591  23.954  1.00  0.00     0.005 A 
ATOM     30  C   UNL A   1      36.039  20.717  25.375  1.00  0.00     0.005 A 
ATOM     31  C   UNL A   1      35.233  22.611  23.500  1.00  0.00     0.026 A 
ATOM     32  C   UNL A   1      34.715  20.740  24.919  1.00  0.00     0.026 A 
ENDBRANCH  23  26
ENDBRANCH  21  22
ENDBRANCH  14  21
ENDBRANCH   6  13
ENDBRANCH   4   5
ENDBRANCH   3   4
ENDBRANCH   1   3
BRANCH   1  33
ATOM     33  O   UNL A   1      32.662  35.227  30.811  1.00  0.00    -0.460 OA
BRANCH  33  34
ATOM     34  C   UNL A   1      33.595  35.678  31.801  1.00  0.00     0.274 C 
BRANCH  34  35
ATOM     35  C   UNL A   1      33.752  34.597  32.875  1.00  0.00     0.275 C 
BRANCH  35  36
ATOM     36  O   UNL A   1      35.101  34.330  33.356  1.00  0.00    -0.458 OA
BRANCH  36  37
ATOM     37  C   UNL A   1      36.269  34.142  32.693  1.00  0.00     0.338 C 
ATOM     38  O   UNL A   1      37.147  34.994  32.698  1.00  0.00    -0.246 OA
BRANCH  37  39
ATOM     39  C   UNL A   1      36.363  33.039  31.708  1.00  0.00     0.060 A 
ATOM     40  C   UNL A   1      36.275  31.409  32.528  1.00  0.00     0.016 A 
ATOM     41  C   UNL A   1      37.358  33.234  30.219  1.00  0.00     0.016 A 
ATOM     42  C   UNL A   1      37.394  30.092  32.025  1.00  0.00     0.010 A 
ATOM     43  C   UNL A   1      38.450  31.869  29.695  1.00  0.00     0.010 A 
ATOM     44  C   UNL A   1      38.540  30.370  30.683  1.00  0.00    -0.014 A 
BRANCH  44  45
ATOM     45  C   UNL A   1      39.934  29.873  30.796  1.00  0.00     0.031 A 
ATOM     46  C   UNL A   1      40.288  28.737  29.937  1.00  0.00     0.074 A 
ATOM     47  C   UNL A   1      40.901  30.510  31.520  1.00  0.00     0.049 A 
ATOM     48  N   UNL A   1      41.220  27.894  30.200  1.00  0.00    -0.248 NA
ATOM     49  C   UNL A   1      39.521  28.387  28.749  1.00  0.00     0.031 C 
ATOM     50  C   UNL A   1      42.360  30.394  31.376  1.00  0.00     0.029 A 
ATOM     51  N   UNL A   1      40.812  31.419  32.563  1.00  0.00    -0.354 N 
ATOM     52  C   UNL A   1      41.393  27.115  29.078  1.00  0.00     0.074 A 
ATOM     53  C   UNL A   1      40.201  27.328  28.303  1.00  0.00     0.031 C 
ATOM     54  C   UNL A   1      42.976  30.986  32.418  1.00  0.00     0.029 A 
ATOM     55  C   UNL A   1      41.958  31.414  33.353  1.00  0.00     0.049 A 
ATOM     56  H   UNL A   1      40.033  31.998  32.726  1.00  0.00     0.167 HD
ATOM     57  C   UNL A   1      42.609  26.532  28.876  1.00  0.00     0.037 A 
ATOM     58  C   UNL A   1      41.937  31.127  34.690  1.00  0.00     0.037 A 
ATOM     59  C   UNL A   1      43.494  26.850  30.002  1.00  0.00     0.049 A 
ATOM     60  C   UNL A   1      42.539  29.760  34.950  1.00  0.00     0.074 A 
ATOM     61  C   UNL A   1      44.485  27.802  30.170  1.00  0.00     0.029 A 
ATOM     62  N   UNL A   1      43.157  26.408  31.276  1.00  0.00    -0.354 N 
ATOM     63  N   UNL A   1      42.794  28.920  33.984  1.00  0.00    -0.248 NA
ATOM     64  C   UNL A   1      42.931  29.226  36.252  1.00  0.00     0.031 C 
ATOM     65  C   UNL A   1      44.705  27.961  31.566  1.00  0.00     0.029 A 
ATOM     66  C   UNL A   1      43.871  27.087  32.244  1.00  0.00     0.049 A 
ATOM     67  H   UNL A   1      42.496  25.702  31.463  1.00  0.00     0.167 HD
ATOM     68  C   UNL A   1      43.360  27.783  34.476  1.00  0.00     0.074 A 
ATOM     69  C   UNL A   1      43.434  28.024  35.906  1.00  0.00     0.031 C 
ATOM     70  C   UNL A   1      43.704  26.749  33.654  1.00  0.00     0.037 A 
BRANCH  57  71
ATOM     71  C   UNL A   1      43.111  25.918  27.581  1.00  0.00     0.057 A 
ATOM     72  C   UNL A   1      43.488  26.754  26.506  1.00  0.00     0.134 A 
ATOM     73  C   UNL A   1      43.229  24.546  27.291  1.00  0.00     0.134 A 
ATOM     74  F   UNL A   1      43.490  28.089  26.619  1.00  0.00    -0.206 F 
ATOM     75  C   UNL A   1      43.888  26.267  25.253  1.00  0.00     0.040 A 
ATOM     76  C   UNL A   1      43.612  24.044  26.037  1.00  0.00     0.040 A 
ATOM     77  F   UNL A   1      43.020  23.595  28.201  1.00  0.00    -0.206 F 
ATOM     78  C   UNL A   1      43.940  24.907  25.008  1.00  0.00     0.006 A 
ENDBRANCH  57  71
BRANCH  58  79
ATOM     79  C   UNL A   1      40.788  31.765  35.386  1.00  0.00     0.057 A 
ATOM     80  C   UNL A   1      40.933  33.135  35.690  1.00  0.00     0.134 A 
ATOM     81  C   UNL A   1      39.486  31.277  35.247  1.00  0.00     0.134 A 
ATOM     82  F   UNL A   1      42.156  33.655  35.880  1.00  0.00    -0.206 F 
ATOM     83  C   UNL A   1      39.854  34.019  35.630  1.00  0.00     0.040 A 
ATOM     84  C   UNL A   1      38.394  32.152  35.217  1.00  0.00     0.040 A 
ATOM     85  F   UNL A   1      39.268  29.986  34.961  1.00  0.00    -0.206 F 
ATOM     86  C   UNL A   1      38.585  33.530  35.344  1.00  0.00     0.006 A 
ENDBRANCH  58  79
BRANCH  70  87
ATOM     87  C   UNL A   1      43.995  25.338  34.103  1.00  0.00     0.057 A 
ATOM     88  C   UNL A   1      43.068  24.515  34.756  1.00  0.00     0.134 A 
ATOM     89  C   UNL A   1      45.207  24.699  33.746  1.00  0.00     0.134 A 
ATOM     90  F   UNL A   1      41.818  24.921  35.012  1.00  0.00    -0.206 F 
ATOM     91  C   UNL A   1      43.362  23.198  35.125  1.00  0.00     0.040 A 
ATOM     92  C   UNL A   1      45.474  23.360  34.028  1.00  0.00     0.040 A 
ATOM     93  F   UNL A   1      46.182  25.334  33.080  1.00  0.00    -0.206 F 
ATOM     94  C   UNL A   1      44.564  22.612  34.753  1.00  0.00     0.006 A 
ENDBRANCH  70  87
ENDBRANCH  44  45
ENDBRANCH  37  39
ENDBRANCH  36  37
ENDBRANCH  35  36
ENDBRANCH  34  35
ENDBRANCH  33  34
ENDBRANCH   1  33
TORSDOF 17
ENDMDL
