MODEL 1
REMARK VINA RESULT:     -12.8      0.000      0.000
REMARK SMILES Cc1cc(/C=C2/C(=O)NC(=S)N=C2OCCOC(=O)c2ccc(-c3c4nc(c(-c5c(F)cccc5F)c5ccc([nH]5)c(-c5c(F)cccc5F)c5nc(c(-c6c(F)cccc6F)c6ccc3[nH]6)C=C5)C=C4)cc2)c(C)n1-c1cccc(C(=O)[O-])c1
REMARK SMILES IDX 15 1 14 2 13 3 5 4 6 5 7 6 8 7 9 8 12 9 10 10 11 12 4 13
REMARK SMILES IDX 1 14 2 15 3 16 76 17 74 18 75 19 77 20 78 21 85 22 79 23
REMARK SMILES IDX 81 24 80 25 82 26 83 27 84 28 16 29 17 30 18 31 19 32 20 33
REMARK SMILES IDX 21 34 73 35 22 36 72 37 23 38 24 39 25 40 66 41 26 42 71 43
REMARK SMILES IDX 65 44 67 45 27 46 70 47 64 48 63 49 28 51 54 52 37 53 53 54
REMARK SMILES IDX 38 55 41 56 52 57 68 58 39 59 40 60 51 62 69 63 42 64 29 65
REMARK SMILES IDX 30 66 35 67 31 68 32 69 34 70 36 71 33 72 55 73 56 74 61 75
REMARK SMILES IDX 57 76 58 77 60 78 62 79 59 80 43 81 44 82 49 83 45 84 46 85
REMARK SMILES IDX 48 86 50 87 47 88
REMARK H PARENT 9 11 67 50 41 61
REMARK Flexibility Score: inf
ROOT
ATOM      1  C   UNL A   1      36.144  22.971  25.841  1.00  0.00     0.273 C 
ENDROOT
BRANCH   1   2
ATOM      2  O   UNL A   1      35.258  22.968  24.655  1.00  0.00    -0.473 OA
BRANCH   2   3
ATOM      3  C   UNL A   1      34.193  22.142  24.694  1.00  0.00     0.229 C 
ATOM      4  C   UNL A   1      32.298  23.963  25.083  1.00  0.00     0.029 C 
ATOM      5  C   UNL A   1      32.864  22.731  25.042  1.00  0.00     0.103 C 
ATOM      6  C   UNL A   1      31.860  21.661  25.399  1.00  0.00     0.262 C 
ATOM      7  O   UNL A   1      30.738  21.878  25.850  1.00  0.00    -0.269 OA
ATOM      8  N   UNL A   1      32.254  20.375  25.172  1.00  0.00    -0.297 N 
ATOM      9  N   UNL A   1      34.430  20.890  24.508  1.00  0.00    -0.184 NA
ATOM     10  C   UNL A   1      33.462  19.965  24.697  1.00  0.00     0.203 C 
ATOM     11  H   UNL A   1      31.597  19.669  25.372  1.00  0.00     0.172 HD
ATOM     12  S   UNL A   1      33.710  18.329  24.441  1.00  0.00    -0.038 S 
BRANCH   4  13
ATOM     13  C   UNL A   1      32.693  25.311  24.791  1.00  0.00    -0.003 A 
ATOM     14  C   UNL A   1      34.016  27.991  22.502  1.00  0.00     0.065 C 
ATOM     15  C   UNL A   1      33.490  27.091  23.568  1.00  0.00     0.020 A 
ATOM     16  C   UNL A   1      33.324  25.713  23.563  1.00  0.00     0.031 A 
ATOM     17  N   UNL A   1      33.107  27.505  24.825  1.00  0.00    -0.318 N 
ATOM     18  C   UNL A   1      32.378  26.487  25.433  1.00  0.00     0.027 A 
ATOM     19  C   UNL A   1      31.398  26.808  26.504  1.00  0.00     0.065 C 
BRANCH  17  20
ATOM     20  C   UNL A   1      33.299  28.760  25.438  1.00  0.00     0.046 A 
ATOM     21  C   UNL A   1      34.190  28.806  26.520  1.00  0.00     0.026 A 
ATOM     22  C   UNL A   1      32.365  29.773  25.216  1.00  0.00     0.036 A 
ATOM     23  C   UNL A   1      34.122  29.861  27.422  1.00  0.00     0.003 A 
ATOM     24  C   UNL A   1      32.275  30.810  26.153  1.00  0.00    -0.001 A 
ATOM     25  C   UNL A   1      33.152  30.847  27.252  1.00  0.00     0.010 A 
BRANCH  24  26
ATOM     26  C   UNL A   1      31.199  31.816  26.085  1.00  0.00     0.072 C 
ATOM     27  O   UNL A   1      30.205  31.754  25.354  1.00  0.00    -0.545 OA
ATOM     28  O   UNL A   1      31.402  32.871  26.882  1.00  0.00    -0.545 OA
ENDBRANCH  24  26
ENDBRANCH  17  20
ENDBRANCH   4  13
ENDBRANCH   2   3
ENDBRANCH   1   2
BRANCH   1  29
ATOM     29  C   UNL A   1      37.654  22.830  25.453  1.00  0.00     0.274 C 
BRANCH  29  30
ATOM     30  O   UNL A   1      38.512  21.952  26.294  1.00  0.00    -0.458 OA
BRANCH  30  31
ATOM     31  C   UNL A   1      39.850  22.289  26.411  1.00  0.00     0.338 C 
ATOM     32  O   UNL A   1      40.755  21.516  26.121  1.00  0.00    -0.246 OA
BRANCH  31  33
ATOM     33  C   UNL A   1      40.179  23.726  26.890  1.00  0.00     0.060 A 
ATOM     34  C   UNL A   1      39.577  24.208  28.040  1.00  0.00     0.016 A 
ATOM     35  C   UNL A   1      40.829  24.736  26.135  1.00  0.00     0.016 A 
ATOM     36  C   UNL A   1      39.712  25.593  28.450  1.00  0.00     0.010 A 
ATOM     37  C   UNL A   1      40.901  26.179  26.531  1.00  0.00     0.010 A 
ATOM     38  C   UNL A   1      40.349  26.683  27.727  1.00  0.00    -0.014 A 
BRANCH  38  39
ATOM     39  C   UNL A   1      39.951  28.265  28.190  1.00  0.00     0.031 A 
ATOM     40  C   UNL A   1      41.311  28.875  28.260  1.00  0.00     0.074 A 
ATOM     41  C   UNL A   1      38.942  29.174  28.614  1.00  0.00     0.049 A 
ATOM     42  N   UNL A   1      42.207  28.345  29.048  1.00  0.00    -0.248 NA
ATOM     43  C   UNL A   1      41.857  29.733  27.206  1.00  0.00     0.031 C 
ATOM     44  C   UNL A   1      37.512  28.908  28.887  1.00  0.00     0.029 A 
ATOM     45  N   UNL A   1      38.941  30.606  28.921  1.00  0.00    -0.354 N 
ATOM     46  C   UNL A   1      43.372  29.024  28.813  1.00  0.00     0.074 A 
ATOM     47  C   UNL A   1      43.158  29.663  27.520  1.00  0.00     0.031 C 
ATOM     48  C   UNL A   1      36.797  30.048  29.157  1.00  0.00     0.029 A 
ATOM     49  C   UNL A   1      37.642  31.248  29.168  1.00  0.00     0.049 A 
ATOM     50  H   UNL A   1      39.779  31.121  28.960  1.00  0.00     0.167 HD
ATOM     51  C   UNL A   1      43.971  29.543  29.924  1.00  0.00     0.037 A 
ATOM     52  C   UNL A   1      37.261  32.580  29.453  1.00  0.00     0.037 A 
ATOM     53  C   UNL A   1      43.708  30.947  30.067  1.00  0.00     0.049 A 
ATOM     54  C   UNL A   1      38.446  33.258  29.981  1.00  0.00     0.074 A 
ATOM     55  C   UNL A   1      43.634  31.988  29.160  1.00  0.00     0.029 A 
ATOM     56  N   UNL A   1      42.978  31.332  31.170  1.00  0.00    -0.354 N 
ATOM     57  N   UNL A   1      38.790  33.128  31.224  1.00  0.00    -0.248 NA
ATOM     58  C   UNL A   1      39.220  34.228  29.214  1.00  0.00     0.031 C 
ATOM     59  C   UNL A   1      42.423  32.631  29.484  1.00  0.00     0.029 A 
ATOM     60  C   UNL A   1      42.071  32.286  30.783  1.00  0.00     0.049 A 
ATOM     61  H   UNL A   1      43.088  30.980  32.082  1.00  0.00     0.167 HD
ATOM     62  C   UNL A   1      40.086  33.508  31.207  1.00  0.00     0.074 A 
ATOM     63  C   UNL A   1      40.209  34.427  30.090  1.00  0.00     0.031 C 
ATOM     64  C   UNL A   1      40.950  32.557  31.634  1.00  0.00     0.037 A 
BRANCH  51  65
ATOM     65  C   UNL A   1      44.039  28.584  31.084  1.00  0.00     0.057 A 
ATOM     66  C   UNL A   1      45.252  27.966  31.385  1.00  0.00     0.134 A 
ATOM     67  C   UNL A   1      42.913  28.175  31.826  1.00  0.00     0.134 A 
ATOM     68  F   UNL A   1      46.381  28.358  30.779  1.00  0.00    -0.206 F 
ATOM     69  C   UNL A   1      45.325  26.926  32.317  1.00  0.00     0.040 A 
ATOM     70  C   UNL A   1      42.958  27.094  32.704  1.00  0.00     0.040 A 
ATOM     71  F   UNL A   1      41.741  28.824  31.724  1.00  0.00    -0.206 F 
ATOM     72  C   UNL A   1      44.170  26.459  32.944  1.00  0.00     0.006 A 
ENDBRANCH  51  65
BRANCH  52  73
ATOM     73  C   UNL A   1      36.078  33.633  29.630  1.00  0.00     0.057 A 
ATOM     74  C   UNL A   1      35.265  34.060  28.512  1.00  0.00     0.134 A 
ATOM     75  C   UNL A   1      35.421  33.834  30.852  1.00  0.00     0.134 A 
ATOM     76  F   UNL A   1      35.721  34.015  27.253  1.00  0.00    -0.206 F 
ATOM     77  C   UNL A   1      33.922  34.503  28.596  1.00  0.00     0.040 A 
ATOM     78  C   UNL A   1      34.081  34.327  30.950  1.00  0.00     0.040 A 
ATOM     79  F   UNL A   1      36.014  33.477  31.997  1.00  0.00    -0.206 F 
ATOM     80  C   UNL A   1      33.312  34.622  29.825  1.00  0.00     0.006 A 
ENDBRANCH  52  73
BRANCH  64  81
ATOM     81  C   UNL A   1      40.518  31.728  32.830  1.00  0.00     0.057 A 
ATOM     82  C   UNL A   1      39.643  30.619  32.823  1.00  0.00     0.134 A 
ATOM     83  C   UNL A   1      40.960  32.141  34.090  1.00  0.00     0.134 A 
ATOM     84  F   UNL A   1      39.211  30.055  31.688  1.00  0.00    -0.206 F 
ATOM     85  C   UNL A   1      39.175  30.023  34.002  1.00  0.00     0.040 A 
ATOM     86  C   UNL A   1      40.540  31.524  35.273  1.00  0.00     0.040 A 
ATOM     87  F   UNL A   1      41.829  33.157  34.194  1.00  0.00    -0.206 F 
ATOM     88  C   UNL A   1      39.625  30.477  35.234  1.00  0.00     0.006 A 
ENDBRANCH  64  81
ENDBRANCH  38  39
ENDBRANCH  31  33
ENDBRANCH  30  31
ENDBRANCH  29  30
ENDBRANCH   1  29
TORSDOF 13
ENDMDL
MODEL 2
REMARK VINA RESULT:     -12.7      3.107      8.767
REMARK SMILES Cc1cc(/C=C2/C(=O)NC(=S)N=C2OCCOC(=O)c2ccc(-c3c4nc(c(-c5c(F)cccc5F)c5ccc([nH]5)c(-c5c(F)cccc5F)c5nc(c(-c6c(F)cccc6F)c6ccc3[nH]6)C=C5)C=C4)cc2)c(C)n1-c1cccc(C(=O)[O-])c1
REMARK SMILES IDX 15 1 14 2 13 3 5 4 6 5 7 6 8 7 9 8 12 9 10 10 11 12 4 13
REMARK SMILES IDX 1 14 2 15 3 16 76 17 74 18 75 19 77 20 78 21 85 22 79 23
REMARK SMILES IDX 81 24 80 25 82 26 83 27 84 28 16 29 17 30 18 31 19 32 20 33
REMARK SMILES IDX 21 34 73 35 22 36 72 37 23 38 24 39 25 40 66 41 26 42 71 43
REMARK SMILES IDX 65 44 67 45 27 46 70 47 64 48 63 49 28 51 54 52 37 53 53 54
REMARK SMILES IDX 38 55 41 56 52 57 68 58 39 59 40 60 51 62 69 63 42 64 29 65
REMARK SMILES IDX 30 66 35 67 31 68 32 69 34 70 36 71 33 72 55 73 56 74 61 75
REMARK SMILES IDX 57 76 58 77 60 78 62 79 59 80 43 81 44 82 49 83 45 84 46 85
REMARK SMILES IDX 48 86 50 87 47 88
REMARK H PARENT 9 11 67 50 41 61
REMARK Flexibility Score: inf
ROOT
ATOM      1  C   UNL A   1      31.916  29.034  26.573  1.00  0.00     0.273 C 
ENDROOT
BRANCH   1   2
ATOM      2  O   UNL A   1      32.147  27.899  25.652  1.00  0.00    -0.473 OA
BRANCH   2   3
ATOM      3  C   UNL A   1      31.454  27.904  24.496  1.00  0.00     0.229 C 
ATOM      4  C   UNL A   1      32.327  25.598  23.505  1.00  0.00     0.029 C 
ATOM      5  C   UNL A   1      31.738  26.820  23.506  1.00  0.00     0.103 C 
ATOM      6  C   UNL A   1      31.173  27.150  22.145  1.00  0.00     0.262 C 
ATOM      7  O   UNL A   1      31.378  26.497  21.125  1.00  0.00    -0.269 OA
ATOM      8  N   UNL A   1      30.364  28.247  22.086  1.00  0.00    -0.297 N 
ATOM      9  N   UNL A   1      30.659  28.898  24.307  1.00  0.00    -0.184 NA
ATOM     10  C   UNL A   1      30.052  29.085  23.113  1.00  0.00     0.203 C 
ATOM     11  H   UNL A   1      29.965  28.456  21.210  1.00  0.00     0.172 HD
ATOM     12  S   UNL A   1      28.988  30.345  22.825  1.00  0.00    -0.038 S 
BRANCH   4  13
ATOM     13  C   UNL A   1      32.953  24.732  24.463  1.00  0.00    -0.003 A 
ATOM     14  C   UNL A   1      32.965  22.701  27.632  1.00  0.00     0.065 C 
ATOM     15  C   UNL A   1      33.178  23.444  26.358  1.00  0.00     0.020 A 
ATOM     16  C   UNL A   1      32.353  24.355  25.714  1.00  0.00     0.031 A 
ATOM     17  N   UNL A   1      34.321  23.376  25.591  1.00  0.00    -0.318 N 
ATOM     18  C   UNL A   1      34.058  23.923  24.339  1.00  0.00     0.027 A 
ATOM     19  C   UNL A   1      34.867  23.512  23.161  1.00  0.00     0.065 C 
BRANCH  17  20
ATOM     20  C   UNL A   1      35.563  22.790  25.910  1.00  0.00     0.046 A 
ATOM     21  C   UNL A   1      36.635  23.665  26.143  1.00  0.00     0.026 A 
ATOM     22  C   UNL A   1      35.770  21.441  25.619  1.00  0.00     0.036 A 
ATOM     23  C   UNL A   1      37.939  23.196  26.045  1.00  0.00     0.003 A 
ATOM     24  C   UNL A   1      37.088  20.987  25.480  1.00  0.00    -0.001 A 
ATOM     25  C   UNL A   1      38.165  21.867  25.691  1.00  0.00     0.010 A 
BRANCH  24  26
ATOM     26  C   UNL A   1      37.385  19.625  25.000  1.00  0.00     0.072 C 
ATOM     27  O   UNL A   1      36.545  18.788  24.653  1.00  0.00    -0.545 OA
ATOM     28  O   UNL A   1      38.690  19.330  25.001  1.00  0.00    -0.545 OA
ENDBRANCH  24  26
ENDBRANCH  17  20
ENDBRANCH   4  13
ENDBRANCH   2   3
ENDBRANCH   1   2
BRANCH   1  29
ATOM     29  C   UNL A   1      33.223  29.468  27.318  1.00  0.00     0.274 C 
BRANCH  29  30
ATOM     30  O   UNL A   1      33.800  30.802  26.996  1.00  0.00    -0.458 OA
BRANCH  30  31
ATOM     31  C   UNL A   1      34.497  31.455  27.999  1.00  0.00     0.338 C 
ATOM     32  O   UNL A   1      34.102  32.497  28.509  1.00  0.00    -0.246 OA
BRANCH  31  33
ATOM     33  C   UNL A   1      35.803  30.790  28.503  1.00  0.00     0.060 A 
ATOM     34  C   UNL A   1      36.797  30.479  27.590  1.00  0.00     0.016 A 
ATOM     35  C   UNL A   1      36.008  30.198  29.775  1.00  0.00     0.016 A 
ATOM     36  C   UNL A   1      37.968  29.711  27.968  1.00  0.00     0.010 A 
ATOM     37  C   UNL A   1      37.186  29.344  30.135  1.00  0.00     0.010 A 
ATOM     38  C   UNL A   1      38.242  29.064  29.243  1.00  0.00    -0.014 A 
BRANCH  38  39
ATOM     39  C   UNL A   1      39.425  27.850  29.263  1.00  0.00     0.031 A 
ATOM     40  C   UNL A   1      40.145  28.198  30.524  1.00  0.00     0.074 A 
ATOM     41  C   UNL A   1      40.050  26.770  28.580  1.00  0.00     0.049 A 
ATOM     42  N   UNL A   1      40.663  29.390  30.653  1.00  0.00    -0.248 NA
ATOM     43  C   UNL A   1      39.940  27.482  31.785  1.00  0.00     0.031 C 
ATOM     44  C   UNL A   1      39.781  26.258  27.218  1.00  0.00     0.029 A 
ATOM     45  N   UNL A   1      41.116  25.832  28.939  1.00  0.00    -0.354 N 
ATOM     46  C   UNL A   1      41.139  29.462  31.934  1.00  0.00     0.074 A 
ATOM     47  C   UNL A   1      40.445  28.388  32.634  1.00  0.00     0.031 C 
ATOM     48  C   UNL A   1      40.485  25.117  26.926  1.00  0.00     0.029 A 
ATOM     49  C   UNL A   1      41.381  24.718  28.018  1.00  0.00     0.049 A 
ATOM     50  H   UNL A   1      41.636  25.943  29.768  1.00  0.00     0.167 HD
ATOM     51  C   UNL A   1      42.447  29.836  32.043  1.00  0.00     0.037 A 
ATOM     52  C   UNL A   1      42.284  23.630  28.052  1.00  0.00     0.037 A 
ATOM     53  C   UNL A   1      43.308  28.709  32.267  1.00  0.00     0.049 A 
ATOM     54  C   UNL A   1      43.362  24.001  28.971  1.00  0.00     0.074 A 
ATOM     55  C   UNL A   1      43.181  27.563  33.030  1.00  0.00     0.029 A 
ATOM     56  N   UNL A   1      44.227  28.426  31.280  1.00  0.00    -0.354 N 
ATOM     57  N   UNL A   1      44.341  24.756  28.580  1.00  0.00    -0.248 NA
ATOM     58  C   UNL A   1      43.499  23.439  30.310  1.00  0.00     0.031 C 
ATOM     59  C   UNL A   1      43.527  26.527  32.140  1.00  0.00     0.029 A 
ATOM     60  C   UNL A   1      44.265  27.066  31.095  1.00  0.00     0.049 A 
ATOM     61  H   UNL A   1      44.764  29.088  30.789  1.00  0.00     0.167 HD
ATOM     62  C   UNL A   1      44.845  25.205  29.751  1.00  0.00     0.074 A 
ATOM     63  C   UNL A   1      44.527  24.180  30.730  1.00  0.00     0.031 C 
ATOM     64  C   UNL A   1      44.830  26.551  29.883  1.00  0.00     0.037 A 
BRANCH  51  65
ATOM     65  C   UNL A   1      42.819  31.013  31.180  1.00  0.00     0.057 A 
ATOM     66  C   UNL A   1      42.934  32.274  31.762  1.00  0.00     0.134 A 
ATOM     67  C   UNL A   1      42.948  30.942  29.778  1.00  0.00     0.134 A 
ATOM     68  F   UNL A   1      42.903  32.411  33.095  1.00  0.00    -0.206 F 
ATOM     69  C   UNL A   1      43.080  33.424  30.980  1.00  0.00     0.040 A 
ATOM     70  C   UNL A   1      43.021  32.085  28.984  1.00  0.00     0.040 A 
ATOM     71  F   UNL A   1      43.016  29.759  29.145  1.00  0.00    -0.206 F 
ATOM     72  C   UNL A   1      43.078  33.335  29.587  1.00  0.00     0.006 A 
ENDBRANCH  51  65
BRANCH  52  73
ATOM     73  C   UNL A   1      42.758  22.253  27.405  1.00  0.00     0.057 A 
ATOM     74  C   UNL A   1      41.923  21.072  27.430  1.00  0.00     0.134 A 
ATOM     75  C   UNL A   1      43.712  22.188  26.379  1.00  0.00     0.134 A 
ATOM     76  F   UNL A   1      40.983  20.896  28.369  1.00  0.00    -0.206 F 
ATOM     77  C   UNL A   1      41.949  20.028  26.473  1.00  0.00     0.040 A 
ATOM     78  C   UNL A   1      43.778  21.114  25.436  1.00  0.00     0.040 A 
ATOM     79  F   UNL A   1      44.561  23.205  26.190  1.00  0.00    -0.206 F 
ATOM     80  C   UNL A   1      42.873  20.053  25.452  1.00  0.00     0.006 A 
ENDBRANCH  52  73
BRANCH  64  81
ATOM     81  C   UNL A   1      45.190  27.363  28.652  1.00  0.00     0.057 A 
ATOM     82  C   UNL A   1      44.354  27.652  27.550  1.00  0.00     0.134 A 
ATOM     83  C   UNL A   1      46.509  27.812  28.543  1.00  0.00     0.134 A 
ATOM     84  F   UNL A   1      43.045  27.367  27.551  1.00  0.00    -0.206 F 
ATOM     85  C   UNL A   1      44.830  28.270  26.386  1.00  0.00     0.040 A 
ATOM     86  C   UNL A   1      46.986  28.474  27.406  1.00  0.00     0.040 A 
ATOM     87  F   UNL A   1      47.366  27.624  29.557  1.00  0.00    -0.206 F 
ATOM     88  C   UNL A   1      46.153  28.683  26.312  1.00  0.00     0.006 A 
ENDBRANCH  64  81
ENDBRANCH  38  39
ENDBRANCH  31  33
ENDBRANCH  30  31
ENDBRANCH  29  30
ENDBRANCH   1  29
TORSDOF 13
ENDMDL
MODEL 3
REMARK VINA RESULT:     -12.2      1.691      2.364
REMARK SMILES Cc1cc(/C=C2/C(=O)NC(=S)N=C2OCCOC(=O)c2ccc(-c3c4nc(c(-c5c(F)cccc5F)c5ccc([nH]5)c(-c5c(F)cccc5F)c5nc(c(-c6c(F)cccc6F)c6ccc3[nH]6)C=C5)C=C4)cc2)c(C)n1-c1cccc(C(=O)[O-])c1
REMARK SMILES IDX 15 1 14 2 13 3 5 4 6 5 7 6 8 7 9 8 12 9 10 10 11 12 4 13
REMARK SMILES IDX 1 14 2 15 3 16 76 17 74 18 75 19 77 20 78 21 85 22 79 23
REMARK SMILES IDX 81 24 80 25 82 26 83 27 84 28 16 29 17 30 18 31 19 32 20 33
REMARK SMILES IDX 21 34 73 35 22 36 72 37 23 38 24 39 25 40 66 41 26 42 71 43
REMARK SMILES IDX 65 44 67 45 27 46 70 47 64 48 63 49 28 51 54 52 37 53 53 54
REMARK SMILES IDX 38 55 41 56 52 57 68 58 39 59 40 60 51 62 69 63 42 64 29 65
REMARK SMILES IDX 30 66 35 67 31 68 32 69 34 70 36 71 33 72 55 73 56 74 61 75
REMARK SMILES IDX 57 76 58 77 60 78 62 79 59 80 43 81 44 82 49 83 45 84 46 85
REMARK SMILES IDX 48 86 50 87 47 88
REMARK H PARENT 9 11 67 50 41 61
REMARK Flexibility Score: inf
ROOT
ATOM      1  C   UNL A   1      36.345  23.627  26.375  1.00  0.00     0.273 C 
ENDROOT
BRANCH   1   2
ATOM      2  O   UNL A   1      35.216  23.535  25.422  1.00  0.00    -0.473 OA
BRANCH   2   3
ATOM      3  C   UNL A   1      34.727  22.303  25.176  1.00  0.00     0.229 C 
ATOM      4  C   UNL A   1      32.139  22.906  25.146  1.00  0.00     0.029 C 
ATOM      5  C   UNL A   1      33.244  22.120  25.208  1.00  0.00     0.103 C 
ATOM      6  C   UNL A   1      32.866  20.660  25.277  1.00  0.00     0.262 C 
ATOM      7  O   UNL A   1      31.724  20.240  25.448  1.00  0.00    -0.269 OA
ATOM      8  N   UNL A   1      33.889  19.772  25.115  1.00  0.00    -0.297 N 
ATOM      9  N   UNL A   1      35.592  21.363  25.015  1.00  0.00    -0.184 NA
ATOM     10  C   UNL A   1      35.206  20.070  24.936  1.00  0.00     0.203 C 
ATOM     11  H   UNL A   1      33.651  18.816  25.128  1.00  0.00     0.172 HD
ATOM     12  S   UNL A   1      36.287  18.814  24.700  1.00  0.00    -0.038 S 
BRANCH   4  13
ATOM     13  C   UNL A   1      31.852  24.304  25.000  1.00  0.00    -0.003 A 
ATOM     14  C   UNL A   1      31.775  27.854  26.249  1.00  0.00     0.065 C 
ATOM     15  C   UNL A   1      31.704  26.530  25.568  1.00  0.00     0.020 A 
ATOM     16  C   UNL A   1      31.968  25.262  26.066  1.00  0.00     0.031 A 
ATOM     17  N   UNL A   1      31.294  26.338  24.267  1.00  0.00    -0.318 N 
ATOM     18  C   UNL A   1      31.655  25.056  23.864  1.00  0.00     0.027 A 
ATOM     19  C   UNL A   1      31.850  24.754  22.422  1.00  0.00     0.065 C 
BRANCH  17  20
ATOM     20  C   UNL A   1      30.685  27.258  23.389  1.00  0.00     0.046 A 
ATOM     21  C   UNL A   1      31.535  28.145  22.712  1.00  0.00     0.026 A 
ATOM     22  C   UNL A   1      29.316  27.504  23.508  1.00  0.00     0.036 A 
ATOM     23  C   UNL A   1      31.019  29.319  22.178  1.00  0.00     0.003 A 
ATOM     24  C   UNL A   1      28.812  28.710  23.005  1.00  0.00    -0.001 A 
ATOM     25  C   UNL A   1      29.666  29.612  22.345  1.00  0.00     0.010 A 
BRANCH  24  26
ATOM     26  C   UNL A   1      27.418  29.122  23.249  1.00  0.00     0.072 C 
ATOM     27  O   UNL A   1      26.459  28.356  23.392  1.00  0.00    -0.545 OA
ATOM     28  O   UNL A   1      27.248  30.449  23.269  1.00  0.00    -0.545 OA
ENDBRANCH  24  26
ENDBRANCH  17  20
ENDBRANCH   4  13
ENDBRANCH   2   3
ENDBRANCH   1   2
BRANCH   1  29
ATOM     29  C   UNL A   1      37.727  23.386  25.681  1.00  0.00     0.274 C 
BRANCH  29  30
ATOM     30  O   UNL A   1      38.606  22.317  26.229  1.00  0.00    -0.458 OA
BRANCH  30  31
ATOM     31  C   UNL A   1      39.877  22.685  26.641  1.00  0.00     0.338 C 
ATOM     32  O   UNL A   1      40.838  21.928  26.576  1.00  0.00    -0.246 OA
BRANCH  31  33
ATOM     33  C   UNL A   1      40.063  24.133  27.159  1.00  0.00     0.060 A 
ATOM     34  C   UNL A   1      39.324  24.559  28.251  1.00  0.00     0.016 A 
ATOM     35  C   UNL A   1      40.711  25.194  26.476  1.00  0.00     0.016 A 
ATOM     36  C   UNL A   1      39.328  25.944  28.683  1.00  0.00     0.010 A 
ATOM     37  C   UNL A   1      40.648  26.634  26.888  1.00  0.00     0.010 A 
ATOM     38  C   UNL A   1      39.955  27.083  28.031  1.00  0.00    -0.014 A 
BRANCH  38  39
ATOM     39  C   UNL A   1      39.410  28.629  28.466  1.00  0.00     0.031 A 
ATOM     40  C   UNL A   1      40.714  29.327  28.667  1.00  0.00     0.074 A 
ATOM     41  C   UNL A   1      38.307  29.463  28.800  1.00  0.00     0.049 A 
ATOM     42  N   UNL A   1      41.566  28.846  29.532  1.00  0.00    -0.248 NA
ATOM     43  C   UNL A   1      41.297  30.234  27.676  1.00  0.00     0.031 C 
ATOM     44  C   UNL A   1      36.879  29.100  28.936  1.00  0.00     0.029 A 
ATOM     45  N   UNL A   1      38.181  30.888  29.116  1.00  0.00    -0.354 N 
ATOM     46  C   UNL A   1      42.699  29.605  29.412  1.00  0.00     0.074 A 
ATOM     47  C   UNL A   1      42.564  30.245  28.110  1.00  0.00     0.031 C 
ATOM     48  C   UNL A   1      36.068  30.186  29.146  1.00  0.00     0.029 A 
ATOM     49  C   UNL A   1      36.825  31.439  29.245  1.00  0.00     0.049 A 
ATOM     50  H   UNL A   1      38.976  31.457  29.237  1.00  0.00     0.167 HD
ATOM     51  C   UNL A   1      43.156  30.146  30.578  1.00  0.00     0.037 A 
ATOM     52  C   UNL A   1      36.330  32.739  29.503  1.00  0.00     0.037 A 
ATOM     53  C   UNL A   1      42.787  31.528  30.706  1.00  0.00     0.049 A 
ATOM     54  C   UNL A   1      37.413  33.487  30.144  1.00  0.00     0.074 A 
ATOM     55  C   UNL A   1      42.728  32.574  29.804  1.00  0.00     0.029 A 
ATOM     56  N   UNL A   1      41.934  31.849  31.739  1.00  0.00    -0.354 N 
ATOM     57  N   UNL A   1      37.648  33.362  31.414  1.00  0.00    -0.248 NA
ATOM     58  C   UNL A   1      38.188  34.516  29.461  1.00  0.00     0.031 C 
ATOM     59  C   UNL A   1      41.452  33.131  30.018  1.00  0.00     0.029 A 
ATOM     60  C   UNL A   1      41.005  32.746  31.275  1.00  0.00     0.049 A 
ATOM     61  H   UNL A   1      41.981  31.493  32.655  1.00  0.00     0.167 HD
ATOM     62  C   UNL A   1      38.912  33.828  31.521  1.00  0.00     0.074 A 
ATOM     63  C   UNL A   1      39.075  34.769  30.426  1.00  0.00     0.031 C 
ATOM     64  C   UNL A   1      39.793  32.931  32.019  1.00  0.00     0.037 A 
BRANCH  51  65
ATOM     65  C   UNL A   1      43.181  29.179  31.732  1.00  0.00     0.057 A 
ATOM     66  C   UNL A   1      44.398  28.635  32.138  1.00  0.00     0.134 A 
ATOM     67  C   UNL A   1      42.020  28.690  32.366  1.00  0.00     0.134 A 
ATOM     68  F   UNL A   1      45.550  29.106  31.641  1.00  0.00    -0.206 F 
ATOM     69  C   UNL A   1      44.454  27.589  33.066  1.00  0.00     0.040 A 
ATOM     70  C   UNL A   1      42.056  27.602  33.236  1.00  0.00     0.040 A 
ATOM     71  F   UNL A   1      40.823  29.264  32.162  1.00  0.00    -0.206 F 
ATOM     72  C   UNL A   1      43.278  27.042  33.581  1.00  0.00     0.006 A 
ENDBRANCH  51  65
BRANCH  52  73
ATOM     73  C   UNL A   1      35.068  33.709  29.576  1.00  0.00     0.057 A 
ATOM     74  C   UNL A   1      34.483  34.102  30.839  1.00  0.00     0.134 A 
ATOM     75  C   UNL A   1      34.753  34.618  28.556  1.00  0.00     0.134 A 
ATOM     76  F   UNL A   1      34.607  33.345  31.937  1.00  0.00    -0.206 F 
ATOM     77  C   UNL A   1      33.788  35.313  31.080  1.00  0.00     0.040 A 
ATOM     78  C   UNL A   1      34.009  35.820  28.779  1.00  0.00     0.040 A 
ATOM     79  F   UNL A   1      35.227  34.427  27.319  1.00  0.00    -0.206 F 
ATOM     80  C   UNL A   1      33.561  36.194  30.046  1.00  0.00     0.006 A 
ENDBRANCH  52  73
BRANCH  64  81
ATOM     81  C   UNL A   1      39.310  32.059  33.164  1.00  0.00     0.057 A 
ATOM     82  C   UNL A   1      38.519  30.892  33.067  1.00  0.00     0.134 A 
ATOM     83  C   UNL A   1      39.599  32.486  34.463  1.00  0.00     0.134 A 
ATOM     84  F   UNL A   1      38.239  30.313  31.892  1.00  0.00    -0.206 F 
ATOM     85  C   UNL A   1      37.984  30.250  34.192  1.00  0.00     0.040 A 
ATOM     86  C   UNL A   1      39.112  31.826  35.596  1.00  0.00     0.040 A 
ATOM     87  F   UNL A   1      40.380  33.558  34.656  1.00  0.00    -0.206 F 
ATOM     88  C   UNL A   1      38.281  30.719  35.464  1.00  0.00     0.006 A 
ENDBRANCH  64  81
ENDBRANCH  38  39
ENDBRANCH  31  33
ENDBRANCH  30  31
ENDBRANCH  29  30
ENDBRANCH   1  29
TORSDOF 13
ENDMDL
