MODEL 1
REMARK VINA RESULT:     -11.8      0.000      0.000
REMARK SMILES CCOc1ccc(CNC(=O)Cc2c(C(=O)OCCOC(=O)c3ccc(-c4c5nc(c(-c6c(F)cccc6F)c6ccc([nH]6)c(-c6c(F)cccc6F)c6nc(c(-c7c(F)cccc7F)c7ccc4[nH]7)C=C6)C=C5)cc3)c(C)cn2C)cc1
REMARK SMILES IDX 15 1 16 2 14 3 13 4 80 5 77 6 79 7 81 8 78 9 12 10 10 11
REMARK SMILES IDX 9 12 11 14 8 15 7 16 4 17 5 18 83 19 6 20 82 21 3 22 2 23
REMARK SMILES IDX 1 24 17 25 18 26 19 27 20 28 21 29 22 30 23 31 24 32 76 33
REMARK SMILES IDX 25 34 75 35 26 36 27 37 28 38 69 39 29 40 74 41 68 42 70 43
REMARK SMILES IDX 30 44 73 45 67 46 66 47 31 49 57 50 40 51 56 52 41 53 44 54
REMARK SMILES IDX 55 55 71 56 42 57 43 58 54 60 72 61 45 62 32 63 33 64 38 65
REMARK SMILES IDX 34 66 35 67 37 68 39 69 36 70 58 71 59 72 64 73 60 74 61 75
REMARK SMILES IDX 63 76 65 77 62 78 46 79 47 80 52 81 48 82 49 83 51 84 53 85
REMARK SMILES IDX 50 86
REMARK H PARENT 9 13 70 48 44 59
REMARK Flexibility Score: inf
ROOT
ATOM      1  C   UNL A   1      32.466  29.272  26.304  1.00  0.00     0.340 C 
ATOM      2  O   UNL A   1      31.618  29.138  27.183  1.00  0.00    -0.246 OA
ENDROOT
BRANCH   1   3
ATOM      3  C   UNL A   1      32.335  28.622  25.005  1.00  0.00     0.084 A 
ATOM      4  C   UNL A   1      32.953  27.411  24.689  1.00  0.00     0.041 A 
ATOM      5  N   UNL A   1      32.808  27.222  23.337  1.00  0.00    -0.353 N 
ATOM      6  C   UNL A   1      31.412  28.859  23.929  1.00  0.00    -0.019 A 
ATOM      7  C   UNL A   1      31.788  28.020  22.895  1.00  0.00     0.089 A 
ATOM      8  C   UNL A   1      33.535  26.266  22.531  1.00  0.00     0.149 C 
ATOM      9  C   UNL A   1      30.228  29.758  23.936  1.00  0.00     0.047 C 
BRANCH   4  10
ATOM     10  C   UNL A   1      33.514  26.372  25.618  1.00  0.00     0.154 C 
BRANCH  10  11
ATOM     11  C   UNL A   1      32.414  25.401  26.108  1.00  0.00     0.226 C 
ATOM     12  N   UNL A   1      32.386  24.085  25.706  1.00  0.00    -0.352 N 
ATOM     13  H   UNL A   1      31.692  23.510  26.102  1.00  0.00     0.163 HD
ATOM     14  O   UNL A   1      31.509  25.807  26.843  1.00  0.00    -0.275 OA
BRANCH  12  15
ATOM     15  C   UNL A   1      33.280  23.475  24.760  1.00  0.00     0.151 C 
BRANCH  15  16
ATOM     16  C   UNL A   1      33.259  21.989  24.565  1.00  0.00    -0.029 A 
ATOM     17  C   UNL A   1      32.479  19.300  24.610  1.00  0.00     0.119 A 
ATOM     18  C   UNL A   1      32.324  20.052  23.445  1.00  0.00     0.047 A 
ATOM     19  C   UNL A   1      33.126  19.849  25.711  1.00  0.00     0.047 A 
ATOM     20  C   UNL A   1      32.703  21.400  23.422  1.00  0.00     0.009 A 
ATOM     21  C   UNL A   1      33.507  21.184  25.687  1.00  0.00     0.009 A 
BRANCH  17  22
ATOM     22  O   UNL A   1      32.034  18.008  24.626  1.00  0.00    -0.494 OA
BRANCH  22  23
ATOM     23  C   UNL A   1      32.712  17.194  25.597  1.00  0.00     0.226 C 
ATOM     24  C   UNL A   1      33.088  15.828  25.038  1.00  0.00     0.049 C 
ENDBRANCH  22  23
ENDBRANCH  17  22
ENDBRANCH  15  16
ENDBRANCH  12  15
ENDBRANCH  10  11
ENDBRANCH   4  10
ENDBRANCH   1   3
BRANCH   1  25
ATOM     25  O   UNL A   1      33.555  30.088  26.399  1.00  0.00    -0.458 OA
BRANCH  25  26
ATOM     26  C   UNL A   1      33.410  31.184  27.319  1.00  0.00     0.275 C 
BRANCH  26  27
ATOM     27  C   UNL A   1      34.722  31.487  28.029  1.00  0.00     0.275 C 
BRANCH  27  28
ATOM     28  O   UNL A   1      35.785  30.591  27.653  1.00  0.00    -0.458 OA
BRANCH  28  29
ATOM     29  C   UNL A   1      36.646  30.434  28.690  1.00  0.00     0.338 C 
ATOM     30  O   UNL A   1      36.575  31.031  29.758  1.00  0.00    -0.246 OA
BRANCH  29  31
ATOM     31  C   UNL A   1      37.706  29.432  28.471  1.00  0.00     0.060 A 
ATOM     32  C   UNL A   1      37.943  28.353  29.326  1.00  0.00     0.016 A 
ATOM     33  C   UNL A   1      38.621  29.740  27.461  1.00  0.00     0.016 A 
ATOM     34  C   UNL A   1      39.178  27.704  29.294  1.00  0.00     0.010 A 
ATOM     35  C   UNL A   1      39.818  29.054  27.385  1.00  0.00     0.010 A 
ATOM     36  C   UNL A   1      40.141  28.105  28.363  1.00  0.00    -0.014 A 
BRANCH  36  37
ATOM     37  C   UNL A   1      41.482  27.501  28.360  1.00  0.00     0.031 A 
ATOM     38  C   UNL A   1      42.344  27.739  29.559  1.00  0.00     0.074 A 
ATOM     39  C   UNL A   1      41.787  26.532  27.466  1.00  0.00     0.049 A 
ATOM     40  N   UNL A   1      43.632  27.888  29.624  1.00  0.00    -0.248 NA
ATOM     41  C   UNL A   1      41.669  27.819  30.867  1.00  0.00     0.031 C 
ATOM     42  C   UNL A   1      40.912  25.993  26.416  1.00  0.00     0.029 A 
ATOM     43  N   UNL A   1      42.863  25.689  27.429  1.00  0.00    -0.354 N 
ATOM     44  C   UNL A   1      43.946  27.925  30.983  1.00  0.00     0.074 A 
ATOM     45  C   UNL A   1      42.697  27.964  31.700  1.00  0.00     0.031 C 
ATOM     46  C   UNL A   1      41.361  24.776  26.049  1.00  0.00     0.029 A 
ATOM     47  C   UNL A   1      42.604  24.504  26.752  1.00  0.00     0.049 A 
ATOM     48  H   UNL A   1      43.732  25.901  27.840  1.00  0.00     0.167 HD
ATOM     49  C   UNL A   1      45.202  27.747  31.472  1.00  0.00     0.037 A 
ATOM     50  C   UNL A   1      43.290  23.338  26.837  1.00  0.00     0.037 A 
ATOM     51  C   UNL A   1      46.227  27.997  30.504  1.00  0.00     0.049 A 
ATOM     52  C   UNL A   1      44.609  23.616  27.446  1.00  0.00     0.074 A 
ATOM     53  C   UNL A   1      46.598  29.088  29.742  1.00  0.00     0.029 A 
ATOM     54  N   UNL A   1      46.927  26.938  29.988  1.00  0.00    -0.354 N 
ATOM     55  N   UNL A   1      45.585  24.247  26.859  1.00  0.00    -0.248 NA
ATOM     56  C   UNL A   1      44.730  23.484  28.891  1.00  0.00     0.031 C 
ATOM     57  C   UNL A   1      47.108  28.543  28.529  1.00  0.00     0.029 A 
ATOM     58  C   UNL A   1      47.014  27.156  28.637  1.00  0.00     0.049 A 
ATOM     59  H   UNL A   1      47.295  26.172  30.487  1.00  0.00     0.167 HD
ATOM     60  C   UNL A   1      46.217  24.942  27.879  1.00  0.00     0.074 A 
ATOM     61  C   UNL A   1      45.731  24.337  29.113  1.00  0.00     0.031 C 
ATOM     62  C   UNL A   1      46.855  26.125  27.641  1.00  0.00     0.037 A 
BRANCH  49  63
ATOM     63  C   UNL A   1      45.473  27.082  32.791  1.00  0.00     0.057 A 
ATOM     64  C   UNL A   1      46.221  27.732  33.785  1.00  0.00     0.134 A 
ATOM     65  C   UNL A   1      45.222  25.713  33.014  1.00  0.00     0.134 A 
ATOM     66  F   UNL A   1      46.567  29.021  33.652  1.00  0.00    -0.206 F 
ATOM     67  C   UNL A   1      46.694  27.060  34.919  1.00  0.00     0.040 A 
ATOM     68  C   UNL A   1      45.646  25.045  34.165  1.00  0.00     0.040 A 
ATOM     69  F   UNL A   1      44.631  24.947  32.087  1.00  0.00    -0.206 F 
ATOM     70  C   UNL A   1      46.403  25.714  35.114  1.00  0.00     0.006 A 
ENDBRANCH  49  63
BRANCH  50  71
ATOM     71  C   UNL A   1      42.785  21.959  26.641  1.00  0.00     0.057 A 
ATOM     72  C   UNL A   1      43.373  21.092  25.710  1.00  0.00     0.134 A 
ATOM     73  C   UNL A   1      41.850  21.376  27.517  1.00  0.00     0.134 A 
ATOM     74  F   UNL A   1      44.320  21.535  24.871  1.00  0.00    -0.206 F 
ATOM     75  C   UNL A   1      43.043  19.731  25.646  1.00  0.00     0.040 A 
ATOM     76  C   UNL A   1      41.497  20.025  27.451  1.00  0.00     0.040 A 
ATOM     77  F   UNL A   1      41.303  22.080  28.519  1.00  0.00    -0.206 F 
ATOM     78  C   UNL A   1      42.101  19.194  26.518  1.00  0.00     0.006 A 
ENDBRANCH  50  71
BRANCH  62  79
ATOM     79  C   UNL A   1      47.100  26.520  26.213  1.00  0.00     0.057 A 
ATOM     80  C   UNL A   1      46.205  27.299  25.465  1.00  0.00     0.134 A 
ATOM     81  C   UNL A   1      48.341  26.245  25.631  1.00  0.00     0.134 A 
ATOM     82  F   UNL A   1      45.040  27.707  25.984  1.00  0.00    -0.206 F 
ATOM     83  C   UNL A   1      46.512  27.741  24.175  1.00  0.00     0.040 A 
ATOM     84  C   UNL A   1      48.674  26.708  24.355  1.00  0.00     0.040 A 
ATOM     85  F   UNL A   1      49.273  25.561  26.313  1.00  0.00    -0.206 F 
ATOM     86  C   UNL A   1      47.753  27.449  23.619  1.00  0.00     0.006 A 
ENDBRANCH  62  79
ENDBRANCH  36  37
ENDBRANCH  29  31
ENDBRANCH  28  29
ENDBRANCH  27  28
ENDBRANCH  26  27
ENDBRANCH  25  26
ENDBRANCH   1  25
TORSDOF 17
ENDMDL
MODEL 2
REMARK VINA RESULT:     -11.5      1.340      1.961
REMARK SMILES CCOc1ccc(CNC(=O)Cc2c(C(=O)OCCOC(=O)c3ccc(-c4c5nc(c(-c6c(F)cccc6F)c6ccc([nH]6)c(-c6c(F)cccc6F)c6nc(c(-c7c(F)cccc7F)c7ccc4[nH]7)C=C6)C=C5)cc3)c(C)cn2C)cc1
REMARK SMILES IDX 15 1 16 2 14 3 13 4 80 5 77 6 79 7 81 8 78 9 12 10 10 11
REMARK SMILES IDX 9 12 11 14 8 15 7 16 4 17 5 18 83 19 6 20 82 21 3 22 2 23
REMARK SMILES IDX 1 24 17 25 18 26 19 27 20 28 21 29 22 30 23 31 24 32 76 33
REMARK SMILES IDX 25 34 75 35 26 36 27 37 28 38 69 39 29 40 74 41 68 42 70 43
REMARK SMILES IDX 30 44 73 45 67 46 66 47 31 49 57 50 40 51 56 52 41 53 44 54
REMARK SMILES IDX 55 55 71 56 42 57 43 58 54 60 72 61 45 62 32 63 33 64 38 65
REMARK SMILES IDX 34 66 35 67 37 68 39 69 36 70 58 71 59 72 64 73 60 74 61 75
REMARK SMILES IDX 63 76 65 77 62 78 46 79 47 80 52 81 48 82 49 83 51 84 53 85
REMARK SMILES IDX 50 86
REMARK H PARENT 9 13 70 48 44 59
REMARK Flexibility Score: inf
ROOT
ATOM      1  C   UNL A   1      31.882  30.074  25.448  1.00  0.00     0.340 C 
ATOM      2  O   UNL A   1      31.118  30.903  25.936  1.00  0.00    -0.246 OA
ENDROOT
BRANCH   1   3
ATOM      3  C   UNL A   1      31.451  29.157  24.400  1.00  0.00     0.084 A 
ATOM      4  C   UNL A   1      31.891  27.835  24.312  1.00  0.00     0.041 A 
ATOM      5  N   UNL A   1      31.476  27.349  23.096  1.00  0.00    -0.353 N 
ATOM      6  C   UNL A   1      30.365  29.249  23.463  1.00  0.00    -0.019 A 
ATOM      7  C   UNL A   1      30.464  28.145  22.634  1.00  0.00     0.089 A 
ATOM      8  C   UNL A   1      31.952  26.141  22.458  1.00  0.00     0.149 C 
ATOM      9  C   UNL A   1      29.286  30.271  23.428  1.00  0.00     0.047 C 
BRANCH   4  10
ATOM     10  C   UNL A   1      32.526  26.983  25.374  1.00  0.00     0.154 C 
BRANCH  10  11
ATOM     11  C   UNL A   1      31.480  26.493  26.403  1.00  0.00     0.226 C 
ATOM     12  N   UNL A   1      31.011  25.199  26.389  1.00  0.00    -0.352 N 
ATOM     13  H   UNL A   1      30.390  24.940  27.108  1.00  0.00     0.163 HD
ATOM     14  O   UNL A   1      31.014  27.275  27.236  1.00  0.00    -0.275 OA
BRANCH  12  15
ATOM     15  C   UNL A   1      31.345  24.192  25.419  1.00  0.00     0.151 C 
BRANCH  15  16
ATOM     16  C   UNL A   1      32.416  23.188  25.724  1.00  0.00    -0.029 A 
ATOM     17  C   UNL A   1      34.894  21.898  25.905  1.00  0.00     0.119 A 
ATOM     18  C   UNL A   1      34.369  22.561  27.016  1.00  0.00     0.047 A 
ATOM     19  C   UNL A   1      34.138  21.778  24.746  1.00  0.00     0.047 A 
ATOM     20  C   UNL A   1      33.135  23.216  26.925  1.00  0.00     0.009 A 
ATOM     21  C   UNL A   1      32.911  22.423  24.658  1.00  0.00     0.009 A 
BRANCH  17  22
ATOM     22  O   UNL A   1      36.133  21.330  26.001  1.00  0.00    -0.494 OA
BRANCH  22  23
ATOM     23  C   UNL A   1      37.099  21.944  25.130  1.00  0.00     0.226 C 
ATOM     24  C   UNL A   1      38.093  22.808  25.895  1.00  0.00     0.049 C 
ENDBRANCH  22  23
ENDBRANCH  17  22
ENDBRANCH  15  16
ENDBRANCH  12  15
ENDBRANCH  10  11
ENDBRANCH   4  10
ENDBRANCH   1   3
BRANCH   1  25
ATOM     25  O   UNL A   1      33.208  29.972  25.752  1.00  0.00    -0.458 OA
BRANCH  25  26
ATOM     26  C   UNL A   1      33.553  30.368  27.091  1.00  0.00     0.275 C 
BRANCH  26  27
ATOM     27  C   UNL A   1      34.868  29.740  27.531  1.00  0.00     0.275 C 
BRANCH  27  28
ATOM     28  O   UNL A   1      35.925  30.704  27.694  1.00  0.00    -0.458 OA
BRANCH  28  29
ATOM     29  C   UNL A   1      36.672  30.392  28.784  1.00  0.00     0.338 C 
ATOM     30  O   UNL A   1      36.489  30.837  29.911  1.00  0.00    -0.246 OA
BRANCH  29  31
ATOM     31  C   UNL A   1      37.746  29.411  28.541  1.00  0.00     0.060 A 
ATOM     32  C   UNL A   1      37.962  28.282  29.336  1.00  0.00     0.016 A 
ATOM     33  C   UNL A   1      38.691  29.785  27.582  1.00  0.00     0.016 A 
ATOM     34  C   UNL A   1      39.203  27.644  29.306  1.00  0.00     0.010 A 
ATOM     35  C   UNL A   1      39.895  29.112  27.506  1.00  0.00     0.010 A 
ATOM     36  C   UNL A   1      40.193  28.106  28.435  1.00  0.00    -0.014 A 
BRANCH  36  37
ATOM     37  C   UNL A   1      41.538  27.512  28.441  1.00  0.00     0.031 A 
ATOM     38  C   UNL A   1      42.406  27.790  29.627  1.00  0.00     0.074 A 
ATOM     39  C   UNL A   1      41.844  26.519  27.574  1.00  0.00     0.049 A 
ATOM     40  N   UNL A   1      43.694  27.949  29.679  1.00  0.00    -0.248 NA
ATOM     41  C   UNL A   1      41.739  27.904  30.936  1.00  0.00     0.031 C 
ATOM     42  C   UNL A   1      40.966  25.943  26.546  1.00  0.00     0.029 A 
ATOM     43  N   UNL A   1      42.926  25.683  27.554  1.00  0.00    -0.354 N 
ATOM     44  C   UNL A   1      44.016  28.029  31.034  1.00  0.00     0.074 A 
ATOM     45  C   UNL A   1      42.771  28.080  31.757  1.00  0.00     0.031 C 
ATOM     46  C   UNL A   1      41.422  24.719  26.212  1.00  0.00     0.029 A 
ATOM     47  C   UNL A   1      42.670  24.476  26.913  1.00  0.00     0.049 A 
ATOM     48  H   UNL A   1      43.796  25.912  27.953  1.00  0.00     0.167 HD
ATOM     49  C   UNL A   1      45.277  27.874  31.520  1.00  0.00     0.037 A 
ATOM     50  C   UNL A   1      43.365  23.318  27.028  1.00  0.00     0.037 A 
ATOM     51  C   UNL A   1      46.294  28.102  30.539  1.00  0.00     0.049 A 
ATOM     52  C   UNL A   1      44.686  23.623  27.620  1.00  0.00     0.074 A 
ATOM     53  C   UNL A   1      46.652  29.172  29.743  1.00  0.00     0.029 A 
ATOM     54  N   UNL A   1      46.998  27.033  30.049  1.00  0.00    -0.354 N 
ATOM     55  N   UNL A   1      45.654  24.243  27.009  1.00  0.00    -0.248 NA
ATOM     56  C   UNL A   1      44.817  23.534  29.068  1.00  0.00     0.031 C 
ATOM     57  C   UNL A   1      47.158  28.596  28.543  1.00  0.00     0.029 A 
ATOM     58  C   UNL A   1      47.074  27.212  28.692  1.00  0.00     0.049 A 
ATOM     59  H   UNL A   1      47.373  26.285  30.568  1.00  0.00     0.167 HD
ATOM     60  C   UNL A   1      46.288  24.971  28.003  1.00  0.00     0.074 A 
ATOM     61  C   UNL A   1      45.814  24.399  29.258  1.00  0.00     0.031 C 
ATOM     62  C   UNL A   1      46.916  26.151  27.727  1.00  0.00     0.037 A 
BRANCH  49  63
ATOM     63  C   UNL A   1      45.560  27.250  32.856  1.00  0.00     0.057 A 
ATOM     64  C   UNL A   1      46.319  27.929  33.821  1.00  0.00     0.134 A 
ATOM     65  C   UNL A   1      45.311  25.888  33.124  1.00  0.00     0.134 A 
ATOM     66  F   UNL A   1      46.664  29.212  33.645  1.00  0.00    -0.206 F 
ATOM     67  C   UNL A   1      46.803  27.292  34.971  1.00  0.00     0.040 A 
ATOM     68  C   UNL A   1      45.746  25.255  34.290  1.00  0.00     0.040 A 
ATOM     69  F   UNL A   1      44.710  25.094  32.226  1.00  0.00    -0.206 F 
ATOM     70  C   UNL A   1      46.512  25.952  35.211  1.00  0.00     0.006 A 
ENDBRANCH  49  63
BRANCH  50  71
ATOM     71  C   UNL A   1      42.868  21.930  26.877  1.00  0.00     0.057 A 
ATOM     72  C   UNL A   1      41.758  21.471  27.598  1.00  0.00     0.134 A 
ATOM     73  C   UNL A   1      43.332  21.078  25.857  1.00  0.00     0.134 A 
ATOM     74  F   UNL A   1      41.202  22.234  28.550  1.00  0.00    -0.206 F 
ATOM     75  C   UNL A   1      41.153  20.236  27.330  1.00  0.00     0.040 A 
ATOM     76  C   UNL A   1      42.751  19.835  25.592  1.00  0.00     0.040 A 
ATOM     77  F   UNL A   1      44.317  21.457  25.029  1.00  0.00    -0.206 F 
ATOM     78  C   UNL A   1      41.650  19.413  26.324  1.00  0.00     0.006 A 
ENDBRANCH  50  71
BRANCH  62  79
ATOM     79  C   UNL A   1      47.149  26.505  26.287  1.00  0.00     0.057 A 
ATOM     80  C   UNL A   1      46.245  27.258  25.523  1.00  0.00     0.134 A 
ATOM     81  C   UNL A   1      48.388  26.220  25.704  1.00  0.00     0.134 A 
ATOM     82  F   UNL A   1      45.081  27.675  26.037  1.00  0.00    -0.206 F 
ATOM     83  C   UNL A   1      46.541  27.663  24.219  1.00  0.00     0.040 A 
ATOM     84  C   UNL A   1      48.709  26.648  24.413  1.00  0.00     0.040 A 
ATOM     85  F   UNL A   1      49.328  25.561  26.400  1.00  0.00    -0.206 F 
ATOM     86  C   UNL A   1      47.779  27.362  23.662  1.00  0.00     0.006 A 
ENDBRANCH  62  79
ENDBRANCH  36  37
ENDBRANCH  29  31
ENDBRANCH  28  29
ENDBRANCH  27  28
ENDBRANCH  26  27
ENDBRANCH  25  26
ENDBRANCH   1  25
TORSDOF 17
ENDMDL
MODEL 3
REMARK VINA RESULT:     -11.5      4.989      9.201
REMARK SMILES CCOc1ccc(CNC(=O)Cc2c(C(=O)OCCOC(=O)c3ccc(-c4c5nc(c(-c6c(F)cccc6F)c6ccc([nH]6)c(-c6c(F)cccc6F)c6nc(c(-c7c(F)cccc7F)c7ccc4[nH]7)C=C6)C=C5)cc3)c(C)cn2C)cc1
REMARK SMILES IDX 15 1 16 2 14 3 13 4 80 5 77 6 79 7 81 8 78 9 12 10 10 11
REMARK SMILES IDX 9 12 11 14 8 15 7 16 4 17 5 18 83 19 6 20 82 21 3 22 2 23
REMARK SMILES IDX 1 24 17 25 18 26 19 27 20 28 21 29 22 30 23 31 24 32 76 33
REMARK SMILES IDX 25 34 75 35 26 36 27 37 28 38 69 39 29 40 74 41 68 42 70 43
REMARK SMILES IDX 30 44 73 45 67 46 66 47 31 49 57 50 40 51 56 52 41 53 44 54
REMARK SMILES IDX 55 55 71 56 42 57 43 58 54 60 72 61 45 62 32 63 33 64 38 65
REMARK SMILES IDX 34 66 35 67 37 68 39 69 36 70 58 71 59 72 64 73 60 74 61 75
REMARK SMILES IDX 63 76 65 77 62 78 46 79 47 80 52 81 48 82 49 83 51 84 53 85
REMARK SMILES IDX 50 86
REMARK H PARENT 9 13 70 48 44 59
REMARK Flexibility Score: inf
ROOT
ATOM      1  C   UNL A   1      34.312  24.919  25.506  1.00  0.00     0.340 C 
ATOM      2  O   UNL A   1      33.512  24.334  26.232  1.00  0.00    -0.246 OA
ENDROOT
BRANCH   1   3
ATOM      3  C   UNL A   1      33.994  26.202  24.891  1.00  0.00     0.084 A 
ATOM      4  C   UNL A   1      33.771  26.360  23.522  1.00  0.00     0.041 A 
ATOM      5  N   UNL A   1      33.735  27.709  23.270  1.00  0.00    -0.353 N 
ATOM      6  C   UNL A   1      33.580  27.445  25.480  1.00  0.00    -0.019 A 
ATOM      7  C   UNL A   1      33.501  28.364  24.448  1.00  0.00     0.089 A 
ATOM      8  C   UNL A   1      33.822  28.332  21.967  1.00  0.00     0.149 C 
ATOM      9  C   UNL A   1      33.217  27.696  26.900  1.00  0.00     0.047 C 
BRANCH   4  10
ATOM     10  C   UNL A   1      33.431  25.314  22.498  1.00  0.00     0.154 C 
BRANCH  10  11
ATOM     11  C   UNL A   1      31.980  24.808  22.669  1.00  0.00     0.226 C 
ATOM     12  N   UNL A   1      31.682  23.464  22.660  1.00  0.00    -0.352 N 
ATOM     13  H   UNL A   1      30.746  23.211  22.832  1.00  0.00     0.163 HD
ATOM     14  O   UNL A   1      31.050  25.612  22.777  1.00  0.00    -0.275 OA
BRANCH  12  15
ATOM     15  C   UNL A   1      32.615  22.397  22.421  1.00  0.00     0.151 C 
BRANCH  15  16
ATOM     16  C   UNL A   1      32.648  21.214  23.342  1.00  0.00    -0.029 A 
ATOM     17  C   UNL A   1      33.352  18.789  24.550  1.00  0.00     0.119 A 
ATOM     18  C   UNL A   1      33.755  19.997  25.122  1.00  0.00     0.047 A 
ATOM     19  C   UNL A   1      32.507  18.790  23.448  1.00  0.00     0.047 A 
ATOM     20  C   UNL A   1      33.413  21.211  24.515  1.00  0.00     0.009 A 
ATOM     21  C   UNL A   1      32.163  19.994  22.848  1.00  0.00     0.009 A 
BRANCH  17  22
ATOM     22  O   UNL A   1      33.762  17.618  25.125  1.00  0.00    -0.494 OA
BRANCH  22  23
ATOM     23  C   UNL A   1      32.666  16.801  25.571  1.00  0.00     0.226 C 
ATOM     24  C   UNL A   1      32.899  15.324  25.285  1.00  0.00     0.049 C 
ENDBRANCH  22  23
ENDBRANCH  17  22
ENDBRANCH  15  16
ENDBRANCH  12  15
ENDBRANCH  10  11
ENDBRANCH   4  10
ENDBRANCH   1   3
BRANCH   1  25
ATOM     25  O   UNL A   1      35.586  24.497  25.264  1.00  0.00    -0.458 OA
BRANCH  25  26
ATOM     26  C   UNL A   1      36.086  23.518  26.192  1.00  0.00     0.275 C 
BRANCH  26  27
ATOM     27  C   UNL A   1      37.603  23.418  26.127  1.00  0.00     0.275 C 
BRANCH  27  28
ATOM     28  O   UNL A   1      38.260  24.679  26.354  1.00  0.00    -0.458 OA
BRANCH  28  29
ATOM     29  C   UNL A   1      39.230  24.532  27.293  1.00  0.00     0.338 C 
ATOM     30  O   UNL A   1      39.724  23.463  27.631  1.00  0.00    -0.246 OA
BRANCH  29  31
ATOM     31  C   UNL A   1      39.709  25.791  27.893  1.00  0.00     0.060 A 
ATOM     32  C   UNL A   1      40.441  25.856  29.081  1.00  0.00     0.016 A 
ATOM     33  C   UNL A   1      39.202  26.959  27.317  1.00  0.00     0.016 A 
ATOM     34  C   UNL A   1      40.502  27.057  29.790  1.00  0.00     0.010 A 
ATOM     35  C   UNL A   1      39.318  28.161  27.987  1.00  0.00     0.010 A 
ATOM     36  C   UNL A   1      39.879  28.195  29.270  1.00  0.00    -0.014 A 
BRANCH  36  37
ATOM     37  C   UNL A   1      39.850  29.452  30.032  1.00  0.00     0.031 A 
ATOM     38  C   UNL A   1      41.106  30.263  30.065  1.00  0.00     0.074 A 
ATOM     39  C   UNL A   1      38.667  29.988  30.411  1.00  0.00     0.049 A 
ATOM     40  N   UNL A   1      41.584  30.994  31.026  1.00  0.00    -0.248 NA
ATOM     41  C   UNL A   1      41.943  30.257  28.851  1.00  0.00     0.031 C 
ATOM     42  C   UNL A   1      37.328  29.430  30.172  1.00  0.00     0.029 A 
ATOM     43  N   UNL A   1      38.394  31.232  30.910  1.00  0.00    -0.354 N 
ATOM     44  C   UNL A   1      42.689  31.657  30.491  1.00  0.00     0.074 A 
ATOM     45  C   UNL A   1      42.914  31.104  29.180  1.00  0.00     0.031 C 
ATOM     46  C   UNL A   1      36.416  30.418  30.263  1.00  0.00     0.029 A 
ATOM     47  C   UNL A   1      37.087  31.640  30.671  1.00  0.00     0.049 A 
ATOM     48  H   UNL A   1      39.056  31.781  31.389  1.00  0.00     0.167 HD
ATOM     49  C   UNL A   1      43.266  32.746  31.067  1.00  0.00     0.037 A 
ATOM     50  C   UNL A   1      36.601  32.905  30.697  1.00  0.00     0.037 A 
ATOM     51  C   UNL A   1      42.978  32.868  32.464  1.00  0.00     0.049 A 
ATOM     52  C   UNL A   1      37.568  33.763  31.416  1.00  0.00     0.074 A 
ATOM     53  C   UNL A   1      43.195  32.074  33.573  1.00  0.00     0.029 A 
ATOM     54  N   UNL A   1      42.119  33.851  32.882  1.00  0.00    -0.354 N 
ATOM     55  N   UNL A   1      37.785  33.729  32.699  1.00  0.00    -0.248 NA
ATOM     56  C   UNL A   1      38.581  34.452  30.629  1.00  0.00     0.031 C 
ATOM     57  C   UNL A   1      42.095  32.331  34.440  1.00  0.00     0.029 A 
ATOM     58  C   UNL A   1      41.284  33.266  33.799  1.00  0.00     0.049 A 
ATOM     59  H   UNL A   1      42.104  34.789  32.584  1.00  0.00     0.167 HD
ATOM     60  C   UNL A   1      39.134  34.017  32.835  1.00  0.00     0.074 A 
ATOM     61  C   UNL A   1      39.537  34.574  31.550  1.00  0.00     0.031 C 
ATOM     62  C   UNL A   1      39.865  33.517  33.873  1.00  0.00     0.037 A 
BRANCH  49  63
ATOM     63  C   UNL A   1      43.892  33.850  30.265  1.00  0.00     0.057 A 
ATOM     64  C   UNL A   1      43.125  34.619  29.376  1.00  0.00     0.134 A 
ATOM     65  C   UNL A   1      45.289  34.014  30.164  1.00  0.00     0.134 A 
ATOM     66  F   UNL A   1      41.790  34.503  29.344  1.00  0.00    -0.206 F 
ATOM     67  C   UNL A   1      43.711  35.485  28.444  1.00  0.00     0.040 A 
ATOM     68  C   UNL A   1      45.882  34.911  29.273  1.00  0.00     0.040 A 
ATOM     69  F   UNL A   1      46.139  33.249  30.864  1.00  0.00    -0.206 F 
ATOM     70  C   UNL A   1      45.094  35.637  28.395  1.00  0.00     0.006 A 
ENDBRANCH  49  63
BRANCH  50  71
ATOM     71  C   UNL A   1      35.464  33.467  29.930  1.00  0.00     0.057 A 
ATOM     72  C   UNL A   1      34.413  34.137  30.571  1.00  0.00     0.134 A 
ATOM     73  C   UNL A   1      35.481  33.556  28.526  1.00  0.00     0.134 A 
ATOM     74  F   UNL A   1      34.339  34.164  31.910  1.00  0.00    -0.206 F 
ATOM     75  C   UNL A   1      33.433  34.842  29.859  1.00  0.00     0.040 A 
ATOM     76  C   UNL A   1      34.500  34.239  27.802  1.00  0.00     0.040 A 
ATOM     77  F   UNL A   1      36.496  33.049  27.810  1.00  0.00    -0.206 F 
ATOM     78  C   UNL A   1      33.474  34.894  28.469  1.00  0.00     0.006 A 
ENDBRANCH  50  71
BRANCH  62  79
ATOM     79  C   UNL A   1      39.125  32.883  35.016  1.00  0.00     0.057 A 
ATOM     80  C   UNL A   1      38.809  31.517  35.066  1.00  0.00     0.134 A 
ATOM     81  C   UNL A   1      38.869  33.635  36.166  1.00  0.00     0.134 A 
ATOM     82  F   UNL A   1      39.121  30.696  34.055  1.00  0.00    -0.206 F 
ATOM     83  C   UNL A   1      38.216  30.938  36.190  1.00  0.00     0.040 A 
ATOM     84  C   UNL A   1      38.307  33.061  37.310  1.00  0.00     0.040 A 
ATOM     85  F   UNL A   1      39.206  34.933  36.216  1.00  0.00    -0.206 F 
ATOM     86  C   UNL A   1      37.968  31.711  37.320  1.00  0.00     0.006 A 
ENDBRANCH  62  79
ENDBRANCH  36  37
ENDBRANCH  29  31
ENDBRANCH  28  29
ENDBRANCH  27  28
ENDBRANCH  26  27
ENDBRANCH  25  26
ENDBRANCH   1  25
TORSDOF 17
ENDMDL
