MODEL 1
REMARK VINA RESULT:     -17.6      0.000      0.000
REMARK SMILES Cc1ccc([C@@H]2[C@H](C(=O)OCCOC(=O)c3ccc(-c4c5nc(c(-c6c(F)cccc6F)c6ccc([nH]6)c(-c6c(F)cccc6F)c6nc(c(-c7c(F)cccc7F)c7ccc4[nH]7)C=C6)C=C5)cc3)c3ccccc3C(=O)N2c2ccccc2)cc1
REMARK SMILES IDX 12 1 11 2 10 3 8 4 9 5 7 6 6 7 78 8 70 9 76 10 71 11 75 12
REMARK SMILES IDX 77 13 72 14 74 15 73 16 5 17 1 18 2 19 3 20 86 21 4 22 85 23
REMARK SMILES IDX 79 24 80 25 84 26 81 27 83 28 82 29 13 30 14 31 15 32 16 33
REMARK SMILES IDX 17 34 69 35 18 36 68 37 19 38 20 39 21 40 62 41 22 42 67 43
REMARK SMILES IDX 61 44 63 45 23 46 66 47 60 48 59 49 24 51 50 52 33 53 49 54
REMARK SMILES IDX 34 55 37 56 48 57 64 58 35 59 36 60 47 62 65 63 38 64 25 65
REMARK SMILES IDX 26 66 31 67 27 68 28 69 30 70 32 71 29 72 51 73 52 74 57 75
REMARK SMILES IDX 53 76 54 77 56 78 58 79 55 80 39 81 40 82 45 83 41 84 42 85
REMARK SMILES IDX 44 86 46 87 43 88
REMARK H PARENT 63 50 37 61
REMARK Flexibility Score: inf
ROOT
ATOM      1  C   UNL A   1      33.685  27.438  24.902  1.00  0.00     0.275 C 
ENDROOT
BRANCH   1   2
ATOM      2  C   UNL A   1      33.721  26.870  23.070  1.00  0.00     0.274 C 
BRANCH   2   3
ATOM      3  O   UNL A   1      33.990  25.221  22.640  1.00  0.00    -0.462 OA
BRANCH   3   4
ATOM      4  C   UNL A   1      33.073  24.247  22.097  1.00  0.00     0.316 C 
ATOM      5  O   UNL A   1      32.784  24.358  20.910  1.00  0.00    -0.251 OA
BRANCH   4   6
ATOM      6  C   UNL A   1      32.126  23.109  23.140  1.00  0.00     0.157 C 
ATOM      7  C   UNL A   1      32.401  21.772  24.244  1.00  0.00     0.140 C 
ATOM      8  N   UNL A   1      33.085  22.189  25.520  1.00  0.00    -0.300 N 
ATOM      9  C   UNL A   1      31.268  24.063  23.978  1.00  0.00    -0.019 A 
ATOM     10  C   UNL A   1      32.181  23.053  26.229  1.00  0.00     0.259 C 
ATOM     11  C   UNL A   1      30.626  25.103  23.278  1.00  0.00     0.005 A 
ATOM     12  C   UNL A   1      31.347  24.065  25.397  1.00  0.00     0.044 A 
ATOM     13  O   UNL A   1      32.082  23.044  27.452  1.00  0.00    -0.269 OA
ATOM     14  C   UNL A   1      30.248  26.248  23.954  1.00  0.00     0.000 A 
ATOM     15  C   UNL A   1      30.869  25.199  26.061  1.00  0.00     0.014 A 
ATOM     16  C   UNL A   1      30.378  26.300  25.340  1.00  0.00     0.001 A 
BRANCH   7  17
ATOM     17  C   UNL A   1      32.487  20.203  24.046  1.00  0.00    -0.024 A 
ATOM     18  C   UNL A   1      33.862  16.160  23.466  1.00  0.00     0.044 C 
ATOM     19  C   UNL A   1      33.084  17.425  23.708  1.00  0.00    -0.051 A 
ATOM     20  C   UNL A   1      32.918  17.945  24.981  1.00  0.00     0.004 A 
ATOM     21  C   UNL A   1      32.606  18.192  22.645  1.00  0.00     0.004 A 
ATOM     22  C   UNL A   1      32.592  19.307  25.144  1.00  0.00     0.006 A 
ATOM     23  C   UNL A   1      32.315  19.568  22.810  1.00  0.00     0.006 A 
ENDBRANCH   7  17
BRANCH   8  24
ATOM     24  C   UNL A   1      34.455  22.703  25.360  1.00  0.00     0.045 A 
ATOM     25  C   UNL A   1      35.272  21.440  24.811  1.00  0.00     0.026 A 
ATOM     26  C   UNL A   1      35.338  24.065  26.125  1.00  0.00     0.026 A 
ATOM     27  C   UNL A   1      36.972  21.249  25.062  1.00  0.00     0.002 A 
ATOM     28  C   UNL A   1      37.140  24.083  26.356  1.00  0.00     0.002 A 
ATOM     29  C   UNL A   1      38.079  22.647  25.788  1.00  0.00     0.000 A 
ENDBRANCH   8  24
ENDBRANCH   4   6
ENDBRANCH   3   4
ENDBRANCH   2   3
ENDBRANCH   1   2
BRANCH   1  30
ATOM     30  O   UNL A   1      33.293  29.160  25.399  1.00  0.00    -0.458 OA
BRANCH  30  31
ATOM     31  C   UNL A   1      33.300  29.884  27.038  1.00  0.00     0.338 C 
ATOM     32  O   UNL A   1      32.081  30.029  27.290  1.00  0.00    -0.246 OA
BRANCH  31  33
ATOM     33  C   UNL A   1      35.236  30.231  27.933  1.00  0.00     0.060 A 
ATOM     34  C   UNL A   1      36.397  31.083  27.746  1.00  0.00     0.016 A 
ATOM     35  C   UNL A   1      35.775  29.383  29.184  1.00  0.00     0.016 A 
ATOM     36  C   UNL A   1      37.610  31.166  28.515  1.00  0.00     0.010 A 
ATOM     37  C   UNL A   1      36.893  29.422  29.952  1.00  0.00     0.010 A 
ATOM     38  C   UNL A   1      37.848  30.298  29.555  1.00  0.00    -0.014 A 
BRANCH  38  39
ATOM     39  C   UNL A   1      39.118  29.882  30.093  1.00  0.00     0.031 A 
ATOM     40  C   UNL A   1      39.713  28.644  29.561  1.00  0.00     0.074 A 
ATOM     41  C   UNL A   1      39.748  30.986  30.577  1.00  0.00     0.049 A 
ATOM     42  N   UNL A   1      40.686  28.009  30.100  1.00  0.00    -0.248 NA
ATOM     43  C   UNL A   1      39.219  27.940  28.376  1.00  0.00     0.031 C 
ATOM     44  C   UNL A   1      41.143  31.379  30.616  1.00  0.00     0.029 A 
ATOM     45  N   UNL A   1      39.104  32.094  31.162  1.00  0.00    -0.354 N 
ATOM     46  C   UNL A   1      41.218  27.221  29.092  1.00  0.00     0.074 A 
ATOM     47  C   UNL A   1      40.142  26.997  28.179  1.00  0.00     0.031 C 
ATOM     48  C   UNL A   1      41.276  32.410  31.479  1.00  0.00     0.029 A 
ATOM     49  C   UNL A   1      39.979  32.670  32.094  1.00  0.00     0.049 A 
ATOM     50  H   UNL A   1      38.195  32.408  30.953  1.00  0.00     0.167 HD
ATOM     51  C   UNL A   1      42.576  27.112  29.010  1.00  0.00     0.037 A 
ATOM     52  C   UNL A   1      39.677  32.451  33.413  1.00  0.00     0.037 A 
ATOM     53  C   UNL A   1      43.175  27.927  30.073  1.00  0.00     0.049 A 
ATOM     54  C   UNL A   1      40.373  31.212  33.963  1.00  0.00     0.074 A 
ATOM     55  C   UNL A   1      43.781  29.169  30.131  1.00  0.00     0.029 A 
ATOM     56  N   UNL A   1      42.815  27.636  31.367  1.00  0.00    -0.354 N 
ATOM     57  N   UNL A   1      41.303  30.542  33.337  1.00  0.00    -0.248 NA
ATOM     58  C   UNL A   1      40.024  30.601  35.245  1.00  0.00     0.031 C 
ATOM     59  C   UNL A   1      43.715  29.624  31.493  1.00  0.00     0.029 A 
ATOM     60  C   UNL A   1      43.067  28.660  32.248  1.00  0.00     0.049 A 
ATOM     61  H   UNL A   1      42.416  26.777  31.638  1.00  0.00     0.167 HD
ATOM     62  C   UNL A   1      41.628  29.417  34.042  1.00  0.00     0.074 A 
ATOM     63  C   UNL A   1      40.792  29.497  35.231  1.00  0.00     0.031 C 
ATOM     64  C   UNL A   1      42.545  28.499  33.600  1.00  0.00     0.037 A 
BRANCH  51  65
ATOM     65  C   UNL A   1      43.394  26.500  27.896  1.00  0.00     0.057 A 
ATOM     66  C   UNL A   1      43.479  25.094  27.810  1.00  0.00     0.134 A 
ATOM     67  C   UNL A   1      44.085  27.175  26.873  1.00  0.00     0.134 A 
ATOM     68  F   UNL A   1      42.828  24.295  28.666  1.00  0.00    -0.206 F 
ATOM     69  C   UNL A   1      44.217  24.423  26.829  1.00  0.00     0.040 A 
ATOM     70  C   UNL A   1      44.838  26.514  25.888  1.00  0.00     0.040 A 
ATOM     71  F   UNL A   1      44.051  28.502  26.731  1.00  0.00    -0.206 F 
ATOM     72  C   UNL A   1      44.908  25.131  25.864  1.00  0.00     0.006 A 
ENDBRANCH  51  65
BRANCH  52  73
ATOM     73  C   UNL A   1      38.247  32.804  33.687  1.00  0.00     0.057 A 
ATOM     74  C   UNL A   1      37.860  34.158  33.740  1.00  0.00     0.134 A 
ATOM     75  C   UNL A   1      37.248  31.881  33.399  1.00  0.00     0.134 A 
ATOM     76  F   UNL A   1      38.768  35.104  34.015  1.00  0.00    -0.206 F 
ATOM     77  C   UNL A   1      36.566  34.581  33.404  1.00  0.00     0.040 A 
ATOM     78  C   UNL A   1      35.989  32.315  32.991  1.00  0.00     0.040 A 
ATOM     79  F   UNL A   1      37.524  30.573  33.312  1.00  0.00    -0.206 F 
ATOM     80  C   UNL A   1      35.633  33.654  32.978  1.00  0.00     0.006 A 
ENDBRANCH  52  73
BRANCH  64  81
ATOM     81  C   UNL A   1      43.002  27.321  34.433  1.00  0.00     0.057 A 
ATOM     82  C   UNL A   1      44.355  27.129  34.737  1.00  0.00     0.134 A 
ATOM     83  C   UNL A   1      42.151  26.265  34.838  1.00  0.00     0.134 A 
ATOM     84  F   UNL A   1      45.295  27.979  34.297  1.00  0.00    -0.206 F 
ATOM     85  C   UNL A   1      44.809  26.031  35.475  1.00  0.00     0.040 A 
ATOM     86  C   UNL A   1      42.603  25.129  35.507  1.00  0.00     0.040 A 
ATOM     87  F   UNL A   1      40.829  26.268  34.636  1.00  0.00    -0.206 F 
ATOM     88  C   UNL A   1      43.934  25.022  35.855  1.00  0.00     0.006 A 
ENDBRANCH  64  81
ENDBRANCH  38  39
ENDBRANCH  31  33
ENDBRANCH  30  31
ENDBRANCH   1  30
TORSDOF 13
ENDMDL
MODEL 2
REMARK VINA RESULT:     -17.0      2.845      8.683
REMARK SMILES Cc1ccc([C@@H]2[C@H](C(=O)OCCOC(=O)c3ccc(-c4c5nc(c(-c6c(F)cccc6F)c6ccc([nH]6)c(-c6c(F)cccc6F)c6nc(c(-c7c(F)cccc7F)c7ccc4[nH]7)C=C6)C=C5)cc3)c3ccccc3C(=O)N2c2ccccc2)cc1
REMARK SMILES IDX 12 1 11 2 10 3 8 4 9 5 7 6 6 7 78 8 70 9 76 10 71 11 75 12
REMARK SMILES IDX 77 13 72 14 74 15 73 16 5 17 1 18 2 19 3 20 86 21 4 22 85 23
REMARK SMILES IDX 79 24 80 25 84 26 81 27 83 28 82 29 13 30 14 31 15 32 16 33
REMARK SMILES IDX 17 34 69 35 18 36 68 37 19 38 20 39 21 40 62 41 22 42 67 43
REMARK SMILES IDX 61 44 63 45 23 46 66 47 60 48 59 49 24 51 50 52 33 53 49 54
REMARK SMILES IDX 34 55 37 56 48 57 64 58 35 59 36 60 47 62 65 63 38 64 25 65
REMARK SMILES IDX 26 66 31 67 27 68 28 69 30 70 32 71 29 72 51 73 52 74 57 75
REMARK SMILES IDX 53 76 54 77 56 78 58 79 55 80 39 81 40 82 45 83 41 84 42 85
REMARK SMILES IDX 44 86 46 87 43 88
REMARK H PARENT 63 50 37 61
REMARK Flexibility Score: inf
ROOT
ATOM      1  C   UNL A   1      34.907  24.557  25.695  1.00  0.00     0.275 C 
ENDROOT
BRANCH   1   2
ATOM      2  C   UNL A   1      33.343  23.782  26.491  1.00  0.00     0.274 C 
BRANCH   2   3
ATOM      3  O   UNL A   1      31.910  24.706  26.751  1.00  0.00    -0.462 OA
BRANCH   3   4
ATOM      4  C   UNL A   1      30.658  24.692  26.029  1.00  0.00     0.316 C 
ATOM      5  O   UNL A   1      29.748  24.025  26.509  1.00  0.00    -0.251 OA
BRANCH   4   6
ATOM      6  C   UNL A   1      30.495  25.336  24.344  1.00  0.00     0.157 C 
ATOM      7  C   UNL A   1      30.690  26.848  23.471  1.00  0.00     0.140 C 
ATOM      8  N   UNL A   1      32.123  27.299  23.381  1.00  0.00    -0.300 N 
ATOM      9  C   UNL A   1      31.363  24.368  23.533  1.00  0.00    -0.019 A 
ATOM     10  C   UNL A   1      32.828  26.335  22.581  1.00  0.00     0.259 C 
ATOM     11  C   UNL A   1      31.186  22.997  23.801  1.00  0.00     0.005 A 
ATOM     12  C   UNL A   1      32.469  24.837  22.773  1.00  0.00     0.044 A 
ATOM     13  O   UNL A   1      33.718  26.652  21.798  1.00  0.00    -0.269 OA
ATOM     14  C   UNL A   1      32.202  22.107  23.504  1.00  0.00     0.000 A 
ATOM     15  C   UNL A   1      33.435  23.894  22.405  1.00  0.00     0.014 A 
ATOM     16  C   UNL A   1      33.326  22.556  22.817  1.00  0.00     0.001 A 
BRANCH   7  17
ATOM     17  C   UNL A   1      29.702  28.038  23.134  1.00  0.00    -0.024 A 
ATOM     18  C   UNL A   1      27.360  31.654  23.262  1.00  0.00     0.044 C 
ATOM     19  C   UNL A   1      28.063  30.373  22.903  1.00  0.00    -0.051 A 
ATOM     20  C   UNL A   1      29.340  30.370  22.364  1.00  0.00     0.004 A 
ATOM     21  C   UNL A   1      27.507  29.132  23.217  1.00  0.00     0.004 A 
ATOM     22  C   UNL A   1      30.133  29.208  22.451  1.00  0.00     0.006 A 
ATOM     23  C   UNL A   1      28.318  27.978  23.336  1.00  0.00     0.006 A 
ENDBRANCH   7  17
BRANCH   8  24
ATOM     24  C   UNL A   1      32.758  27.637  24.666  1.00  0.00     0.045 A 
ATOM     25  C   UNL A   1      31.539  28.156  25.566  1.00  0.00     0.026 A 
ATOM     26  C   UNL A   1      34.439  28.081  25.112  1.00  0.00     0.026 A 
ATOM     27  C   UNL A   1      31.751  29.266  26.874  1.00  0.00     0.002 A 
ATOM     28  C   UNL A   1      34.850  29.139  26.530  1.00  0.00     0.002 A 
ATOM     29  C   UNL A   1      33.487  29.776  27.533  1.00  0.00     0.000 A 
ENDBRANCH   8  24
ENDBRANCH   4   6
ENDBRANCH   3   4
ENDBRANCH   2   3
ENDBRANCH   1   2
BRANCH   1  30
ATOM     30  O   UNL A   1      36.083  23.589  24.672  1.00  0.00    -0.458 OA
BRANCH  30  31
ATOM     31  C   UNL A   1      37.655  22.873  25.146  1.00  0.00     0.338 C 
ATOM     32  O   UNL A   1      37.651  21.764  24.562  1.00  0.00    -0.246 OA
BRANCH  31  33
ATOM     33  C   UNL A   1      38.904  24.059  26.451  1.00  0.00     0.060 A 
ATOM     34  C   UNL A   1      39.142  24.251  27.871  1.00  0.00     0.016 A 
ATOM     35  C   UNL A   1      39.944  25.149  25.897  1.00  0.00     0.016 A 
ATOM     36  C   UNL A   1      40.085  25.108  28.538  1.00  0.00     0.010 A 
ATOM     37  C   UNL A   1      40.860  25.971  26.470  1.00  0.00     0.010 A 
ATOM     38  C   UNL A   1      40.873  25.982  27.825  1.00  0.00    -0.014 A 
BRANCH  38  39
ATOM     39  C   UNL A   1      41.469  27.213  28.278  1.00  0.00     0.031 A 
ATOM     40  C   UNL A   1      40.574  28.356  28.525  1.00  0.00     0.074 A 
ATOM     41  C   UNL A   1      42.643  26.906  28.892  1.00  0.00     0.049 A 
ATOM     42  N   UNL A   1      40.959  29.568  28.676  1.00  0.00    -0.248 NA
ATOM     43  C   UNL A   1      39.113  28.260  28.563  1.00  0.00     0.031 C 
ATOM     44  C   UNL A   1      43.328  27.477  30.035  1.00  0.00     0.029 A 
ATOM     45  N   UNL A   1      43.493  25.844  28.528  1.00  0.00    -0.354 N 
ATOM     46  C   UNL A   1      39.916  30.210  29.325  1.00  0.00     0.074 A 
ATOM     47  C   UNL A   1      38.742  29.474  28.975  1.00  0.00     0.031 C 
ATOM     48  C   UNL A   1      44.601  27.023  30.046  1.00  0.00     0.029 A 
ATOM     49  C   UNL A   1      44.810  26.200  28.860  1.00  0.00     0.049 A 
ATOM     50  H   UNL A   1      43.213  24.998  28.111  1.00  0.00     0.167 HD
ATOM     51  C   UNL A   1      40.223  31.100  30.312  1.00  0.00     0.037 A 
ATOM     52  C   UNL A   1      45.622  26.532  27.807  1.00  0.00     0.037 A 
ATOM     53  C   UNL A   1      41.682  31.144  30.464  1.00  0.00     0.049 A 
ATOM     54  C   UNL A   1      45.601  28.027  27.515  1.00  0.00     0.074 A 
ATOM     55  C   UNL A   1      42.591  30.606  31.356  1.00  0.00     0.029 A 
ATOM     56  N   UNL A   1      42.419  31.488  29.355  1.00  0.00    -0.354 N 
ATOM     57  N   UNL A   1      45.046  28.927  28.281  1.00  0.00    -0.248 NA
ATOM     58  C   UNL A   1      46.160  28.611  26.296  1.00  0.00     0.031 C 
ATOM     59  C   UNL A   1      43.877  30.592  30.714  1.00  0.00     0.029 A 
ATOM     60  C   UNL A   1      43.739  31.115  29.440  1.00  0.00     0.049 A 
ATOM     61  H   UNL A   1      42.039  31.955  28.576  1.00  0.00     0.167 HD
ATOM     62  C   UNL A   1      45.091  30.152  27.676  1.00  0.00     0.074 A 
ATOM     63  C   UNL A   1      45.795  29.899  26.428  1.00  0.00     0.031 C 
ATOM     64  C   UNL A   1      44.540  31.278  28.232  1.00  0.00     0.037 A 
BRANCH  51  65
ATOM     65  C   UNL A   1      39.284  31.758  31.297  1.00  0.00     0.057 A 
ATOM     66  C   UNL A   1      38.738  33.019  30.975  1.00  0.00     0.134 A 
ATOM     67  C   UNL A   1      38.840  31.243  32.529  1.00  0.00     0.134 A 
ATOM     68  F   UNL A   1      39.003  33.625  29.811  1.00  0.00    -0.206 F 
ATOM     69  C   UNL A   1      37.869  33.722  31.817  1.00  0.00     0.040 A 
ATOM     70  C   UNL A   1      37.975  31.943  33.388  1.00  0.00     0.040 A 
ATOM     71  F   UNL A   1      39.173  30.027  32.967  1.00  0.00    -0.206 F 
ATOM     72  C   UNL A   1      37.488  33.190  33.034  1.00  0.00     0.006 A 
ENDBRANCH  51  65
BRANCH  52  73
ATOM     73  C   UNL A   1      45.574  25.468  26.754  1.00  0.00     0.057 A 
ATOM     74  C   UNL A   1      46.200  24.227  26.986  1.00  0.00     0.134 A 
ATOM     75  C   UNL A   1      44.549  25.482  25.814  1.00  0.00     0.134 A 
ATOM     76  F   UNL A   1      47.198  24.135  27.875  1.00  0.00    -0.206 F 
ATOM     77  C   UNL A   1      45.747  23.037  26.398  1.00  0.00     0.040 A 
ATOM     78  C   UNL A   1      44.056  24.288  25.296  1.00  0.00     0.040 A 
ATOM     79  F   UNL A   1      43.885  26.613  25.539  1.00  0.00    -0.206 F 
ATOM     80  C   UNL A   1      44.632  23.060  25.580  1.00  0.00     0.006 A 
ENDBRANCH  52  73
BRANCH  64  81
ATOM     81  C   UNL A   1      44.697  32.657  27.630  1.00  0.00     0.057 A 
ATOM     82  C   UNL A   1      45.288  33.701  28.351  1.00  0.00     0.134 A 
ATOM     83  C   UNL A   1      44.145  33.040  26.383  1.00  0.00     0.134 A 
ATOM     84  F   UNL A   1      45.730  33.518  29.604  1.00  0.00    -0.206 F 
ATOM     85  C   UNL A   1      45.414  34.994  27.832  1.00  0.00     0.040 A 
ATOM     86  C   UNL A   1      44.197  34.342  25.889  1.00  0.00     0.040 A 
ATOM     87  F   UNL A   1      43.541  32.183  25.553  1.00  0.00    -0.206 F 
ATOM     88  C   UNL A   1      44.860  35.321  26.601  1.00  0.00     0.006 A 
ENDBRANCH  64  81
ENDBRANCH  38  39
ENDBRANCH  31  33
ENDBRANCH  30  31
ENDBRANCH   1  30
TORSDOF 13
ENDMDL
MODEL 3
REMARK VINA RESULT:     -15.9      5.919     10.785
REMARK SMILES Cc1ccc([C@@H]2[C@H](C(=O)OCCOC(=O)c3ccc(-c4c5nc(c(-c6c(F)cccc6F)c6ccc([nH]6)c(-c6c(F)cccc6F)c6nc(c(-c7c(F)cccc7F)c7ccc4[nH]7)C=C6)C=C5)cc3)c3ccccc3C(=O)N2c2ccccc2)cc1
REMARK SMILES IDX 12 1 11 2 10 3 8 4 9 5 7 6 6 7 78 8 70 9 76 10 71 11 75 12
REMARK SMILES IDX 77 13 72 14 74 15 73 16 5 17 1 18 2 19 3 20 86 21 4 22 85 23
REMARK SMILES IDX 79 24 80 25 84 26 81 27 83 28 82 29 13 30 14 31 15 32 16 33
REMARK SMILES IDX 17 34 69 35 18 36 68 37 19 38 20 39 21 40 62 41 22 42 67 43
REMARK SMILES IDX 61 44 63 45 23 46 66 47 60 48 59 49 24 51 50 52 33 53 49 54
REMARK SMILES IDX 34 55 37 56 48 57 64 58 35 59 36 60 47 62 65 63 38 64 25 65
REMARK SMILES IDX 26 66 31 67 27 68 28 69 30 70 32 71 29 72 51 73 52 74 57 75
REMARK SMILES IDX 53 76 54 77 56 78 58 79 55 80 39 81 40 82 45 83 41 84 42 85
REMARK SMILES IDX 44 86 46 87 43 88
REMARK H PARENT 63 50 37 61
REMARK Flexibility Score: inf
ROOT
ATOM      1  C   UNL A   1      43.914  30.476  37.118  1.00  0.00     0.275 C 
ENDROOT
BRANCH   1   2
ATOM      2  C   UNL A   1      42.325  31.296  36.421  1.00  0.00     0.274 C 
BRANCH   2   3
ATOM      3  O   UNL A   1      41.369  30.527  35.208  1.00  0.00    -0.462 OA
BRANCH   3   4
ATOM      4  C   UNL A   1      40.435  31.100  34.267  1.00  0.00     0.316 C 
ATOM      5  O   UNL A   1      39.337  31.427  34.704  1.00  0.00    -0.251 OA
BRANCH   4   6
ATOM      6  C   UNL A   1      40.702  31.056  32.476  1.00  0.00     0.157 C 
ATOM      7  C   UNL A   1      39.779  30.854  30.996  1.00  0.00     0.140 C 
ATOM      8  N   UNL A   1      38.854  32.008  30.713  1.00  0.00    -0.300 N 
ATOM      9  C   UNL A   1      41.459  32.364  32.222  1.00  0.00    -0.019 A 
ATOM     10  C   UNL A   1      39.671  33.164  30.465  1.00  0.00     0.259 C 
ATOM     11  C   UNL A   1      42.520  32.652  33.102  1.00  0.00     0.005 A 
ATOM     12  C   UNL A   1      40.942  33.349  31.337  1.00  0.00     0.044 A 
ATOM     13  O   UNL A   1      39.376  34.013  29.631  1.00  0.00    -0.269 OA
ATOM     14  C   UNL A   1      42.933  33.962  33.266  1.00  0.00     0.000 A 
ATOM     15  C   UNL A   1      41.449  34.647  31.463  1.00  0.00     0.014 A 
ATOM     16  C   UNL A   1      42.393  34.957  32.455  1.00  0.00     0.001 A 
BRANCH   7  17
ATOM     17  C   UNL A   1      39.382  29.588  30.132  1.00  0.00    -0.024 A 
ATOM     18  C   UNL A   1      39.455  26.020  27.716  1.00  0.00     0.044 C 
ATOM     19  C   UNL A   1      39.099  27.211  28.564  1.00  0.00    -0.051 A 
ATOM     20  C   UNL A   1      39.060  27.134  29.947  1.00  0.00     0.004 A 
ATOM     21  C   UNL A   1      38.917  28.473  27.996  1.00  0.00     0.004 A 
ATOM     22  C   UNL A   1      39.167  28.311  30.716  1.00  0.00     0.006 A 
ATOM     23  C   UNL A   1      39.062  29.649  28.769  1.00  0.00     0.006 A 
ENDBRANCH   7  17
BRANCH   8  24
ATOM     24  C   UNL A   1      37.770  32.199  31.692  1.00  0.00     0.045 A 
ATOM     25  C   UNL A   1      36.465  31.688  30.917  1.00  0.00     0.026 A 
ATOM     26  C   UNL A   1      37.591  33.286  33.109  1.00  0.00     0.026 A 
ATOM     27  C   UNL A   1      34.877  32.264  31.285  1.00  0.00     0.002 A 
ATOM     28  C   UNL A   1      35.986  33.888  33.708  1.00  0.00     0.002 A 
ATOM     29  C   UNL A   1      34.500  33.364  32.820  1.00  0.00     0.000 A 
ENDBRANCH   8  24
ENDBRANCH   4   6
ENDBRANCH   3   4
ENDBRANCH   2   3
ENDBRANCH   1   2
BRANCH   1  30
ATOM     30  O   UNL A   1      44.037  28.677  37.450  1.00  0.00    -0.458 OA
BRANCH  30  31
ATOM     31  C   UNL A   1      43.283  27.317  36.560  1.00  0.00     0.338 C 
ATOM     32  O   UNL A   1      43.032  26.488  37.465  1.00  0.00    -0.246 OA
BRANCH  31  33
ATOM     33  C   UNL A   1      43.087  27.553  34.420  1.00  0.00     0.060 A 
ATOM     34  C   UNL A   1      42.043  27.633  33.413  1.00  0.00     0.016 A 
ATOM     35  C   UNL A   1      44.355  27.666  33.443  1.00  0.00     0.016 A 
ATOM     36  C   UNL A   1      42.149  27.832  31.992  1.00  0.00     0.010 A 
ATOM     37  C   UNL A   1      44.517  27.865  32.110  1.00  0.00     0.010 A 
ATOM     38  C   UNL A   1      43.377  27.883  31.376  1.00  0.00    -0.014 A 
BRANCH  38  39
ATOM     39  C   UNL A   1      43.698  27.575  30.006  1.00  0.00     0.031 A 
ATOM     40  C   UNL A   1      44.018  26.175  29.677  1.00  0.00     0.074 A 
ATOM     41  C   UNL A   1      43.117  28.519  29.218  1.00  0.00     0.049 A 
ATOM     42  N   UNL A   1      44.565  25.786  28.587  1.00  0.00    -0.248 NA
ATOM     43  C   UNL A   1      43.811  25.050  30.591  1.00  0.00     0.031 C 
ATOM     44  C   UNL A   1      42.513  28.460  27.902  1.00  0.00     0.029 A 
ATOM     45  N   UNL A   1      42.934  29.869  29.576  1.00  0.00    -0.354 N 
ATOM     46  C   UNL A   1      44.270  24.436  28.484  1.00  0.00     0.074 A 
ATOM     47  C   UNL A   1      44.075  23.989  29.828  1.00  0.00     0.031 C 
ATOM     48  C   UNL A   1      42.371  29.720  27.436  1.00  0.00     0.029 A 
ATOM     49  C   UNL A   1      42.954  30.641  28.404  1.00  0.00     0.049 A 
ATOM     50  H   UNL A   1      42.814  30.212  30.490  1.00  0.00     0.167 HD
ATOM     51  C   UNL A   1      43.934  23.942  27.258  1.00  0.00     0.037 A 
ATOM     52  C   UNL A   1      44.088  31.384  28.198  1.00  0.00     0.037 A 
ATOM     53  C   UNL A   1      43.953  25.045  26.289  1.00  0.00     0.049 A 
ATOM     54  C   UNL A   1      45.125  30.633  27.373  1.00  0.00     0.074 A 
ATOM     55  C   UNL A   1      42.993  25.831  25.680  1.00  0.00     0.029 A 
ATOM     56  N   UNL A   1      45.133  25.735  26.147  1.00  0.00    -0.354 N 
ATOM     57  N   UNL A   1      44.907  29.502  26.757  1.00  0.00    -0.248 NA
ATOM     58  C   UNL A   1      46.510  31.078  27.231  1.00  0.00     0.031 C 
ATOM     59  C   UNL A   1      43.636  27.032  25.225  1.00  0.00     0.029 A 
ATOM     60  C   UNL A   1      44.977  26.970  25.565  1.00  0.00     0.049 A 
ATOM     61  H   UNL A   1      46.006  25.380  26.434  1.00  0.00     0.167 HD
ATOM     62  C   UNL A   1      46.070  29.030  26.215  1.00  0.00     0.074 A 
ATOM     63  C   UNL A   1      47.050  30.054  26.547  1.00  0.00     0.031 C 
ATOM     64  C   UNL A   1      46.151  27.835  25.548  1.00  0.00     0.037 A 
BRANCH  51  65
ATOM     65  C   UNL A   1      43.371  22.579  26.926  1.00  0.00     0.057 A 
ATOM     66  C   UNL A   1      44.051  21.775  25.986  1.00  0.00     0.134 A 
ATOM     67  C   UNL A   1      42.229  21.969  27.477  1.00  0.00     0.134 A 
ATOM     68  F   UNL A   1      45.193  22.175  25.413  1.00  0.00    -0.206 F 
ATOM     69  C   UNL A   1      43.613  20.504  25.597  1.00  0.00     0.040 A 
ATOM     70  C   UNL A   1      41.773  20.698  27.087  1.00  0.00     0.040 A 
ATOM     71  F   UNL A   1      41.504  22.532  28.445  1.00  0.00    -0.206 F 
ATOM     72  C   UNL A   1      42.465  19.960  26.141  1.00  0.00     0.006 A 
ENDBRANCH  51  65
BRANCH  52  73
ATOM     73  C   UNL A   1      44.409  32.197  29.415  1.00  0.00     0.057 A 
ATOM     74  C   UNL A   1      45.386  31.742  30.322  1.00  0.00     0.134 A 
ATOM     75  C   UNL A   1      44.152  33.564  29.411  1.00  0.00     0.134 A 
ATOM     76  F   UNL A   1      45.686  30.437  30.384  1.00  0.00    -0.206 F 
ATOM     77  C   UNL A   1      46.154  32.619  31.100  1.00  0.00     0.040 A 
ATOM     78  C   UNL A   1      44.969  34.433  30.128  1.00  0.00     0.040 A 
ATOM     79  F   UNL A   1      43.249  34.092  28.572  1.00  0.00    -0.206 F 
ATOM     80  C   UNL A   1      45.977  33.984  30.967  1.00  0.00     0.006 A 
ENDBRANCH  52  73
BRANCH  64  81
ATOM     81  C   UNL A   1      47.403  27.369  24.838  1.00  0.00     0.057 A 
ATOM     82  C   UNL A   1      48.419  26.695  25.526  1.00  0.00     0.134 A 
ATOM     83  C   UNL A   1      47.714  27.692  23.495  1.00  0.00     0.134 A 
ATOM     84  F   UNL A   1      48.321  26.444  26.839  1.00  0.00    -0.206 F 
ATOM     85  C   UNL A   1      49.601  26.283  24.902  1.00  0.00     0.040 A 
ATOM     86  C   UNL A   1      48.920  27.355  22.885  1.00  0.00     0.040 A 
ATOM     87  F   UNL A   1      46.871  28.333  22.679  1.00  0.00    -0.206 F 
ATOM     88  C   UNL A   1      49.860  26.620  23.580  1.00  0.00     0.006 A 
ENDBRANCH  64  81
ENDBRANCH  38  39
ENDBRANCH  31  33
ENDBRANCH  30  31
ENDBRANCH   1  30
TORSDOF 13
ENDMDL
