MODEL 1
REMARK VINA RESULT:     -10.9      0.000      0.000
REMARK SMILES Cc1cc(NCc2ccco2)cc(C(=O)OCCOC(=O)c2ccc(-c3c4nc(c(-c5c(F)cccc5F)c5ccc([nH]5)c(-c5c(F)cccc5F)c5nc(c(-c6c(F)cccc6F)c6ccc3[nH]6)C=C5)C=C4)cc2)c1N
REMARK SMILES IDX 17 1 16 2 14 3 15 4 13 5 1 6 2 7 3 8 76 9 4 10 12 11 77 12
REMARK SMILES IDX 5 15 6 17 7 18 8 19 11 20 9 21 10 22 18 23 19 24 20 25 21 26
REMARK SMILES IDX 22 27 23 28 75 29 24 30 74 31 25 32 26 33 27 34 68 35 28 36
REMARK SMILES IDX 73 37 67 38 69 39 29 40 72 41 66 42 65 43 30 45 56 46 39 47
REMARK SMILES IDX 55 48 40 49 43 50 54 51 70 52 41 53 42 54 53 56 71 57 44 58
REMARK SMILES IDX 31 59 32 60 37 61 33 62 34 63 36 64 38 65 35 66 57 67 58 68
REMARK SMILES IDX 63 69 59 70 60 71 62 72 64 73 61 74 45 75 46 76 51 77 47 78
REMARK SMILES IDX 48 79 50 80 52 81 49 82
REMARK H PARENT 77 13 77 14 5 16 69 44 43 55
REMARK Flexibility Score: inf
ROOT
ATOM      1  C   UNL A   1      32.961  29.326  24.728  1.00  0.00     0.275 C 
ENDROOT
BRANCH   1   2
ATOM      2  O   UNL A   1      32.751  29.218  23.305  1.00  0.00    -0.458 OA
BRANCH   2   3
ATOM      3  C   UNL A   1      32.615  27.960  22.802  1.00  0.00     0.340 C 
ATOM      4  O   UNL A   1      33.417  27.381  22.089  1.00  0.00    -0.246 OA
BRANCH   3   5
ATOM      5  C   UNL A   1      31.365  27.335  23.321  1.00  0.00     0.085 A 
ATOM      6  C   UNL A   1      30.254  24.762  25.905  1.00  0.00     0.047 C 
ATOM      7  C   UNL A   1      30.248  25.783  24.797  1.00  0.00    -0.025 A 
ATOM      8  C   UNL A   1      29.017  26.331  24.389  1.00  0.00     0.031 A 
ATOM      9  C   UNL A   1      31.435  26.218  24.184  1.00  0.00     0.049 A 
ATOM     10  C   UNL A   1      28.927  27.321  23.402  1.00  0.00     0.036 A 
ATOM     11  C   UNL A   1      30.120  27.856  22.924  1.00  0.00     0.043 A 
BRANCH   9  12
ATOM     12  N   UNL A   1      32.657  25.649  24.553  1.00  0.00    -0.398 N 
ATOM     13  H   UNL A   1      33.376  26.216  24.912  1.00  0.00     0.156 HD
ATOM     14  H   UNL A   1      32.798  24.680  24.454  1.00  0.00     0.156 HD
ENDBRANCH   9  12
BRANCH  10  15
ATOM     15  N   UNL A   1      27.673  27.772  23.035  1.00  0.00    -0.378 N 
ATOM     16  H   UNL A   1      27.140  27.199  22.436  1.00  0.00     0.161 HD
BRANCH  15  17
ATOM     17  C   UNL A   1      27.079  29.030  23.465  1.00  0.00     0.188 C 
BRANCH  17  18
ATOM     18  C   UNL A   1      27.698  30.254  22.880  1.00  0.00     0.122 A 
ATOM     19  C   UNL A   1      28.156  31.440  23.421  1.00  0.00     0.047 A 
ATOM     20  O   UNL A   1      27.849  30.276  21.522  1.00  0.00    -0.467 OA
ATOM     21  C   UNL A   1      28.612  32.225  22.333  1.00  0.00     0.042 A 
ATOM     22  C   UNL A   1      28.410  31.471  21.203  1.00  0.00     0.195 A 
ENDBRANCH  17  18
ENDBRANCH  15  17
ENDBRANCH  10  15
ENDBRANCH   3   5
ENDBRANCH   2   3
ENDBRANCH   1   2
BRANCH   1  23
ATOM     23  C   UNL A   1      31.818  30.109  25.373  1.00  0.00     0.275 C 
BRANCH  23  24
ATOM     24  O   UNL A   1      32.112  30.289  26.767  1.00  0.00    -0.458 OA
BRANCH  24  25
ATOM     25  C   UNL A   1      32.664  31.475  27.114  1.00  0.00     0.338 C 
ATOM     26  O   UNL A   1      32.176  32.585  26.972  1.00  0.00    -0.246 OA
BRANCH  25  27
ATOM     27  C   UNL A   1      33.996  31.231  27.707  1.00  0.00     0.060 A 
ATOM     28  C   UNL A   1      34.409  29.929  27.985  1.00  0.00     0.016 A 
ATOM     29  C   UNL A   1      34.815  32.302  28.062  1.00  0.00     0.016 A 
ATOM     30  C   UNL A   1      35.606  29.693  28.662  1.00  0.00     0.010 A 
ATOM     31  C   UNL A   1      36.056  32.060  28.670  1.00  0.00     0.010 A 
ATOM     32  C   UNL A   1      36.456  30.751  29.006  1.00  0.00    -0.014 A 
BRANCH  32  33
ATOM     33  C   UNL A   1      37.714  30.505  29.777  1.00  0.00     0.031 A 
ATOM     34  C   UNL A   1      38.845  29.737  29.142  1.00  0.00     0.074 A 
ATOM     35  C   UNL A   1      37.878  30.981  31.029  1.00  0.00     0.049 A 
ATOM     36  N   UNL A   1      39.913  29.219  29.697  1.00  0.00    -0.248 NA
ATOM     37  C   UNL A   1      38.755  29.508  27.691  1.00  0.00     0.031 C 
ATOM     38  C   UNL A   1      36.912  31.797  31.767  1.00  0.00     0.029 A 
ATOM     39  N   UNL A   1      38.934  30.854  31.902  1.00  0.00    -0.354 N 
ATOM     40  C   UNL A   1      40.577  28.541  28.681  1.00  0.00     0.074 A 
ATOM     41  C   UNL A   1      39.800  28.723  27.474  1.00  0.00     0.031 C 
ATOM     42  C   UNL A   1      37.436  32.134  32.956  1.00  0.00     0.029 A 
ATOM     43  C   UNL A   1      38.733  31.482  33.108  1.00  0.00     0.049 A 
ATOM     44  H   UNL A   1      39.756  30.359  31.684  1.00  0.00     0.167 HD
ATOM     45  C   UNL A   1      41.727  27.829  28.750  1.00  0.00     0.037 A 
ATOM     46  C   UNL A   1      39.479  31.496  34.231  1.00  0.00     0.037 A 
ATOM     47  C   UNL A   1      42.546  27.713  29.928  1.00  0.00     0.049 A 
ATOM     48  C   UNL A   1      40.750  30.694  34.288  1.00  0.00     0.074 A 
ATOM     49  C   UNL A   1      43.725  27.004  30.094  1.00  0.00     0.029 A 
ATOM     50  N   UNL A   1      42.290  28.349  31.132  1.00  0.00    -0.354 N 
ATOM     51  N   UNL A   1      41.310  29.966  33.353  1.00  0.00    -0.248 NA
ATOM     52  C   UNL A   1      41.473  30.688  35.569  1.00  0.00     0.031 C 
ATOM     53  C   UNL A   1      44.172  27.197  31.406  1.00  0.00     0.029 A 
ATOM     54  C   UNL A   1      43.289  28.051  32.045  1.00  0.00     0.049 A 
ATOM     55  H   UNL A   1      41.513  28.924  31.312  1.00  0.00     0.167 HD
ATOM     56  C   UNL A   1      42.448  29.418  33.930  1.00  0.00     0.074 A 
ATOM     57  C   UNL A   1      42.517  29.920  35.287  1.00  0.00     0.031 C 
ATOM     58  C   UNL A   1      43.348  28.563  33.389  1.00  0.00     0.037 A 
BRANCH  45  59
ATOM     59  C   UNL A   1      42.158  27.085  27.519  1.00  0.00     0.057 A 
ATOM     60  C   UNL A   1      41.810  25.748  27.294  1.00  0.00     0.134 A 
ATOM     61  C   UNL A   1      42.899  27.738  26.525  1.00  0.00     0.134 A 
ATOM     62  F   UNL A   1      41.116  25.062  28.214  1.00  0.00    -0.206 F 
ATOM     63  C   UNL A   1      42.199  25.081  26.130  1.00  0.00     0.040 A 
ATOM     64  C   UNL A   1      43.272  27.090  25.347  1.00  0.00     0.040 A 
ATOM     65  F   UNL A   1      43.259  29.022  26.676  1.00  0.00    -0.206 F 
ATOM     66  C   UNL A   1      42.926  25.755  25.150  1.00  0.00     0.006 A 
ENDBRANCH  45  59
BRANCH  46  67
ATOM     67  C   UNL A   1      39.015  32.253  35.423  1.00  0.00     0.057 A 
ATOM     68  C   UNL A   1      39.326  33.607  35.589  1.00  0.00     0.134 A 
ATOM     69  C   UNL A   1      38.263  31.637  36.431  1.00  0.00     0.134 A 
ATOM     70  F   UNL A   1      40.072  34.246  34.675  1.00  0.00    -0.206 F 
ATOM     71  C   UNL A   1      38.911  34.321  36.716  1.00  0.00     0.040 A 
ATOM     72  C   UNL A   1      37.816  32.345  37.548  1.00  0.00     0.040 A 
ATOM     73  F   UNL A   1      37.936  30.340  36.335  1.00  0.00    -0.206 F 
ATOM     74  C   UNL A   1      38.146  33.690  37.695  1.00  0.00     0.006 A 
ENDBRANCH  46  67
BRANCH  58  75
ATOM     75  C   UNL A   1      44.494  28.137  34.256  1.00  0.00     0.057 A 
ATOM     76  C   UNL A   1      45.681  28.877  34.321  1.00  0.00     0.134 A 
ATOM     77  C   UNL A   1      44.399  26.990  35.054  1.00  0.00     0.134 A 
ATOM     78  F   UNL A   1      45.838  29.978  33.569  1.00  0.00    -0.206 F 
ATOM     79  C   UNL A   1      46.743  28.480  35.134  1.00  0.00     0.040 A 
ATOM     80  C   UNL A   1      45.447  26.594  35.886  1.00  0.00     0.040 A 
ATOM     81  F   UNL A   1      43.286  26.241  35.041  1.00  0.00    -0.206 F 
ATOM     82  C   UNL A   1      46.626  27.338  35.924  1.00  0.00     0.006 A 
ENDBRANCH  58  75
ENDBRANCH  32  33
ENDBRANCH  25  27
ENDBRANCH  24  25
ENDBRANCH  23  24
ENDBRANCH   1  23
TORSDOF 15
ENDMDL
MODEL 2
REMARK VINA RESULT:     -10.9      4.286      7.908
REMARK SMILES Cc1cc(NCc2ccco2)cc(C(=O)OCCOC(=O)c2ccc(-c3c4nc(c(-c5c(F)cccc5F)c5ccc([nH]5)c(-c5c(F)cccc5F)c5nc(c(-c6c(F)cccc6F)c6ccc3[nH]6)C=C5)C=C4)cc2)c1N
REMARK SMILES IDX 17 1 16 2 14 3 15 4 13 5 1 6 2 7 3 8 76 9 4 10 12 11 77 12
REMARK SMILES IDX 5 15 6 17 7 18 8 19 11 20 9 21 10 22 18 23 19 24 20 25 21 26
REMARK SMILES IDX 22 27 23 28 75 29 24 30 74 31 25 32 26 33 27 34 68 35 28 36
REMARK SMILES IDX 73 37 67 38 69 39 29 40 72 41 66 42 65 43 30 45 56 46 39 47
REMARK SMILES IDX 55 48 40 49 43 50 54 51 70 52 41 53 42 54 53 56 71 57 44 58
REMARK SMILES IDX 31 59 32 60 37 61 33 62 34 63 36 64 38 65 35 66 57 67 58 68
REMARK SMILES IDX 63 69 59 70 60 71 62 72 64 73 61 74 45 75 46 76 51 77 47 78
REMARK SMILES IDX 48 79 50 80 52 81 49 82
REMARK H PARENT 77 13 77 14 5 16 69 44 43 55
REMARK Flexibility Score: inf
ROOT
ATOM      1  C   UNL A   1      32.657  30.371  27.220  1.00  0.00     0.275 C 
ENDROOT
BRANCH   1   2
ATOM      2  O   UNL A   1      32.943  28.959  27.159  1.00  0.00    -0.458 OA
BRANCH   2   3
ATOM      3  C   UNL A   1      31.892  28.133  26.903  1.00  0.00     0.340 C 
ATOM      4  O   UNL A   1      31.026  27.804  27.697  1.00  0.00    -0.246 OA
BRANCH   3   5
ATOM      5  C   UNL A   1      31.888  27.740  25.464  1.00  0.00     0.085 A 
ATOM      6  C   UNL A   1      33.660  25.330  23.101  1.00  0.00     0.047 C 
ATOM      7  C   UNL A   1      32.759  26.407  23.648  1.00  0.00    -0.025 A 
ATOM      8  C   UNL A   1      31.726  26.904  22.831  1.00  0.00     0.031 A 
ATOM      9  C   UNL A   1      32.906  26.904  24.954  1.00  0.00     0.049 A 
ATOM     10  C   UNL A   1      30.813  27.868  23.278  1.00  0.00     0.036 A 
ATOM     11  C   UNL A   1      30.872  28.228  24.622  1.00  0.00     0.043 A 
BRANCH   9  12
ATOM     12  N   UNL A   1      33.955  26.447  25.757  1.00  0.00    -0.398 N 
ATOM     13  H   UNL A   1      34.861  26.811  25.637  1.00  0.00     0.156 HD
ATOM     14  H   UNL A   1      33.787  25.761  26.443  1.00  0.00     0.156 HD
ENDBRANCH   9  12
BRANCH  10  15
ATOM     15  N   UNL A   1      29.856  28.329  22.394  1.00  0.00    -0.378 N 
ATOM     16  H   UNL A   1      30.043  28.237  21.432  1.00  0.00     0.161 HD
BRANCH  15  17
ATOM     17  C   UNL A   1      28.592  28.942  22.777  1.00  0.00     0.188 C 
BRANCH  17  18
ATOM     18  C   UNL A   1      28.582  30.433  22.763  1.00  0.00     0.122 A 
ATOM     19  C   UNL A   1      29.084  31.396  23.616  1.00  0.00     0.047 A 
ATOM     20  O   UNL A   1      27.934  31.032  21.719  1.00  0.00    -0.467 OA
ATOM     21  C   UNL A   1      28.723  32.649  23.062  1.00  0.00     0.042 A 
ATOM     22  C   UNL A   1      28.032  32.374  21.907  1.00  0.00     0.195 A 
ENDBRANCH  17  18
ENDBRANCH  15  17
ENDBRANCH  10  15
ENDBRANCH   3   5
ENDBRANCH   2   3
ENDBRANCH   1   2
BRANCH   1  23
ATOM     23  C   UNL A   1      33.909  31.147  27.627  1.00  0.00     0.275 C 
BRANCH  23  24
ATOM     24  O   UNL A   1      34.903  30.212  28.075  1.00  0.00    -0.458 OA
BRANCH  24  25
ATOM     25  C   UNL A   1      35.756  30.654  29.027  1.00  0.00     0.338 C 
ATOM     26  O   UNL A   1      35.518  31.462  29.913  1.00  0.00    -0.246 OA
BRANCH  25  27
ATOM     27  C   UNL A   1      37.071  30.005  28.838  1.00  0.00     0.060 A 
ATOM     28  C   UNL A   1      37.758  29.489  29.935  1.00  0.00     0.016 A 
ATOM     29  C   UNL A   1      37.665  29.973  27.577  1.00  0.00     0.016 A 
ATOM     30  C   UNL A   1      39.054  28.992  29.791  1.00  0.00     0.010 A 
ATOM     31  C   UNL A   1      38.934  29.399  27.419  1.00  0.00     0.010 A 
ATOM     32  C   UNL A   1      39.661  28.926  28.530  1.00  0.00    -0.014 A 
BRANCH  32  33
ATOM     33  C   UNL A   1      41.068  28.442  28.381  1.00  0.00     0.031 A 
ATOM     34  C   UNL A   1      42.215  29.395  28.594  1.00  0.00     0.074 A 
ATOM     35  C   UNL A   1      41.343  27.154  28.086  1.00  0.00     0.049 A 
ATOM     36  N   UNL A   1      43.483  29.251  28.295  1.00  0.00    -0.248 NA
ATOM     37  C   UNL A   1      41.891  30.692  29.209  1.00  0.00     0.031 C 
ATOM     38  C   UNL A   1      40.357  26.087  27.912  1.00  0.00     0.029 A 
ATOM     39  N   UNL A   1      42.550  26.520  27.893  1.00  0.00    -0.354 N 
ATOM     40  C   UNL A   1      44.089  30.460  28.616  1.00  0.00     0.074 A 
ATOM     41  C   UNL A   1      43.054  31.325  29.142  1.00  0.00     0.031 C 
ATOM     42  C   UNL A   1      40.994  24.928  27.685  1.00  0.00     0.029 A 
ATOM     43  C   UNL A   1      42.429  25.182  27.600  1.00  0.00     0.049 A 
ATOM     44  H   UNL A   1      43.416  26.981  27.957  1.00  0.00     0.167 HD
ATOM     45  C   UNL A   1      45.388  30.819  28.479  1.00  0.00     0.037 A 
ATOM     46  C   UNL A   1      43.358  24.268  27.254  1.00  0.00     0.037 A 
ATOM     47  C   UNL A   1      46.436  29.938  28.033  1.00  0.00     0.049 A 
ATOM     48  C   UNL A   1      44.794  24.689  27.103  1.00  0.00     0.074 A 
ATOM     49  C   UNL A   1      47.781  30.217  27.855  1.00  0.00     0.029 A 
ATOM     50  N   UNL A   1      46.262  28.598  27.727  1.00  0.00    -0.354 N 
ATOM     51  N   UNL A   1      45.335  25.865  27.302  1.00  0.00    -0.248 NA
ATOM     52  C   UNL A   1      45.741  23.660  26.645  1.00  0.00     0.031 C 
ATOM     53  C   UNL A   1      48.417  29.048  27.423  1.00  0.00     0.029 A 
ATOM     54  C   UNL A   1      47.475  28.036  27.365  1.00  0.00     0.049 A 
ATOM     55  H   UNL A   1      45.404  28.118  27.761  1.00  0.00     0.167 HD
ATOM     56  C   UNL A   1      46.681  25.720  26.996  1.00  0.00     0.074 A 
ATOM     57  C   UNL A   1      46.883  24.334  26.626  1.00  0.00     0.031 C 
ATOM     58  C   UNL A   1      47.661  26.655  27.005  1.00  0.00     0.037 A 
BRANCH  45  59
ATOM     59  C   UNL A   1      45.751  32.243  28.785  1.00  0.00     0.057 A 
ATOM     60  C   UNL A   1      46.210  32.644  30.044  1.00  0.00     0.134 A 
ATOM     61  C   UNL A   1      45.676  33.220  27.782  1.00  0.00     0.134 A 
ATOM     62  F   UNL A   1      46.290  31.761  31.051  1.00  0.00    -0.206 F 
ATOM     63  C   UNL A   1      46.567  33.969  30.301  1.00  0.00     0.040 A 
ATOM     64  C   UNL A   1      46.052  34.542  28.019  1.00  0.00     0.040 A 
ATOM     65  F   UNL A   1      45.250  32.900  26.551  1.00  0.00    -0.206 F 
ATOM     66  C   UNL A   1      46.495  34.921  29.285  1.00  0.00     0.006 A 
ENDBRANCH  45  59
BRANCH  46  67
ATOM     67  C   UNL A   1      42.952  22.867  26.967  1.00  0.00     0.057 A 
ATOM     68  C   UNL A   1      42.839  22.399  25.652  1.00  0.00     0.134 A 
ATOM     69  C   UNL A   1      42.653  21.967  27.998  1.00  0.00     0.134 A 
ATOM     70  F   UNL A   1      43.079  23.221  24.620  1.00  0.00    -0.206 F 
ATOM     71  C   UNL A   1      42.439  21.091  25.373  1.00  0.00     0.040 A 
ATOM     72  C   UNL A   1      42.282  20.649  27.734  1.00  0.00     0.040 A 
ATOM     73  F   UNL A   1      42.737  22.355  29.279  1.00  0.00    -0.206 F 
ATOM     74  C   UNL A   1      42.167  20.209  26.418  1.00  0.00     0.006 A 
ENDBRANCH  46  67
BRANCH  58  75
ATOM     75  C   UNL A   1      49.040  26.205  26.628  1.00  0.00     0.057 A 
ATOM     76  C   UNL A   1      49.540  26.376  25.331  1.00  0.00     0.134 A 
ATOM     77  C   UNL A   1      49.886  25.618  27.577  1.00  0.00     0.134 A 
ATOM     78  F   UNL A   1      48.773  26.920  24.373  1.00  0.00    -0.206 F 
ATOM     79  C   UNL A   1      50.827  25.961  24.985  1.00  0.00     0.040 A 
ATOM     80  C   UNL A   1      51.182  25.218  27.248  1.00  0.00     0.040 A 
ATOM     81  F   UNL A   1      49.470  25.432  28.838  1.00  0.00    -0.206 F 
ATOM     82  C   UNL A   1      51.654  25.384  25.947  1.00  0.00     0.006 A 
ENDBRANCH  58  75
ENDBRANCH  32  33
ENDBRANCH  25  27
ENDBRANCH  24  25
ENDBRANCH  23  24
ENDBRANCH   1  23
TORSDOF 15
ENDMDL
MODEL 3
REMARK VINA RESULT:     -10.8      4.152      8.233
REMARK SMILES Cc1cc(NCc2ccco2)cc(C(=O)OCCOC(=O)c2ccc(-c3c4nc(c(-c5c(F)cccc5F)c5ccc([nH]5)c(-c5c(F)cccc5F)c5nc(c(-c6c(F)cccc6F)c6ccc3[nH]6)C=C5)C=C4)cc2)c1N
REMARK SMILES IDX 17 1 16 2 14 3 15 4 13 5 1 6 2 7 3 8 76 9 4 10 12 11 77 12
REMARK SMILES IDX 5 15 6 17 7 18 8 19 11 20 9 21 10 22 18 23 19 24 20 25 21 26
REMARK SMILES IDX 22 27 23 28 75 29 24 30 74 31 25 32 26 33 27 34 68 35 28 36
REMARK SMILES IDX 73 37 67 38 69 39 29 40 72 41 66 42 65 43 30 45 56 46 39 47
REMARK SMILES IDX 55 48 40 49 43 50 54 51 70 52 41 53 42 54 53 56 71 57 44 58
REMARK SMILES IDX 31 59 32 60 37 61 33 62 34 63 36 64 38 65 35 66 57 67 58 68
REMARK SMILES IDX 63 69 59 70 60 71 62 72 64 73 61 74 45 75 46 76 51 77 47 78
REMARK SMILES IDX 48 79 50 80 52 81 49 82
REMARK H PARENT 77 13 77 14 5 16 69 44 43 55
REMARK Flexibility Score: inf
ROOT
ATOM      1  C   UNL A   1      37.921  21.626  25.060  1.00  0.00     0.275 C 
ENDROOT
BRANCH   1   2
ATOM      2  O   UNL A   1      37.255  22.881  24.812  1.00  0.00    -0.458 OA
BRANCH   2   3
ATOM      3  C   UNL A   1      36.326  22.893  23.816  1.00  0.00     0.340 C 
ATOM      4  O   UNL A   1      36.555  22.953  22.620  1.00  0.00    -0.246 OA
BRANCH   3   5
ATOM      5  C   UNL A   1      34.959  22.733  24.391  1.00  0.00     0.085 A 
ATOM      6  C   UNL A   1      32.355  24.752  26.309  1.00  0.00     0.047 C 
ATOM      7  C   UNL A   1      33.073  23.629  25.606  1.00  0.00    -0.025 A 
ATOM      8  C   UNL A   1      32.352  22.465  25.281  1.00  0.00     0.031 A 
ATOM      9  C   UNL A   1      34.427  23.727  25.244  1.00  0.00     0.049 A 
ATOM     10  C   UNL A   1      32.929  21.395  24.583  1.00  0.00     0.036 A 
ATOM     11  C   UNL A   1      34.219  21.576  24.090  1.00  0.00     0.043 A 
BRANCH   9  12
ATOM     12  N   UNL A   1      35.161  24.862  25.599  1.00  0.00    -0.398 N 
ATOM     13  H   UNL A   1      35.489  25.475  24.902  1.00  0.00     0.156 HD
ATOM     14  H   UNL A   1      35.351  25.049  26.547  1.00  0.00     0.156 HD
ENDBRANCH   9  12
BRANCH  10  15
ATOM     15  N   UNL A   1      32.158  20.273  24.344  1.00  0.00    -0.378 N 
ATOM     16  H   UNL A   1      31.297  20.203  24.816  1.00  0.00     0.161 HD
BRANCH  15  17
ATOM     17  C   UNL A   1      32.523  19.186  23.446  1.00  0.00     0.188 C 
BRANCH  17  18
ATOM     18  C   UNL A   1      32.809  17.883  24.114  1.00  0.00     0.122 A 
ATOM     19  C   UNL A   1      33.526  16.762  23.745  1.00  0.00     0.047 A 
ATOM     20  O   UNL A   1      32.251  17.691  25.347  1.00  0.00    -0.467 OA
ATOM     21  C   UNL A   1      33.399  15.837  24.810  1.00  0.00     0.042 A 
ATOM     22  C   UNL A   1      32.620  16.452  25.761  1.00  0.00     0.195 A 
ENDBRANCH  17  18
ENDBRANCH  15  17
ENDBRANCH  10  15
ENDBRANCH   3   5
ENDBRANCH   2   3
ENDBRANCH   1   2
BRANCH   1  23
ATOM     23  C   UNL A   1      39.009  21.807  26.118  1.00  0.00     0.275 C 
BRANCH  23  24
ATOM     24  O   UNL A   1      39.027  23.183  26.529  1.00  0.00    -0.458 OA
BRANCH  24  25
ATOM     25  C   UNL A   1      40.246  23.759  26.637  1.00  0.00     0.338 C 
ATOM     26  O   UNL A   1      41.294  23.368  26.147  1.00  0.00    -0.246 OA
BRANCH  25  27
ATOM     27  C   UNL A   1      40.132  24.975  27.472  1.00  0.00     0.060 A 
ATOM     28  C   UNL A   1      40.976  26.060  27.242  1.00  0.00     0.016 A 
ATOM     29  C   UNL A   1      39.236  25.015  28.540  1.00  0.00     0.016 A 
ATOM     30  C   UNL A   1      40.969  27.160  28.102  1.00  0.00     0.010 A 
ATOM     31  C   UNL A   1      39.173  26.155  29.354  1.00  0.00     0.010 A 
ATOM     32  C   UNL A   1      40.060  27.233  29.165  1.00  0.00    -0.014 A 
BRANCH  32  33
ATOM     33  C   UNL A   1      40.086  28.385  30.117  1.00  0.00     0.031 A 
ATOM     34  C   UNL A   1      41.130  28.438  31.203  1.00  0.00     0.074 A 
ATOM     35  C   UNL A   1      39.209  29.406  30.014  1.00  0.00     0.049 A 
ATOM     36  N   UNL A   1      41.194  29.210  32.260  1.00  0.00    -0.248 NA
ATOM     37  C   UNL A   1      42.244  27.483  31.094  1.00  0.00     0.031 C 
ATOM     38  C   UNL A   1      38.178  29.545  28.985  1.00  0.00     0.029 A 
ATOM     39  N   UNL A   1      39.056  30.534  30.787  1.00  0.00    -0.354 N 
ATOM     40  C   UNL A   1      42.306  28.783  32.976  1.00  0.00     0.074 A 
ATOM     41  C   UNL A   1      42.896  27.692  32.229  1.00  0.00     0.031 C 
ATOM     42  C   UNL A   1      37.532  30.709  29.161  1.00  0.00     0.029 A 
ATOM     43  C   UNL A   1      38.035  31.356  30.369  1.00  0.00     0.049 A 
ATOM     44  H   UNL A   1      39.623  30.734  31.565  1.00  0.00     0.167 HD
ATOM     45  C   UNL A   1      42.789  29.254  34.150  1.00  0.00     0.037 A 
ATOM     46  C   UNL A   1      37.524  32.476  30.918  1.00  0.00     0.037 A 
ATOM     47  C   UNL A   1      42.255  30.390  34.855  1.00  0.00     0.049 A 
ATOM     48  C   UNL A   1      38.072  32.979  32.225  1.00  0.00     0.074 A 
ATOM     49  C   UNL A   1      42.674  30.935  36.058  1.00  0.00     0.029 A 
ATOM     50  N   UNL A   1      41.207  31.177  34.405  1.00  0.00    -0.354 N 
ATOM     51  N   UNL A   1      39.053  32.500  32.949  1.00  0.00    -0.248 NA
ATOM     52  C   UNL A   1      37.416  34.160  32.808  1.00  0.00     0.031 C 
ATOM     53  C   UNL A   1      41.866  32.041  36.344  1.00  0.00     0.029 A 
ATOM     54  C   UNL A   1      40.967  32.203  35.303  1.00  0.00     0.049 A 
ATOM     55  H   UNL A   1      40.707  31.027  33.571  1.00  0.00     0.167 HD
ATOM     56  C   UNL A   1      39.133  33.317  34.068  1.00  0.00     0.074 A 
ATOM     57  C   UNL A   1      38.121  34.342  33.916  1.00  0.00     0.031 C 
ATOM     58  C   UNL A   1      39.961  33.219  35.135  1.00  0.00     0.037 A 
BRANCH  45  59
ATOM     59  C   UNL A   1      43.940  28.519  34.772  1.00  0.00     0.057 A 
ATOM     60  C   UNL A   1      45.271  28.890  34.551  1.00  0.00     0.134 A 
ATOM     61  C   UNL A   1      43.703  27.446  35.643  1.00  0.00     0.134 A 
ATOM     62  F   UNL A   1      45.566  29.899  33.717  1.00  0.00    -0.206 F 
ATOM     63  C   UNL A   1      46.328  28.209  35.160  1.00  0.00     0.040 A 
ATOM     64  C   UNL A   1      44.749  26.773  36.276  1.00  0.00     0.040 A 
ATOM     65  F   UNL A   1      42.450  27.045  35.903  1.00  0.00    -0.206 F 
ATOM     66  C   UNL A   1      46.067  27.153  36.031  1.00  0.00     0.006 A 
ENDBRANCH  45  59
BRANCH  46  67
ATOM     67  C   UNL A   1      36.387  33.174  30.262  1.00  0.00     0.057 A 
ATOM     68  C   UNL A   1      35.077  33.023  30.728  1.00  0.00     0.134 A 
ATOM     69  C   UNL A   1      36.582  33.996  29.145  1.00  0.00     0.134 A 
ATOM     70  F   UNL A   1      34.820  32.223  31.774  1.00  0.00    -0.206 F 
ATOM     71  C   UNL A   1      34.000  33.659  30.106  1.00  0.00     0.040 A 
ATOM     72  C   UNL A   1      35.520  34.661  28.531  1.00  0.00     0.040 A 
ATOM     73  F   UNL A   1      37.813  34.177  28.645  1.00  0.00    -0.206 F 
ATOM     74  C   UNL A   1      34.223  34.488  29.008  1.00  0.00     0.006 A 
ENDBRANCH  46  67
BRANCH  58  75
ATOM     75  C   UNL A   1      39.823  34.258  36.207  1.00  0.00     0.057 A 
ATOM     76  C   UNL A   1      39.028  34.044  37.340  1.00  0.00     0.134 A 
ATOM     77  C   UNL A   1      40.512  35.473  36.118  1.00  0.00     0.134 A 
ATOM     78  F   UNL A   1      38.331  32.904  37.476  1.00  0.00    -0.206 F 
ATOM     79  C   UNL A   1      38.906  35.011  38.338  1.00  0.00     0.040 A 
ATOM     80  C   UNL A   1      40.415  36.440  37.119  1.00  0.00     0.040 A 
ATOM     81  F   UNL A   1      41.296  35.737  35.062  1.00  0.00    -0.206 F 
ATOM     82  C   UNL A   1      39.606  36.212  38.232  1.00  0.00     0.006 A 
ENDBRANCH  58  75
ENDBRANCH  32  33
ENDBRANCH  25  27
ENDBRANCH  24  25
ENDBRANCH  23  24
ENDBRANCH   1  23
TORSDOF 15
ENDMDL
