MODEL 1
REMARK VINA RESULT:     -12.4      0.000      0.000
REMARK SMILES Cc1nn(Cc2ccc(Cl)cc2Cl)c(C)c1NC(=O)c1c(C(=O)OCCOC(=O)c2ccc(-c3c4nc(c(-c5c(F)cccc5F)c5ccc([nH]5)c(-c5c(F)cccc5F)c5nc(c(-c6c(F)cccc6F)c6ccc3[nH]6)C=C5)C=C4)cc2)cnn1C
REMARK SMILES IDX 25 1 24 2 22 3 23 4 21 5 20 6 86 7 84 8 85 9 87 10 18 11
REMARK SMILES IDX 17 12 19 14 16 15 1 16 2 17 3 18 4 19 14 20 15 21 5 22 6 23
REMARK SMILES IDX 7 24 12 25 8 26 11 27 13 28 9 29 10 30 26 31 27 32 28 33
REMARK SMILES IDX 29 34 30 35 31 36 83 37 32 38 82 39 33 40 34 41 35 42 76 43
REMARK SMILES IDX 36 44 81 45 75 46 77 47 37 48 80 49 74 50 73 51 38 53 64 54
REMARK SMILES IDX 47 55 63 56 48 57 51 58 62 59 78 60 49 61 50 62 61 64 79 65
REMARK SMILES IDX 52 66 39 67 40 68 45 69 41 70 42 71 44 72 46 73 43 74 65 75
REMARK SMILES IDX 66 76 71 77 67 78 68 79 70 80 72 81 69 82 53 83 54 84 59 85
REMARK SMILES IDX 55 86 56 87 58 88 60 89 57 90
REMARK H PARENT 17 13 77 52 51 63
REMARK Flexibility Score: inf
ROOT
ATOM      1  C   UNL A   1      37.638  22.958  25.930  1.00  0.00     0.275 C 
ENDROOT
BRANCH   1   2
ATOM      2  O   UNL A   1      36.264  23.048  26.343  1.00  0.00    -0.458 OA
BRANCH   2   3
ATOM      3  C   UNL A   1      35.554  21.915  26.099  1.00  0.00     0.342 C 
ATOM      4  O   UNL A   1      36.020  20.931  25.535  1.00  0.00    -0.246 OA
BRANCH   3   5
ATOM      5  C   UNL A   1      34.152  21.973  26.457  1.00  0.00     0.111 A 
ATOM      6  C   UNL A   1      32.977  21.597  25.801  1.00  0.00     0.140 A 
ATOM      7  N   UNL A   1      31.984  22.233  26.527  1.00  0.00    -0.262 N 
ATOM      8  C   UNL A   1      33.707  22.557  27.667  1.00  0.00     0.151 A 
ATOM      9  N   UNL A   1      32.384  22.639  27.747  1.00  0.00    -0.180 NA
ATOM     10  C   UNL A   1      30.612  22.483  26.149  1.00  0.00     0.174 C 
BRANCH   6  11
ATOM     11  C   UNL A   1      32.699  20.893  24.572  1.00  0.00     0.274 C 
ATOM     12  N   UNL A   1      32.500  21.552  23.376  1.00  0.00    -0.317 N 
ATOM     13  H   UNL A   1      32.167  20.978  22.650  1.00  0.00     0.170 HD
ATOM     14  O   UNL A   1      32.647  19.661  24.533  1.00  0.00    -0.267 OA
BRANCH  12  15
ATOM     15  C   UNL A   1      32.684  22.867  23.016  1.00  0.00     0.085 A 
ATOM     16  C   UNL A   1      35.303  23.134  23.095  1.00  0.00     0.071 C 
ATOM     17  C   UNL A   1      33.918  23.535  22.801  1.00  0.00     0.083 A 
ATOM     18  N   UNL A   1      33.724  24.729  22.244  1.00  0.00    -0.175 NA
ATOM     19  N   UNL A   1      32.436  24.991  22.526  1.00  0.00    -0.263 N 
ATOM     20  C   UNL A   1      31.759  23.892  23.009  1.00  0.00     0.060 A 
ATOM     21  C   UNL A   1      30.412  23.976  23.623  1.00  0.00     0.069 C 
BRANCH  19  22
ATOM     22  C   UNL A   1      32.049  26.401  22.579  1.00  0.00     0.181 C 
BRANCH  22  23
ATOM     23  C   UNL A   1      32.715  27.052  23.777  1.00  0.00    -0.008 A 
ATOM     24  C   UNL A   1      32.261  26.720  25.073  1.00  0.00     0.009 A 
ATOM     25  C   UNL A   1      33.676  28.065  23.653  1.00  0.00     0.047 A 
ATOM     26  C   UNL A   1      32.676  27.443  26.190  1.00  0.00     0.021 A 
ATOM     27  C   UNL A   1      34.081  28.799  24.771  1.00  0.00     0.041 A 
ATOM     28  Cl  UNL A   1      34.410  28.457  22.139  1.00  0.00    -0.084 Cl
ATOM     29  C   UNL A   1      33.566  28.496  26.029  1.00  0.00     0.042 A 
ATOM     30  Cl  UNL A   1      34.034  29.434  27.393  1.00  0.00    -0.084 Cl
ENDBRANCH  22  23
ENDBRANCH  19  22
ENDBRANCH  12  15
ENDBRANCH   6  11
ENDBRANCH   3   5
ENDBRANCH   2   3
ENDBRANCH   1   2
BRANCH   1  31
ATOM     31  C   UNL A   1      38.413  24.151  26.468  1.00  0.00     0.275 C 
BRANCH  31  32
ATOM     32  O   UNL A   1      39.607  23.790  27.193  1.00  0.00    -0.458 OA
BRANCH  32  33
ATOM     33  C   UNL A   1      40.737  24.461  26.839  1.00  0.00     0.338 C 
ATOM     34  O   UNL A   1      41.634  24.010  26.174  1.00  0.00    -0.246 OA
BRANCH  33  35
ATOM     35  C   UNL A   1      40.753  25.822  27.446  1.00  0.00     0.060 A 
ATOM     36  C   UNL A   1      40.962  25.906  28.823  1.00  0.00     0.016 A 
ATOM     37  C   UNL A   1      40.427  26.973  26.721  1.00  0.00     0.016 A 
ATOM     38  C   UNL A   1      40.643  27.080  29.497  1.00  0.00     0.010 A 
ATOM     39  C   UNL A   1      40.168  28.169  27.389  1.00  0.00     0.010 A 
ATOM     40  C   UNL A   1      40.201  28.208  28.787  1.00  0.00    -0.014 A 
BRANCH  40  41
ATOM     41  C   UNL A   1      40.005  29.463  29.539  1.00  0.00     0.031 A 
ATOM     42  C   UNL A   1      41.253  30.278  29.663  1.00  0.00     0.074 A 
ATOM     43  C   UNL A   1      38.813  29.974  29.919  1.00  0.00     0.049 A 
ATOM     44  N   UNL A   1      41.752  30.877  30.698  1.00  0.00    -0.248 NA
ATOM     45  C   UNL A   1      42.107  30.335  28.458  1.00  0.00     0.031 C 
ATOM     46  C   UNL A   1      37.483  29.423  29.647  1.00  0.00     0.029 A 
ATOM     47  N   UNL A   1      38.528  31.178  30.512  1.00  0.00    -0.354 N 
ATOM     48  C   UNL A   1      42.894  31.519  30.226  1.00  0.00     0.074 A 
ATOM     49  C   UNL A   1      43.150  31.025  28.899  1.00  0.00     0.031 C 
ATOM     50  C   UNL A   1      36.552  30.376  29.862  1.00  0.00     0.029 A 
ATOM     51  C   UNL A   1      37.206  31.579  30.346  1.00  0.00     0.049 A 
ATOM     52  H   UNL A   1      39.195  31.707  31.007  1.00  0.00     0.167 HD
ATOM     53  C   UNL A   1      43.445  32.605  30.823  1.00  0.00     0.037 A 
ATOM     54  C   UNL A   1      36.691  32.826  30.489  1.00  0.00     0.037 A 
ATOM     55  C   UNL A   1      43.118  32.728  32.208  1.00  0.00     0.049 A 
ATOM     56  C   UNL A   1      37.660  33.651  31.241  1.00  0.00     0.074 A 
ATOM     57  C   UNL A   1      43.341  31.960  33.333  1.00  0.00     0.029 A 
ATOM     58  N   UNL A   1      42.193  33.670  32.571  1.00  0.00    -0.354 N 
ATOM     59  N   UNL A   1      37.886  33.561  32.519  1.00  0.00    -0.248 NA
ATOM     60  C   UNL A   1      38.633  34.430  30.488  1.00  0.00     0.031 C 
ATOM     61  C   UNL A   1      42.234  32.210  34.192  1.00  0.00     0.029 A 
ATOM     62  C   UNL A   1      41.398  33.117  33.542  1.00  0.00     0.049 A 
ATOM     63  H   UNL A   1      42.113  34.580  32.202  1.00  0.00     0.167 HD
ATOM     64  C   UNL A   1      39.220  33.902  32.661  1.00  0.00     0.074 A 
ATOM     65  C   UNL A   1      39.578  34.569  31.419  1.00  0.00     0.031 C 
ATOM     66  C   UNL A   1      39.977  33.355  33.653  1.00  0.00     0.037 A 
BRANCH  53  67
ATOM     67  C   UNL A   1      44.023  33.710  29.991  1.00  0.00     0.057 A 
ATOM     68  C   UNL A   1      45.369  34.072  30.094  1.00  0.00     0.134 A 
ATOM     69  C   UNL A   1      43.214  34.572  29.217  1.00  0.00     0.134 A 
ATOM     70  F   UNL A   1      46.210  33.370  30.869  1.00  0.00    -0.206 F 
ATOM     71  C   UNL A   1      45.882  35.198  29.438  1.00  0.00     0.040 A 
ATOM     72  C   UNL A   1      43.723  35.660  28.511  1.00  0.00     0.040 A 
ATOM     73  F   UNL A   1      41.880  34.435  29.175  1.00  0.00    -0.206 F 
ATOM     74  C   UNL A   1      45.064  35.984  28.630  1.00  0.00     0.006 A 
ENDBRANCH  53  67
BRANCH  54  75
ATOM     75  C   UNL A   1      35.513  33.446  29.830  1.00  0.00     0.057 A 
ATOM     76  C   UNL A   1      34.518  34.089  30.584  1.00  0.00     0.134 A 
ATOM     77  C   UNL A   1      35.451  33.649  28.441  1.00  0.00     0.134 A 
ATOM     78  F   UNL A   1      34.506  33.995  31.922  1.00  0.00    -0.206 F 
ATOM     79  C   UNL A   1      33.539  34.902  29.997  1.00  0.00     0.040 A 
ATOM     80  C   UNL A   1      34.468  34.442  27.839  1.00  0.00     0.040 A 
ATOM     81  F   UNL A   1      36.391  33.158  27.621  1.00  0.00    -0.206 F 
ATOM     82  C   UNL A   1      33.517  35.086  28.618  1.00  0.00     0.006 A 
ENDBRANCH  54  75
BRANCH  66  83
ATOM     83  C   UNL A   1      39.254  32.697  34.794  1.00  0.00     0.057 A 
ATOM     84  C   UNL A   1      38.859  31.350  34.803  1.00  0.00     0.134 A 
ATOM     85  C   UNL A   1      39.047  33.426  35.971  1.00  0.00     0.134 A 
ATOM     86  F   UNL A   1      39.108  30.545  33.760  1.00  0.00    -0.206 F 
ATOM     87  C   UNL A   1      38.232  30.776  35.912  1.00  0.00     0.040 A 
ATOM     88  C   UNL A   1      38.458  32.854  37.099  1.00  0.00     0.040 A 
ATOM     89  F   UNL A   1      39.450  34.705  36.054  1.00  0.00    -0.206 F 
ATOM     90  C   UNL A   1      38.034  31.528  37.068  1.00  0.00     0.006 A 
ENDBRANCH  66  83
ENDBRANCH  40  41
ENDBRANCH  33  35
ENDBRANCH  32  33
ENDBRANCH  31  32
ENDBRANCH   1  31
TORSDOF 15
ENDMDL
MODEL 2
REMARK VINA RESULT:     -12.3      4.900      9.477
REMARK SMILES Cc1nn(Cc2ccc(Cl)cc2Cl)c(C)c1NC(=O)c1c(C(=O)OCCOC(=O)c2ccc(-c3c4nc(c(-c5c(F)cccc5F)c5ccc([nH]5)c(-c5c(F)cccc5F)c5nc(c(-c6c(F)cccc6F)c6ccc3[nH]6)C=C5)C=C4)cc2)cnn1C
REMARK SMILES IDX 25 1 24 2 22 3 23 4 21 5 20 6 86 7 84 8 85 9 87 10 18 11
REMARK SMILES IDX 17 12 19 14 16 15 1 16 2 17 3 18 4 19 14 20 15 21 5 22 6 23
REMARK SMILES IDX 7 24 12 25 8 26 11 27 13 28 9 29 10 30 26 31 27 32 28 33
REMARK SMILES IDX 29 34 30 35 31 36 83 37 32 38 82 39 33 40 34 41 35 42 76 43
REMARK SMILES IDX 36 44 81 45 75 46 77 47 37 48 80 49 74 50 73 51 38 53 64 54
REMARK SMILES IDX 47 55 63 56 48 57 51 58 62 59 78 60 49 61 50 62 61 64 79 65
REMARK SMILES IDX 52 66 39 67 40 68 45 69 41 70 42 71 44 72 46 73 43 74 65 75
REMARK SMILES IDX 66 76 71 77 67 78 68 79 70 80 72 81 69 82 53 83 54 84 59 85
REMARK SMILES IDX 55 86 56 87 58 88 60 89 57 90
REMARK H PARENT 17 13 77 52 51 63
REMARK Flexibility Score: inf
ROOT
ATOM      1  C   UNL A   1      33.300  30.380  26.392  1.00  0.00     0.275 C 
ENDROOT
BRANCH   1   2
ATOM      2  O   UNL A   1      33.794  29.079  26.033  1.00  0.00    -0.458 OA
BRANCH   2   3
ATOM      3  C   UNL A   1      33.493  28.723  24.757  1.00  0.00     0.342 C 
ATOM      4  O   UNL A   1      34.289  28.797  23.826  1.00  0.00    -0.246 OA
BRANCH   3   5
ATOM      5  C   UNL A   1      32.115  28.343  24.527  1.00  0.00     0.111 A 
ATOM      6  C   UNL A   1      31.187  27.601  25.263  1.00  0.00     0.140 A 
ATOM      7  N   UNL A   1      30.194  27.319  24.339  1.00  0.00    -0.262 N 
ATOM      8  C   UNL A   1      31.437  28.661  23.326  1.00  0.00     0.151 A 
ATOM      9  N   UNL A   1      30.232  28.106  23.248  1.00  0.00    -0.180 NA
ATOM     10  C   UNL A   1      29.146  26.327  24.420  1.00  0.00     0.174 C 
BRANCH   6  11
ATOM     11  C   UNL A   1      31.188  27.031  26.589  1.00  0.00     0.274 C 
ATOM     12  N   UNL A   1      31.314  25.674  26.806  1.00  0.00    -0.317 N 
ATOM     13  H   UNL A   1      31.144  25.397  27.735  1.00  0.00     0.170 HD
ATOM     14  O   UNL A   1      31.097  27.740  27.594  1.00  0.00    -0.267 OA
BRANCH  12  15
ATOM     15  C   UNL A   1      31.633  24.639  25.958  1.00  0.00     0.085 A 
ATOM     16  C   UNL A   1      29.970  22.738  26.704  1.00  0.00     0.071 C 
ATOM     17  C   UNL A   1      30.980  23.383  25.851  1.00  0.00     0.083 A 
ATOM     18  N   UNL A   1      31.402  22.715  24.778  1.00  0.00    -0.175 NA
ATOM     19  N   UNL A   1      32.580  23.302  24.498  1.00  0.00    -0.263 N 
ATOM     20  C   UNL A   1      32.775  24.473  25.198  1.00  0.00     0.060 A 
ATOM     21  C   UNL A   1      34.081  25.173  25.258  1.00  0.00     0.069 C 
BRANCH  19  22
ATOM     22  C   UNL A   1      33.562  22.492  23.777  1.00  0.00     0.181 C 
BRANCH  22  23
ATOM     23  C   UNL A   1      33.417  21.044  24.203  1.00  0.00    -0.008 A 
ATOM     24  C   UNL A   1      32.772  20.138  23.331  1.00  0.00     0.009 A 
ATOM     25  C   UNL A   1      33.779  20.588  25.477  1.00  0.00     0.047 A 
ATOM     26  C   UNL A   1      32.413  18.860  23.754  1.00  0.00     0.021 A 
ATOM     27  C   UNL A   1      33.407  19.311  25.907  1.00  0.00     0.041 A 
ATOM     28  Cl  UNL A   1      34.698  21.556  26.574  1.00  0.00    -0.084 Cl
ATOM     29  C   UNL A   1      32.711  18.462  25.050  1.00  0.00     0.042 A 
ATOM     30  Cl  UNL A   1      32.215  16.910  25.601  1.00  0.00    -0.084 Cl
ENDBRANCH  22  23
ENDBRANCH  19  22
ENDBRANCH  12  15
ENDBRANCH   6  11
ENDBRANCH   3   5
ENDBRANCH   2   3
ENDBRANCH   1   2
BRANCH   1  31
ATOM     31  C   UNL A   1      34.027  30.879  27.631  1.00  0.00     0.275 C 
BRANCH  31  32
ATOM     32  O   UNL A   1      35.220  30.130  27.948  1.00  0.00    -0.458 OA
BRANCH  32  33
ATOM     33  C   UNL A   1      36.326  30.873  28.223  1.00  0.00     0.338 C 
ATOM     34  O   UNL A   1      36.380  32.076  28.198  1.00  0.00    -0.246 OA
BRANCH  33  35
ATOM     35  C   UNL A   1      37.497  29.993  28.493  1.00  0.00     0.060 A 
ATOM     36  C   UNL A   1      38.745  30.605  28.609  1.00  0.00     0.016 A 
ATOM     37  C   UNL A   1      37.406  28.596  28.488  1.00  0.00     0.016 A 
ATOM     38  C   UNL A   1      39.901  29.837  28.507  1.00  0.00     0.010 A 
ATOM     39  C   UNL A   1      38.564  27.821  28.449  1.00  0.00     0.010 A 
ATOM     40  C   UNL A   1      39.816  28.441  28.383  1.00  0.00    -0.014 A 
BRANCH  40  41
ATOM     41  C   UNL A   1      41.074  27.669  28.413  1.00  0.00     0.031 A 
ATOM     42  C   UNL A   1      41.895  27.926  29.636  1.00  0.00     0.074 A 
ATOM     43  C   UNL A   1      41.403  26.670  27.563  1.00  0.00     0.049 A 
ATOM     44  N   UNL A   1      43.167  28.147  29.746  1.00  0.00    -0.248 NA
ATOM     45  C   UNL A   1      41.144  28.049  30.901  1.00  0.00     0.031 C 
ATOM     46  C   UNL A   1      40.591  26.128  26.471  1.00  0.00     0.029 A 
ATOM     47  N   UNL A   1      42.486  25.827  27.584  1.00  0.00    -0.354 N 
ATOM     48  C   UNL A   1      43.392  28.272  31.115  1.00  0.00     0.074 A 
ATOM     49  C   UNL A   1      42.108  28.364  31.758  1.00  0.00     0.031 C 
ATOM     50  C   UNL A   1      41.090  24.931  26.094  1.00  0.00     0.029 A 
ATOM     51  C   UNL A   1      42.288  24.652  26.866  1.00  0.00     0.049 A 
ATOM     52  H   UNL A   1      43.322  26.034  28.063  1.00  0.00     0.167 HD
ATOM     53  C   UNL A   1      44.593  28.044  31.703  1.00  0.00     0.037 A 
ATOM     54  C   UNL A   1      42.983  23.491  26.964  1.00  0.00     0.037 A 
ATOM     55  C   UNL A   1      45.703  28.186  30.815  1.00  0.00     0.049 A 
ATOM     56  C   UNL A   1      44.254  23.762  27.668  1.00  0.00     0.074 A 
ATOM     57  C   UNL A   1      46.230  29.223  30.072  1.00  0.00     0.029 A 
ATOM     58  N   UNL A   1      46.317  27.048  30.363  1.00  0.00    -0.354 N 
ATOM     59  N   UNL A   1      45.280  24.371  27.149  1.00  0.00    -0.248 NA
ATOM     60  C   UNL A   1      44.293  23.594  29.114  1.00  0.00     0.031 C 
ATOM     61  C   UNL A   1      46.818  28.614  28.928  1.00  0.00     0.029 A 
ATOM     62  C   UNL A   1      46.618  27.239  29.038  1.00  0.00     0.049 A 
ATOM     63  H   UNL A   1      46.507  26.240  30.892  1.00  0.00     0.167 HD
ATOM     64  C   UNL A   1      45.873  25.024  28.217  1.00  0.00     0.074 A 
ATOM     65  C   UNL A   1      45.323  24.390  29.405  1.00  0.00     0.031 C 
ATOM     66  C   UNL A   1      46.531  26.203  28.035  1.00  0.00     0.037 A 
BRANCH  53  67
ATOM     67  C   UNL A   1      44.663  27.370  33.040  1.00  0.00     0.057 A 
ATOM     68  C   UNL A   1      44.329  26.022  33.195  1.00  0.00     0.134 A 
ATOM     69  C   UNL A   1      44.868  28.092  34.237  1.00  0.00     0.134 A 
ATOM     70  F   UNL A   1      44.034  25.262  32.130  1.00  0.00    -0.206 F 
ATOM     71  C   UNL A   1      44.242  25.424  34.459  1.00  0.00     0.040 A 
ATOM     72  C   UNL A   1      44.844  27.497  35.497  1.00  0.00     0.040 A 
ATOM     73  F   UNL A   1      45.028  29.425  34.236  1.00  0.00    -0.206 F 
ATOM     74  C   UNL A   1      44.518  26.156  35.612  1.00  0.00     0.006 A 
ENDBRANCH  53  67
BRANCH  54  75
ATOM     75  C   UNL A   1      42.541  22.098  26.698  1.00  0.00     0.057 A 
ATOM     76  C   UNL A   1      43.243  21.276  25.802  1.00  0.00     0.134 A 
ATOM     77  C   UNL A   1      41.581  21.450  27.495  1.00  0.00     0.134 A 
ATOM     78  F   UNL A   1      44.209  21.783  25.022  1.00  0.00    -0.206 F 
ATOM     79  C   UNL A   1      43.022  19.895  25.719  1.00  0.00     0.040 A 
ATOM     80  C   UNL A   1      41.336  20.075  27.409  1.00  0.00     0.040 A 
ATOM     81  F   UNL A   1      40.906  22.108  28.447  1.00  0.00    -0.206 F 
ATOM     82  C   UNL A   1      42.069  19.289  26.531  1.00  0.00     0.006 A 
ENDBRANCH  54  75
BRANCH  66  83
ATOM     83  C   UNL A   1      46.926  26.567  26.631  1.00  0.00     0.057 A 
ATOM     84  C   UNL A   1      46.098  27.262  25.736  1.00  0.00     0.134 A 
ATOM     85  C   UNL A   1      48.233  26.298  26.208  1.00  0.00     0.134 A 
ATOM     86  F   UNL A   1      44.864  27.653  26.089  1.00  0.00    -0.206 F 
ATOM     87  C   UNL A   1      46.535  27.618  24.457  1.00  0.00     0.040 A 
ATOM     88  C   UNL A   1      48.694  26.684  24.949  1.00  0.00     0.040 A 
ATOM     89  F   UNL A   1      49.099  25.686  27.033  1.00  0.00    -0.206 F 
ATOM     90  C   UNL A   1      47.839  27.333  24.062  1.00  0.00     0.006 A 
ENDBRANCH  66  83
ENDBRANCH  40  41
ENDBRANCH  33  35
ENDBRANCH  32  33
ENDBRANCH  31  32
ENDBRANCH   1  31
TORSDOF 15
ENDMDL
MODEL 3
REMARK VINA RESULT:     -12.0      1.369      2.286
REMARK SMILES Cc1nn(Cc2ccc(Cl)cc2Cl)c(C)c1NC(=O)c1c(C(=O)OCCOC(=O)c2ccc(-c3c4nc(c(-c5c(F)cccc5F)c5ccc([nH]5)c(-c5c(F)cccc5F)c5nc(c(-c6c(F)cccc6F)c6ccc3[nH]6)C=C5)C=C4)cc2)cnn1C
REMARK SMILES IDX 25 1 24 2 22 3 23 4 21 5 20 6 86 7 84 8 85 9 87 10 18 11
REMARK SMILES IDX 17 12 19 14 16 15 1 16 2 17 3 18 4 19 14 20 15 21 5 22 6 23
REMARK SMILES IDX 7 24 12 25 8 26 11 27 13 28 9 29 10 30 26 31 27 32 28 33
REMARK SMILES IDX 29 34 30 35 31 36 83 37 32 38 82 39 33 40 34 41 35 42 76 43
REMARK SMILES IDX 36 44 81 45 75 46 77 47 37 48 80 49 74 50 73 51 38 53 64 54
REMARK SMILES IDX 47 55 63 56 48 57 51 58 62 59 78 60 49 61 50 62 61 64 79 65
REMARK SMILES IDX 52 66 39 67 40 68 45 69 41 70 42 71 44 72 46 73 43 74 65 75
REMARK SMILES IDX 66 76 71 77 67 78 68 79 70 80 72 81 69 82 53 83 54 84 59 85
REMARK SMILES IDX 55 86 56 87 58 88 60 89 57 90
REMARK H PARENT 17 13 77 52 51 63
REMARK Flexibility Score: inf
ROOT
ATOM      1  C   UNL A   1      37.822  21.967  25.753  1.00  0.00     0.275 C 
ENDROOT
BRANCH   1   2
ATOM      2  O   UNL A   1      36.938  23.086  25.570  1.00  0.00    -0.458 OA
BRANCH   2   3
ATOM      3  C   UNL A   1      36.433  23.171  24.311  1.00  0.00     0.342 C 
ATOM      4  O   UNL A   1      37.034  23.683  23.372  1.00  0.00    -0.246 OA
BRANCH   3   5
ATOM      5  C   UNL A   1      35.069  22.709  24.157  1.00  0.00     0.111 A 
ATOM      6  C   UNL A   1      34.085  22.301  25.060  1.00  0.00     0.140 A 
ATOM      7  N   UNL A   1      33.154  21.663  24.257  1.00  0.00    -0.262 N 
ATOM      8  C   UNL A   1      34.479  22.519  22.884  1.00  0.00     0.151 A 
ATOM      9  N   UNL A   1      33.276  21.959  22.950  1.00  0.00    -0.180 NA
ATOM     10  C   UNL A   1      32.092  20.765  24.649  1.00  0.00     0.174 C 
BRANCH   6  11
ATOM     11  C   UNL A   1      33.988  22.297  26.500  1.00  0.00     0.274 C 
ATOM     12  N   UNL A   1      33.174  23.175  27.185  1.00  0.00    -0.317 N 
ATOM     13  H   UNL A   1      33.313  23.178  28.159  1.00  0.00     0.170 HD
ATOM     14  O   UNL A   1      34.619  21.488  27.185  1.00  0.00    -0.267 OA
BRANCH  12  15
ATOM     15  C   UNL A   1      32.203  24.048  26.752  1.00  0.00     0.085 A 
ATOM     16  C   UNL A   1      29.997  22.628  26.982  1.00  0.00     0.071 C 
ATOM     17  C   UNL A   1      30.798  23.840  26.751  1.00  0.00     0.083 A 
ATOM     18  N   UNL A   1      30.148  24.971  26.481  1.00  0.00    -0.175 NA
ATOM     19  N   UNL A   1      31.087  25.727  25.885  1.00  0.00    -0.263 N 
ATOM     20  C   UNL A   1      32.357  25.204  26.011  1.00  0.00     0.060 A 
ATOM     21  C   UNL A   1      33.520  25.706  25.242  1.00  0.00     0.069 C 
BRANCH  19  22
ATOM     22  C   UNL A   1      30.611  26.763  24.968  1.00  0.00     0.181 C 
BRANCH  22  23
ATOM     23  C   UNL A   1      31.142  28.109  25.423  1.00  0.00    -0.008 A 
ATOM     24  C   UNL A   1      31.553  28.260  26.767  1.00  0.00     0.009 A 
ATOM     25  C   UNL A   1      31.123  29.247  24.607  1.00  0.00     0.047 A 
ATOM     26  C   UNL A   1      31.837  29.517  27.298  1.00  0.00     0.021 A 
ATOM     27  C   UNL A   1      31.393  30.510  25.144  1.00  0.00     0.041 A 
ATOM     28  Cl  UNL A   1      30.778  29.162  22.916  1.00  0.00    -0.084 Cl
ATOM     29  C   UNL A   1      31.730  30.639  26.488  1.00  0.00     0.042 A 
ATOM     30  Cl  UNL A   1      32.015  32.200  27.152  1.00  0.00    -0.084 Cl
ENDBRANCH  22  23
ENDBRANCH  19  22
ENDBRANCH  12  15
ENDBRANCH   6  11
ENDBRANCH   3   5
ENDBRANCH   2   3
ENDBRANCH   1   2
BRANCH   1  31
ATOM     31  C   UNL A   1      39.184  22.462  26.212  1.00  0.00     0.275 C 
BRANCH  31  32
ATOM     32  O   UNL A   1      39.147  23.746  26.871  1.00  0.00    -0.458 OA
BRANCH  32  33
ATOM     33  C   UNL A   1      40.254  24.070  27.592  1.00  0.00     0.338 C 
ATOM     34  O   UNL A   1      41.117  23.299  27.926  1.00  0.00    -0.246 OA
BRANCH  33  35
ATOM     35  C   UNL A   1      40.226  25.508  27.981  1.00  0.00     0.060 A 
ATOM     36  C   UNL A   1      41.084  25.912  29.004  1.00  0.00     0.016 A 
ATOM     37  C   UNL A   1      39.285  26.408  27.466  1.00  0.00     0.016 A 
ATOM     38  C   UNL A   1      40.866  27.125  29.647  1.00  0.00     0.010 A 
ATOM     39  C   UNL A   1      39.107  27.652  28.070  1.00  0.00     0.010 A 
ATOM     40  C   UNL A   1      39.845  27.986  29.211  1.00  0.00    -0.014 A 
BRANCH  40  41
ATOM     41  C   UNL A   1      39.746  29.315  29.845  1.00  0.00     0.031 A 
ATOM     42  C   UNL A   1      41.036  30.071  29.836  1.00  0.00     0.074 A 
ATOM     43  C   UNL A   1      38.599  29.922  30.223  1.00  0.00     0.049 A 
ATOM     44  N   UNL A   1      41.612  30.738  30.786  1.00  0.00    -0.248 NA
ATOM     45  C   UNL A   1      41.834  29.968  28.597  1.00  0.00     0.031 C 
ATOM     46  C   UNL A   1      37.232  29.419  30.063  1.00  0.00     0.029 A 
ATOM     47  N   UNL A   1      38.401  31.190  30.709  1.00  0.00    -0.354 N 
ATOM     48  C   UNL A   1      42.760  31.271  30.206  1.00  0.00     0.074 A 
ATOM     49  C   UNL A   1      42.930  30.641  28.924  1.00  0.00     0.031 C 
ATOM     50  C   UNL A   1      36.360  30.437  30.223  1.00  0.00     0.029 A 
ATOM     51  C   UNL A   1      37.094  31.643  30.560  1.00  0.00     0.049 A 
ATOM     52  H   UNL A   1      39.116  31.728  31.121  1.00  0.00     0.167 HD
ATOM     53  C   UNL A   1      43.391  32.378  30.671  1.00  0.00     0.037 A 
ATOM     54  C   UNL A   1      36.647  32.924  30.603  1.00  0.00     0.037 A 
ATOM     55  C   UNL A   1      43.136  32.649  32.050  1.00  0.00     0.049 A 
ATOM     56  C   UNL A   1      37.690  33.764  31.229  1.00  0.00     0.074 A 
ATOM     57  C   UNL A   1      43.374  31.981  33.234  1.00  0.00     0.029 A 
ATOM     58  N   UNL A   1      42.276  33.669  32.359  1.00  0.00    -0.354 N 
ATOM     59  N   UNL A   1      37.971  33.784  32.499  1.00  0.00    -0.248 NA
ATOM     60  C   UNL A   1      38.663  34.416  30.364  1.00  0.00     0.031 C 
ATOM     61  C   UNL A   1      42.322  32.369  34.111  1.00  0.00     0.029 A 
ATOM     62  C   UNL A   1      41.502  33.253  33.412  1.00  0.00     0.049 A 
ATOM     63  H   UNL A   1      42.223  34.543  31.907  1.00  0.00     0.167 HD
ATOM     64  C   UNL A   1      39.326  34.066  32.552  1.00  0.00     0.074 A 
ATOM     65  C   UNL A   1      39.657  34.593  31.237  1.00  0.00     0.031 C 
ATOM     66  C   UNL A   1      40.101  33.576  33.559  1.00  0.00     0.037 A 
BRANCH  53  67
ATOM     67  C   UNL A   1      43.982  33.367  29.712  1.00  0.00     0.057 A 
ATOM     68  C   UNL A   1      45.361  33.590  29.652  1.00  0.00     0.134 A 
ATOM     69  C   UNL A   1      43.184  34.265  28.968  1.00  0.00     0.134 A 
ATOM     70  F   UNL A   1      46.207  32.847  30.382  1.00  0.00    -0.206 F 
ATOM     71  C   UNL A   1      45.909  34.617  28.873  1.00  0.00     0.040 A 
ATOM     72  C   UNL A   1      43.718  35.252  28.143  1.00  0.00     0.040 A 
ATOM     73  F   UNL A   1      41.846  34.268  29.072  1.00  0.00    -0.206 F 
ATOM     74  C   UNL A   1      45.090  35.438  28.102  1.00  0.00     0.006 A 
ENDBRANCH  53  67
BRANCH  54  75
ATOM     75  C   UNL A   1      35.471  33.540  29.937  1.00  0.00     0.057 A 
ATOM     76  C   UNL A   1      34.458  34.157  30.688  1.00  0.00     0.134 A 
ATOM     77  C   UNL A   1      35.427  33.766  28.551  1.00  0.00     0.134 A 
ATOM     78  F   UNL A   1      34.427  34.041  32.023  1.00  0.00    -0.206 F 
ATOM     79  C   UNL A   1      33.477  34.968  30.100  1.00  0.00     0.040 A 
ATOM     80  C   UNL A   1      34.442  34.556  27.948  1.00  0.00     0.040 A 
ATOM     81  F   UNL A   1      36.385  33.301  27.737  1.00  0.00    -0.206 F 
ATOM     82  C   UNL A   1      33.472  35.175  28.724  1.00  0.00     0.006 A 
ENDBRANCH  54  75
BRANCH  66  83
ATOM     83  C   UNL A   1      39.401  33.068  34.788  1.00  0.00     0.057 A 
ATOM     84  C   UNL A   1      39.059  33.872  35.887  1.00  0.00     0.134 A 
ATOM     85  C   UNL A   1      38.961  31.740  34.813  1.00  0.00     0.134 A 
ATOM     86  F   UNL A   1      39.347  35.182  35.907  1.00  0.00    -0.206 F 
ATOM     87  C   UNL A   1      38.363  33.358  36.984  1.00  0.00     0.040 A 
ATOM     88  C   UNL A   1      38.231  31.224  35.885  1.00  0.00     0.040 A 
ATOM     89  F   UNL A   1      39.204  30.927  33.771  1.00  0.00    -0.206 F 
ATOM     90  C   UNL A   1      37.942  32.030  36.983  1.00  0.00     0.006 A 
ENDBRANCH  66  83
ENDBRANCH  40  41
ENDBRANCH  33  35
ENDBRANCH  32  33
ENDBRANCH  31  32
ENDBRANCH   1  31
TORSDOF 15
ENDMDL
