MODEL 1
REMARK VINA RESULT:     -10.8      0.000      0.000
REMARK SMILES C#CCN(CC(=O)OCCOC(=O)c1ccc(-c2c3nc(c(-c4c(F)cccc4F)c4ccc([nH]4)c(-c4c(F)cccc4F)c4nc(c(-c5c(F)cccc5F)c5ccc2[nH]5)C=C4)C=C3)cc1)S(=O)(=O)c1c(C)cc(C)cc1C
REMARK SMILES IDX 9 1 8 2 6 3 7 4 5 5 4 6 3 7 2 8 1 9 68 10 69 11 70 12 71 13
REMARK SMILES IDX 72 14 78 15 73 16 74 17 77 18 79 19 75 20 76 21 10 22 11 23
REMARK SMILES IDX 12 24 13 25 14 26 15 27 67 28 16 29 66 30 17 31 18 32 19 33
REMARK SMILES IDX 60 34 20 35 65 36 59 37 61 38 21 39 64 40 58 41 57 42 22 44
REMARK SMILES IDX 48 45 31 46 47 47 32 48 35 49 46 50 62 51 33 52 34 53 45 55
REMARK SMILES IDX 63 56 36 57 23 58 24 59 29 60 25 61 26 62 28 63 30 64 27 65
REMARK SMILES IDX 49 66 50 67 55 68 51 69 52 70 54 71 56 72 53 73 37 74 38 75
REMARK SMILES IDX 43 76 39 77 40 78 42 79 44 80 41 81
REMARK H PARENT 61 43 35 54
REMARK Flexibility Score: inf
ROOT
ATOM      1  C   UNL A   1      31.253  31.947  26.747  1.00  0.00     0.274 C 
ENDROOT
BRANCH   1   2
ATOM      2  O   UNL A   1      31.969  30.692  26.734  1.00  0.00    -0.461 OA
BRANCH   2   3
ATOM      3  C   UNL A   1      32.101  30.066  25.542  1.00  0.00     0.321 C 
ATOM      4  O   UNL A   1      33.183  29.707  25.080  1.00  0.00    -0.251 OA
BRANCH   3   5
ATOM      5  C   UNL A   1      30.813  29.822  24.790  1.00  0.00     0.226 C 
BRANCH   5   6
ATOM      6  N   UNL A   1      30.671  29.184  23.477  1.00  0.00    -0.175 NA
BRANCH   6   7
ATOM      7  C   UNL A   1      30.072  30.077  22.456  1.00  0.00     0.192 C 
BRANCH   7   8
ATOM      8  C   UNL A   1      28.789  30.666  23.018  1.00  0.00    -0.090 C 
ATOM      9  C   UNL A   1      27.688  31.172  23.501  1.00  0.00     0.005 C 
ENDBRANCH   7   8
ENDBRANCH   6   7
BRANCH   6  10
ATOM     10  S   UNL A   1      30.403  27.494  23.302  1.00  0.00     0.245 S 
ATOM     11  O   UNL A   1      29.104  27.213  23.874  1.00  0.00    -0.207 OA
ATOM     12  O   UNL A   1      30.653  27.120  21.925  1.00  0.00    -0.207 OA
BRANCH  10  13
ATOM     13  C   UNL A   1      31.699  26.615  24.177  1.00  0.00     0.088 A 
ATOM     14  C   UNL A   1      31.400  25.727  25.237  1.00  0.00    -0.031 A 
ATOM     15  C   UNL A   1      33.019  26.662  23.646  1.00  0.00    -0.031 A 
ATOM     16  C   UNL A   1      30.032  25.436  25.799  1.00  0.00     0.046 C 
ATOM     17  C   UNL A   1      32.437  24.924  25.747  1.00  0.00     0.008 A 
ATOM     18  C   UNL A   1      34.027  25.875  24.233  1.00  0.00     0.008 A 
ATOM     19  C   UNL A   1      33.420  27.376  22.377  1.00  0.00     0.046 C 
ATOM     20  C   UNL A   1      33.745  24.997  25.274  1.00  0.00    -0.051 A 
ATOM     21  C   UNL A   1      34.819  24.147  25.884  1.00  0.00     0.044 C 
ENDBRANCH  10  13
ENDBRANCH   6  10
ENDBRANCH   5   6
ENDBRANCH   3   5
ENDBRANCH   2   3
ENDBRANCH   1   2
BRANCH   1  22
ATOM     22  C   UNL A   1      32.208  33.148  26.821  1.00  0.00     0.275 C 
BRANCH  22  23
ATOM     23  O   UNL A   1      32.163  33.802  28.108  1.00  0.00    -0.458 OA
BRANCH  23  24
ATOM     24  C   UNL A   1      33.277  34.507  28.375  1.00  0.00     0.338 C 
ATOM     25  O   UNL A   1      33.360  35.728  28.423  1.00  0.00    -0.246 OA
BRANCH  24  26
ATOM     26  C   UNL A   1      34.416  33.690  28.778  1.00  0.00     0.060 A 
ATOM     27  C   UNL A   1      34.187  32.735  29.770  1.00  0.00     0.016 A 
ATOM     28  C   UNL A   1      35.714  34.008  28.386  1.00  0.00     0.016 A 
ATOM     29  C   UNL A   1      35.248  32.137  30.421  1.00  0.00     0.010 A 
ATOM     30  C   UNL A   1      36.788  33.352  28.999  1.00  0.00     0.010 A 
ATOM     31  C   UNL A   1      36.559  32.429  30.032  1.00  0.00    -0.014 A 
BRANCH  31  32
ATOM     32  C   UNL A   1      37.653  31.676  30.676  1.00  0.00     0.031 A 
ATOM     33  C   UNL A   1      38.367  30.568  29.966  1.00  0.00     0.074 A 
ATOM     34  C   UNL A   1      38.061  32.088  31.890  1.00  0.00     0.049 A 
ATOM     35  N   UNL A   1      39.441  29.920  30.336  1.00  0.00    -0.248 NA
ATOM     36  C   UNL A   1      37.847  30.163  28.653  1.00  0.00     0.031 C 
ATOM     37  C   UNL A   1      37.476  33.204  32.641  1.00  0.00     0.029 A 
ATOM     38  N   UNL A   1      39.056  31.623  32.705  1.00  0.00    -0.354 N 
ATOM     39  C   UNL A   1      39.778  29.102  29.269  1.00  0.00     0.074 A 
ATOM     40  C   UNL A   1      38.766  29.292  28.253  1.00  0.00     0.031 C 
ATOM     41  C   UNL A   1      38.113  33.323  33.813  1.00  0.00     0.029 A 
ATOM     42  C   UNL A   1      39.100  32.257  33.920  1.00  0.00     0.049 A 
ATOM     43  H   UNL A   1      39.678  30.905  32.445  1.00  0.00     0.167 HD
ATOM     44  C   UNL A   1      40.845  28.278  29.151  1.00  0.00     0.037 A 
ATOM     45  C   UNL A   1      39.811  31.969  35.022  1.00  0.00     0.037 A 
ATOM     46  C   UNL A   1      41.760  27.995  30.224  1.00  0.00     0.049 A 
ATOM     47  C   UNL A   1      40.772  30.823  34.971  1.00  0.00     0.074 A 
ATOM     48  C   UNL A   1      42.850  27.143  30.236  1.00  0.00     0.029 A 
ATOM     49  N   UNL A   1      41.645  28.516  31.505  1.00  0.00    -0.354 N 
ATOM     50  N   UNL A   1      41.127  30.096  33.940  1.00  0.00    -0.248 NA
ATOM     51  C   UNL A   1      41.414  30.441  36.234  1.00  0.00     0.031 C 
ATOM     52  C   UNL A   1      43.347  27.093  31.545  1.00  0.00     0.029 A 
ATOM     53  C   UNL A   1      42.594  27.946  32.336  1.00  0.00     0.049 A 
ATOM     54  H   UNL A   1      40.986  29.193  31.782  1.00  0.00     0.167 HD
ATOM     55  C   UNL A   1      42.041  29.173  34.423  1.00  0.00     0.074 A 
ATOM     56  C   UNL A   1      42.190  29.439  35.841  1.00  0.00     0.031 C 
ATOM     57  C   UNL A   1      42.701  28.200  33.750  1.00  0.00     0.037 A 
BRANCH  44  58
ATOM     58  C   UNL A   1      41.058  27.607  27.832  1.00  0.00     0.057 A 
ATOM     59  C   UNL A   1      41.804  28.224  26.819  1.00  0.00     0.134 A 
ATOM     60  C   UNL A   1      40.559  26.324  27.583  1.00  0.00     0.134 A 
ATOM     61  F   UNL A   1      42.302  29.456  26.997  1.00  0.00    -0.206 F 
ATOM     62  C   UNL A   1      42.046  27.585  25.601  1.00  0.00     0.040 A 
ATOM     63  C   UNL A   1      40.800  25.673  26.371  1.00  0.00     0.040 A 
ATOM     64  F   UNL A   1      39.832  25.686  28.511  1.00  0.00    -0.206 F 
ATOM     65  C   UNL A   1      41.547  26.302  25.376  1.00  0.00     0.006 A 
ENDBRANCH  44  58
BRANCH  45  66
ATOM     66  C   UNL A   1      39.548  32.723  36.268  1.00  0.00     0.057 A 
ATOM     67  C   UNL A   1      38.563  32.324  37.173  1.00  0.00     0.134 A 
ATOM     68  C   UNL A   1      40.326  33.841  36.605  1.00  0.00     0.134 A 
ATOM     69  F   UNL A   1      37.776  31.274  36.897  1.00  0.00    -0.206 F 
ATOM     70  C   UNL A   1      38.365  33.005  38.376  1.00  0.00     0.040 A 
ATOM     71  C   UNL A   1      40.157  34.515  37.814  1.00  0.00     0.040 A 
ATOM     72  F   UNL A   1      41.289  34.270  35.775  1.00  0.00    -0.206 F 
ATOM     73  C   UNL A   1      39.171  34.095  38.704  1.00  0.00     0.006 A 
ENDBRANCH  45  66
BRANCH  57  74
ATOM     74  C   UNL A   1      43.635  27.348  34.550  1.00  0.00     0.057 A 
ATOM     75  C   UNL A   1      43.212  26.140  35.120  1.00  0.00     0.134 A 
ATOM     76  C   UNL A   1      44.967  27.731  34.745  1.00  0.00     0.134 A 
ATOM     77  F   UNL A   1      41.941  25.733  34.983  1.00  0.00    -0.206 F 
ATOM     78  C   UNL A   1      44.081  25.350  35.871  1.00  0.00     0.040 A 
ATOM     79  C   UNL A   1      45.850  26.939  35.476  1.00  0.00     0.040 A 
ATOM     80  F   UNL A   1      45.430  28.876  34.221  1.00  0.00    -0.206 F 
ATOM     81  C   UNL A   1      45.406  25.746  36.047  1.00  0.00     0.006 A 
ENDBRANCH  57  74
ENDBRANCH  31  32
ENDBRANCH  24  26
ENDBRANCH  23  24
ENDBRANCH  22  23
ENDBRANCH   1  22
TORSDOF 16
ENDMDL
MODEL 2
REMARK VINA RESULT:     -10.7      1.615      2.800
REMARK SMILES C#CCN(CC(=O)OCCOC(=O)c1ccc(-c2c3nc(c(-c4c(F)cccc4F)c4ccc([nH]4)c(-c4c(F)cccc4F)c4nc(c(-c5c(F)cccc5F)c5ccc2[nH]5)C=C4)C=C3)cc1)S(=O)(=O)c1c(C)cc(C)cc1C
REMARK SMILES IDX 9 1 8 2 6 3 7 4 5 5 4 6 3 7 2 8 1 9 68 10 69 11 70 12 71 13
REMARK SMILES IDX 72 14 78 15 73 16 74 17 77 18 79 19 75 20 76 21 10 22 11 23
REMARK SMILES IDX 12 24 13 25 14 26 15 27 67 28 16 29 66 30 17 31 18 32 19 33
REMARK SMILES IDX 60 34 20 35 65 36 59 37 61 38 21 39 64 40 58 41 57 42 22 44
REMARK SMILES IDX 48 45 31 46 47 47 32 48 35 49 46 50 62 51 33 52 34 53 45 55
REMARK SMILES IDX 63 56 36 57 23 58 24 59 29 60 25 61 26 62 28 63 30 64 27 65
REMARK SMILES IDX 49 66 50 67 55 68 51 69 52 70 54 71 56 72 53 73 37 74 38 75
REMARK SMILES IDX 43 76 39 77 40 78 42 79 44 80 41 81
REMARK H PARENT 61 43 35 54
REMARK Flexibility Score: inf
ROOT
ATOM      1  C   UNL A   1      31.487  29.579  24.821  1.00  0.00     0.274 C 
ENDROOT
BRANCH   1   2
ATOM      2  O   UNL A   1      30.186  29.514  24.197  1.00  0.00    -0.461 OA
BRANCH   2   3
ATOM      3  C   UNL A   1      29.969  28.512  23.314  1.00  0.00     0.321 C 
ATOM      4  O   UNL A   1      30.096  28.639  22.098  1.00  0.00    -0.251 OA
BRANCH   3   5
ATOM      5  C   UNL A   1      29.554  27.192  23.921  1.00  0.00     0.226 C 
BRANCH   5   6
ATOM      6  N   UNL A   1      30.443  26.137  24.420  1.00  0.00    -0.175 NA
BRANCH   6   7
ATOM      7  C   UNL A   1      30.589  25.002  23.477  1.00  0.00     0.192 C 
BRANCH   7   8
ATOM      8  C   UNL A   1      31.841  25.219  22.644  1.00  0.00    -0.090 C 
ATOM      9  C   UNL A   1      32.916  25.406  21.929  1.00  0.00     0.005 C 
ENDBRANCH   7   8
ENDBRANCH   6   7
BRANCH   6  10
ATOM     10  S   UNL A   1      30.613  25.796  26.097  1.00  0.00     0.245 S 
ATOM     11  O   UNL A   1      30.940  27.047  26.749  1.00  0.00    -0.207 OA
ATOM     12  O   UNL A   1      29.448  25.061  26.546  1.00  0.00    -0.207 OA
BRANCH  10  13
ATOM     13  C   UNL A   1      31.927  24.594  26.308  1.00  0.00     0.088 A 
ATOM     14  C   UNL A   1      31.648  23.216  26.463  1.00  0.00    -0.031 A 
ATOM     15  C   UNL A   1      33.269  25.025  26.100  1.00  0.00    -0.031 A 
ATOM     16  C   UNL A   1      30.281  22.584  26.525  1.00  0.00     0.046 C 
ATOM     17  C   UNL A   1      32.723  22.309  26.424  1.00  0.00     0.008 A 
ATOM     18  C   UNL A   1      34.309  24.076  26.125  1.00  0.00     0.008 A 
ATOM     19  C   UNL A   1      33.681  26.417  25.686  1.00  0.00     0.046 C 
ATOM     20  C   UNL A   1      34.046  22.719  26.275  1.00  0.00    -0.051 A 
ATOM     21  C   UNL A   1      35.155  21.710  26.283  1.00  0.00     0.044 C 
ENDBRANCH  10  13
ENDBRANCH   6  10
ENDBRANCH   5   6
ENDBRANCH   3   5
ENDBRANCH   2   3
ENDBRANCH   1   2
BRANCH   1  22
ATOM     22  C   UNL A   1      31.610  30.786  25.763  1.00  0.00     0.275 C 
BRANCH  22  23
ATOM     23  O   UNL A   1      32.456  30.508  26.900  1.00  0.00    -0.458 OA
BRANCH  23  24
ATOM     24  C   UNL A   1      33.229  31.553  27.244  1.00  0.00     0.338 C 
ATOM     25  O   UNL A   1      32.884  32.729  27.252  1.00  0.00    -0.246 OA
BRANCH  24  26
ATOM     26  C   UNL A   1      34.531  31.179  27.784  1.00  0.00     0.060 A 
ATOM     27  C   UNL A   1      34.659  29.880  28.275  1.00  0.00     0.016 A 
ATOM     28  C   UNL A   1      35.516  32.132  28.033  1.00  0.00     0.016 A 
ATOM     29  C   UNL A   1      35.736  29.536  29.069  1.00  0.00     0.010 A 
ATOM     30  C   UNL A   1      36.641  31.766  28.781  1.00  0.00     0.010 A 
ATOM     31  C   UNL A   1      36.745  30.472  29.318  1.00  0.00    -0.014 A 
BRANCH  31  32
ATOM     32  C   UNL A   1      37.932  30.022  30.071  1.00  0.00     0.031 A 
ATOM     33  C   UNL A   1      38.896  29.030  29.497  1.00  0.00     0.074 A 
ATOM     34  C   UNL A   1      38.179  30.613  31.254  1.00  0.00     0.049 A 
ATOM     35  N   UNL A   1      40.057  28.656  29.967  1.00  0.00    -0.248 NA
ATOM     36  C   UNL A   1      38.544  28.414  28.211  1.00  0.00     0.031 C 
ATOM     37  C   UNL A   1      37.338  31.644  31.872  1.00  0.00     0.029 A 
ATOM     38  N   UNL A   1      39.201  30.438  32.145  1.00  0.00    -0.354 N 
ATOM     39  C   UNL A   1      40.613  27.836  28.996  1.00  0.00     0.074 A 
ATOM     40  C   UNL A   1      39.642  27.722  27.930  1.00  0.00     0.031 C 
ATOM     41  C   UNL A   1      37.870  31.994  33.050  1.00  0.00     0.029 A 
ATOM     42  C   UNL A   1      39.047  31.170  33.294  1.00  0.00     0.049 A 
ATOM     43  H   UNL A   1      39.970  29.846  31.979  1.00  0.00     0.167 HD
ATOM     44  C   UNL A   1      41.831  27.246  28.997  1.00  0.00     0.037 A 
ATOM     45  C   UNL A   1      39.739  31.133  34.445  1.00  0.00     0.037 A 
ATOM     46  C   UNL A   1      42.723  27.254  30.125  1.00  0.00     0.049 A 
ATOM     47  C   UNL A   1      40.915  30.212  34.540  1.00  0.00     0.074 A 
ATOM     48  C   UNL A   1      43.962  26.652  30.258  1.00  0.00     0.029 A 
ATOM     49  N   UNL A   1      42.433  27.848  31.345  1.00  0.00    -0.354 N 
ATOM     50  N   UNL A   1      41.468  29.489  33.596  1.00  0.00    -0.248 NA
ATOM     51  C   UNL A   1      41.551  30.083  35.856  1.00  0.00     0.031 C 
ATOM     52  C   UNL A   1      44.385  26.820  31.584  1.00  0.00     0.029 A 
ATOM     53  C   UNL A   1      43.430  27.562  32.261  1.00  0.00     0.049 A 
ATOM     54  H   UNL A   1      41.635  28.394  31.531  1.00  0.00     0.167 HD
ATOM     55  C   UNL A   1      42.523  28.822  34.199  1.00  0.00     0.074 A 
ATOM     56  C   UNL A   1      42.536  29.234  35.590  1.00  0.00     0.031 C 
ATOM     57  C   UNL A   1      43.405  27.953  33.647  1.00  0.00     0.037 A 
BRANCH  44  58
ATOM     58  C   UNL A   1      42.250  26.523  27.757  1.00  0.00     0.057 A 
ATOM     59  C   UNL A   1      41.969  25.161  27.586  1.00  0.00     0.134 A 
ATOM     60  C   UNL A   1      42.894  27.191  26.711  1.00  0.00     0.134 A 
ATOM     61  F   UNL A   1      41.360  24.465  28.557  1.00  0.00    -0.206 F 
ATOM     62  C   UNL A   1      42.316  24.488  26.413  1.00  0.00     0.040 A 
ATOM     63  C   UNL A   1      43.240  26.529  25.530  1.00  0.00     0.040 A 
ATOM     64  F   UNL A   1      43.195  28.492  26.819  1.00  0.00    -0.206 F 
ATOM     65  C   UNL A   1      42.950  25.174  25.378  1.00  0.00     0.006 A 
ENDBRANCH  44  58
BRANCH  45  66
ATOM     66  C   UNL A   1      39.258  31.920  35.602  1.00  0.00     0.057 A 
ATOM     67  C   UNL A   1      39.682  33.231  35.825  1.00  0.00     0.134 A 
ATOM     68  C   UNL A   1      38.310  31.383  36.487  1.00  0.00     0.134 A 
ATOM     69  F   UNL A   1      40.599  33.791  35.024  1.00  0.00    -0.206 F 
ATOM     70  C   UNL A   1      39.173  33.987  36.883  1.00  0.00     0.040 A 
ATOM     71  C   UNL A   1      37.775  32.135  37.532  1.00  0.00     0.040 A 
ATOM     72  F   UNL A   1      37.864  30.129  36.321  1.00  0.00    -0.206 F 
ATOM     73  C   UNL A   1      38.209  33.443  37.732  1.00  0.00     0.006 A 
ENDBRANCH  45  66
BRANCH  57  74
ATOM     74  C   UNL A   1      44.446  27.388  34.559  1.00  0.00     0.057 A 
ATOM     75  C   UNL A   1      44.243  26.178  35.236  1.00  0.00     0.134 A 
ATOM     76  C   UNL A   1      45.665  28.048  34.755  1.00  0.00     0.134 A 
ATOM     77  F   UNL A   1      43.086  25.512  35.103  1.00  0.00    -0.206 F 
ATOM     78  C   UNL A   1      45.211  25.654  36.091  1.00  0.00     0.040 A 
ATOM     79  C   UNL A   1      46.649  27.524  35.591  1.00  0.00     0.040 A 
ATOM     80  F   UNL A   1      45.917  29.208  34.131  1.00  0.00    -0.206 F 
ATOM     81  C   UNL A   1      46.421  26.325  36.266  1.00  0.00     0.006 A 
ENDBRANCH  57  74
ENDBRANCH  31  32
ENDBRANCH  24  26
ENDBRANCH  23  24
ENDBRANCH  22  23
ENDBRANCH   1  22
TORSDOF 16
ENDMDL
MODEL 3
REMARK VINA RESULT:     -10.7      4.845      9.587
REMARK SMILES C#CCN(CC(=O)OCCOC(=O)c1ccc(-c2c3nc(c(-c4c(F)cccc4F)c4ccc([nH]4)c(-c4c(F)cccc4F)c4nc(c(-c5c(F)cccc5F)c5ccc2[nH]5)C=C4)C=C3)cc1)S(=O)(=O)c1c(C)cc(C)cc1C
REMARK SMILES IDX 9 1 8 2 6 3 7 4 5 5 4 6 3 7 2 8 1 9 68 10 69 11 70 12 71 13
REMARK SMILES IDX 72 14 78 15 73 16 74 17 77 18 79 19 75 20 76 21 10 22 11 23
REMARK SMILES IDX 12 24 13 25 14 26 15 27 67 28 16 29 66 30 17 31 18 32 19 33
REMARK SMILES IDX 60 34 20 35 65 36 59 37 61 38 21 39 64 40 58 41 57 42 22 44
REMARK SMILES IDX 48 45 31 46 47 47 32 48 35 49 46 50 62 51 33 52 34 53 45 55
REMARK SMILES IDX 63 56 36 57 23 58 24 59 29 60 25 61 26 62 28 63 30 64 27 65
REMARK SMILES IDX 49 66 50 67 55 68 51 69 52 70 54 71 56 72 53 73 37 74 38 75
REMARK SMILES IDX 43 76 39 77 40 78 42 79 44 80 41 81
REMARK H PARENT 61 43 35 54
REMARK Flexibility Score: inf
ROOT
ATOM      1  C   UNL A   1      35.194  20.598  25.325  1.00  0.00     0.274 C 
ENDROOT
BRANCH   1   2
ATOM      2  O   UNL A   1      34.296  19.875  24.454  1.00  0.00    -0.461 OA
BRANCH   2   3
ATOM      3  C   UNL A   1      32.984  20.199  24.508  1.00  0.00     0.321 C 
ATOM      4  O   UNL A   1      32.210  19.758  25.356  1.00  0.00    -0.251 OA
BRANCH   3   5
ATOM      5  C   UNL A   1      32.508  21.159  23.443  1.00  0.00     0.226 C 
BRANCH   5   6
ATOM      6  N   UNL A   1      32.568  22.624  23.492  1.00  0.00    -0.175 NA
BRANCH   6   7
ATOM      7  C   UNL A   1      31.249  23.254  23.743  1.00  0.00     0.192 C 
BRANCH   7   8
ATOM      8  C   UNL A   1      31.025  23.328  25.244  1.00  0.00    -0.090 C 
ATOM      9  C   UNL A   1      30.832  23.392  26.532  1.00  0.00     0.005 C 
ENDBRANCH   7   8
ENDBRANCH   6   7
BRANCH   6  10
ATOM     10  S   UNL A   1      33.713  23.527  22.579  1.00  0.00     0.245 S 
ATOM     11  O   UNL A   1      35.017  22.978  22.882  1.00  0.00    -0.207 OA
ATOM     12  O   UNL A   1      33.280  23.572  21.198  1.00  0.00    -0.207 OA
BRANCH  10  13
ATOM     13  C   UNL A   1      33.606  25.249  23.070  1.00  0.00     0.088 A 
ATOM     14  C   UNL A   1      32.930  26.202  22.272  1.00  0.00    -0.031 A 
ATOM     15  C   UNL A   1      34.028  25.599  24.385  1.00  0.00    -0.031 A 
ATOM     16  C   UNL A   1      32.278  25.947  20.937  1.00  0.00     0.046 C 
ATOM     17  C   UNL A   1      32.713  27.486  22.807  1.00  0.00     0.008 A 
ATOM     18  C   UNL A   1      33.830  26.915  24.844  1.00  0.00     0.008 A 
ATOM     19  C   UNL A   1      34.538  24.628  25.422  1.00  0.00     0.046 C 
ATOM     20  C   UNL A   1      33.166  27.859  24.069  1.00  0.00    -0.051 A 
ATOM     21  C   UNL A   1      32.942  29.255  24.571  1.00  0.00     0.044 C 
ENDBRANCH  10  13
ENDBRANCH   6  10
ENDBRANCH   5   6
ENDBRANCH   3   5
ENDBRANCH   2   3
ENDBRANCH   1   2
BRANCH   1  22
ATOM     22  C   UNL A   1      36.666  20.307  24.996  1.00  0.00     0.275 C 
BRANCH  22  23
ATOM     23  O   UNL A   1      37.496  21.482  25.125  1.00  0.00    -0.458 OA
BRANCH  23  24
ATOM     24  C   UNL A   1      38.627  21.250  25.816  1.00  0.00     0.338 C 
ATOM     25  O   UNL A   1      39.217  20.178  25.886  1.00  0.00    -0.246 OA
BRANCH  24  26
ATOM     26  C   UNL A   1      39.234  22.446  26.387  1.00  0.00     0.060 A 
ATOM     27  C   UNL A   1      38.780  23.674  25.904  1.00  0.00     0.016 A 
ATOM     28  C   UNL A   1      40.376  22.374  27.181  1.00  0.00     0.016 A 
ATOM     29  C   UNL A   1      39.493  24.830  26.154  1.00  0.00     0.010 A 
ATOM     30  C   UNL A   1      41.061  23.555  27.491  1.00  0.00     0.010 A 
ATOM     31  C   UNL A   1      40.633  24.783  26.963  1.00  0.00    -0.014 A 
BRANCH  31  32
ATOM     32  C   UNL A   1      41.292  26.061  27.299  1.00  0.00     0.031 A 
ATOM     33  C   UNL A   1      40.563  27.155  28.016  1.00  0.00     0.074 A 
ATOM     34  C   UNL A   1      42.606  26.172  27.034  1.00  0.00     0.049 A 
ATOM     35  N   UNL A   1      41.042  28.265  28.514  1.00  0.00    -0.248 NA
ATOM     36  C   UNL A   1      39.124  26.967  28.249  1.00  0.00     0.031 C 
ATOM     37  C   UNL A   1      43.428  25.135  26.400  1.00  0.00     0.029 A 
ATOM     38  N   UNL A   1      43.481  27.198  27.262  1.00  0.00    -0.354 N 
ATOM     39  C   UNL A   1      39.991  28.859  29.197  1.00  0.00     0.074 A 
ATOM     40  C   UNL A   1      38.831  28.016  29.007  1.00  0.00     0.031 C 
ATOM     41  C   UNL A   1      44.681  25.588  26.274  1.00  0.00     0.029 A 
ATOM     42  C   UNL A   1      44.734  26.961  26.757  1.00  0.00     0.049 A 
ATOM     43  H   UNL A   1      43.236  28.023  27.739  1.00  0.00     0.167 HD
ATOM     44  C   UNL A   1      40.007  29.999  29.925  1.00  0.00     0.037 A 
ATOM     45  C   UNL A   1      45.789  27.784  26.637  1.00  0.00     0.037 A 
ATOM     46  C   UNL A   1      41.130  30.897  29.985  1.00  0.00     0.049 A 
ATOM     47  C   UNL A   1      45.671  29.177  27.170  1.00  0.00     0.074 A 
ATOM     48  C   UNL A   1      41.245  32.103  30.652  1.00  0.00     0.029 A 
ATOM     49  N   UNL A   1      42.316  30.707  29.291  1.00  0.00    -0.354 N 
ATOM     50  N   UNL A   1      44.697  29.708  27.868  1.00  0.00    -0.248 NA
ATOM     51  C   UNL A   1      46.782  30.092  26.883  1.00  0.00     0.031 C 
ATOM     52  C   UNL A   1      42.473  32.679  30.299  1.00  0.00     0.029 A 
ATOM     53  C   UNL A   1      43.138  31.810  29.448  1.00  0.00     0.049 A 
ATOM     54  H   UNL A   1      42.541  29.907  28.764  1.00  0.00     0.167 HD
ATOM     55  C   UNL A   1      45.076  31.018  28.113  1.00  0.00     0.074 A 
ATOM     56  C   UNL A   1      46.376  31.198  27.494  1.00  0.00     0.031 C 
ATOM     57  C   UNL A   1      44.411  31.981  28.796  1.00  0.00     0.037 A 
BRANCH  44  58
ATOM     58  C   UNL A   1      38.768  30.352  30.685  1.00  0.00     0.057 A 
ATOM     59  C   UNL A   1      38.579  29.914  32.002  1.00  0.00     0.134 A 
ATOM     60  C   UNL A   1      37.779  31.166  30.121  1.00  0.00     0.134 A 
ATOM     61  F   UNL A   1      39.488  29.125  32.593  1.00  0.00    -0.206 F 
ATOM     62  C   UNL A   1      37.446  30.276  32.734  1.00  0.00     0.040 A 
ATOM     63  C   UNL A   1      36.646  31.539  30.846  1.00  0.00     0.040 A 
ATOM     64  F   UNL A   1      37.901  31.610  28.863  1.00  0.00    -0.206 F 
ATOM     65  C   UNL A   1      36.476  31.096  32.157  1.00  0.00     0.006 A 
ENDBRANCH  44  58
BRANCH  45  66
ATOM     66  C   UNL A   1      46.985  27.320  25.897  1.00  0.00     0.057 A 
ATOM     67  C   UNL A   1      48.010  26.616  26.528  1.00  0.00     0.134 A 
ATOM     68  C   UNL A   1      47.095  27.531  24.514  1.00  0.00     0.134 A 
ATOM     69  F   UNL A   1      47.968  26.399  27.851  1.00  0.00    -0.206 F 
ATOM     70  C   UNL A   1      49.103  26.127  25.809  1.00  0.00     0.040 A 
ATOM     71  C   UNL A   1      48.168  27.027  23.780  1.00  0.00     0.040 A 
ATOM     72  F   UNL A   1      46.139  28.200  23.853  1.00  0.00    -0.206 F 
ATOM     73  C   UNL A   1      49.178  26.322  24.430  1.00  0.00     0.006 A 
ENDBRANCH  45  66
BRANCH  57  74
ATOM     74  C   UNL A   1      45.081  33.315  28.894  1.00  0.00     0.057 A 
ATOM     75  C   UNL A   1      44.799  34.341  27.983  1.00  0.00     0.134 A 
ATOM     76  C   UNL A   1      46.005  33.581  29.912  1.00  0.00     0.134 A 
ATOM     77  F   UNL A   1      43.938  34.136  26.975  1.00  0.00    -0.206 F 
ATOM     78  C   UNL A   1      45.428  35.582  28.072  1.00  0.00     0.040 A 
ATOM     79  C   UNL A   1      46.624  34.824  30.023  1.00  0.00     0.040 A 
ATOM     80  F   UNL A   1      46.311  32.638  30.816  1.00  0.00    -0.206 F 
ATOM     81  C   UNL A   1      46.340  35.828  29.098  1.00  0.00     0.006 A 
ENDBRANCH  57  74
ENDBRANCH  31  32
ENDBRANCH  24  26
ENDBRANCH  23  24
ENDBRANCH  22  23
ENDBRANCH   1  22
TORSDOF 16
ENDMDL
