MODEL 1
REMARK VINA RESULT:     -10.5      0.000      0.000
REMARK SMILES C[C@H](CN(C)C(=O)CCc1nc2ccccc2o1)C(=O)OCCOC(=O)c1ccc(-c2c3nc(c(-c4c(F)cccc4F)c4ccc([nH]4)c(-c4c(F)cccc4F)c4nc(c(-c5c(F)cccc5F)c5ccc2[nH]5)C=C4)C=C3)cc1
REMARK SMILES IDX 19 1 20 2 2 3 1 4 3 5 4 6 5 7 6 8 7 9 8 10 9 11 10 12 11 13
REMARK SMILES IDX 18 14 12 15 17 16 13 17 16 18 14 19 15 20 21 21 22 22 23 23
REMARK SMILES IDX 24 24 25 25 26 26 27 27 28 28 80 29 29 30 79 31 30 32 31 33
REMARK SMILES IDX 32 34 73 35 33 36 78 37 72 38 74 39 34 40 77 41 71 42 70 43
REMARK SMILES IDX 35 45 61 46 44 47 60 48 45 49 48 50 59 51 75 52 46 53 47 54
REMARK SMILES IDX 58 56 76 57 49 58 36 59 37 60 42 61 38 62 39 63 41 64 43 65
REMARK SMILES IDX 40 66 62 67 63 68 68 69 64 70 65 71 67 72 69 73 66 74 50 75
REMARK SMILES IDX 51 76 56 77 52 78 53 79 55 80 57 81 54 82
REMARK H PARENT 74 44 48 55
REMARK Flexibility Score: inf
ROOT
ATOM      1  C   UNL A   1      36.101  21.525  24.857  1.00  0.00     0.310 C 
ATOM      2  O   UNL A   1      35.586  20.536  25.368  1.00  0.00    -0.252 OA
ENDROOT
BRANCH   1   3
ATOM      3  C   UNL A   1      35.306  22.773  24.509  1.00  0.00     0.115 C 
ATOM      4  C   UNL A   1      35.802  23.340  23.186  1.00  0.00     0.022 C 
BRANCH   3   5
ATOM      5  C   UNL A   1      35.131  23.726  25.713  1.00  0.00     0.134 C 
BRANCH   5   6
ATOM      6  N   UNL A   1      33.773  23.910  26.225  1.00  0.00    -0.345 N 
ATOM      7  C   UNL A   1      33.168  25.204  25.945  1.00  0.00     0.146 C 
BRANCH   6   8
ATOM      8  C   UNL A   1      33.108  22.789  26.698  1.00  0.00     0.222 C 
ATOM      9  O   UNL A   1      33.520  22.160  27.678  1.00  0.00    -0.275 OA
BRANCH   8  10
ATOM     10  C   UNL A   1      31.804  22.355  26.060  1.00  0.00     0.110 C 
BRANCH  10  11
ATOM     11  C   UNL A   1      31.990  22.008  24.582  1.00  0.00     0.107 C 
BRANCH  11  12
ATOM     12  C   UNL A   1      32.184  20.553  24.357  1.00  0.00     0.195 A 
ATOM     13  N   UNL A   1      32.490  19.922  23.239  1.00  0.00    -0.214 NA
ATOM     14  O   UNL A   1      32.144  19.756  25.472  1.00  0.00    -0.441 OA
ATOM     15  C   UNL A   1      32.780  18.648  23.655  1.00  0.00     0.109 A 
ATOM     16  C   UNL A   1      32.573  18.544  25.021  1.00  0.00     0.154 A 
ATOM     17  C   UNL A   1      33.274  17.538  22.959  1.00  0.00     0.032 A 
ATOM     18  C   UNL A   1      32.840  17.414  25.782  1.00  0.00     0.049 A 
ATOM     19  C   UNL A   1      33.576  16.381  23.694  1.00  0.00     0.003 A 
ATOM     20  C   UNL A   1      33.367  16.325  25.079  1.00  0.00     0.004 A 
ENDBRANCH  11  12
ENDBRANCH  10  11
ENDBRANCH   8  10
ENDBRANCH   6   8
ENDBRANCH   5   6
ENDBRANCH   3   5
ENDBRANCH   1   3
BRANCH   1  21
ATOM     21  O   UNL A   1      37.420  21.636  24.564  1.00  0.00    -0.462 OA
BRANCH  21  22
ATOM     22  C   UNL A   1      38.361  21.332  25.607  1.00  0.00     0.274 C 
BRANCH  22  23
ATOM     23  C   UNL A   1      39.122  20.039  25.292  1.00  0.00     0.275 C 
BRANCH  23  24
ATOM     24  O   UNL A   1      39.998  19.656  26.373  1.00  0.00    -0.458 OA
BRANCH  24  25
ATOM     25  C   UNL A   1      41.321  19.736  26.104  1.00  0.00     0.338 C 
ATOM     26  O   UNL A   1      41.997  18.942  25.472  1.00  0.00    -0.246 OA
BRANCH  25  27
ATOM     27  C   UNL A   1      41.855  21.029  26.563  1.00  0.00     0.060 A 
ATOM     28  C   UNL A   1      41.825  21.289  27.935  1.00  0.00     0.016 A 
ATOM     29  C   UNL A   1      42.300  22.004  25.670  1.00  0.00     0.016 A 
ATOM     30  C   UNL A   1      42.236  22.521  28.428  1.00  0.00     0.010 A 
ATOM     31  C   UNL A   1      42.711  23.247  26.164  1.00  0.00     0.010 A 
ATOM     32  C   UNL A   1      42.673  23.514  27.545  1.00  0.00    -0.014 A 
BRANCH  32  33
ATOM     33  C   UNL A   1      43.031  24.847  28.082  1.00  0.00     0.031 A 
ATOM     34  C   UNL A   1      41.955  25.859  28.343  1.00  0.00     0.074 A 
ATOM     35  C   UNL A   1      44.311  25.126  28.385  1.00  0.00     0.049 A 
ATOM     36  N   UNL A   1      42.064  27.097  28.751  1.00  0.00    -0.248 NA
ATOM     37  C   UNL A   1      40.569  25.418  28.118  1.00  0.00     0.031 C 
ATOM     38  C   UNL A   1      45.435  24.201  28.233  1.00  0.00     0.029 A 
ATOM     39  N   UNL A   1      44.881  26.266  28.889  1.00  0.00    -0.354 N 
ATOM     40  C   UNL A   1      40.769  27.592  28.809  1.00  0.00     0.074 A 
ATOM     41  C   UNL A   1      39.888  26.523  28.388  1.00  0.00     0.031 C 
ATOM     42  C   UNL A   1      46.560  24.810  28.641  1.00  0.00     0.029 A 
ATOM     43  C   UNL A   1      46.244  26.179  29.037  1.00  0.00     0.049 A 
ATOM     44  H   UNL A   1      44.363  27.071  29.122  1.00  0.00     0.167 HD
ATOM     45  C   UNL A   1      40.353  28.826  29.180  1.00  0.00     0.037 A 
ATOM     46  C   UNL A   1      47.136  27.109  29.424  1.00  0.00     0.037 A 
ATOM     47  C   UNL A   1      41.232  29.880  29.614  1.00  0.00     0.049 A 
ATOM     48  C   UNL A   1      46.655  28.487  29.781  1.00  0.00     0.074 A 
ATOM     49  C   UNL A   1      40.908  31.167  30.009  1.00  0.00     0.029 A 
ATOM     50  N   UNL A   1      42.610  29.766  29.717  1.00  0.00    -0.354 N 
ATOM     51  N   UNL A   1      45.431  28.954  29.805  1.00  0.00    -0.248 NA
ATOM     52  C   UNL A   1      47.682  29.470  30.155  1.00  0.00     0.031 C 
ATOM     53  C   UNL A   1      42.094  31.842  30.320  1.00  0.00     0.029 A 
ATOM     54  C   UNL A   1      43.152  30.963  30.154  1.00  0.00     0.049 A 
ATOM     55  H   UNL A   1      43.126  28.955  29.508  1.00  0.00     0.167 HD
ATOM     56  C   UNL A   1      45.536  30.278  30.209  1.00  0.00     0.074 A 
ATOM     57  C   UNL A   1      46.944  30.535  30.435  1.00  0.00     0.031 C 
ATOM     58  C   UNL A   1      44.556  31.198  30.375  1.00  0.00     0.037 A 
BRANCH  45  59
ATOM     59  C   UNL A   1      38.885  29.111  29.095  1.00  0.00     0.057 A 
ATOM     60  C   UNL A   1      38.044  29.005  30.209  1.00  0.00     0.134 A 
ATOM     61  C   UNL A   1      38.310  29.519  27.885  1.00  0.00     0.134 A 
ATOM     62  F   UNL A   1      38.532  28.603  31.393  1.00  0.00    -0.206 F 
ATOM     63  C   UNL A   1      36.678  29.278  30.119  1.00  0.00     0.040 A 
ATOM     64  C   UNL A   1      36.950  29.813  27.787  1.00  0.00     0.040 A 
ATOM     65  F   UNL A   1      39.061  29.641  26.781  1.00  0.00    -0.206 F 
ATOM     66  C   UNL A   1      36.128  29.689  28.906  1.00  0.00     0.006 A 
ENDBRANCH  45  59
BRANCH  46  67
ATOM     67  C   UNL A   1      48.580  26.773  29.466  1.00  0.00     0.057 A 
ATOM     68  C   UNL A   1      49.410  27.000  28.363  1.00  0.00     0.134 A 
ATOM     69  C   UNL A   1      49.163  26.215  30.611  1.00  0.00     0.134 A 
ATOM     70  F   UNL A   1      48.903  27.510  27.231  1.00  0.00    -0.206 F 
ATOM     71  C   UNL A   1      50.768  26.675  28.393  1.00  0.00     0.040 A 
ATOM     72  C   UNL A   1      50.523  25.907  30.662  1.00  0.00     0.040 A 
ATOM     73  F   UNL A   1      48.419  25.972  31.700  1.00  0.00    -0.206 F 
ATOM     74  C   UNL A   1      51.328  26.133  29.547  1.00  0.00     0.006 A 
ENDBRANCH  46  67
BRANCH  58  75
ATOM     75  C   UNL A   1      44.974  32.558  30.845  1.00  0.00     0.057 A 
ATOM     76  C   UNL A   1      45.282  33.585  29.944  1.00  0.00     0.134 A 
ATOM     77  C   UNL A   1      45.040  32.852  32.213  1.00  0.00     0.134 A 
ATOM     78  F   UNL A   1      45.249  33.361  28.622  1.00  0.00    -0.206 F 
ATOM     79  C   UNL A   1      45.660  34.853  30.388  1.00  0.00     0.040 A 
ATOM     80  C   UNL A   1      45.398  34.121  32.668  1.00  0.00     0.040 A 
ATOM     81  F   UNL A   1      44.750  31.912  33.126  1.00  0.00    -0.206 F 
ATOM     82  C   UNL A   1      45.714  35.125  31.754  1.00  0.00     0.006 A 
ENDBRANCH  58  75
ENDBRANCH  32  33
ENDBRANCH  25  27
ENDBRANCH  24  25
ENDBRANCH  23  24
ENDBRANCH  22  23
ENDBRANCH  21  22
ENDBRANCH   1  21
TORSDOF 17
ENDMDL
MODEL 2
REMARK VINA RESULT:     -10.3      2.082      3.011
REMARK SMILES C[C@H](CN(C)C(=O)CCc1nc2ccccc2o1)C(=O)OCCOC(=O)c1ccc(-c2c3nc(c(-c4c(F)cccc4F)c4ccc([nH]4)c(-c4c(F)cccc4F)c4nc(c(-c5c(F)cccc5F)c5ccc2[nH]5)C=C4)C=C3)cc1
REMARK SMILES IDX 19 1 20 2 2 3 1 4 3 5 4 6 5 7 6 8 7 9 8 10 9 11 10 12 11 13
REMARK SMILES IDX 18 14 12 15 17 16 13 17 16 18 14 19 15 20 21 21 22 22 23 23
REMARK SMILES IDX 24 24 25 25 26 26 27 27 28 28 80 29 29 30 79 31 30 32 31 33
REMARK SMILES IDX 32 34 73 35 33 36 78 37 72 38 74 39 34 40 77 41 71 42 70 43
REMARK SMILES IDX 35 45 61 46 44 47 60 48 45 49 48 50 59 51 75 52 46 53 47 54
REMARK SMILES IDX 58 56 76 57 49 58 36 59 37 60 42 61 38 62 39 63 41 64 43 65
REMARK SMILES IDX 40 66 62 67 63 68 68 69 64 70 65 71 67 72 69 73 66 74 50 75
REMARK SMILES IDX 51 76 56 77 52 78 53 79 55 80 57 81 54 82
REMARK H PARENT 74 44 48 55
REMARK Flexibility Score: inf
ROOT
ATOM      1  C   UNL A   1      34.572  22.211  26.293  1.00  0.00     0.310 C 
ATOM      2  O   UNL A   1      34.389  21.464  27.248  1.00  0.00    -0.252 OA
ENDROOT
BRANCH   1   3
ATOM      3  C   UNL A   1      34.128  23.665  26.297  1.00  0.00     0.115 C 
ATOM      4  C   UNL A   1      32.688  23.756  26.782  1.00  0.00     0.022 C 
BRANCH   3   5
ATOM      5  C   UNL A   1      34.534  24.418  25.010  1.00  0.00     0.134 C 
BRANCH   5   6
ATOM      6  N   UNL A   1      33.538  24.498  23.942  1.00  0.00    -0.345 N 
ATOM      7  C   UNL A   1      32.749  25.721  23.913  1.00  0.00     0.146 C 
BRANCH   6   8
ATOM      8  C   UNL A   1      33.598  23.548  22.934  1.00  0.00     0.222 C 
ATOM      9  O   UNL A   1      34.635  23.359  22.289  1.00  0.00    -0.275 OA
BRANCH   8  10
ATOM     10  C   UNL A   1      32.403  22.661  22.654  1.00  0.00     0.110 C 
BRANCH  10  11
ATOM     11  C   UNL A   1      31.902  21.976  23.927  1.00  0.00     0.107 C 
BRANCH  11  12
ATOM     12  C   UNL A   1      32.148  20.511  23.921  1.00  0.00     0.195 A 
ATOM     13  N   UNL A   1      32.581  19.749  22.935  1.00  0.00    -0.214 NA
ATOM     14  O   UNL A   1      32.011  19.868  25.124  1.00  0.00    -0.441 OA
ATOM     15  C   UNL A   1      32.853  18.552  23.546  1.00  0.00     0.109 A 
ATOM     16  C   UNL A   1      32.510  18.622  24.885  1.00  0.00     0.154 A 
ATOM     17  C   UNL A   1      33.439  17.377  23.058  1.00  0.00     0.032 A 
ATOM     18  C   UNL A   1      32.721  17.613  25.816  1.00  0.00     0.049 A 
ATOM     19  C   UNL A   1      33.689  16.338  23.969  1.00  0.00     0.003 A 
ATOM     20  C   UNL A   1      33.341  16.460  25.321  1.00  0.00     0.004 A 
ENDBRANCH  11  12
ENDBRANCH  10  11
ENDBRANCH   8  10
ENDBRANCH   6   8
ENDBRANCH   5   6
ENDBRANCH   3   5
ENDBRANCH   1   3
BRANCH   1  21
ATOM     21  O   UNL A   1      35.198  21.850  25.147  1.00  0.00    -0.462 OA
BRANCH  21  22
ATOM     22  C   UNL A   1      35.732  20.517  25.071  1.00  0.00     0.274 C 
BRANCH  22  23
ATOM     23  C   UNL A   1      37.260  20.549  24.958  1.00  0.00     0.275 C 
BRANCH  23  24
ATOM     24  O   UNL A   1      37.847  21.477  25.894  1.00  0.00    -0.458 OA
BRANCH  24  25
ATOM     25  C   UNL A   1      39.134  21.230  26.228  1.00  0.00     0.338 C 
ATOM     26  O   UNL A   1      39.752  20.190  26.075  1.00  0.00    -0.246 OA
BRANCH  25  27
ATOM     27  C   UNL A   1      39.783  22.466  26.695  1.00  0.00     0.060 A 
ATOM     28  C   UNL A   1      39.369  23.669  26.120  1.00  0.00     0.016 A 
ATOM     29  C   UNL A   1      40.834  22.448  27.613  1.00  0.00     0.016 A 
ATOM     30  C   UNL A   1      39.996  24.863  26.454  1.00  0.00     0.010 A 
ATOM     31  C   UNL A   1      41.470  23.650  27.948  1.00  0.00     0.010 A 
ATOM     32  C   UNL A   1      41.060  24.861  27.363  1.00  0.00    -0.014 A 
BRANCH  32  33
ATOM     33  C   UNL A   1      41.767  26.131  27.645  1.00  0.00     0.031 A 
ATOM     34  C   UNL A   1      41.096  27.191  28.468  1.00  0.00     0.074 A 
ATOM     35  C   UNL A   1      43.028  26.308  27.210  1.00  0.00     0.049 A 
ATOM     36  N   UNL A   1      41.517  28.391  28.774  1.00  0.00    -0.248 NA
ATOM     37  C   UNL A   1      39.775  26.854  29.022  1.00  0.00     0.031 C 
ATOM     38  C   UNL A   1      43.805  25.324  26.456  1.00  0.00     0.029 A 
ATOM     39  N   UNL A   1      43.877  27.375  27.347  1.00  0.00    -0.354 N 
ATOM     40  C   UNL A   1      40.507  28.963  29.535  1.00  0.00     0.074 A 
ATOM     41  C   UNL A   1      39.447  27.981  29.639  1.00  0.00     0.031 C 
ATOM     42  C   UNL A   1      45.021  25.834  26.200  1.00  0.00     0.029 A 
ATOM     43  C   UNL A   1      45.091  27.192  26.730  1.00  0.00     0.049 A 
ATOM     44  H   UNL A   1      43.640  28.194  27.838  1.00  0.00     0.167 HD
ATOM     45  C   UNL A   1      40.467  30.195  30.096  1.00  0.00     0.037 A 
ATOM     46  C   UNL A   1      46.129  28.036  26.589  1.00  0.00     0.037 A 
ATOM     47  C   UNL A   1      41.530  31.160  30.004  1.00  0.00     0.049 A 
ATOM     48  C   UNL A   1      46.040  29.416  27.176  1.00  0.00     0.074 A 
ATOM     49  C   UNL A   1      41.585  32.437  30.537  1.00  0.00     0.029 A 
ATOM     50  N   UNL A   1      42.730  30.953  29.341  1.00  0.00    -0.354 N 
ATOM     51  N   UNL A   1      45.069  29.957  27.869  1.00  0.00    -0.248 NA
ATOM     52  C   UNL A   1      47.189  30.306  26.952  1.00  0.00     0.031 C 
ATOM     53  C   UNL A   1      42.806  33.014  30.167  1.00  0.00     0.029 A 
ATOM     54  C   UNL A   1      43.526  32.082  29.437  1.00  0.00     0.049 A 
ATOM     55  H   UNL A   1      42.979  30.125  28.870  1.00  0.00     0.167 HD
ATOM     56  C   UNL A   1      45.491  31.244  28.176  1.00  0.00     0.074 A 
ATOM     57  C   UNL A   1      46.815  31.396  27.608  1.00  0.00     0.031 C 
ATOM     58  C   UNL A   1      44.841  32.213  28.865  1.00  0.00     0.037 A 
BRANCH  45  59
ATOM     59  C   UNL A   1      39.217  30.577  30.827  1.00  0.00     0.057 A 
ATOM     60  C   UNL A   1      39.059  30.346  32.198  1.00  0.00     0.134 A 
ATOM     61  C   UNL A   1      38.164  31.208  30.150  1.00  0.00     0.134 A 
ATOM     62  F   UNL A   1      40.025  29.731  32.898  1.00  0.00    -0.206 F 
ATOM     63  C   UNL A   1      37.892  30.711  32.869  1.00  0.00     0.040 A 
ATOM     64  C   UNL A   1      37.000  31.595  30.814  1.00  0.00     0.040 A 
ATOM     65  F   UNL A   1      38.253  31.459  28.836  1.00  0.00    -0.206 F 
ATOM     66  C   UNL A   1      36.859  31.344  32.177  1.00  0.00     0.006 A 
ENDBRANCH  45  59
BRANCH  46  67
ATOM     67  C   UNL A   1      47.332  27.607  25.835  1.00  0.00     0.057 A 
ATOM     68  C   UNL A   1      48.456  27.095  26.492  1.00  0.00     0.134 A 
ATOM     69  C   UNL A   1      47.386  27.701  24.438  1.00  0.00     0.134 A 
ATOM     70  F   UNL A   1      48.472  27.004  27.830  1.00  0.00    -0.206 F 
ATOM     71  C   UNL A   1      49.596  26.701  25.788  1.00  0.00     0.040 A 
ATOM     72  C   UNL A   1      48.509  27.289  23.721  1.00  0.00     0.040 A 
ATOM     73  F   UNL A   1      46.340  28.184  23.752  1.00  0.00    -0.206 F 
ATOM     74  C   UNL A   1      49.621  26.791  24.398  1.00  0.00     0.006 A 
ENDBRANCH  46  67
BRANCH  58  75
ATOM     75  C   UNL A   1      45.565  33.510  29.060  1.00  0.00     0.057 A 
ATOM     76  C   UNL A   1      46.376  33.739  30.178  1.00  0.00     0.134 A 
ATOM     77  C   UNL A   1      45.472  34.530  28.105  1.00  0.00     0.134 A 
ATOM     78  F   UNL A   1      46.495  32.805  31.134  1.00  0.00    -0.206 F 
ATOM     79  C   UNL A   1      47.056  34.946  30.348  1.00  0.00     0.040 A 
ATOM     80  C   UNL A   1      46.162  35.733  28.255  1.00  0.00     0.040 A 
ATOM     81  F   UNL A   1      44.716  34.368  27.008  1.00  0.00    -0.206 F 
ATOM     82  C   UNL A   1      46.954  35.945  29.383  1.00  0.00     0.006 A 
ENDBRANCH  58  75
ENDBRANCH  32  33
ENDBRANCH  25  27
ENDBRANCH  24  25
ENDBRANCH  23  24
ENDBRANCH  22  23
ENDBRANCH  21  22
ENDBRANCH   1  21
TORSDOF 17
ENDMDL
MODEL 3
REMARK VINA RESULT:     -10.2      1.089      6.338
REMARK SMILES C[C@H](CN(C)C(=O)CCc1nc2ccccc2o1)C(=O)OCCOC(=O)c1ccc(-c2c3nc(c(-c4c(F)cccc4F)c4ccc([nH]4)c(-c4c(F)cccc4F)c4nc(c(-c5c(F)cccc5F)c5ccc2[nH]5)C=C4)C=C3)cc1
REMARK SMILES IDX 19 1 20 2 2 3 1 4 3 5 4 6 5 7 6 8 7 9 8 10 9 11 10 12 11 13
REMARK SMILES IDX 18 14 12 15 17 16 13 17 16 18 14 19 15 20 21 21 22 22 23 23
REMARK SMILES IDX 24 24 25 25 26 26 27 27 28 28 80 29 29 30 79 31 30 32 31 33
REMARK SMILES IDX 32 34 73 35 33 36 78 37 72 38 74 39 34 40 77 41 71 42 70 43
REMARK SMILES IDX 35 45 61 46 44 47 60 48 45 49 48 50 59 51 75 52 46 53 47 54
REMARK SMILES IDX 58 56 76 57 49 58 36 59 37 60 42 61 38 62 39 63 41 64 43 65
REMARK SMILES IDX 40 66 62 67 63 68 68 69 64 70 65 71 67 72 69 73 66 74 50 75
REMARK SMILES IDX 51 76 56 77 52 78 53 79 55 80 57 81 54 82
REMARK H PARENT 74 44 48 55
REMARK Flexibility Score: inf
ROOT
ATOM      1  C   UNL A   1      36.589  22.548  24.143  1.00  0.00     0.310 C 
ATOM      2  O   UNL A   1      36.809  22.883  22.983  1.00  0.00    -0.252 OA
ENDROOT
BRANCH   1   3
ATOM      3  C   UNL A   1      35.811  23.423  25.112  1.00  0.00     0.115 C 
ATOM      4  C   UNL A   1      35.264  22.566  26.245  1.00  0.00     0.022 C 
BRANCH   3   5
ATOM      5  C   UNL A   1      34.863  24.413  24.397  1.00  0.00     0.134 C 
BRANCH   5   6
ATOM      6  N   UNL A   1      33.466  24.007  24.248  1.00  0.00    -0.345 N 
ATOM      7  C   UNL A   1      32.517  24.704  25.103  1.00  0.00     0.146 C 
BRANCH   6   8
ATOM      8  C   UNL A   1      33.143  23.202  23.167  1.00  0.00     0.222 C 
ATOM      9  O   UNL A   1      33.656  23.377  22.057  1.00  0.00    -0.275 OA
BRANCH   8  10
ATOM     10  C   UNL A   1      32.200  22.030  23.347  1.00  0.00     0.110 C 
BRANCH  10  11
ATOM     11  C   UNL A   1      32.384  21.367  24.713  1.00  0.00     0.107 C 
BRANCH  11  12
ATOM     12  C   UNL A   1      32.897  19.976  24.608  1.00  0.00     0.195 A 
ATOM     13  N   UNL A   1      34.124  19.565  24.353  1.00  0.00    -0.214 NA
ATOM     14  O   UNL A   1      32.010  18.978  24.917  1.00  0.00    -0.441 OA
ATOM     15  C   UNL A   1      34.076  18.220  24.617  1.00  0.00     0.109 A 
ATOM     16  C   UNL A   1      32.786  17.858  24.966  1.00  0.00     0.154 A 
ATOM     17  C   UNL A   1      35.081  17.246  24.639  1.00  0.00     0.032 A 
ATOM     18  C   UNL A   1      32.396  16.587  25.366  1.00  0.00     0.049 A 
ATOM     19  C   UNL A   1      34.735  15.951  25.057  1.00  0.00     0.003 A 
ATOM     20  C   UNL A   1      33.418  15.633  25.419  1.00  0.00     0.004 A 
ENDBRANCH  11  12
ENDBRANCH  10  11
ENDBRANCH   8  10
ENDBRANCH   6   8
ENDBRANCH   5   6
ENDBRANCH   3   5
ENDBRANCH   1   3
BRANCH   1  21
ATOM     21  O   UNL A   1      36.983  21.372  24.687  1.00  0.00    -0.462 OA
BRANCH  21  22
ATOM     22  C   UNL A   1      38.282  21.324  25.301  1.00  0.00     0.274 C 
BRANCH  22  23
ATOM     23  C   UNL A   1      38.912  19.937  25.136  1.00  0.00     0.275 C 
BRANCH  23  24
ATOM     24  O   UNL A   1      39.781  19.608  26.239  1.00  0.00    -0.458 OA
BRANCH  24  25
ATOM     25  C   UNL A   1      41.105  19.757  26.000  1.00  0.00     0.338 C 
ATOM     26  O   UNL A   1      41.825  19.024  25.344  1.00  0.00    -0.246 OA
BRANCH  25  27
ATOM     27  C   UNL A   1      41.574  21.047  26.532  1.00  0.00     0.060 A 
ATOM     28  C   UNL A   1      41.337  21.314  27.882  1.00  0.00     0.016 A 
ATOM     29  C   UNL A   1      42.161  22.014  25.715  1.00  0.00     0.016 A 
ATOM     30  C   UNL A   1      41.680  22.544  28.429  1.00  0.00     0.010 A 
ATOM     31  C   UNL A   1      42.504  23.256  26.263  1.00  0.00     0.010 A 
ATOM     32  C   UNL A   1      42.256  23.529  27.620  1.00  0.00    -0.014 A 
BRANCH  32  33
ATOM     33  C   UNL A   1      42.541  24.861  28.201  1.00  0.00     0.031 A 
ATOM     34  C   UNL A   1      43.941  25.211  28.611  1.00  0.00     0.074 A 
ATOM     35  C   UNL A   1      41.556  25.771  28.310  1.00  0.00     0.049 A 
ATOM     36  N   UNL A   1      44.387  26.294  29.194  1.00  0.00    -0.248 NA
ATOM     37  C   UNL A   1      44.980  24.209  28.324  1.00  0.00     0.031 C 
ATOM     38  C   UNL A   1      40.170  25.567  27.887  1.00  0.00     0.029 A 
ATOM     39  N   UNL A   1      41.573  27.049  28.802  1.00  0.00    -0.354 N 
ATOM     40  C   UNL A   1      45.750  26.098  29.365  1.00  0.00     0.074 A 
ATOM     41  C   UNL A   1      46.059  24.787  28.832  1.00  0.00     0.031 C 
ATOM     42  C   UNL A   1      39.470  26.686  28.135  1.00  0.00     0.029 A 
ATOM     43  C   UNL A   1      40.345  27.664  28.774  1.00  0.00     0.049 A 
ATOM     44  H   UNL A   1      42.387  27.485  29.144  1.00  0.00     0.167 HD
ATOM     45  C   UNL A   1      46.660  26.934  29.918  1.00  0.00     0.037 A 
ATOM     46  C   UNL A   1      39.966  28.870  29.236  1.00  0.00     0.037 A 
ATOM     47  C   UNL A   1      46.350  28.242  30.432  1.00  0.00     0.049 A 
ATOM     48  C   UNL A   1      40.984  29.759  29.892  1.00  0.00     0.074 A 
ATOM     49  C   UNL A   1      47.202  29.166  31.013  1.00  0.00     0.029 A 
ATOM     50  N   UNL A   1      45.088  28.817  30.419  1.00  0.00    -0.354 N 
ATOM     51  N   UNL A   1      42.265  29.552  30.076  1.00  0.00    -0.248 NA
ATOM     52  C   UNL A   1      40.501  31.045  30.414  1.00  0.00     0.031 C 
ATOM     53  C   UNL A   1      46.448  30.286  31.382  1.00  0.00     0.029 A 
ATOM     54  C   UNL A   1      45.135  30.075  30.996  1.00  0.00     0.049 A 
ATOM     55  H   UNL A   1      44.278  28.392  30.055  1.00  0.00     0.167 HD
ATOM     56  C   UNL A   1      42.745  30.683  30.721  1.00  0.00     0.074 A 
ATOM     57  C   UNL A   1      41.620  31.582  30.881  1.00  0.00     0.031 C 
ATOM     58  C   UNL A   1      44.003  30.954  31.144  1.00  0.00     0.037 A 
BRANCH  45  59
ATOM     59  C   UNL A   1      48.070  26.440  30.028  1.00  0.00     0.057 A 
ATOM     60  C   UNL A   1      48.515  25.707  31.135  1.00  0.00     0.134 A 
ATOM     61  C   UNL A   1      48.989  26.683  28.999  1.00  0.00     0.134 A 
ATOM     62  F   UNL A   1      47.687  25.457  32.161  1.00  0.00    -0.206 F 
ATOM     63  C   UNL A   1      49.829  25.248  31.223  1.00  0.00     0.040 A 
ATOM     64  C   UNL A   1      50.300  26.213  29.067  1.00  0.00     0.040 A 
ATOM     65  F   UNL A   1      48.625  27.378  27.911  1.00  0.00    -0.206 F 
ATOM     66  C   UNL A   1      50.726  25.496  30.184  1.00  0.00     0.006 A 
ENDBRANCH  45  59
BRANCH  46  67
ATOM     67  C   UNL A   1      38.550  29.294  29.118  1.00  0.00     0.057 A 
ATOM     68  C   UNL A   1      37.683  29.239  30.215  1.00  0.00     0.134 A 
ATOM     69  C   UNL A   1      38.030  29.762  27.905  1.00  0.00     0.134 A 
ATOM     70  F   UNL A   1      38.118  28.776  31.396  1.00  0.00    -0.206 F 
ATOM     71  C   UNL A   1      36.345  29.625  30.108  1.00  0.00     0.040 A 
ATOM     72  C   UNL A   1      36.702  30.173  27.790  1.00  0.00     0.040 A 
ATOM     73  F   UNL A   1      38.811  29.836  26.817  1.00  0.00    -0.206 F 
ATOM     74  C   UNL A   1      35.854  30.100  28.893  1.00  0.00     0.006 A 
ENDBRANCH  46  67
BRANCH  58  75
ATOM     75  C   UNL A   1      44.229  32.283  31.798  1.00  0.00     0.057 A 
ATOM     76  C   UNL A   1      44.551  33.424  31.053  1.00  0.00     0.134 A 
ATOM     77  C   UNL A   1      44.095  32.429  33.184  1.00  0.00     0.134 A 
ATOM     78  F   UNL A   1      44.706  33.345  29.722  1.00  0.00    -0.206 F 
ATOM     79  C   UNL A   1      44.750  34.661  31.666  1.00  0.00     0.040 A 
ATOM     80  C   UNL A   1      44.273  33.665  33.806  1.00  0.00     0.040 A 
ATOM     81  F   UNL A   1      43.782  31.374  33.952  1.00  0.00    -0.206 F 
ATOM     82  C   UNL A   1      44.606  34.785  33.047  1.00  0.00     0.006 A 
ENDBRANCH  58  75
ENDBRANCH  32  33
ENDBRANCH  25  27
ENDBRANCH  24  25
ENDBRANCH  23  24
ENDBRANCH  22  23
ENDBRANCH  21  22
ENDBRANCH   1  21
TORSDOF 17
ENDMDL
