MODEL 1
REMARK VINA RESULT:      -9.0      0.000      0.000
REMARK SMILES C[C@H](Cc1ccc(N)cc1)C(=O)OCCOC(=O)c1ccc(-c2c3nc(c(-c4c(F)cccc4F)c4ccc([nH]4)c(-c4c(F)cccc4F)c4nc(c(-c5c(F)cccc5F)c5ccc2[nH]5)C=C4)C=C3)cc1
REMARK SMILES IDX 14 1 13 2 11 3 12 4 2 5 1 6 3 7 4 8 5 9 10 10 6 11 9 12 7 13
REMARK SMILES IDX 8 14 15 17 16 18 17 19 18 20 19 21 20 22 72 23 21 24 71 25
REMARK SMILES IDX 22 26 23 27 24 28 65 29 25 30 70 31 64 32 66 33 26 34 69 35
REMARK SMILES IDX 63 36 62 37 27 39 53 40 36 41 52 42 37 43 40 44 51 45 67 46
REMARK SMILES IDX 38 47 39 48 50 50 68 51 41 52 28 53 29 54 34 55 30 56 31 57
REMARK SMILES IDX 33 58 35 59 32 60 54 61 55 62 60 63 56 64 57 65 59 66 61 67
REMARK SMILES IDX 58 68 42 69 43 70 48 71 44 72 45 73 47 74 49 75 46 76
REMARK H PARENT 8 15 8 16 66 38 40 49
REMARK Flexibility Score: inf
ROOT
ATOM      1  C   UNL A   1      41.916  19.570  25.978  1.00  0.00     0.274 C 
ENDROOT
BRANCH   1   2
ATOM      2  O   UNL A   1      42.770  20.596  26.520  1.00  0.00    -0.462 OA
BRANCH   2   3
ATOM      3  C   UNL A   1      43.584  21.237  25.649  1.00  0.00     0.309 C 
ATOM      4  O   UNL A   1      44.000  20.750  24.601  1.00  0.00    -0.252 OA
BRANCH   3   5
ATOM      5  C   UNL A   1      43.902  22.673  26.047  1.00  0.00     0.100 C 
ATOM      6  C   UNL A   1      43.311  23.637  25.022  1.00  0.00     0.020 C 
BRANCH   5   7
ATOM      7  C   UNL A   1      45.349  22.974  26.469  1.00  0.00     0.050 C 
BRANCH   7   8
ATOM      8  C   UNL A   1      45.621  23.715  27.755  1.00  0.00    -0.047 A 
ATOM      9  C   UNL A   1      46.747  24.523  27.937  1.00  0.00     0.006 A 
ATOM     10  C   UNL A   1      44.671  23.666  28.785  1.00  0.00     0.006 A 
ATOM     11  C   UNL A   1      46.931  25.235  29.128  1.00  0.00     0.026 A 
ATOM     12  C   UNL A   1      44.850  24.394  29.965  1.00  0.00     0.026 A 
ATOM     13  C   UNL A   1      45.971  25.205  30.138  1.00  0.00     0.031 A 
BRANCH  13  14
ATOM     14  N   UNL A   1      46.182  25.875  31.331  1.00  0.00    -0.399 N 
ATOM     15  H   UNL A   1      46.713  26.704  31.343  1.00  0.00     0.156 HD
ATOM     16  H   UNL A   1      45.802  25.522  32.168  1.00  0.00     0.156 HD
ENDBRANCH  13  14
ENDBRANCH   7   8
ENDBRANCH   5   7
ENDBRANCH   3   5
ENDBRANCH   2   3
ENDBRANCH   1   2
BRANCH   1  17
ATOM     17  C   UNL A   1      40.448  19.853  26.298  1.00  0.00     0.275 C 
BRANCH  17  18
ATOM     18  O   UNL A   1      40.302  21.070  27.053  1.00  0.00    -0.458 OA
BRANCH  18  19
ATOM     19  C   UNL A   1      39.545  22.020  26.460  1.00  0.00     0.338 C 
ATOM     20  O   UNL A   1      38.650  21.864  25.645  1.00  0.00    -0.246 OA
BRANCH  19  21
ATOM     21  C   UNL A   1      39.861  23.331  27.041  1.00  0.00     0.060 A 
ATOM     22  C   UNL A   1      39.240  24.449  26.487  1.00  0.00     0.016 A 
ATOM     23  C   UNL A   1      40.832  23.477  28.030  1.00  0.00     0.016 A 
ATOM     24  C   UNL A   1      39.604  25.727  26.892  1.00  0.00     0.010 A 
ATOM     25  C   UNL A   1      41.183  24.763  28.457  1.00  0.00     0.010 A 
ATOM     26  C   UNL A   1      40.584  25.896  27.877  1.00  0.00    -0.014 A 
BRANCH  26  27
ATOM     27  C   UNL A   1      40.999  27.267  28.254  1.00  0.00     0.031 A 
ATOM     28  C   UNL A   1      42.429  27.691  28.088  1.00  0.00     0.074 A 
ATOM     29  C   UNL A   1      40.080  28.146  28.694  1.00  0.00     0.049 A 
ATOM     30  N   UNL A   1      43.001  28.819  28.429  1.00  0.00    -0.248 NA
ATOM     31  C   UNL A   1      43.335  26.723  27.452  1.00  0.00     0.031 C 
ATOM     32  C   UNL A   1      38.651  27.871  28.844  1.00  0.00     0.029 A 
ATOM     33  N   UNL A   1      40.211  29.455  29.085  1.00  0.00    -0.354 N 
ATOM     34  C   UNL A   1      44.339  28.683  28.080  1.00  0.00     0.074 A 
ATOM     35  C   UNL A   1      44.495  27.366  27.500  1.00  0.00     0.031 C 
ATOM     36  C   UNL A   1      38.035  28.981  29.279  1.00  0.00     0.029 A 
ATOM     37  C   UNL A   1      39.030  30.028  29.487  1.00  0.00     0.049 A 
ATOM     38  H   UNL A   1      41.070  29.936  29.078  1.00  0.00     0.167 HD
ATOM     39  C   UNL A   1      45.343  29.579  28.229  1.00  0.00     0.037 A 
ATOM     40  C   UNL A   1      38.784  31.250  29.991  1.00  0.00     0.037 A 
ATOM     41  C   UNL A   1      45.181  30.900  28.776  1.00  0.00     0.049 A 
ATOM     42  C   UNL A   1      39.922  32.211  30.180  1.00  0.00     0.074 A 
ATOM     43  C   UNL A   1      46.140  31.878  28.971  1.00  0.00     0.029 A 
ATOM     44  N   UNL A   1      43.974  31.430  29.206  1.00  0.00    -0.354 N 
ATOM     45  N   UNL A   1      41.190  32.056  29.888  1.00  0.00    -0.248 NA
ATOM     46  C   UNL A   1      39.597  33.511  30.783  1.00  0.00     0.031 C 
ATOM     47  C   UNL A   1      45.517  32.995  29.542  1.00  0.00     0.029 A 
ATOM     48  C   UNL A   1      44.166  32.719  29.674  1.00  0.00     0.049 A 
ATOM     49  H   UNL A   1      43.110  30.961  29.181  1.00  0.00     0.167 HD
ATOM     50  C   UNL A   1      41.813  33.236  30.267  1.00  0.00     0.074 A 
ATOM     51  C   UNL A   1      40.781  34.107  30.791  1.00  0.00     0.031 C 
ATOM     52  C   UNL A   1      43.125  33.568  30.194  1.00  0.00     0.037 A 
BRANCH  39  53
ATOM     53  C   UNL A   1      46.717  29.145  27.821  1.00  0.00     0.057 A 
ATOM     54  C   UNL A   1      47.140  29.188  26.488  1.00  0.00     0.134 A 
ATOM     55  C   UNL A   1      47.636  28.704  28.781  1.00  0.00     0.134 A 
ATOM     56  F   UNL A   1      46.300  29.584  25.520  1.00  0.00    -0.206 F 
ATOM     57  C   UNL A   1      48.429  28.795  26.121  1.00  0.00     0.040 A 
ATOM     58  C   UNL A   1      48.932  28.325  28.429  1.00  0.00     0.040 A 
ATOM     59  F   UNL A   1      47.291  28.641  30.075  1.00  0.00    -0.206 F 
ATOM     60  C   UNL A   1      49.331  28.367  27.094  1.00  0.00     0.006 A 
ENDBRANCH  39  53
BRANCH  40  61
ATOM     61  C   UNL A   1      37.403  31.622  30.381  1.00  0.00     0.057 A 
ATOM     62  C   UNL A   1      36.935  31.406  31.681  1.00  0.00     0.134 A 
ATOM     63  C   UNL A   1      36.520  32.202  29.462  1.00  0.00     0.134 A 
ATOM     64  F   UNL A   1      37.728  30.833  32.597  1.00  0.00    -0.206 F 
ATOM     65  C   UNL A   1      35.634  31.750  32.054  1.00  0.00     0.040 A 
ATOM     66  C   UNL A   1      35.225  32.570  29.827  1.00  0.00     0.040 A 
ATOM     67  F   UNL A   1      36.912  32.433  28.200  1.00  0.00    -0.206 F 
ATOM     68  C   UNL A   1      34.778  32.339  31.125  1.00  0.00     0.006 A 
ENDBRANCH  40  61
BRANCH  52  69
ATOM     69  C   UNL A   1      43.508  34.929  30.684  1.00  0.00     0.057 A 
ATOM     70  C   UNL A   1      43.926  35.141  32.002  1.00  0.00     0.134 A 
ATOM     71  C   UNL A   1      43.480  36.033  29.823  1.00  0.00     0.134 A 
ATOM     72  F   UNL A   1      43.959  34.124  32.877  1.00  0.00    -0.206 F 
ATOM     73  C   UNL A   1      44.291  36.410  32.454  1.00  0.00     0.040 A 
ATOM     74  C   UNL A   1      43.858  37.304  30.259  1.00  0.00     0.040 A 
ATOM     75  F   UNL A   1      43.092  35.893  28.548  1.00  0.00    -0.206 F 
ATOM     76  C   UNL A   1      44.261  37.495  31.580  1.00  0.00     0.006 A 
ENDBRANCH  52  69
ENDBRANCH  26  27
ENDBRANCH  19  21
ENDBRANCH  18  19
ENDBRANCH  17  18
ENDBRANCH   1  17
TORSDOF 14
ENDMDL
MODEL 2
REMARK VINA RESULT:      -8.9      4.322     10.042
REMARK SMILES C[C@H](Cc1ccc(N)cc1)C(=O)OCCOC(=O)c1ccc(-c2c3nc(c(-c4c(F)cccc4F)c4ccc([nH]4)c(-c4c(F)cccc4F)c4nc(c(-c5c(F)cccc5F)c5ccc2[nH]5)C=C4)C=C3)cc1
REMARK SMILES IDX 14 1 13 2 11 3 12 4 2 5 1 6 3 7 4 8 5 9 10 10 6 11 9 12 7 13
REMARK SMILES IDX 8 14 15 17 16 18 17 19 18 20 19 21 20 22 72 23 21 24 71 25
REMARK SMILES IDX 22 26 23 27 24 28 65 29 25 30 70 31 64 32 66 33 26 34 69 35
REMARK SMILES IDX 63 36 62 37 27 39 53 40 36 41 52 42 37 43 40 44 51 45 67 46
REMARK SMILES IDX 38 47 39 48 50 50 68 51 41 52 28 53 29 54 34 55 30 56 31 57
REMARK SMILES IDX 33 58 35 59 32 60 54 61 55 62 60 63 56 64 57 65 59 66 61 67
REMARK SMILES IDX 58 68 42 69 43 70 48 71 44 72 45 73 47 74 49 75 46 76
REMARK H PARENT 8 15 8 16 66 38 40 49
REMARK Flexibility Score: inf
ROOT
ATOM      1  C   UNL A   1      34.432  34.135  30.138  1.00  0.00     0.274 C 
ENDROOT
BRANCH   1   2
ATOM      2  O   UNL A   1      33.711  33.136  29.391  1.00  0.00    -0.462 OA
BRANCH   2   3
ATOM      3  C   UNL A   1      34.310  32.657  28.275  1.00  0.00     0.309 C 
ATOM      4  O   UNL A   1      35.160  33.264  27.630  1.00  0.00    -0.252 OA
BRANCH   3   5
ATOM      5  C   UNL A   1      33.882  31.242  27.907  1.00  0.00     0.100 C 
ATOM      6  C   UNL A   1      35.100  30.428  27.482  1.00  0.00     0.020 C 
BRANCH   5   7
ATOM      7  C   UNL A   1      32.651  31.102  26.996  1.00  0.00     0.050 C 
BRANCH   7   8
ATOM      8  C   UNL A   1      32.252  29.744  26.472  1.00  0.00    -0.047 A 
ATOM      9  C   UNL A   1      32.425  29.370  25.137  1.00  0.00     0.006 A 
ATOM     10  C   UNL A   1      31.765  28.783  27.369  1.00  0.00     0.006 A 
ATOM     11  C   UNL A   1      32.090  28.081  24.706  1.00  0.00     0.026 A 
ATOM     12  C   UNL A   1      31.449  27.491  26.938  1.00  0.00     0.026 A 
ATOM     13  C   UNL A   1      31.632  27.120  25.606  1.00  0.00     0.031 A 
BRANCH  13  14
ATOM     14  N   UNL A   1      31.258  25.862  25.165  1.00  0.00    -0.399 N 
ATOM     15  H   UNL A   1      31.917  25.283  24.716  1.00  0.00     0.156 HD
ATOM     16  H   UNL A   1      30.336  25.546  25.300  1.00  0.00     0.156 HD
ENDBRANCH  13  14
ENDBRANCH   7   8
ENDBRANCH   5   7
ENDBRANCH   3   5
ENDBRANCH   2   3
ENDBRANCH   1   2
BRANCH   1  17
ATOM     17  C   UNL A   1      34.507  33.763  31.620  1.00  0.00     0.275 C 
BRANCH  17  18
ATOM     18  O   UNL A   1      34.834  32.372  31.794  1.00  0.00    -0.458 OA
BRANCH  18  19
ATOM     19  C   UNL A   1      35.884  32.132  32.611  1.00  0.00     0.338 C 
ATOM     20  O   UNL A   1      35.947  32.298  33.819  1.00  0.00    -0.246 OA
BRANCH  19  21
ATOM     21  C   UNL A   1      36.963  31.493  31.847  1.00  0.00     0.060 A 
ATOM     22  C   UNL A   1      37.953  30.824  32.563  1.00  0.00     0.016 A 
ATOM     23  C   UNL A   1      37.067  31.643  30.465  1.00  0.00     0.016 A 
ATOM     24  C   UNL A   1      39.074  30.325  31.913  1.00  0.00     0.010 A 
ATOM     25  C   UNL A   1      38.184  31.119  29.804  1.00  0.00     0.010 A 
ATOM     26  C   UNL A   1      39.203  30.474  30.527  1.00  0.00    -0.014 A 
BRANCH  26  27
ATOM     27  C   UNL A   1      40.433  29.986  29.860  1.00  0.00     0.031 A 
ATOM     28  C   UNL A   1      41.617  30.895  29.709  1.00  0.00     0.074 A 
ATOM     29  C   UNL A   1      40.502  28.709  29.440  1.00  0.00     0.049 A 
ATOM     30  N   UNL A   1      42.751  30.679  29.091  1.00  0.00    -0.248 NA
ATOM     31  C   UNL A   1      41.515  32.221  30.336  1.00  0.00     0.031 C 
ATOM     32  C   UNL A   1      39.440  27.713  29.582  1.00  0.00     0.029 A 
ATOM     33  N   UNL A   1      41.518  28.028  28.817  1.00  0.00    -0.354 N 
ATOM     34  C   UNL A   1      43.484  31.850  29.228  1.00  0.00     0.074 A 
ATOM     35  C   UNL A   1      42.669  32.775  29.985  1.00  0.00     0.031 C 
ATOM     36  C   UNL A   1      39.865  26.545  29.076  1.00  0.00     0.029 A 
ATOM     37  C   UNL A   1      41.207  26.722  28.530  1.00  0.00     0.049 A 
ATOM     38  H   UNL A   1      42.386  28.437  28.598  1.00  0.00     0.167 HD
ATOM     39  C   UNL A   1      44.725  32.126  28.762  1.00  0.00     0.037 A 
ATOM     40  C   UNL A   1      41.914  25.783  27.876  1.00  0.00     0.037 A 
ATOM     41  C   UNL A   1      45.548  31.195  28.036  1.00  0.00     0.049 A 
ATOM     42  C   UNL A   1      43.273  26.127  27.339  1.00  0.00     0.074 A 
ATOM     43  C   UNL A   1      46.818  31.384  27.520  1.00  0.00     0.029 A 
ATOM     44  N   UNL A   1      45.182  29.893  27.733  1.00  0.00    -0.354 N 
ATOM     45  N   UNL A   1      43.938  27.252  27.435  1.00  0.00    -0.248 NA
ATOM     46  C   UNL A   1      43.974  25.075  26.589  1.00  0.00     0.031 C 
ATOM     47  C   UNL A   1      47.212  30.201  26.883  1.00  0.00     0.029 A 
ATOM     48  C   UNL A   1      46.198  29.269  27.028  1.00  0.00     0.049 A 
ATOM     49  H   UNL A   1      44.327  29.474  27.982  1.00  0.00     0.167 HD
ATOM     50  C   UNL A   1      45.134  27.045  26.763  1.00  0.00     0.074 A 
ATOM     51  C   UNL A   1      45.113  25.678  26.281  1.00  0.00     0.031 C 
ATOM     52  C   UNL A   1      46.156  27.910  26.556  1.00  0.00     0.037 A 
BRANCH  39  53
ATOM     53  C   UNL A   1      45.257  33.506  29.000  1.00  0.00     0.057 A 
ATOM     54  C   UNL A   1      45.005  34.559  28.113  1.00  0.00     0.134 A 
ATOM     55  C   UNL A   1      46.007  33.788  30.149  1.00  0.00     0.134 A 
ATOM     56  F   UNL A   1      44.306  34.348  26.988  1.00  0.00    -0.206 F 
ATOM     57  C   UNL A   1      45.492  35.845  28.355  1.00  0.00     0.040 A 
ATOM     58  C   UNL A   1      46.486  35.073  30.409  1.00  0.00     0.040 A 
ATOM     59  F   UNL A   1      46.281  32.822  31.037  1.00  0.00    -0.206 F 
ATOM     60  C   UNL A   1      46.231  36.106  29.508  1.00  0.00     0.006 A 
ENDBRANCH  39  53
BRANCH  40  61
ATOM     61  C   UNL A   1      41.334  24.435  27.668  1.00  0.00     0.057 A 
ATOM     62  C   UNL A   1      40.346  24.214  26.703  1.00  0.00     0.134 A 
ATOM     63  C   UNL A   1      41.754  23.338  28.428  1.00  0.00     0.134 A 
ATOM     64  F   UNL A   1      39.887  25.232  25.961  1.00  0.00    -0.206 F 
ATOM     65  C   UNL A   1      39.791  22.948  26.505  1.00  0.00     0.040 A 
ATOM     66  C   UNL A   1      41.225  22.064  28.226  1.00  0.00     0.040 A 
ATOM     67  F   UNL A   1      42.699  23.489  29.370  1.00  0.00    -0.206 F 
ATOM     68  C   UNL A   1      40.236  21.868  27.265  1.00  0.00     0.006 A 
ENDBRANCH  40  61
BRANCH  52  69
ATOM     69  C   UNL A   1      47.333  27.397  25.787  1.00  0.00     0.057 A 
ATOM     70  C   UNL A   1      48.399  26.753  26.427  1.00  0.00     0.134 A 
ATOM     71  C   UNL A   1      47.391  27.527  24.395  1.00  0.00     0.134 A 
ATOM     72  F   UNL A   1      48.406  26.612  27.761  1.00  0.00    -0.206 F 
ATOM     73  C   UNL A   1      49.491  26.268  25.707  1.00  0.00     0.040 A 
ATOM     74  C   UNL A   1      48.470  27.031  23.663  1.00  0.00     0.040 A 
ATOM     75  F   UNL A   1      46.398  28.130  23.726  1.00  0.00    -0.206 F 
ATOM     76  C   UNL A   1      49.527  26.403  24.320  1.00  0.00     0.006 A 
ENDBRANCH  52  69
ENDBRANCH  26  27
ENDBRANCH  19  21
ENDBRANCH  18  19
ENDBRANCH  17  18
ENDBRANCH   1  17
TORSDOF 14
ENDMDL
MODEL 3
REMARK VINA RESULT:      -8.8      5.348      9.348
REMARK SMILES C[C@H](Cc1ccc(N)cc1)C(=O)OCCOC(=O)c1ccc(-c2c3nc(c(-c4c(F)cccc4F)c4ccc([nH]4)c(-c4c(F)cccc4F)c4nc(c(-c5c(F)cccc5F)c5ccc2[nH]5)C=C4)C=C3)cc1
REMARK SMILES IDX 14 1 13 2 11 3 12 4 2 5 1 6 3 7 4 8 5 9 10 10 6 11 9 12 7 13
REMARK SMILES IDX 8 14 15 17 16 18 17 19 18 20 19 21 20 22 72 23 21 24 71 25
REMARK SMILES IDX 22 26 23 27 24 28 65 29 25 30 70 31 64 32 66 33 26 34 69 35
REMARK SMILES IDX 63 36 62 37 27 39 53 40 36 41 52 42 37 43 40 44 51 45 67 46
REMARK SMILES IDX 38 47 39 48 50 50 68 51 41 52 28 53 29 54 34 55 30 56 31 57
REMARK SMILES IDX 33 58 35 59 32 60 54 61 55 62 60 63 56 64 57 65 59 66 61 67
REMARK SMILES IDX 58 68 42 69 43 70 48 71 44 72 45 73 47 74 49 75 46 76
REMARK H PARENT 8 15 8 16 66 38 40 49
REMARK Flexibility Score: inf
ROOT
ATOM      1  C   UNL A   1      31.417  31.269  26.146  1.00  0.00     0.274 C 
ENDROOT
BRANCH   1   2
ATOM      2  O   UNL A   1      32.614  30.529  26.457  1.00  0.00    -0.462 OA
BRANCH   2   3
ATOM      3  C   UNL A   1      32.449  29.317  27.039  1.00  0.00     0.309 C 
ATOM      4  O   UNL A   1      31.417  28.950  27.594  1.00  0.00    -0.252 OA
BRANCH   3   5
ATOM      5  C   UNL A   1      33.653  28.396  26.892  1.00  0.00     0.100 C 
ATOM      6  C   UNL A   1      34.938  29.183  27.130  1.00  0.00     0.020 C 
BRANCH   5   7
ATOM      7  C   UNL A   1      33.673  27.466  25.668  1.00  0.00     0.050 C 
BRANCH   7   8
ATOM      8  C   UNL A   1      33.284  26.015  25.817  1.00  0.00    -0.047 A 
ATOM      9  C   UNL A   1      34.151  24.966  25.504  1.00  0.00     0.006 A 
ATOM     10  C   UNL A   1      32.036  25.697  26.370  1.00  0.00     0.006 A 
ATOM     11  C   UNL A   1      33.768  23.635  25.708  1.00  0.00     0.026 A 
ATOM     12  C   UNL A   1      31.664  24.367  26.590  1.00  0.00     0.026 A 
ATOM     13  C   UNL A   1      32.537  23.324  26.283  1.00  0.00     0.031 A 
BRANCH  13  14
ATOM     14  N   UNL A   1      32.145  22.005  26.440  1.00  0.00    -0.399 N 
ATOM     15  H   UNL A   1      32.824  21.297  26.525  1.00  0.00     0.156 HD
ATOM     16  H   UNL A   1      31.188  21.775  26.465  1.00  0.00     0.156 HD
ENDBRANCH  13  14
ENDBRANCH   7   8
ENDBRANCH   5   7
ENDBRANCH   3   5
ENDBRANCH   2   3
ENDBRANCH   1   2
BRANCH   1  17
ATOM     17  C   UNL A   1      31.405  32.618  26.866  1.00  0.00     0.275 C 
BRANCH  17  18
ATOM     18  O   UNL A   1      32.687  33.269  26.778  1.00  0.00    -0.458 OA
BRANCH  18  19
ATOM     19  C   UNL A   1      33.095  33.877  27.914  1.00  0.00     0.338 C 
ATOM     20  O   UNL A   1      32.530  34.764  28.535  1.00  0.00    -0.246 OA
BRANCH  19  21
ATOM     21  C   UNL A   1      34.309  33.219  28.413  1.00  0.00     0.060 A 
ATOM     22  C   UNL A   1      34.148  32.104  29.235  1.00  0.00     0.016 A 
ATOM     23  C   UNL A   1      35.576  33.750  28.177  1.00  0.00     0.016 A 
ATOM     24  C   UNL A   1      35.248  31.526  29.855  1.00  0.00     0.010 A 
ATOM     25  C   UNL A   1      36.689  33.153  28.783  1.00  0.00     0.010 A 
ATOM     26  C   UNL A   1      36.528  32.049  29.640  1.00  0.00    -0.014 A 
BRANCH  26  27
ATOM     27  C   UNL A   1      37.681  31.454  30.355  1.00  0.00     0.031 A 
ATOM     28  C   UNL A   1      38.586  30.486  29.650  1.00  0.00     0.074 A 
ATOM     29  C   UNL A   1      37.946  31.828  31.621  1.00  0.00     0.049 A 
ATOM     30  N   UNL A   1      39.598  29.805  30.125  1.00  0.00    -0.248 NA
ATOM     31  C   UNL A   1      38.320  30.256  28.222  1.00  0.00     0.031 C 
ATOM     32  C   UNL A   1      37.175  32.803  32.394  1.00  0.00     0.029 A 
ATOM     33  N   UNL A   1      38.945  31.437  32.477  1.00  0.00    -0.354 N 
ATOM     34  C   UNL A   1      40.069  29.041  29.066  1.00  0.00     0.074 A 
ATOM     35  C   UNL A   1      39.234  29.341  27.922  1.00  0.00     0.031 C 
ATOM     36  C   UNL A   1      37.739  32.946  33.603  1.00  0.00     0.029 A 
ATOM     37  C   UNL A   1      38.877  32.039  33.709  1.00  0.00     0.049 A 
ATOM     38  H   UNL A   1      39.643  30.789  32.230  1.00  0.00     0.167 HD
ATOM     39  C   UNL A   1      41.105  28.170  29.051  1.00  0.00     0.037 A 
ATOM     40  C   UNL A   1      39.632  31.859  34.808  1.00  0.00     0.037 A 
ATOM     41  C   UNL A   1      41.954  27.895  30.180  1.00  0.00     0.049 A 
ATOM     42  C   UNL A   1      40.752  30.859  34.775  1.00  0.00     0.074 A 
ATOM     43  C   UNL A   1      43.027  27.026  30.263  1.00  0.00     0.029 A 
ATOM     44  N   UNL A   1      41.830  28.498  31.422  1.00  0.00    -0.354 N 
ATOM     45  N   UNL A   1      41.160  30.110  33.780  1.00  0.00    -0.248 NA
ATOM     46  C   UNL A   1      41.506  30.670  36.022  1.00  0.00     0.031 C 
ATOM     47  C   UNL A   1      43.539  27.085  31.564  1.00  0.00     0.029 A 
ATOM     48  C   UNL A   1      42.802  28.012  32.281  1.00  0.00     0.049 A 
ATOM     49  H   UNL A   1      41.153  29.172  31.658  1.00  0.00     0.167 HD
ATOM     50  C   UNL A   1      42.219  29.363  34.277  1.00  0.00     0.074 A 
ATOM     51  C   UNL A   1      42.404  29.765  35.657  1.00  0.00     0.031 C 
ATOM     52  C   UNL A   1      42.967  28.424  33.651  1.00  0.00     0.037 A 
BRANCH  39  53
ATOM     53  C   UNL A   1      41.357  27.426  27.776  1.00  0.00     0.057 A 
ATOM     54  C   UNL A   1      42.170  27.947  26.763  1.00  0.00     0.134 A 
ATOM     55  C   UNL A   1      40.801  26.156  27.574  1.00  0.00     0.134 A 
ATOM     56  F   UNL A   1      42.719  29.165  26.891  1.00  0.00    -0.206 F 
ATOM     57  C   UNL A   1      42.411  27.237  25.586  1.00  0.00     0.040 A 
ATOM     58  C   UNL A   1      41.048  25.429  26.408  1.00  0.00     0.040 A 
ATOM     59  F   UNL A   1      40.014  25.601  28.507  1.00  0.00    -0.206 F 
ATOM     60  C   UNL A   1      41.853  25.972  25.408  1.00  0.00     0.006 A 
ENDBRANCH  39  53
BRANCH  40  61
ATOM     61  C   UNL A   1      39.331  32.622  36.042  1.00  0.00     0.057 A 
ATOM     62  C   UNL A   1      39.939  33.856  36.296  1.00  0.00     0.134 A 
ATOM     63  C   UNL A   1      38.427  32.137  36.994  1.00  0.00     0.134 A 
ATOM     64  F   UNL A   1      40.831  34.360  35.432  1.00  0.00    -0.206 F 
ATOM     65  C   UNL A   1      39.664  34.578  37.459  1.00  0.00     0.040 A 
ATOM     66  C   UNL A   1      38.127  32.858  38.149  1.00  0.00     0.040 A 
ATOM     67  F   UNL A   1      37.813  30.959  36.805  1.00  0.00    -0.206 F 
ATOM     68  C   UNL A   1      38.750  34.081  38.386  1.00  0.00     0.006 A 
ENDBRANCH  40  61
BRANCH  52  69
ATOM     69  C   UNL A   1      44.055  27.779  34.451  1.00  0.00     0.057 A 
ATOM     70  C   UNL A   1      45.326  28.357  34.553  1.00  0.00     0.134 A 
ATOM     71  C   UNL A   1      43.824  26.585  35.143  1.00  0.00     0.134 A 
ATOM     72  F   UNL A   1      45.611  29.494  33.900  1.00  0.00    -0.206 F 
ATOM     73  C   UNL A   1      46.337  27.759  35.307  1.00  0.00     0.040 A 
ATOM     74  C   UNL A   1      44.822  25.986  35.913  1.00  0.00     0.040 A 
ATOM     75  F   UNL A   1      42.626  25.986  35.087  1.00  0.00    -0.206 F 
ATOM     76  C   UNL A   1      46.085  26.572  35.992  1.00  0.00     0.006 A 
ENDBRANCH  52  69
ENDBRANCH  26  27
ENDBRANCH  19  21
ENDBRANCH  18  19
ENDBRANCH  17  18
ENDBRANCH   1  17
TORSDOF 14
ENDMDL
