MODEL 1
REMARK VINA RESULT:     -11.5      0.000      0.000
REMARK SMILES C[C@@H]1Oc2ccccc2N(CC(=O)OCCOC(=O)c2ccc(-c3c4nc(c(-c5c(F)cccc5F)c5ccc([nH]5)c(-c5c(F)cccc5F)c5nc(c(-c6c(F)cccc6F)c6ccc3[nH]6)C=C5)C=C4)cc2)C1=O
REMARK SMILES IDX 16 1 15 2 14 3 12 4 13 5 11 6 10 7 1 8 2 9 3 10 74 11 4 12
REMARK SMILES IDX 75 13 5 14 9 15 6 16 8 17 7 18 17 19 18 20 19 21 20 22 21 23
REMARK SMILES IDX 73 24 22 25 72 26 23 27 24 28 25 29 66 30 26 31 71 32 65 33
REMARK SMILES IDX 67 34 27 35 70 36 64 37 63 38 28 40 54 41 37 42 53 43 38 44
REMARK SMILES IDX 41 45 52 46 68 47 39 48 40 49 51 51 69 52 42 53 29 54 30 55
REMARK SMILES IDX 35 56 31 57 32 58 34 59 36 60 33 61 55 62 56 63 61 64 57 65
REMARK SMILES IDX 58 66 60 67 62 68 59 69 43 70 44 71 49 72 45 73 46 74 48 75
REMARK SMILES IDX 50 76 47 77
REMARK H PARENT 67 39 41 50
REMARK Flexibility Score: inf
ROOT
ATOM      1  C   UNL A   1      36.411  20.471  25.000  1.00  0.00     0.275 C 
ENDROOT
BRANCH   1   2
ATOM      2  C   UNL A   1      35.010  21.007  24.724  1.00  0.00     0.274 C 
BRANCH   2   3
ATOM      3  O   UNL A   1      35.046  22.444  24.604  1.00  0.00    -0.461 OA
BRANCH   3   4
ATOM      4  C   UNL A   1      35.059  22.963  23.344  1.00  0.00     0.326 C 
ATOM      5  O   UNL A   1      36.070  23.322  22.748  1.00  0.00    -0.250 OA
BRANCH   4   6
ATOM      6  C   UNL A   1      33.665  23.041  22.708  1.00  0.00     0.248 C 
BRANCH   6   7
ATOM      7  N   UNL A   1      32.846  24.129  23.230  1.00  0.00    -0.294 N 
ATOM      8  C   UNL A   1      33.702  27.151  24.284  1.00  0.00     0.064 C 
ATOM      9  C   UNL A   1      32.535  26.561  23.492  1.00  0.00     0.259 C 
ATOM     10  O   UNL A   1      31.446  26.368  24.374  1.00  0.00    -0.479 OA
ATOM     11  C   UNL A   1      33.068  25.383  22.680  1.00  0.00     0.268 C 
ATOM     12  C   UNL A   1      31.327  25.102  24.875  1.00  0.00     0.144 A 
ATOM     13  O   UNL A   1      33.756  25.560  21.673  1.00  0.00    -0.270 OA
ATOM     14  C   UNL A   1      30.475  24.990  25.980  1.00  0.00     0.049 A 
ATOM     15  C   UNL A   1      31.966  23.977  24.338  1.00  0.00     0.087 A 
ATOM     16  C   UNL A   1      30.244  23.750  26.567  1.00  0.00     0.004 A 
ATOM     17  C   UNL A   1      31.678  22.732  24.913  1.00  0.00     0.030 A 
ATOM     18  C   UNL A   1      30.837  22.618  26.026  1.00  0.00     0.002 A 
ENDBRANCH   6   7
ENDBRANCH   4   6
ENDBRANCH   3   4
ENDBRANCH   2   3
ENDBRANCH   1   2
BRANCH   1  19
ATOM     19  O   UNL A   1      37.181  21.508  25.628  1.00  0.00    -0.458 OA
BRANCH  19  20
ATOM     20  C   UNL A   1      38.485  21.226  25.840  1.00  0.00     0.338 C 
ATOM     21  O   UNL A   1      39.080  20.192  25.598  1.00  0.00    -0.246 OA
BRANCH  20  22
ATOM     22  C   UNL A   1      39.129  22.406  26.439  1.00  0.00     0.060 A 
ATOM     23  C   UNL A   1      40.275  22.239  27.208  1.00  0.00     0.016 A 
ATOM     24  C   UNL A   1      38.650  23.686  26.153  1.00  0.00     0.016 A 
ATOM     25  C   UNL A   1      40.926  23.366  27.710  1.00  0.00     0.010 A 
ATOM     26  C   UNL A   1      39.364  24.809  26.560  1.00  0.00     0.010 A 
ATOM     27  C   UNL A   1      40.493  24.662  27.372  1.00  0.00    -0.014 A 
BRANCH  27  28
ATOM     28  C   UNL A   1      41.240  25.845  27.871  1.00  0.00     0.031 A 
ATOM     29  C   UNL A   1      42.656  26.109  27.440  1.00  0.00     0.074 A 
ATOM     30  C   UNL A   1      40.622  26.707  28.701  1.00  0.00     0.049 A 
ATOM     31  N   UNL A   1      43.373  27.195  27.593  1.00  0.00    -0.248 NA
ATOM     32  C   UNL A   1      43.374  25.010  26.778  1.00  0.00     0.031 C 
ATOM     33  C   UNL A   1      39.290  26.517  29.278  1.00  0.00     0.029 A 
ATOM     34  N   UNL A   1      41.018  27.932  29.174  1.00  0.00    -0.354 N 
ATOM     35  C   UNL A   1      44.611  26.915  27.030  1.00  0.00     0.074 A 
ATOM     36  C   UNL A   1      44.580  25.531  26.613  1.00  0.00     0.031 C 
ATOM     37  C   UNL A   1      38.944  27.623  29.956  1.00  0.00     0.029 A 
ATOM     38  C   UNL A   1      40.032  28.592  29.867  1.00  0.00     0.049 A 
ATOM     39  H   UNL A   1      41.919  28.303  29.030  1.00  0.00     0.167 HD
ATOM     40  C   UNL A   1      45.664  27.743  26.836  1.00  0.00     0.037 A 
ATOM     41  C   UNL A   1      39.989  29.854  30.329  1.00  0.00     0.037 A 
ATOM     42  C   UNL A   1      45.695  29.121  27.249  1.00  0.00     0.049 A 
ATOM     43  C   UNL A   1      41.154  30.768  30.079  1.00  0.00     0.074 A 
ATOM     44  C   UNL A   1      46.688  30.063  27.056  1.00  0.00     0.029 A 
ATOM     45  N   UNL A   1      44.679  29.748  27.953  1.00  0.00    -0.354 N 
ATOM     46  N   UNL A   1      42.270  30.532  29.432  1.00  0.00    -0.248 NA
ATOM     47  C   UNL A   1      41.041  32.135  30.608  1.00  0.00     0.031 C 
ATOM     48  C   UNL A   1      46.284  31.256  27.671  1.00  0.00     0.029 A 
ATOM     49  C   UNL A   1      45.025  31.063  28.215  1.00  0.00     0.049 A 
ATOM     50  H   UNL A   1      43.834  29.322  28.227  1.00  0.00     0.167 HD
ATOM     51  C   UNL A   1      42.977  31.727  29.447  1.00  0.00     0.074 A 
ATOM     52  C   UNL A   1      42.157  32.689  30.157  1.00  0.00     0.031 C 
ATOM     53  C   UNL A   1      44.194  32.006  28.919  1.00  0.00     0.037 A 
BRANCH  40  54
ATOM     54  C   UNL A   1      46.855  27.171  26.123  1.00  0.00     0.057 A 
ATOM     55  C   UNL A   1      46.984  27.270  24.733  1.00  0.00     0.134 A 
ATOM     56  C   UNL A   1      47.886  26.527  26.823  1.00  0.00     0.134 A 
ATOM     57  F   UNL A   1      46.033  27.869  24.001  1.00  0.00    -0.206 F 
ATOM     58  C   UNL A   1      48.103  26.764  24.067  1.00  0.00     0.040 A 
ATOM     59  C   UNL A   1      49.020  26.040  26.171  1.00  0.00     0.040 A 
ATOM     60  F   UNL A   1      47.831  26.411  28.159  1.00  0.00    -0.206 F 
ATOM     61  C   UNL A   1      49.129  26.155  24.787  1.00  0.00     0.006 A 
ENDBRANCH  40  54
BRANCH  41  62
ATOM     62  C   UNL A   1      38.758  30.362  30.982  1.00  0.00     0.057 A 
ATOM     63  C   UNL A   1      37.756  31.014  30.257  1.00  0.00     0.134 A 
ATOM     64  C   UNL A   1      38.561  30.199  32.358  1.00  0.00     0.134 A 
ATOM     65  F   UNL A   1      37.893  31.209  28.938  1.00  0.00    -0.206 F 
ATOM     66  C   UNL A   1      36.600  31.488  30.879  1.00  0.00     0.040 A 
ATOM     67  C   UNL A   1      37.402  30.650  32.990  1.00  0.00     0.040 A 
ATOM     68  F   UNL A   1      39.484  29.569  33.102  1.00  0.00    -0.206 F 
ATOM     69  C   UNL A   1      36.418  31.300  32.248  1.00  0.00     0.006 A 
ENDBRANCH  41  62
BRANCH  53  70
ATOM     70  C   UNL A   1      44.690  33.413  29.066  1.00  0.00     0.057 A 
ATOM     71  C   UNL A   1      44.398  34.376  28.092  1.00  0.00     0.134 A 
ATOM     72  C   UNL A   1      45.461  33.813  30.164  1.00  0.00     0.134 A 
ATOM     73  F   UNL A   1      43.669  34.055  27.013  1.00  0.00    -0.206 F 
ATOM     74  C   UNL A   1      44.851  35.690  28.209  1.00  0.00     0.040 A 
ATOM     75  C   UNL A   1      45.901  35.130  30.304  1.00  0.00     0.040 A 
ATOM     76  F   UNL A   1      45.761  32.940  31.138  1.00  0.00    -0.206 F 
ATOM     77  C   UNL A   1      45.598  36.072  29.322  1.00  0.00     0.006 A 
ENDBRANCH  53  70
ENDBRANCH  27  28
ENDBRANCH  20  22
ENDBRANCH  19  20
ENDBRANCH   1  19
TORSDOF 12
ENDMDL
MODEL 2
REMARK VINA RESULT:     -11.4      3.957      6.361
REMARK SMILES C[C@@H]1Oc2ccccc2N(CC(=O)OCCOC(=O)c2ccc(-c3c4nc(c(-c5c(F)cccc5F)c5ccc([nH]5)c(-c5c(F)cccc5F)c5nc(c(-c6c(F)cccc6F)c6ccc3[nH]6)C=C5)C=C4)cc2)C1=O
REMARK SMILES IDX 16 1 15 2 14 3 12 4 13 5 11 6 10 7 1 8 2 9 3 10 74 11 4 12
REMARK SMILES IDX 75 13 5 14 9 15 6 16 8 17 7 18 17 19 18 20 19 21 20 22 21 23
REMARK SMILES IDX 73 24 22 25 72 26 23 27 24 28 25 29 66 30 26 31 71 32 65 33
REMARK SMILES IDX 67 34 27 35 70 36 64 37 63 38 28 40 54 41 37 42 53 43 38 44
REMARK SMILES IDX 41 45 52 46 68 47 39 48 40 49 51 51 69 52 42 53 29 54 30 55
REMARK SMILES IDX 35 56 31 57 32 58 34 59 36 60 33 61 55 62 56 63 61 64 57 65
REMARK SMILES IDX 58 66 60 67 62 68 59 69 43 70 44 71 49 72 45 73 46 74 48 75
REMARK SMILES IDX 50 76 47 77
REMARK H PARENT 67 39 41 50
REMARK Flexibility Score: inf
ROOT
ATOM      1  C   UNL A   1      40.899  20.423  26.307  1.00  0.00     0.275 C 
ENDROOT
BRANCH   1   2
ATOM      2  C   UNL A   1      42.407  20.608  26.447  1.00  0.00     0.274 C 
BRANCH   2   3
ATOM      3  O   UNL A   1      43.028  20.600  25.145  1.00  0.00    -0.461 OA
BRANCH   3   4
ATOM      4  C   UNL A   1      43.767  21.692  24.802  1.00  0.00     0.326 C 
ATOM      5  O   UNL A   1      44.153  21.944  23.664  1.00  0.00    -0.250 OA
BRANCH   4   6
ATOM      6  C   UNL A   1      44.063  22.618  25.988  1.00  0.00     0.248 C 
BRANCH   6   7
ATOM      7  N   UNL A   1      44.830  23.804  25.624  1.00  0.00    -0.294 N 
ATOM      8  C   UNL A   1      47.409  25.243  27.125  1.00  0.00     0.064 C 
ATOM      9  C   UNL A   1      46.995  24.983  25.678  1.00  0.00     0.259 C 
ATOM     10  O   UNL A   1      46.412  26.162  25.158  1.00  0.00    -0.479 OA
ATOM     11  C   UNL A   1      46.210  23.673  25.643  1.00  0.00     0.268 C 
ATOM     12  C   UNL A   1      45.047  26.199  25.205  1.00  0.00     0.144 A 
ATOM     13  O   UNL A   1      46.778  22.584  25.751  1.00  0.00    -0.270 OA
ATOM     14  C   UNL A   1      44.490  27.469  25.008  1.00  0.00     0.049 A 
ATOM     15  C   UNL A   1      44.232  25.077  25.402  1.00  0.00     0.087 A 
ATOM     16  C   UNL A   1      43.110  27.639  25.001  1.00  0.00     0.004 A 
ATOM     17  C   UNL A   1      42.845  25.263  25.339  1.00  0.00     0.030 A 
ATOM     18  C   UNL A   1      42.286  26.533  25.156  1.00  0.00     0.002 A 
ENDBRANCH   6   7
ENDBRANCH   4   6
ENDBRANCH   3   4
ENDBRANCH   2   3
ENDBRANCH   1   2
BRANCH   1  19
ATOM     19  O   UNL A   1      40.246  21.239  27.292  1.00  0.00    -0.458 OA
BRANCH  19  20
ATOM     20  C   UNL A   1      39.450  22.219  26.811  1.00  0.00     0.338 C 
ATOM     21  O   UNL A   1      38.456  22.108  26.117  1.00  0.00    -0.246 OA
BRANCH  20  22
ATOM     22  C   UNL A   1      39.976  23.516  27.265  1.00  0.00     0.060 A 
ATOM     23  C   UNL A   1      39.306  24.683  26.914  1.00  0.00     0.016 A 
ATOM     24  C   UNL A   1      41.077  23.564  28.122  1.00  0.00     0.016 A 
ATOM     25  C   UNL A   1      39.764  25.904  27.409  1.00  0.00     0.010 A 
ATOM     26  C   UNL A   1      41.460  24.768  28.705  1.00  0.00     0.010 A 
ATOM     27  C   UNL A   1      40.829  25.958  28.328  1.00  0.00    -0.014 A 
BRANCH  27  28
ATOM     28  C   UNL A   1      41.257  27.266  28.888  1.00  0.00     0.031 A 
ATOM     29  C   UNL A   1      42.698  27.695  28.847  1.00  0.00     0.074 A 
ATOM     30  C   UNL A   1      40.329  28.088  29.414  1.00  0.00     0.049 A 
ATOM     31  N   UNL A   1      43.209  28.880  29.078  1.00  0.00    -0.248 NA
ATOM     32  C   UNL A   1      43.699  26.665  28.535  1.00  0.00     0.031 C 
ATOM     33  C   UNL A   1      38.917  27.753  29.610  1.00  0.00     0.029 A 
ATOM     34  N   UNL A   1      40.426  29.386  29.845  1.00  0.00    -0.354 N 
ATOM     35  C   UNL A   1      44.581  28.738  28.919  1.00  0.00     0.074 A 
ATOM     36  C   UNL A   1      44.832  27.338  28.661  1.00  0.00     0.031 C 
ATOM     37  C   UNL A   1      38.264  28.843  30.041  1.00  0.00     0.029 A 
ATOM     38  C   UNL A   1      39.212  29.947  30.158  1.00  0.00     0.049 A 
ATOM     39  H   UNL A   1      41.281  29.869  29.921  1.00  0.00     0.167 HD
ATOM     40  C   UNL A   1      45.543  29.690  28.942  1.00  0.00     0.037 A 
ATOM     41  C   UNL A   1      38.891  31.220  30.452  1.00  0.00     0.037 A 
ATOM     42  C   UNL A   1      45.293  31.084  29.198  1.00  0.00     0.049 A 
ATOM     43  C   UNL A   1      39.966  32.269  30.444  1.00  0.00     0.074 A 
ATOM     44  C   UNL A   1      46.185  32.141  29.191  1.00  0.00     0.029 A 
ATOM     45  N   UNL A   1      44.051  31.609  29.516  1.00  0.00    -0.354 N 
ATOM     46  N   UNL A   1      41.241  32.148  30.166  1.00  0.00    -0.248 NA
ATOM     47  C   UNL A   1      39.547  33.639  30.770  1.00  0.00     0.031 C 
ATOM     48  C   UNL A   1      45.485  33.305  29.537  1.00  0.00     0.029 A 
ATOM     49  C   UNL A   1      44.152  32.975  29.723  1.00  0.00     0.049 A 
ATOM     50  H   UNL A   1      43.218  31.089  29.585  1.00  0.00     0.167 HD
ATOM     51  C   UNL A   1      41.771  33.428  30.251  1.00  0.00     0.074 A 
ATOM     52  C   UNL A   1      40.675  34.312  30.594  1.00  0.00     0.031 C 
ATOM     53  C   UNL A   1      43.049  33.838  30.060  1.00  0.00     0.037 A 
BRANCH  40  54
ATOM     54  C   UNL A   1      46.948  29.243  28.658  1.00  0.00     0.057 A 
ATOM     55  C   UNL A   1      47.444  29.199  27.350  1.00  0.00     0.134 A 
ATOM     56  C   UNL A   1      47.817  28.864  29.692  1.00  0.00     0.134 A 
ATOM     57  F   UNL A   1      46.665  29.543  26.314  1.00  0.00    -0.206 F 
ATOM     58  C   UNL A   1      48.758  28.810  27.082  1.00  0.00     0.040 A 
ATOM     59  C   UNL A   1      49.140  28.498  29.438  1.00  0.00     0.040 A 
ATOM     60  F   UNL A   1      47.408  28.897  30.969  1.00  0.00    -0.206 F 
ATOM     61  C   UNL A   1      49.613  28.467  28.128  1.00  0.00     0.006 A 
ENDBRANCH  40  54
BRANCH  41  62
ATOM     62  C   UNL A   1      37.473  31.594  30.674  1.00  0.00     0.057 A 
ATOM     63  C   UNL A   1      36.904  31.597  31.951  1.00  0.00     0.134 A 
ATOM     64  C   UNL A   1      36.655  31.959  29.599  1.00  0.00     0.134 A 
ATOM     65  F   UNL A   1      37.635  31.246  33.019  1.00  0.00    -0.206 F 
ATOM     66  C   UNL A   1      35.569  31.951  32.151  1.00  0.00     0.040 A 
ATOM     67  C   UNL A   1      35.325  32.335  29.786  1.00  0.00     0.040 A 
ATOM     68  F   UNL A   1      37.152  31.986  28.352  1.00  0.00    -0.206 F 
ATOM     69  C   UNL A   1      34.778  32.328  31.068  1.00  0.00     0.006 A 
ENDBRANCH  41  62
BRANCH  53  70
ATOM     70  C   UNL A   1      43.316  35.307  30.189  1.00  0.00     0.057 A 
ATOM     71  C   UNL A   1      43.177  36.156  29.084  1.00  0.00     0.134 A 
ATOM     72  C   UNL A   1      43.717  35.881  31.401  1.00  0.00     0.134 A 
ATOM     73  F   UNL A   1      42.802  35.668  27.892  1.00  0.00    -0.206 F 
ATOM     74  C   UNL A   1      43.422  37.525  29.182  1.00  0.00     0.040 A 
ATOM     75  C   UNL A   1      43.942  37.254  31.519  1.00  0.00     0.040 A 
ATOM     76  F   UNL A   1      43.852  35.123  32.500  1.00  0.00    -0.206 F 
ATOM     77  C   UNL A   1      43.798  38.079  30.404  1.00  0.00     0.006 A 
ENDBRANCH  53  70
ENDBRANCH  27  28
ENDBRANCH  20  22
ENDBRANCH  19  20
ENDBRANCH   1  19
TORSDOF 12
ENDMDL
MODEL 3
REMARK VINA RESULT:     -11.4      3.904      8.804
REMARK SMILES C[C@@H]1Oc2ccccc2N(CC(=O)OCCOC(=O)c2ccc(-c3c4nc(c(-c5c(F)cccc5F)c5ccc([nH]5)c(-c5c(F)cccc5F)c5nc(c(-c6c(F)cccc6F)c6ccc3[nH]6)C=C5)C=C4)cc2)C1=O
REMARK SMILES IDX 16 1 15 2 14 3 12 4 13 5 11 6 10 7 1 8 2 9 3 10 74 11 4 12
REMARK SMILES IDX 75 13 5 14 9 15 6 16 8 17 7 18 17 19 18 20 19 21 20 22 21 23
REMARK SMILES IDX 73 24 22 25 72 26 23 27 24 28 25 29 66 30 26 31 71 32 65 33
REMARK SMILES IDX 67 34 27 35 70 36 64 37 63 38 28 40 54 41 37 42 53 43 38 44
REMARK SMILES IDX 41 45 52 46 68 47 39 48 40 49 51 51 69 52 42 53 29 54 30 55
REMARK SMILES IDX 35 56 31 57 32 58 34 59 36 60 33 61 55 62 56 63 61 64 57 65
REMARK SMILES IDX 58 66 60 67 62 68 59 69 43 70 44 71 49 72 45 73 46 74 48 75
REMARK SMILES IDX 50 76 47 77
REMARK H PARENT 67 39 41 50
REMARK Flexibility Score: inf
ROOT
ATOM      1  C   UNL A   1      31.632  29.925  25.376  1.00  0.00     0.275 C 
ENDROOT
BRANCH   1   2
ATOM      2  C   UNL A   1      31.652  28.657  24.529  1.00  0.00     0.274 C 
BRANCH   2   3
ATOM      3  O   UNL A   1      32.125  27.544  25.316  1.00  0.00    -0.461 OA
BRANCH   3   4
ATOM      4  C   UNL A   1      31.223  26.934  26.135  1.00  0.00     0.326 C 
ATOM      5  O   UNL A   1      31.138  27.125  27.345  1.00  0.00    -0.250 OA
BRANCH   4   6
ATOM      6  C   UNL A   1      30.281  25.979  25.392  1.00  0.00     0.248 C 
BRANCH   6   7
ATOM      7  N   UNL A   1      30.817  24.631  25.241  1.00  0.00    -0.294 N 
ATOM      8  C   UNL A   1      32.676  22.813  27.294  1.00  0.00     0.064 C 
ATOM      9  C   UNL A   1      31.521  22.535  26.332  1.00  0.00     0.259 C 
ATOM     10  O   UNL A   1      32.055  22.037  25.121  1.00  0.00    -0.479 OA
ATOM     11  C   UNL A   1      30.622  23.769  26.310  1.00  0.00     0.268 C 
ATOM     12  C   UNL A   1      32.227  22.971  24.139  1.00  0.00     0.144 A 
ATOM     13  O   UNL A   1      29.870  24.029  27.251  1.00  0.00    -0.270 OA
ATOM     14  C   UNL A   1      33.047  22.561  23.080  1.00  0.00     0.049 A 
ATOM     15  C   UNL A   1      31.625  24.236  24.138  1.00  0.00     0.087 A 
ATOM     16  C   UNL A   1      33.278  23.407  22.001  1.00  0.00     0.004 A 
ATOM     17  C   UNL A   1      31.830  25.051  23.017  1.00  0.00     0.030 A 
ATOM     18  C   UNL A   1      32.660  24.650  21.963  1.00  0.00     0.002 A 
ENDBRANCH   6   7
ENDBRANCH   4   6
ENDBRANCH   3   4
ENDBRANCH   2   3
ENDBRANCH   1   2
BRANCH   1  19
ATOM     19  O   UNL A   1      32.929  30.099  25.967  1.00  0.00    -0.458 OA
BRANCH  19  20
ATOM     20  C   UNL A   1      33.050  31.134  26.827  1.00  0.00     0.338 C 
ATOM     21  O   UNL A   1      32.307  32.089  26.963  1.00  0.00    -0.246 OA
BRANCH  20  22
ATOM     22  C   UNL A   1      34.270  30.940  27.626  1.00  0.00     0.060 A 
ATOM     23  C   UNL A   1      34.641  29.653  28.000  1.00  0.00     0.016 A 
ATOM     24  C   UNL A   1      35.097  32.026  27.918  1.00  0.00     0.016 A 
ATOM     25  C   UNL A   1      35.838  29.465  28.691  1.00  0.00     0.010 A 
ATOM     26  C   UNL A   1      36.342  31.822  28.506  1.00  0.00     0.010 A 
ATOM     27  C   UNL A   1      36.712  30.543  28.930  1.00  0.00    -0.014 A 
BRANCH  27  28
ATOM     28  C   UNL A   1      38.009  30.305  29.615  1.00  0.00     0.031 A 
ATOM     29  C   UNL A   1      38.252  30.800  31.014  1.00  0.00     0.074 A 
ATOM     30  C   UNL A   1      38.968  29.609  28.975  1.00  0.00     0.049 A 
ATOM     31  N   UNL A   1      39.224  30.491  31.837  1.00  0.00    -0.248 NA
ATOM     32  C   UNL A   1      37.305  31.786  31.553  1.00  0.00     0.031 C 
ATOM     33  C   UNL A   1      38.903  29.162  27.582  1.00  0.00     0.029 A 
ATOM     34  N   UNL A   1      40.170  29.123  29.425  1.00  0.00    -0.354 N 
ATOM     35  C   UNL A   1      38.991  31.228  32.991  1.00  0.00     0.074 A 
ATOM     36  C   UNL A   1      37.841  32.064  32.731  1.00  0.00     0.031 C 
ATOM     37  C   UNL A   1      39.973  28.397  27.317  1.00  0.00     0.029 A 
ATOM     38  C   UNL A   1      40.800  28.307  28.516  1.00  0.00     0.049 A 
ATOM     39  H   UNL A   1      40.543  29.337  30.310  1.00  0.00     0.167 HD
ATOM     40  C   UNL A   1      39.645  31.183  34.175  1.00  0.00     0.037 A 
ATOM     41  C   UNL A   1      41.890  27.531  28.654  1.00  0.00     0.037 A 
ATOM     42  C   UNL A   1      40.789  30.350  34.435  1.00  0.00     0.049 A 
ATOM     43  C   UNL A   1      42.586  27.470  29.982  1.00  0.00     0.074 A 
ATOM     44  C   UNL A   1      41.495  30.186  35.612  1.00  0.00     0.029 A 
ATOM     45  N   UNL A   1      41.399  29.543  33.487  1.00  0.00    -0.354 N 
ATOM     46  N   UNL A   1      42.282  28.073  31.107  1.00  0.00    -0.248 NA
ATOM     47  C   UNL A   1      43.768  26.600  30.065  1.00  0.00     0.031 C 
ATOM     48  C   UNL A   1      42.554  29.301  35.368  1.00  0.00     0.029 A 
ATOM     49  C   UNL A   1      42.483  28.888  34.047  1.00  0.00     0.049 A 
ATOM     50  H   UNL A   1      41.105  29.449  32.552  1.00  0.00     0.167 HD
ATOM     51  C   UNL A   1      43.213  27.631  32.037  1.00  0.00     0.074 A 
ATOM     52  C   UNL A   1      44.084  26.700  31.348  1.00  0.00     0.031 C 
ATOM     53  C   UNL A   1      43.335  27.963  33.346  1.00  0.00     0.037 A 
BRANCH  40  54
ATOM     54  C   UNL A   1      39.112  32.049  35.279  1.00  0.00     0.057 A 
ATOM     55  C   UNL A   1      38.257  31.532  36.258  1.00  0.00     0.134 A 
ATOM     56  C   UNL A   1      39.459  33.406  35.376  1.00  0.00     0.134 A 
ATOM     57  F   UNL A   1      37.880  30.245  36.223  1.00  0.00    -0.206 F 
ATOM     58  C   UNL A   1      37.778  32.327  37.303  1.00  0.00     0.040 A 
ATOM     59  C   UNL A   1      39.008  34.203  36.429  1.00  0.00     0.040 A 
ATOM     60  F   UNL A   1      40.286  33.961  34.477  1.00  0.00    -0.206 F 
ATOM     61  C   UNL A   1      38.162  33.664  37.395  1.00  0.00     0.006 A 
ENDBRANCH  40  54
BRANCH  41  62
ATOM     62  C   UNL A   1      42.328  26.665  27.532  1.00  0.00     0.057 A 
ATOM     63  C   UNL A   1      41.907  25.337  27.419  1.00  0.00     0.134 A 
ATOM     64  C   UNL A   1      43.185  27.160  26.541  1.00  0.00     0.134 A 
ATOM     65  F   UNL A   1      41.094  24.804  28.342  1.00  0.00    -0.206 F 
ATOM     66  C   UNL A   1      42.323  24.530  26.359  1.00  0.00     0.040 A 
ATOM     67  C   UNL A   1      43.593  26.372  25.466  1.00  0.00     0.040 A 
ATOM     68  F   UNL A   1      43.611  28.432  26.592  1.00  0.00    -0.206 F 
ATOM     69  C   UNL A   1      43.163  25.049  25.375  1.00  0.00     0.006 A 
ENDBRANCH  41  62
BRANCH  53  70
ATOM     70  C   UNL A   1      44.431  27.289  34.116  1.00  0.00     0.057 A 
ATOM     71  C   UNL A   1      44.201  26.068  34.762  1.00  0.00     0.134 A 
ATOM     72  C   UNL A   1      45.709  27.850  34.225  1.00  0.00     0.134 A 
ATOM     73  F   UNL A   1      42.996  25.481  34.701  1.00  0.00    -0.206 F 
ATOM     74  C   UNL A   1      45.206  25.426  35.485  1.00  0.00     0.040 A 
ATOM     75  C   UNL A   1      46.730  27.206  34.925  1.00  0.00     0.040 A 
ATOM     76  F   UNL A   1      45.996  29.011  33.616  1.00  0.00    -0.206 F 
ATOM     77  C   UNL A   1      46.478  25.991  35.561  1.00  0.00     0.006 A 
ENDBRANCH  53  70
ENDBRANCH  27  28
ENDBRANCH  20  22
ENDBRANCH  19  20
ENDBRANCH   1  19
TORSDOF 12
ENDMDL
