MODEL 1
REMARK VINA RESULT:      -9.3      0.000      0.000
REMARK SMILES CCC(CC)Oc1ccc(OC)cc1/C=C/C(=O)OCCOC(=O)c1ccc(-c2c3nc(c(-c4c(F)cccc4F)c4ccc([nH]4)c(-c4c(F)cccc4F)c4nc(c(-c5c(F)cccc5F)c5ccc2[nH]5)C=C4)C=C3)cc1
REMARK SMILES IDX 20 1 19 2 17 3 18 4 16 5 15 6 14 7 7 8 8 9 9 10 13 11 10 12
REMARK SMILES IDX 6 13 3 14 2 15 1 16 4 17 5 18 11 19 12 20 21 21 22 22 23 23
REMARK SMILES IDX 24 24 25 25 26 26 78 27 27 28 77 29 28 30 29 31 30 32 71 33
REMARK SMILES IDX 31 34 76 35 70 36 72 37 32 38 75 39 69 40 68 41 33 43 59 44
REMARK SMILES IDX 42 45 58 46 43 47 46 48 57 49 73 50 44 51 45 52 56 54 74 55
REMARK SMILES IDX 47 56 34 57 35 58 40 59 36 60 37 61 39 62 41 63 38 64 60 65
REMARK SMILES IDX 61 66 66 67 62 68 63 69 65 70 67 71 64 72 48 73 49 74 54 75
REMARK SMILES IDX 50 76 51 77 53 78 55 79 52 80
REMARK H PARENT 72 42 46 53
REMARK Flexibility Score: inf
ROOT
ATOM      1  C   UNL A   1      33.440  36.462  31.382  1.00  0.00     0.275 C 
ENDROOT
BRANCH   1   2
ATOM      2  O   UNL A   1      33.978  35.280  31.998  1.00  0.00    -0.459 OA
BRANCH   2   3
ATOM      3  C   UNL A   1      34.595  35.452  33.190  1.00  0.00     0.330 C 
ATOM      4  O   UNL A   1      34.421  36.371  33.975  1.00  0.00    -0.247 OA
BRANCH   3   5
ATOM      5  C   UNL A   1      35.590  34.394  33.450  1.00  0.00     0.094 C 
ATOM      6  C   UNL A   1      36.180  34.179  34.638  1.00  0.00     0.019 C 
BRANCH   6   7
ATOM      7  C   UNL A   1      37.027  33.001  34.840  1.00  0.00     0.020 A 
ATOM      8  C   UNL A   1      37.533  32.658  36.105  1.00  0.00     0.127 A 
ATOM      9  C   UNL A   1      38.358  31.538  36.239  1.00  0.00     0.051 A 
ATOM     10  C   UNL A   1      38.630  30.726  35.133  1.00  0.00     0.050 A 
ATOM     11  C   UNL A   1      37.330  32.187  33.731  1.00  0.00     0.058 A 
ATOM     12  C   UNL A   1      38.110  31.040  33.877  1.00  0.00     0.119 A 
BRANCH   8  13
ATOM     13  O   UNL A   1      37.390  33.451  37.206  1.00  0.00    -0.490 OA
BRANCH  13  14
ATOM     14  C   UNL A   1      38.004  33.076  38.459  1.00  0.00     0.172 C 
BRANCH  14  15
ATOM     15  C   UNL A   1      39.258  33.926  38.719  1.00  0.00     0.042 C 
ATOM     16  C   UNL A   1      39.135  35.401  38.384  1.00  0.00     0.008 C 
ENDBRANCH  14  15
BRANCH  14  17
ATOM     17  C   UNL A   1      37.085  32.864  39.683  1.00  0.00     0.042 C 
ATOM     18  C   UNL A   1      36.215  31.614  39.706  1.00  0.00     0.008 C 
ENDBRANCH  14  17
ENDBRANCH  13  14
ENDBRANCH   8  13
BRANCH  12  19
ATOM     19  O   UNL A   1      38.440  30.168  32.876  1.00  0.00    -0.497 OA
ATOM     20  C   UNL A   1      37.713  28.944  32.828  1.00  0.00     0.278 C 
ENDBRANCH  12  19
ENDBRANCH   6   7
ENDBRANCH   3   5
ENDBRANCH   2   3
ENDBRANCH   1   2
BRANCH   1  21
ATOM     21  C   UNL A   1      33.016  36.181  29.940  1.00  0.00     0.275 C 
BRANCH  21  22
ATOM     22  O   UNL A   1      32.571  34.822  29.782  1.00  0.00    -0.458 OA
BRANCH  22  23
ATOM     23  C   UNL A   1      33.008  34.203  28.662  1.00  0.00     0.338 C 
ATOM     24  O   UNL A   1      32.486  34.214  27.555  1.00  0.00    -0.246 OA
BRANCH  23  25
ATOM     25  C   UNL A   1      34.332  33.619  28.913  1.00  0.00     0.060 A 
ATOM     26  C   UNL A   1      34.474  32.755  30.005  1.00  0.00     0.016 A 
ATOM     27  C   UNL A   1      35.432  33.948  28.120  1.00  0.00     0.016 A 
ATOM     28  C   UNL A   1      35.714  32.203  30.304  1.00  0.00     0.010 A 
ATOM     29  C   UNL A   1      36.683  33.411  28.433  1.00  0.00     0.010 A 
ATOM     30  C   UNL A   1      36.829  32.546  29.531  1.00  0.00    -0.014 A 
BRANCH  30  31
ATOM     31  C   UNL A   1      38.167  32.066  29.935  1.00  0.00     0.031 A 
ATOM     32  C   UNL A   1      38.655  30.744  29.420  1.00  0.00     0.074 A 
ATOM     33  C   UNL A   1      38.942  32.821  30.731  1.00  0.00     0.049 A 
ATOM     34  N   UNL A   1      39.757  30.102  29.702  1.00  0.00    -0.248 NA
ATOM     35  C   UNL A   1      37.781  30.055  28.457  1.00  0.00     0.031 C 
ATOM     36  C   UNL A   1      38.588  34.143  31.246  1.00  0.00     0.029 A 
ATOM     37  N   UNL A   1      40.187  32.578  31.252  1.00  0.00    -0.354 N 
ATOM     38  C   UNL A   1      39.706  28.925  28.966  1.00  0.00     0.074 A 
ATOM     39  C   UNL A   1      38.455  28.935  28.237  1.00  0.00     0.031 C 
ATOM     40  C   UNL A   1      39.591  34.594  32.017  1.00  0.00     0.029 A 
ATOM     41  C   UNL A   1      40.635  33.575  32.082  1.00  0.00     0.049 A 
ATOM     42  H   UNL A   1      40.708  31.768  31.049  1.00  0.00     0.167 HD
ATOM     43  C   UNL A   1      40.622  27.932  28.904  1.00  0.00     0.037 A 
ATOM     44  C   UNL A   1      41.753  33.640  32.831  1.00  0.00     0.037 A 
ATOM     45  C   UNL A   1      41.864  27.935  29.631  1.00  0.00     0.049 A 
ATOM     46  C   UNL A   1      42.723  32.491  32.797  1.00  0.00     0.074 A 
ATOM     47  C   UNL A   1      42.863  26.979  29.636  1.00  0.00     0.029 A 
ATOM     48  N   UNL A   1      42.272  28.947  30.487  1.00  0.00    -0.354 N 
ATOM     49  N   UNL A   1      42.667  31.381  32.100  1.00  0.00    -0.248 NA
ATOM     50  C   UNL A   1      43.911  32.602  33.654  1.00  0.00     0.031 C 
ATOM     51  C   UNL A   1      43.859  27.395  30.526  1.00  0.00     0.029 A 
ATOM     52  C   UNL A   1      43.501  28.631  31.040  1.00  0.00     0.049 A 
ATOM     53  H   UNL A   1      41.764  29.769  30.672  1.00  0.00     0.167 HD
ATOM     54  C   UNL A   1      43.818  30.673  32.418  1.00  0.00     0.074 A 
ATOM     55  C   UNL A   1      44.561  31.485  33.359  1.00  0.00     0.031 C 
ATOM     56  C   UNL A   1      44.224  29.459  31.971  1.00  0.00     0.037 A 
BRANCH  43  57
ATOM     57  C   UNL A   1      40.296  26.747  28.044  1.00  0.00     0.057 A 
ATOM     58  C   UNL A   1      40.819  26.602  26.753  1.00  0.00     0.134 A 
ATOM     59  C   UNL A   1      39.460  25.729  28.521  1.00  0.00     0.134 A 
ATOM     60  F   UNL A   1      41.611  27.550  26.229  1.00  0.00    -0.206 F 
ATOM     61  C   UNL A   1      40.508  25.495  25.960  1.00  0.00     0.040 A 
ATOM     62  C   UNL A   1      39.160  24.608  27.747  1.00  0.00     0.040 A 
ATOM     63  F   UNL A   1      38.927  25.807  29.750  1.00  0.00    -0.206 F 
ATOM     64  C   UNL A   1      39.680  24.491  26.459  1.00  0.00     0.006 A 
ENDBRANCH  43  57
BRANCH  44  65
ATOM     65  C   UNL A   1      42.003  34.823  33.691  1.00  0.00     0.057 A 
ATOM     66  C   UNL A   1      41.433  34.927  34.964  1.00  0.00     0.134 A 
ATOM     67  C   UNL A   1      42.812  35.881  33.256  1.00  0.00     0.134 A 
ATOM     68  F   UNL A   1      40.631  33.957  35.426  1.00  0.00    -0.206 F 
ATOM     69  C   UNL A   1      41.646  36.047  35.770  1.00  0.00     0.040 A 
ATOM     70  C   UNL A   1      43.054  36.994  34.062  1.00  0.00     0.040 A 
ATOM     71  F   UNL A   1      43.388  35.840  32.046  1.00  0.00    -0.206 F 
ATOM     72  C   UNL A   1      42.464  37.082  35.322  1.00  0.00     0.006 A 
ENDBRANCH  44  65
BRANCH  56  73
ATOM     73  C   UNL A   1      45.546  28.956  32.470  1.00  0.00     0.057 A 
ATOM     74  C   UNL A   1      45.648  28.157  33.616  1.00  0.00     0.134 A 
ATOM     75  C   UNL A   1      46.727  29.242  31.772  1.00  0.00     0.134 A 
ATOM     76  F   UNL A   1      44.555  27.858  34.336  1.00  0.00    -0.206 F 
ATOM     77  C   UNL A   1      46.880  27.677  34.062  1.00  0.00     0.040 A 
ATOM     78  C   UNL A   1      47.961  28.749  32.195  1.00  0.00     0.040 A 
ATOM     79  F   UNL A   1      46.695  29.996  30.662  1.00  0.00    -0.206 F 
ATOM     80  C   UNL A   1      48.040  27.969  33.346  1.00  0.00     0.006 A 
ENDBRANCH  56  73
ENDBRANCH  30  31
ENDBRANCH  23  25
ENDBRANCH  22  23
ENDBRANCH  21  22
ENDBRANCH   1  21
TORSDOF 17
ENDMDL
MODEL 2
REMARK VINA RESULT:      -8.5      6.059     12.093
REMARK SMILES CCC(CC)Oc1ccc(OC)cc1/C=C/C(=O)OCCOC(=O)c1ccc(-c2c3nc(c(-c4c(F)cccc4F)c4ccc([nH]4)c(-c4c(F)cccc4F)c4nc(c(-c5c(F)cccc5F)c5ccc2[nH]5)C=C4)C=C3)cc1
REMARK SMILES IDX 20 1 19 2 17 3 18 4 16 5 15 6 14 7 7 8 8 9 9 10 13 11 10 12
REMARK SMILES IDX 6 13 3 14 2 15 1 16 4 17 5 18 11 19 12 20 21 21 22 22 23 23
REMARK SMILES IDX 24 24 25 25 26 26 78 27 27 28 77 29 28 30 29 31 30 32 71 33
REMARK SMILES IDX 31 34 76 35 70 36 72 37 32 38 75 39 69 40 68 41 33 43 59 44
REMARK SMILES IDX 42 45 58 46 43 47 46 48 57 49 73 50 44 51 45 52 56 54 74 55
REMARK SMILES IDX 47 56 34 57 35 58 40 59 36 60 37 61 39 62 41 63 38 64 60 65
REMARK SMILES IDX 61 66 66 67 62 68 63 69 65 70 67 71 64 72 48 73 49 74 54 75
REMARK SMILES IDX 50 76 51 77 53 78 55 79 52 80
REMARK H PARENT 72 42 46 53
REMARK Flexibility Score: inf
ROOT
ATOM      1  C   UNL A   1      38.878  20.459  25.392  1.00  0.00     0.275 C 
ENDROOT
BRANCH   1   2
ATOM      2  O   UNL A   1      39.011  21.769  25.970  1.00  0.00    -0.459 OA
BRANCH   2   3
ATOM      3  C   UNL A   1      37.955  22.601  25.819  1.00  0.00     0.330 C 
ATOM      4  O   UNL A   1      37.983  23.822  25.810  1.00  0.00    -0.247 OA
BRANCH   3   5
ATOM      5  C   UNL A   1      36.684  21.860  25.705  1.00  0.00     0.094 C 
ATOM      6  C   UNL A   1      35.810  21.996  24.695  1.00  0.00     0.019 C 
BRANCH   6   7
ATOM      7  C   UNL A   1      34.660  21.095  24.586  1.00  0.00     0.020 A 
ATOM      8  C   UNL A   1      33.374  21.567  24.271  1.00  0.00     0.127 A 
ATOM      9  C   UNL A   1      32.306  20.669  24.205  1.00  0.00     0.051 A 
ATOM     10  C   UNL A   1      32.522  19.300  24.390  1.00  0.00     0.050 A 
ATOM     11  C   UNL A   1      34.857  19.717  24.794  1.00  0.00     0.058 A 
ATOM     12  C   UNL A   1      33.799  18.816  24.675  1.00  0.00     0.119 A 
BRANCH   8  13
ATOM     13  O   UNL A   1      33.069  22.893  24.173  1.00  0.00    -0.490 OA
BRANCH  13  14
ATOM     14  C   UNL A   1      32.293  23.541  25.204  1.00  0.00     0.172 C 
BRANCH  14  15
ATOM     15  C   UNL A   1      33.176  24.496  26.022  1.00  0.00     0.042 C 
ATOM     16  C   UNL A   1      34.186  25.303  25.227  1.00  0.00     0.008 C 
ENDBRANCH  14  15
BRANCH  14  17
ATOM     17  C   UNL A   1      30.900  24.092  24.827  1.00  0.00     0.042 C 
ATOM     18  C   UNL A   1      30.637  24.408  23.359  1.00  0.00     0.008 C 
ENDBRANCH  14  17
ENDBRANCH  13  14
ENDBRANCH   8  13
BRANCH  12  19
ATOM     19  O   UNL A   1      33.887  17.459  24.829  1.00  0.00    -0.497 OA
ATOM     20  C   UNL A   1      32.847  16.831  25.573  1.00  0.00     0.278 C 
ENDBRANCH  12  19
ENDBRANCH   6   7
ENDBRANCH   3   5
ENDBRANCH   2   3
ENDBRANCH   1   2
BRANCH   1  21
ATOM     21  C   UNL A   1      39.707  19.434  26.167  1.00  0.00     0.275 C 
BRANCH  21  22
ATOM     22  O   UNL A   1      40.886  19.056  25.434  1.00  0.00    -0.458 OA
BRANCH  22  23
ATOM     23  C   UNL A   1      42.036  19.085  26.147  1.00  0.00     0.338 C 
ATOM     24  O   UNL A   1      42.811  18.158  26.346  1.00  0.00    -0.246 OA
BRANCH  23  25
ATOM     25  C   UNL A   1      42.331  20.469  26.538  1.00  0.00     0.060 A 
ATOM     26  C   UNL A   1      42.741  21.361  25.541  1.00  0.00     0.016 A 
ATOM     27  C   UNL A   1      42.253  20.878  27.869  1.00  0.00     0.016 A 
ATOM     28  C   UNL A   1      43.065  22.674  25.867  1.00  0.00     0.010 A 
ATOM     29  C   UNL A   1      42.598  22.191  28.201  1.00  0.00     0.010 A 
ATOM     30  C   UNL A   1      43.014  23.088  27.202  1.00  0.00    -0.014 A 
BRANCH  30  31
ATOM     31  C   UNL A   1      43.489  24.441  27.561  1.00  0.00     0.031 A 
ATOM     32  C   UNL A   1      42.490  25.477  27.984  1.00  0.00     0.074 A 
ATOM     33  C   UNL A   1      44.802  24.725  27.530  1.00  0.00     0.049 A 
ATOM     34  N   UNL A   1      42.677  26.738  28.270  1.00  0.00    -0.248 NA
ATOM     35  C   UNL A   1      41.093  25.029  28.102  1.00  0.00     0.031 C 
ATOM     36  C   UNL A   1      45.862  23.779  27.183  1.00  0.00     0.029 A 
ATOM     37  N   UNL A   1      45.466  25.896  27.789  1.00  0.00    -0.354 N 
ATOM     38  C   UNL A   1      41.422  27.241  28.587  1.00  0.00     0.074 A 
ATOM     39  C   UNL A   1      40.479  26.152  28.442  1.00  0.00     0.031 C 
ATOM     40  C   UNL A   1      47.046  24.410  27.243  1.00  0.00     0.029 A 
ATOM     41  C   UNL A   1      46.821  25.811  27.592  1.00  0.00     0.049 A 
ATOM     42  H   UNL A   1      45.014  26.718  28.088  1.00  0.00     0.167 HD
ATOM     43  C   UNL A   1      41.091  28.497  28.966  1.00  0.00     0.037 A 
ATOM     44  C   UNL A   1      47.768  26.766  27.659  1.00  0.00     0.037 A 
ATOM     45  C   UNL A   1      42.038  29.571  29.109  1.00  0.00     0.049 A 
ATOM     46  C   UNL A   1      47.364  28.170  28.017  1.00  0.00     0.074 A 
ATOM     47  C   UNL A   1      41.807  30.881  29.492  1.00  0.00     0.029 A 
ATOM     48  N   UNL A   1      43.400  29.457  28.872  1.00  0.00    -0.354 N 
ATOM     49  N   UNL A   1      46.175  28.640  28.312  1.00  0.00    -0.248 NA
ATOM     50  C   UNL A   1      48.432  29.179  28.048  1.00  0.00     0.031 C 
ATOM     51  C   UNL A   1      43.025  31.568  29.448  1.00  0.00     0.029 A 
ATOM     52  C   UNL A   1      44.020  30.676  29.082  1.00  0.00     0.049 A 
ATOM     53  H   UNL A   1      43.857  28.630  28.596  1.00  0.00     0.167 HD
ATOM     54  C   UNL A   1      46.355  29.989  28.585  1.00  0.00     0.074 A 
ATOM     55  C   UNL A   1      47.769  30.261  28.433  1.00  0.00     0.031 C 
ATOM     56  C   UNL A   1      45.432  30.921  28.929  1.00  0.00     0.037 A 
BRANCH  43  57
ATOM     57  C   UNL A   1      39.640  28.780  29.220  1.00  0.00     0.057 A 
ATOM     58  C   UNL A   1      39.069  28.639  30.491  1.00  0.00     0.134 A 
ATOM     59  C   UNL A   1      38.808  29.216  28.182  1.00  0.00     0.134 A 
ATOM     60  F   UNL A   1      39.808  28.208  31.525  1.00  0.00    -0.206 F 
ATOM     61  C   UNL A   1      37.717  28.904  30.716  1.00  0.00     0.040 A 
ATOM     62  C   UNL A   1      37.460  29.506  28.399  1.00  0.00     0.040 A 
ATOM     63  F   UNL A   1      39.292  29.372  26.940  1.00  0.00    -0.206 F 
ATOM     64  C   UNL A   1      36.909  29.344  29.669  1.00  0.00     0.006 A 
ENDBRANCH  43  57
BRANCH  44  65
ATOM     65  C   UNL A   1      49.183  26.433  27.361  1.00  0.00     0.057 A 
ATOM     66  C   UNL A   1      50.079  26.095  28.381  1.00  0.00     0.134 A 
ATOM     67  C   UNL A   1      49.675  26.454  26.050  1.00  0.00     0.134 A 
ATOM     68  F   UNL A   1      49.672  26.080  29.659  1.00  0.00    -0.206 F 
ATOM     69  C   UNL A   1      51.417  25.802  28.111  1.00  0.00     0.040 A 
ATOM     70  C   UNL A   1      51.003  26.139  25.763  1.00  0.00     0.040 A 
ATOM     71  F   UNL A   1      48.866  26.770  25.028  1.00  0.00    -0.206 F 
ATOM     72  C   UNL A   1      51.881  25.818  26.797  1.00  0.00     0.006 A 
ENDBRANCH  44  65
BRANCH  56  73
ATOM     73  C   UNL A   1      45.932  32.309  29.198  1.00  0.00     0.057 A 
ATOM     74  C   UNL A   1      46.338  32.713  30.476  1.00  0.00     0.134 A 
ATOM     75  C   UNL A   1      46.046  33.239  28.157  1.00  0.00     0.134 A 
ATOM     76  F   UNL A   1      46.241  31.873  31.518  1.00  0.00    -0.206 F 
ATOM     77  C   UNL A   1      46.820  34.001  30.713  1.00  0.00     0.040 A 
ATOM     78  C   UNL A   1      46.549  34.522  28.378  1.00  0.00     0.040 A 
ATOM     79  F   UNL A   1      45.682  32.911  26.908  1.00  0.00    -0.206 F 
ATOM     80  C   UNL A   1      46.932  34.907  29.660  1.00  0.00     0.006 A 
ENDBRANCH  56  73
ENDBRANCH  30  31
ENDBRANCH  23  25
ENDBRANCH  22  23
ENDBRANCH  21  22
ENDBRANCH   1  21
TORSDOF 17
ENDMDL
MODEL 3
REMARK VINA RESULT:      -8.5      3.946      9.289
REMARK SMILES CCC(CC)Oc1ccc(OC)cc1/C=C/C(=O)OCCOC(=O)c1ccc(-c2c3nc(c(-c4c(F)cccc4F)c4ccc([nH]4)c(-c4c(F)cccc4F)c4nc(c(-c5c(F)cccc5F)c5ccc2[nH]5)C=C4)C=C3)cc1
REMARK SMILES IDX 20 1 19 2 17 3 18 4 16 5 15 6 14 7 7 8 8 9 9 10 13 11 10 12
REMARK SMILES IDX 6 13 3 14 2 15 1 16 4 17 5 18 11 19 12 20 21 21 22 22 23 23
REMARK SMILES IDX 24 24 25 25 26 26 78 27 27 28 77 29 28 30 29 31 30 32 71 33
REMARK SMILES IDX 31 34 76 35 70 36 72 37 32 38 75 39 69 40 68 41 33 43 59 44
REMARK SMILES IDX 42 45 58 46 43 47 46 48 57 49 73 50 44 51 45 52 56 54 74 55
REMARK SMILES IDX 47 56 34 57 35 58 40 59 36 60 37 61 39 62 41 63 38 64 60 65
REMARK SMILES IDX 61 66 66 67 62 68 63 69 65 70 67 71 64 72 48 73 49 74 54 75
REMARK SMILES IDX 50 76 51 77 53 78 55 79 52 80
REMARK H PARENT 72 42 46 53
REMARK Flexibility Score: inf
ROOT
ATOM      1  C   UNL A   1      32.395  31.982  27.229  1.00  0.00     0.275 C 
ENDROOT
BRANCH   1   2
ATOM      2  O   UNL A   1      33.738  31.478  27.141  1.00  0.00    -0.459 OA
BRANCH   2   3
ATOM      3  C   UNL A   1      33.873  30.132  27.107  1.00  0.00     0.330 C 
ATOM      4  O   UNL A   1      34.647  29.460  27.770  1.00  0.00    -0.247 OA
BRANCH   3   5
ATOM      5  C   UNL A   1      32.981  29.517  26.106  1.00  0.00     0.094 C 
ATOM      6  C   UNL A   1      32.391  28.318  26.245  1.00  0.00     0.019 C 
BRANCH   6   7
ATOM      7  C   UNL A   1      31.392  27.868  25.273  1.00  0.00     0.020 A 
ATOM      8  C   UNL A   1      30.591  26.736  25.501  1.00  0.00     0.127 A 
ATOM      9  C   UNL A   1      29.671  26.334  24.529  1.00  0.00     0.051 A 
ATOM     10  C   UNL A   1      29.501  27.088  23.363  1.00  0.00     0.050 A 
ATOM     11  C   UNL A   1      31.226  28.603  24.083  1.00  0.00     0.058 A 
ATOM     12  C   UNL A   1      30.270  28.231  23.139  1.00  0.00     0.119 A 
BRANCH   8  13
ATOM     13  O   UNL A   1      30.766  25.900  26.564  1.00  0.00    -0.490 OA
BRANCH  13  14
ATOM     14  C   UNL A   1      31.586  24.717  26.435  1.00  0.00     0.172 C 
BRANCH  14  15
ATOM     15  C   UNL A   1      30.730  23.450  26.595  1.00  0.00     0.042 C 
ATOM     16  C   UNL A   1      31.221  22.224  25.847  1.00  0.00     0.008 C 
ENDBRANCH  14  15
BRANCH  14  17
ATOM     17  C   UNL A   1      32.622  24.673  25.291  1.00  0.00     0.042 C 
ATOM     18  C   UNL A   1      34.081  24.935  25.646  1.00  0.00     0.008 C 
ENDBRANCH  14  17
ENDBRANCH  13  14
ENDBRANCH   8  13
BRANCH  12  19
ATOM     19  O   UNL A   1      30.008  28.887  21.968  1.00  0.00    -0.497 OA
ATOM     20  C   UNL A   1      29.120  29.999  22.041  1.00  0.00     0.278 C 
ENDBRANCH  12  19
ENDBRANCH   6   7
ENDBRANCH   3   5
ENDBRANCH   2   3
ENDBRANCH   1   2
BRANCH   1  21
ATOM     21  C   UNL A   1      32.381  33.511  27.186  1.00  0.00     0.275 C 
BRANCH  21  22
ATOM     22  O   UNL A   1      32.327  34.070  28.511  1.00  0.00    -0.458 OA
BRANCH  22  23
ATOM     23  C   UNL A   1      33.376  34.856  28.844  1.00  0.00     0.338 C 
ATOM     24  O   UNL A   1      33.390  36.077  28.936  1.00  0.00    -0.246 OA
BRANCH  23  25
ATOM     25  C   UNL A   1      34.507  34.013  29.253  1.00  0.00     0.060 A 
ATOM     26  C   UNL A   1      34.264  32.989  30.175  1.00  0.00     0.016 A 
ATOM     27  C   UNL A   1      35.796  34.249  28.776  1.00  0.00     0.016 A 
ATOM     28  C   UNL A   1      35.308  32.185  30.618  1.00  0.00     0.010 A 
ATOM     29  C   UNL A   1      36.849  33.455  29.237  1.00  0.00     0.010 A 
ATOM     30  C   UNL A   1      36.609  32.428  30.167  1.00  0.00    -0.014 A 
BRANCH  30  31
ATOM     31  C   UNL A   1      37.733  31.662  30.744  1.00  0.00     0.031 A 
ATOM     32  C   UNL A   1      38.168  31.950  32.150  1.00  0.00     0.074 A 
ATOM     33  C   UNL A   1      38.336  30.703  30.021  1.00  0.00     0.049 A 
ATOM     34  N   UNL A   1      39.170  31.452  32.825  1.00  0.00    -0.248 NA
ATOM     35  C   UNL A   1      37.363  32.931  32.895  1.00  0.00     0.031 C 
ATOM     36  C   UNL A   1      37.960  30.306  28.665  1.00  0.00     0.029 A 
ATOM     37  N   UNL A   1      39.399  29.894  30.328  1.00  0.00    -0.354 N 
ATOM     38  C   UNL A   1      39.128  32.069  34.069  1.00  0.00     0.074 A 
ATOM     39  C   UNL A   1      38.011  32.990  34.049  1.00  0.00     0.031 C 
ATOM     40  C   UNL A   1      38.787  29.331  28.251  1.00  0.00     0.029 A 
ATOM     41  C   UNL A   1      39.772  29.067  29.298  1.00  0.00     0.049 A 
ATOM     42  H   UNL A   1      39.851  29.903  31.203  1.00  0.00     0.167 HD
ATOM     43  C   UNL A   1      39.947  31.880  35.129  1.00  0.00     0.037 A 
ATOM     44  C   UNL A   1      40.810  28.215  29.203  1.00  0.00     0.037 A 
ATOM     45  C   UNL A   1      41.054  30.959  35.137  1.00  0.00     0.049 A 
ATOM     46  C   UNL A   1      41.747  28.073  30.372  1.00  0.00     0.074 A 
ATOM     47  C   UNL A   1      41.944  30.688  36.161  1.00  0.00     0.029 A 
ATOM     48  N   UNL A   1      41.420  30.159  34.065  1.00  0.00    -0.354 N 
ATOM     49  N   UNL A   1      41.703  28.661  31.544  1.00  0.00    -0.248 NA
ATOM     50  C   UNL A   1      42.878  27.151  30.205  1.00  0.00     0.031 C 
ATOM     51  C   UNL A   1      42.873  29.753  35.694  1.00  0.00     0.029 A 
ATOM     52  C   UNL A   1      42.535  29.408  34.395  1.00  0.00     0.049 A 
ATOM     53  H   UNL A   1      40.956  30.130  33.198  1.00  0.00     0.167 HD
ATOM     54  C   UNL A   1      42.784  28.165  32.259  1.00  0.00     0.074 A 
ATOM     55  C   UNL A   1      43.458  27.218  31.396  1.00  0.00     0.031 C 
ATOM     56  C   UNL A   1      43.185  28.467  33.519  1.00  0.00     0.037 A 
BRANCH  43  57
ATOM     57  C   UNL A   1      39.694  32.709  36.352  1.00  0.00     0.057 A 
ATOM     58  C   UNL A   1      40.405  33.887  36.609  1.00  0.00     0.134 A 
ATOM     59  C   UNL A   1      38.712  32.331  37.277  1.00  0.00     0.134 A 
ATOM     60  F   UNL A   1      41.371  34.295  35.772  1.00  0.00    -0.206 F 
ATOM     61  C   UNL A   1      40.162  34.651  37.753  1.00  0.00     0.040 A 
ATOM     62  C   UNL A   1      38.444  33.098  38.412  1.00  0.00     0.040 A 
ATOM     63  F   UNL A   1      37.994  31.213  37.090  1.00  0.00    -0.206 F 
ATOM     64  C   UNL A   1      39.175  34.259  38.655  1.00  0.00     0.006 A 
ENDBRANCH  43  57
BRANCH  44  65
ATOM     65  C   UNL A   1      41.031  27.448  27.952  1.00  0.00     0.057 A 
ATOM     66  C   UNL A   1      40.521  26.155  27.794  1.00  0.00     0.134 A 
ATOM     67  C   UNL A   1      41.766  27.987  26.889  1.00  0.00     0.134 A 
ATOM     68  F   UNL A   1      39.829  25.577  28.787  1.00  0.00    -0.206 F 
ATOM     69  C   UNL A   1      40.744  25.419  26.629  1.00  0.00     0.040 A 
ATOM     70  C   UNL A   1      41.975  27.273  25.708  1.00  0.00     0.040 A 
ATOM     71  F   UNL A   1      42.281  29.222  26.978  1.00  0.00    -0.206 F 
ATOM     72  C   UNL A   1      41.468  25.981  25.579  1.00  0.00     0.006 A 
ENDBRANCH  44  65
BRANCH  56  73
ATOM     73  C   UNL A   1      44.386  27.739  34.046  1.00  0.00     0.057 A 
ATOM     74  C   UNL A   1      44.278  26.489  34.667  1.00  0.00     0.134 A 
ATOM     75  C   UNL A   1      45.670  28.278  33.892  1.00  0.00     0.134 A 
ATOM     76  F   UNL A   1      43.075  25.925  34.857  1.00  0.00    -0.206 F 
ATOM     77  C   UNL A   1      45.403  25.810  35.137  1.00  0.00     0.040 A 
ATOM     78  C   UNL A   1      46.804  27.598  34.335  1.00  0.00     0.040 A 
ATOM     79  F   UNL A   1      45.841  29.468  33.296  1.00  0.00    -0.206 F 
ATOM     80  C   UNL A   1      46.671  26.362  34.966  1.00  0.00     0.006 A 
ENDBRANCH  56  73
ENDBRANCH  30  31
ENDBRANCH  23  25
ENDBRANCH  22  23
ENDBRANCH  21  22
ENDBRANCH   1  21
TORSDOF 17
ENDMDL
