MODEL 1
REMARK VINA RESULT:     -11.6      0.000      0.000
REMARK SMILES O=C(CSc1ccnc(C(=O)OCCOC(=O)c2ccc(-c3c4nc(c(-c5c(F)cccc5F)c5ccc([nH]5)c(-c5c(F)cccc5F)c5nc(c(-c6c(F)cccc6F)c6ccc3[nH]6)C=C5)C=C4)cc2)c1)NNc1ccccn1
REMARK SMILES IDX 12 1 10 2 11 3 9 4 5 5 6 6 72 7 7 8 8 9 4 10 3 11 2 12 1 13
REMARK SMILES IDX 73 14 74 16 75 18 76 19 80 20 77 21 79 22 78 23 13 24 14 25
REMARK SMILES IDX 15 26 16 27 17 28 18 29 19 30 71 31 20 32 70 33 21 34 22 35
REMARK SMILES IDX 23 36 64 37 24 38 69 39 63 40 65 41 25 42 68 43 62 44 61 45
REMARK SMILES IDX 26 47 52 48 35 49 51 50 36 51 39 52 50 53 66 54 37 55 38 56
REMARK SMILES IDX 49 58 67 59 40 60 27 61 28 62 33 63 29 64 30 65 32 66 34 67
REMARK SMILES IDX 31 68 53 69 54 70 59 71 55 72 56 73 58 74 60 75 57 76 41 77
REMARK SMILES IDX 42 78 47 79 43 80 44 81 46 82 48 83 45 84
REMARK H PARENT 73 15 74 17 65 46 39 57
REMARK Flexibility Score: inf
ROOT
ATOM      1  O   UNL A   1      41.422  21.063  25.603  1.00  0.00    -0.457 OA
ENDROOT
BRANCH   1   2
ATOM      2  C   UNL A   1      40.415  20.923  26.506  1.00  0.00     0.357 C 
ATOM      3  O   UNL A   1      40.403  20.132  27.440  1.00  0.00    -0.244 OA
BRANCH   2   4
ATOM      4  C   UNL A   1      39.338  21.935  26.271  1.00  0.00     0.149 A 
ATOM      5  C   UNL A   1      37.314  22.715  25.286  1.00  0.00     0.012 A 
ATOM      6  C   UNL A   1      37.461  23.907  25.992  1.00  0.00     0.035 A 
ATOM      7  C   UNL A   1      38.276  21.708  25.407  1.00  0.00     0.051 A 
ATOM      8  C   UNL A   1      38.550  24.043  26.826  1.00  0.00     0.113 A 
ATOM      9  N   UNL A   1      39.464  23.075  27.004  1.00  0.00    -0.249 NA
BRANCH   5  10
ATOM     10  S   UNL A   1      35.826  22.475  24.329  1.00  0.00    -0.116 SA
BRANCH  10  11
ATOM     11  C   UNL A   1      34.565  22.713  25.618  1.00  0.00     0.176 C 
BRANCH  11  12
ATOM     12  C   UNL A   1      33.505  21.630  25.636  1.00  0.00     0.248 C 
ATOM     13  O   UNL A   1      32.528  21.679  24.887  1.00  0.00    -0.272 OA
ATOM     14  N   UNL A   1      33.780  20.541  26.448  1.00  0.00    -0.268 N 
ATOM     15  H   UNL A   1      34.563  20.533  27.043  1.00  0.00     0.191 HD
BRANCH  14  16
ATOM     16  N   UNL A   1      32.905  19.463  26.388  1.00  0.00    -0.282 N 
ATOM     17  H   UNL A   1      32.105  19.451  26.961  1.00  0.00     0.190 HD
BRANCH  16  18
ATOM     18  C   UNL A   1      33.152  18.400  25.524  1.00  0.00     0.144 A 
ATOM     19  C   UNL A   1      34.171  18.425  24.575  1.00  0.00     0.048 A 
ATOM     20  N   UNL A   1      32.360  17.317  25.679  1.00  0.00    -0.238 NA
ATOM     21  C   UNL A   1      34.381  17.310  23.764  1.00  0.00     0.005 A 
ATOM     22  C   UNL A   1      32.573  16.251  24.875  1.00  0.00     0.113 A 
ATOM     23  C   UNL A   1      33.562  16.200  23.911  1.00  0.00     0.020 A 
ENDBRANCH  16  18
ENDBRANCH  14  16
ENDBRANCH  11  12
ENDBRANCH  10  11
ENDBRANCH   5  10
ENDBRANCH   2   4
ENDBRANCH   1   2
BRANCH   1  24
ATOM     24  C   UNL A   1      42.742  20.757  26.099  1.00  0.00     0.275 C 
BRANCH  24  25
ATOM     25  C   UNL A   1      43.788  21.763  25.610  1.00  0.00     0.275 C 
BRANCH  25  26
ATOM     26  O   UNL A   1      43.177  22.955  25.081  1.00  0.00    -0.458 OA
BRANCH  26  27
ATOM     27  C   UNL A   1      43.890  24.093  25.259  1.00  0.00     0.338 C 
ATOM     28  O   UNL A   1      44.875  24.453  24.640  1.00  0.00    -0.246 OA
BRANCH  27  29
ATOM     29  C   UNL A   1      43.242  24.930  26.280  1.00  0.00     0.060 A 
ATOM     30  C   UNL A   1      43.593  26.276  26.328  1.00  0.00     0.016 A 
ATOM     31  C   UNL A   1      42.402  24.388  27.253  1.00  0.00     0.016 A 
ATOM     32  C   UNL A   1      43.142  27.089  27.360  1.00  0.00     0.010 A 
ATOM     33  C   UNL A   1      41.914  25.217  28.275  1.00  0.00     0.010 A 
ATOM     34  C   UNL A   1      42.295  26.570  28.345  1.00  0.00    -0.014 A 
BRANCH  34  35
ATOM     35  C   UNL A   1      41.850  27.449  29.456  1.00  0.00     0.031 A 
ATOM     36  C   UNL A   1      42.595  27.457  30.760  1.00  0.00     0.074 A 
ATOM     37  C   UNL A   1      40.808  28.283  29.275  1.00  0.00     0.049 A 
ATOM     38  N   UNL A   1      42.316  28.096  31.869  1.00  0.00    -0.248 NA
ATOM     39  C   UNL A   1      43.816  26.640  30.828  1.00  0.00     0.031 C 
ATOM     40  C   UNL A   1      40.039  28.417  28.037  1.00  0.00     0.029 A 
ATOM     41  N   UNL A   1      40.225  29.185  30.130  1.00  0.00    -0.354 N 
ATOM     42  C   UNL A   1      43.305  27.735  32.774  1.00  0.00     0.074 A 
ATOM     43  C   UNL A   1      44.187  26.814  32.089  1.00  0.00     0.031 C 
ATOM     44  C   UNL A   1      39.100  29.362  28.205  1.00  0.00     0.029 A 
ATOM     45  C   UNL A   1      39.162  29.855  29.578  1.00  0.00     0.049 A 
ATOM     46  H   UNL A   1      40.538  29.335  31.051  1.00  0.00     0.167 HD
ATOM     47  C   UNL A   1      43.462  28.137  34.058  1.00  0.00     0.037 A 
ATOM     48  C   UNL A   1      38.312  30.746  30.123  1.00  0.00     0.037 A 
ATOM     49  C   UNL A   1      42.604  29.077  34.729  1.00  0.00     0.049 A 
ATOM     50  C   UNL A   1      38.473  31.130  31.566  1.00  0.00     0.074 A 
ATOM     51  C   UNL A   1      42.691  29.553  36.027  1.00  0.00     0.029 A 
ATOM     52  N   UNL A   1      41.501  29.689  34.153  1.00  0.00    -0.354 N 
ATOM     53  N   UNL A   1      39.390  30.754  32.423  1.00  0.00    -0.248 NA
ATOM     54  C   UNL A   1      37.469  32.047  32.122  1.00  0.00     0.031 C 
ATOM     55  C   UNL A   1      41.620  30.429  36.246  1.00  0.00     0.029 A 
ATOM     56  C   UNL A   1      40.888  30.524  35.074  1.00  0.00     0.049 A 
ATOM     57  H   UNL A   1      41.199  29.552  33.226  1.00  0.00     0.167 HD
ATOM     58  C   UNL A   1      39.079  31.390  33.616  1.00  0.00     0.074 A 
ATOM     59  C   UNL A   1      37.900  32.195  33.367  1.00  0.00     0.031 C 
ATOM     60  C   UNL A   1      39.711  31.311  34.813  1.00  0.00     0.037 A 
BRANCH  47  61
ATOM     61  C   UNL A   1      44.594  27.530  34.833  1.00  0.00     0.057 A 
ATOM     62  C   UNL A   1      45.860  28.127  34.890  1.00  0.00     0.134 A 
ATOM     63  C   UNL A   1      44.405  26.342  35.550  1.00  0.00     0.134 A 
ATOM     64  F   UNL A   1      46.108  29.259  34.214  1.00  0.00    -0.206 F 
ATOM     65  C   UNL A   1      46.905  27.550  35.614  1.00  0.00     0.040 A 
ATOM     66  C   UNL A   1      45.435  25.767  36.296  1.00  0.00     0.040 A 
ATOM     67  F   UNL A   1      43.214  25.724  35.541  1.00  0.00    -0.206 F 
ATOM     68  C   UNL A   1      46.692  26.369  36.324  1.00  0.00     0.006 A 
ENDBRANCH  47  61
BRANCH  48  69
ATOM     69  C   UNL A   1      37.211  31.309  29.305  1.00  0.00     0.057 A 
ATOM     70  C   UNL A   1      37.292  32.600  28.773  1.00  0.00     0.134 A 
ATOM     71  C   UNL A   1      36.055  30.569  29.033  1.00  0.00     0.134 A 
ATOM     72  F   UNL A   1      38.364  33.367  29.021  1.00  0.00    -0.206 F 
ATOM     73  C   UNL A   1      36.260  33.136  28.000  1.00  0.00     0.040 A 
ATOM     74  C   UNL A   1      35.026  31.083  28.243  1.00  0.00     0.040 A 
ATOM     75  F   UNL A   1      35.917  29.325  29.518  1.00  0.00    -0.206 F 
ATOM     76  C   UNL A   1      35.126  32.374  27.728  1.00  0.00     0.006 A 
ENDBRANCH  48  69
BRANCH  60  77
ATOM     77  C   UNL A   1      39.142  32.125  35.935  1.00  0.00     0.057 A 
ATOM     78  C   UNL A   1      38.225  31.579  36.843  1.00  0.00     0.134 A 
ATOM     79  C   UNL A   1      39.533  33.455  36.128  1.00  0.00     0.134 A 
ATOM     80  F   UNL A   1      37.800  30.315  36.703  1.00  0.00    -0.206 F 
ATOM     81  C   UNL A   1      37.704  32.336  37.892  1.00  0.00     0.040 A 
ATOM     82  C   UNL A   1      39.033  34.215  37.184  1.00  0.00     0.040 A 
ATOM     83  F   UNL A   1      40.412  34.033  35.295  1.00  0.00    -0.206 F 
ATOM     84  C   UNL A   1      38.112  33.656  38.069  1.00  0.00     0.006 A 
ENDBRANCH  60  77
ENDBRANCH  34  35
ENDBRANCH  27  29
ENDBRANCH  26  27
ENDBRANCH  25  26
ENDBRANCH  24  25
ENDBRANCH   1  24
TORSDOF 16
ENDMDL
MODEL 2
REMARK VINA RESULT:     -11.5      5.613     10.005
REMARK SMILES O=C(CSc1ccnc(C(=O)OCCOC(=O)c2ccc(-c3c4nc(c(-c5c(F)cccc5F)c5ccc([nH]5)c(-c5c(F)cccc5F)c5nc(c(-c6c(F)cccc6F)c6ccc3[nH]6)C=C5)C=C4)cc2)c1)NNc1ccccn1
REMARK SMILES IDX 12 1 10 2 11 3 9 4 5 5 6 6 72 7 7 8 8 9 4 10 3 11 2 12 1 13
REMARK SMILES IDX 73 14 74 16 75 18 76 19 80 20 77 21 79 22 78 23 13 24 14 25
REMARK SMILES IDX 15 26 16 27 17 28 18 29 19 30 71 31 20 32 70 33 21 34 22 35
REMARK SMILES IDX 23 36 64 37 24 38 69 39 63 40 65 41 25 42 68 43 62 44 61 45
REMARK SMILES IDX 26 47 52 48 35 49 51 50 36 51 39 52 50 53 66 54 37 55 38 56
REMARK SMILES IDX 49 58 67 59 40 60 27 61 28 62 33 63 29 64 30 65 32 66 34 67
REMARK SMILES IDX 31 68 53 69 54 70 59 71 55 72 56 73 58 74 60 75 57 76 41 77
REMARK SMILES IDX 42 78 47 79 43 80 44 81 46 82 48 83 45 84
REMARK H PARENT 73 15 74 17 65 46 39 57
REMARK Flexibility Score: inf
ROOT
ATOM      1  O   UNL A   1      33.619  34.035  29.023  1.00  0.00    -0.457 OA
ENDROOT
BRANCH   1   2
ATOM      2  C   UNL A   1      33.115  33.249  28.034  1.00  0.00     0.357 C 
ATOM      3  O   UNL A   1      32.155  33.526  27.327  1.00  0.00    -0.244 OA
BRANCH   2   4
ATOM      4  C   UNL A   1      33.947  32.019  27.847  1.00  0.00     0.149 A 
ATOM      5  C   UNL A   1      34.302  29.756  27.193  1.00  0.00     0.012 A 
ATOM      6  C   UNL A   1      35.639  29.887  27.567  1.00  0.00     0.035 A 
ATOM      7  C   UNL A   1      33.425  30.834  27.349  1.00  0.00     0.051 A 
ATOM      8  C   UNL A   1      36.066  31.103  28.053  1.00  0.00     0.113 A 
ATOM      9  N   UNL A   1      35.261  32.172  28.167  1.00  0.00    -0.249 NA
BRANCH   5  10
ATOM     10  S   UNL A   1      33.784  28.235  26.417  1.00  0.00    -0.116 SA
BRANCH  10  11
ATOM     11  C   UNL A   1      33.293  28.854  24.778  1.00  0.00     0.176 C 
BRANCH  11  12
ATOM     12  C   UNL A   1      31.829  28.624  24.458  1.00  0.00     0.248 C 
ATOM     13  O   UNL A   1      31.020  28.332  25.340  1.00  0.00    -0.272 OA
ATOM     14  N   UNL A   1      31.457  28.892  23.151  1.00  0.00    -0.268 N 
ATOM     15  H   UNL A   1      32.125  29.114  22.464  1.00  0.00     0.191 HD
BRANCH  14  16
ATOM     16  N   UNL A   1      30.102  28.830  22.848  1.00  0.00    -0.282 N 
ATOM     17  H   UNL A   1      29.639  27.961  22.851  1.00  0.00     0.190 HD
BRANCH  16  18
ATOM     18  C   UNL A   1      29.393  29.989  22.539  1.00  0.00     0.144 A 
ATOM     19  C   UNL A   1      29.092  30.960  23.491  1.00  0.00     0.048 A 
ATOM     20  N   UNL A   1      29.038  30.137  21.245  1.00  0.00    -0.238 NA
ATOM     21  C   UNL A   1      28.406  32.111  23.104  1.00  0.00     0.005 A 
ATOM     22  C   UNL A   1      28.364  31.254  20.893  1.00  0.00     0.113 A 
ATOM     23  C   UNL A   1      28.028  32.261  21.778  1.00  0.00     0.020 A 
ENDBRANCH  16  18
ENDBRANCH  14  16
ENDBRANCH  11  12
ENDBRANCH  10  11
ENDBRANCH   5  10
ENDBRANCH   2   4
ENDBRANCH   1   2
BRANCH   1  24
ATOM     24  C   UNL A   1      33.623  35.451  28.745  1.00  0.00     0.275 C 
BRANCH  24  25
ATOM     25  C   UNL A   1      32.843  36.246  29.796  1.00  0.00     0.275 C 
BRANCH  25  26
ATOM     26  O   UNL A   1      32.399  35.407  30.880  1.00  0.00    -0.458 OA
BRANCH  26  27
ATOM     27  C   UNL A   1      32.704  35.861  32.118  1.00  0.00     0.338 C 
ATOM     28  O   UNL A   1      32.108  36.704  32.766  1.00  0.00    -0.246 OA
BRANCH  27  29
ATOM     29  C   UNL A   1      33.849  35.110  32.654  1.00  0.00     0.060 A 
ATOM     30  C   UNL A   1      35.117  35.660  32.489  1.00  0.00     0.016 A 
ATOM     31  C   UNL A   1      33.704  33.834  33.199  1.00  0.00     0.016 A 
ATOM     32  C   UNL A   1      36.254  34.938  32.829  1.00  0.00     0.010 A 
ATOM     33  C   UNL A   1      34.849  33.117  33.579  1.00  0.00     0.010 A 
ATOM     34  C   UNL A   1      36.133  33.657  33.380  1.00  0.00    -0.014 A 
BRANCH  34  35
ATOM     35  C   UNL A   1      37.361  32.890  33.707  1.00  0.00     0.031 A 
ATOM     36  C   UNL A   1      38.085  33.136  35.000  1.00  0.00     0.074 A 
ATOM     37  C   UNL A   1      37.798  31.931  32.868  1.00  0.00     0.049 A 
ATOM     38  N   UNL A   1      39.213  32.624  35.428  1.00  0.00    -0.248 NA
ATOM     39  C   UNL A   1      37.461  34.083  35.937  1.00  0.00     0.031 C 
ATOM     40  C   UNL A   1      37.150  31.551  31.612  1.00  0.00     0.029 A 
ATOM     41  N   UNL A   1      38.881  31.093  32.953  1.00  0.00    -0.354 N 
ATOM     42  C   UNL A   1      39.448  33.207  36.666  1.00  0.00     0.074 A 
ATOM     43  C   UNL A   1      38.352  34.119  36.918  1.00  0.00     0.031 C 
ATOM     44  C   UNL A   1      37.837  30.541  31.054  1.00  0.00     0.029 A 
ATOM     45  C   UNL A   1      39.002  30.244  31.881  1.00  0.00     0.049 A 
ATOM     46  H   UNL A   1      39.511  31.102  33.709  1.00  0.00     0.167 HD
ATOM     47  C   UNL A   1      40.483  32.998  37.515  1.00  0.00     0.037 A 
ATOM     48  C   UNL A   1      39.960  29.347  31.581  1.00  0.00     0.037 A 
ATOM     49  C   UNL A   1      41.556  32.068  37.279  1.00  0.00     0.049 A 
ATOM     50  C   UNL A   1      41.128  29.178  32.511  1.00  0.00     0.074 A 
ATOM     51  C   UNL A   1      42.643  31.781  38.087  1.00  0.00     0.029 A 
ATOM     52  N   UNL A   1      41.674  31.269  36.152  1.00  0.00    -0.354 N 
ATOM     53  N   UNL A   1      41.359  29.761  33.660  1.00  0.00    -0.248 NA
ATOM     54  C   UNL A   1      42.176  28.239  32.090  1.00  0.00     0.031 C 
ATOM     55  C   UNL A   1      43.437  30.831  37.433  1.00  0.00     0.029 A 
ATOM     56  C   UNL A   1      42.825  30.502  36.234  1.00  0.00     0.049 A 
ATOM     57  H   UNL A   1      41.034  31.248  35.405  1.00  0.00     0.167 HD
ATOM     58  C   UNL A   1      42.574  29.259  34.104  1.00  0.00     0.074 A 
ATOM     59  C   UNL A   1      43.022  28.304  33.109  1.00  0.00     0.031 C 
ATOM     60  C   UNL A   1      43.261  29.564  35.233  1.00  0.00     0.037 A 
BRANCH  47  61
ATOM     61  C   UNL A   1      40.520  33.822  38.767  1.00  0.00     0.057 A 
ATOM     62  C   UNL A   1      39.833  33.441  39.928  1.00  0.00     0.134 A 
ATOM     63  C   UNL A   1      41.271  35.003  38.817  1.00  0.00     0.134 A 
ATOM     64  F   UNL A   1      39.086  32.328  39.939  1.00  0.00    -0.206 F 
ATOM     65  C   UNL A   1      39.875  34.218  41.087  1.00  0.00     0.040 A 
ATOM     66  C   UNL A   1      41.339  35.777  39.977  1.00  0.00     0.040 A 
ATOM     67  F   UNL A   1      41.957  35.420  37.742  1.00  0.00    -0.206 F 
ATOM     68  C   UNL A   1      40.634  35.388  41.114  1.00  0.00     0.006 A 
ENDBRANCH  47  61
BRANCH  48  69
ATOM     69  C   UNL A   1      39.869  28.563  30.325  1.00  0.00     0.057 A 
ATOM     70  C   UNL A   1      40.493  29.001  29.153  1.00  0.00     0.134 A 
ATOM     71  C   UNL A   1      39.162  27.356  30.271  1.00  0.00     0.134 A 
ATOM     72  F   UNL A   1      41.162  30.163  29.136  1.00  0.00    -0.206 F 
ATOM     73  C   UNL A   1      40.414  28.268  27.967  1.00  0.00     0.040 A 
ATOM     74  C   UNL A   1      39.095  26.601  29.099  1.00  0.00     0.040 A 
ATOM     75  F   UNL A   1      38.541  26.885  31.363  1.00  0.00    -0.206 F 
ATOM     76  C   UNL A   1      39.719  27.060  27.941  1.00  0.00     0.006 A 
ENDBRANCH  48  69
BRANCH  60  77
ATOM     77  C   UNL A   1      44.560  28.850  35.451  1.00  0.00     0.057 A 
ATOM     78  C   UNL A   1      44.616  27.619  36.115  1.00  0.00     0.134 A 
ATOM     79  C   UNL A   1      45.761  29.384  34.970  1.00  0.00     0.134 A 
ATOM     80  F   UNL A   1      43.501  27.063  36.613  1.00  0.00    -0.206 F 
ATOM     81  C   UNL A   1      45.826  26.952  36.310  1.00  0.00     0.040 A 
ATOM     82  C   UNL A   1      46.974  28.717  35.142  1.00  0.00     0.040 A 
ATOM     83  F   UNL A   1      45.772  30.558  34.321  1.00  0.00    -0.206 F 
ATOM     84  C   UNL A   1      47.009  27.499  35.817  1.00  0.00     0.006 A 
ENDBRANCH  60  77
ENDBRANCH  34  35
ENDBRANCH  27  29
ENDBRANCH  26  27
ENDBRANCH  25  26
ENDBRANCH  24  25
ENDBRANCH   1  24
TORSDOF 16
ENDMDL
MODEL 3
REMARK VINA RESULT:     -11.3      5.409     10.419
REMARK SMILES O=C(CSc1ccnc(C(=O)OCCOC(=O)c2ccc(-c3c4nc(c(-c5c(F)cccc5F)c5ccc([nH]5)c(-c5c(F)cccc5F)c5nc(c(-c6c(F)cccc6F)c6ccc3[nH]6)C=C5)C=C4)cc2)c1)NNc1ccccn1
REMARK SMILES IDX 12 1 10 2 11 3 9 4 5 5 6 6 72 7 7 8 8 9 4 10 3 11 2 12 1 13
REMARK SMILES IDX 73 14 74 16 75 18 76 19 80 20 77 21 79 22 78 23 13 24 14 25
REMARK SMILES IDX 15 26 16 27 17 28 18 29 19 30 71 31 20 32 70 33 21 34 22 35
REMARK SMILES IDX 23 36 64 37 24 38 69 39 63 40 65 41 25 42 68 43 62 44 61 45
REMARK SMILES IDX 26 47 52 48 35 49 51 50 36 51 39 52 50 53 66 54 37 55 38 56
REMARK SMILES IDX 49 58 67 59 40 60 27 61 28 62 33 63 29 64 30 65 32 66 34 67
REMARK SMILES IDX 31 68 53 69 54 70 59 71 55 72 56 73 58 74 60 75 57 76 41 77
REMARK SMILES IDX 42 78 47 79 43 80 44 81 46 82 48 83 45 84
REMARK H PARENT 73 15 74 17 65 46 39 57
REMARK Flexibility Score: inf
ROOT
ATOM      1  O   UNL A   1      33.885  33.932  28.957  1.00  0.00    -0.457 OA
ENDROOT
BRANCH   1   2
ATOM      2  C   UNL A   1      33.187  33.213  28.038  1.00  0.00     0.357 C 
ATOM      3  O   UNL A   1      32.204  33.606  27.427  1.00  0.00    -0.244 OA
BRANCH   2   4
ATOM      4  C   UNL A   1      33.833  31.886  27.791  1.00  0.00     0.149 A 
ATOM      5  C   UNL A   1      33.858  29.627  27.035  1.00  0.00     0.012 A 
ATOM      6  C   UNL A   1      35.201  29.547  27.403  1.00  0.00     0.035 A 
ATOM      7  C   UNL A   1      33.146  30.811  27.246  1.00  0.00     0.051 A 
ATOM      8  C   UNL A   1      35.800  30.666  27.939  1.00  0.00     0.113 A 
ATOM      9  N   UNL A   1      35.156  31.834  28.106  1.00  0.00    -0.249 NA
BRANCH   5  10
ATOM     10  S   UNL A   1      33.126  28.232  26.197  1.00  0.00    -0.116 SA
BRANCH  10  11
ATOM     11  C   UNL A   1      34.040  28.276  24.626  1.00  0.00     0.176 C 
BRANCH  11  12
ATOM     12  C   UNL A   1      33.187  28.681  23.439  1.00  0.00     0.248 C 
ATOM     13  O   UNL A   1      33.422  28.255  22.308  1.00  0.00    -0.272 OA
ATOM     14  N   UNL A   1      32.072  29.445  23.742  1.00  0.00    -0.268 N 
ATOM     15  H   UNL A   1      31.914  29.780  24.653  1.00  0.00     0.191 HD
BRANCH  14  16
ATOM     16  N   UNL A   1      31.188  29.721  22.706  1.00  0.00    -0.282 N 
ATOM     17  H   UNL A   1      31.533  29.882  21.798  1.00  0.00     0.190 HD
BRANCH  16  18
ATOM     18  C   UNL A   1      29.816  29.773  22.943  1.00  0.00     0.144 A 
ATOM     19  C   UNL A   1      29.176  30.924  23.395  1.00  0.00     0.048 A 
ATOM     20  N   UNL A   1      29.128  28.642  22.676  1.00  0.00    -0.238 NA
ATOM     21  C   UNL A   1      27.793  30.912  23.580  1.00  0.00     0.005 A 
ATOM     22  C   UNL A   1      27.791  28.649  22.872  1.00  0.00     0.113 A 
ATOM     23  C   UNL A   1      27.084  29.749  23.319  1.00  0.00     0.020 A 
ENDBRANCH  16  18
ENDBRANCH  14  16
ENDBRANCH  11  12
ENDBRANCH  10  11
ENDBRANCH   5  10
ENDBRANCH   2   4
ENDBRANCH   1   2
BRANCH   1  24
ATOM     24  C   UNL A   1      33.869  35.362  28.763  1.00  0.00     0.275 C 
BRANCH  24  25
ATOM     25  C   UNL A   1      32.912  36.064  29.731  1.00  0.00     0.275 C 
BRANCH  25  26
ATOM     26  O   UNL A   1      32.530  35.205  30.822  1.00  0.00    -0.458 OA
BRANCH  26  27
ATOM     27  C   UNL A   1      32.804  35.689  32.056  1.00  0.00     0.338 C 
ATOM     28  O   UNL A   1      32.164  36.511  32.687  1.00  0.00    -0.246 OA
BRANCH  27  29
ATOM     29  C   UNL A   1      33.977  34.997  32.612  1.00  0.00     0.060 A 
ATOM     30  C   UNL A   1      35.220  35.602  32.446  1.00  0.00     0.016 A 
ATOM     31  C   UNL A   1      33.886  33.724  33.174  1.00  0.00     0.016 A 
ATOM     32  C   UNL A   1      36.386  34.936  32.806  1.00  0.00     0.010 A 
ATOM     33  C   UNL A   1      35.059  33.065  33.573  1.00  0.00     0.010 A 
ATOM     34  C   UNL A   1      36.319  33.660  33.375  1.00  0.00    -0.014 A 
BRANCH  34  35
ATOM     35  C   UNL A   1      37.577  32.954  33.722  1.00  0.00     0.031 A 
ATOM     36  C   UNL A   1      38.153  31.927  32.788  1.00  0.00     0.074 A 
ATOM     37  C   UNL A   1      38.236  33.274  34.853  1.00  0.00     0.049 A 
ATOM     38  N   UNL A   1      39.197  31.153  32.951  1.00  0.00    -0.248 NA
ATOM     39  C   UNL A   1      37.465  31.747  31.501  1.00  0.00     0.031 C 
ATOM     40  C   UNL A   1      37.817  34.296  35.813  1.00  0.00     0.029 A 
ATOM     41  N   UNL A   1      39.404  32.780  35.377  1.00  0.00    -0.354 N 
ATOM     42  C   UNL A   1      39.273  30.374  31.804  1.00  0.00     0.074 A 
ATOM     43  C   UNL A   1      38.164  30.762  30.957  1.00  0.00     0.031 C 
ATOM     44  C   UNL A   1      38.726  34.368  36.799  1.00  0.00     0.029 A 
ATOM     45  C   UNL A   1      39.756  33.360  36.571  1.00  0.00     0.049 A 
ATOM     46  H   UNL A   1      39.937  32.078  34.941  1.00  0.00     0.167 HD
ATOM     47  C   UNL A   1      40.185  29.424  31.488  1.00  0.00     0.037 A 
ATOM     48  C   UNL A   1      40.778  33.090  37.405  1.00  0.00     0.037 A 
ATOM     49  C   UNL A   1      41.305  29.060  32.316  1.00  0.00     0.049 A 
ATOM     50  C   UNL A   1      41.742  31.991  37.059  1.00  0.00     0.074 A 
ATOM     51  C   UNL A   1      42.288  28.116  32.073  1.00  0.00     0.029 A 
ATOM     52  N   UNL A   1      41.593  29.630  33.547  1.00  0.00    -0.354 N 
ATOM     53  N   UNL A   1      41.783  31.236  35.990  1.00  0.00    -0.248 NA
ATOM     54  C   UNL A   1      42.789  31.696  38.046  1.00  0.00     0.031 C 
ATOM     55  C   UNL A   1      43.153  28.092  33.174  1.00  0.00     0.029 A 
ATOM     56  C   UNL A   1      42.728  29.045  34.085  1.00  0.00     0.049 A 
ATOM     57  H   UNL A   1      41.070  30.346  33.974  1.00  0.00     0.167 HD
ATOM     58  C   UNL A   1      42.859  30.380  36.170  1.00  0.00     0.074 A 
ATOM     59  C   UNL A   1      43.460  30.724  37.443  1.00  0.00     0.031 C 
ATOM     60  C   UNL A   1      43.308  29.393  35.356  1.00  0.00     0.037 A 
BRANCH  47  61
ATOM     61  C   UNL A   1      39.986  28.684  30.199  1.00  0.00     0.057 A 
ATOM     62  C   UNL A   1      40.565  29.114  28.998  1.00  0.00     0.134 A 
ATOM     63  C   UNL A   1      39.220  27.511  30.165  1.00  0.00     0.134 A 
ATOM     64  F   UNL A   1      41.299  30.237  28.962  1.00  0.00    -0.206 F 
ATOM     65  C   UNL A   1      40.370  28.416  27.804  1.00  0.00     0.040 A 
ATOM     66  C   UNL A   1      39.037  26.793  28.982  1.00  0.00     0.040 A 
ATOM     67  F   UNL A   1      38.643  27.043  31.282  1.00  0.00    -0.206 F 
ATOM     68  C   UNL A   1      39.607  27.249  27.796  1.00  0.00     0.006 A 
ENDBRANCH  47  61
BRANCH  48  69
ATOM     69  C   UNL A   1      40.921  33.855  38.668  1.00  0.00     0.057 A 
ATOM     70  C   UNL A   1      40.200  33.502  39.813  1.00  0.00     0.134 A 
ATOM     71  C   UNL A   1      41.785  34.953  38.760  1.00  0.00     0.134 A 
ATOM     72  F   UNL A   1      39.337  32.476  39.779  1.00  0.00    -0.206 F 
ATOM     73  C   UNL A   1      40.331  34.216  41.006  1.00  0.00     0.040 A 
ATOM     74  C   UNL A   1      41.943  35.661  39.951  1.00  0.00     0.040 A 
ATOM     75  F   UNL A   1      42.500  35.342  37.694  1.00  0.00    -0.206 F 
ATOM     76  C   UNL A   1      41.210  35.295  41.079  1.00  0.00     0.006 A 
ENDBRANCH  48  69
BRANCH  60  77
ATOM     77  C   UNL A   1      44.510  28.627  35.817  1.00  0.00     0.057 A 
ATOM     78  C   UNL A   1      44.386  27.464  36.589  1.00  0.00     0.134 A 
ATOM     79  C   UNL A   1      45.801  29.037  35.466  1.00  0.00     0.134 A 
ATOM     80  F   UNL A   1      43.176  27.028  36.971  1.00  0.00    -0.206 F 
ATOM     81  C   UNL A   1      45.506  26.748  37.010  1.00  0.00     0.040 A 
ATOM     82  C   UNL A   1      46.928  28.318  35.865  1.00  0.00     0.040 A 
ATOM     83  F   UNL A   1      45.986  30.140  34.724  1.00  0.00    -0.206 F 
ATOM     84  C   UNL A   1      46.782  27.172  36.643  1.00  0.00     0.006 A 
ENDBRANCH  60  77
ENDBRANCH  34  35
ENDBRANCH  27  29
ENDBRANCH  26  27
ENDBRANCH  25  26
ENDBRANCH  24  25
ENDBRANCH   1  24
TORSDOF 16
ENDMDL
