MODEL 1
REMARK VINA RESULT:     -11.0      0.000      0.000
REMARK SMILES COCc1cccc(O[C@@H](C)c2ccc(C(=O)OCCOC(=O)c3ccc(-c4c5nc(c(-c6c(F)cccc6F)c6ccc([nH]6)c(-c6c(F)cccc6F)c6nc(c(-c7c(F)cccc7F)c7ccc4[nH]7)C=C6)C=C5)cc3)o2)c1
REMARK SMILES IDX 18 1 16 2 17 3 15 4 12 5 13 6 78 7 14 8 10 9 11 10 9 11 8 12
REMARK SMILES IDX 4 13 5 14 79 15 6 16 7 17 3 18 2 19 1 20 19 21 20 22 21 23
REMARK SMILES IDX 22 24 23 25 24 26 25 27 77 28 26 29 76 30 27 31 28 32 29 33
REMARK SMILES IDX 70 34 30 35 75 36 69 37 71 38 31 39 74 40 68 41 67 42 32 44
REMARK SMILES IDX 58 45 41 46 57 47 42 48 45 49 56 50 72 51 43 52 44 53 55 55
REMARK SMILES IDX 73 56 46 57 33 58 34 59 39 60 35 61 36 62 38 63 40 64 37 65
REMARK SMILES IDX 59 66 60 67 65 68 61 69 62 70 64 71 66 72 63 73 47 74 48 75
REMARK SMILES IDX 53 76 49 77 50 78 52 79 54 80 51 81
REMARK H PARENT 71 43 45 54
REMARK Flexibility Score: inf
ROOT
ATOM      1  O   UNL A   1      42.201  21.456  26.920  1.00  0.00    -0.456 OA
ENDROOT
BRANCH   1   2
ATOM      2  C   UNL A   1      40.963  20.929  27.170  1.00  0.00     0.374 C 
ATOM      3  O   UNL A   1      40.749  19.968  27.889  1.00  0.00    -0.242 OA
BRANCH   2   4
ATOM      4  C   UNL A   1      39.967  21.793  26.573  1.00  0.00     0.211 A 
ATOM      5  C   UNL A   1      38.053  22.180  25.511  1.00  0.00     0.145 A 
ATOM      6  C   UNL A   1      38.359  23.309  26.249  1.00  0.00     0.050 A 
ATOM      7  O   UNL A   1      39.070  21.267  25.672  1.00  0.00    -0.450 OA
ATOM      8  C   UNL A   1      39.613  23.095  26.857  1.00  0.00     0.058 A 
BRANCH   5   9
ATOM      9  C   UNL A   1      36.859  21.709  24.708  1.00  0.00     0.236 C 
ATOM     10  C   UNL A   1      36.515  22.545  23.479  1.00  0.00     0.062 C 
BRANCH   9  11
ATOM     11  O   UNL A   1      35.687  21.405  25.499  1.00  0.00    -0.483 OA
BRANCH  11  12
ATOM     12  C   UNL A   1      34.737  20.517  25.084  1.00  0.00     0.120 A 
ATOM     13  C   UNL A   1      34.045  18.374  24.162  1.00  0.00    -0.019 A 
ATOM     14  C   UNL A   1      32.835  18.957  23.762  1.00  0.00     0.006 A 
ATOM     15  C   UNL A   1      34.949  19.156  24.888  1.00  0.00     0.052 A 
ATOM     16  C   UNL A   1      32.555  20.290  24.071  1.00  0.00     0.004 A 
ATOM     17  C   UNL A   1      33.513  21.073  24.717  1.00  0.00     0.046 A 
BRANCH  13  18
ATOM     18  C   UNL A   1      34.443  17.005  23.651  1.00  0.00     0.195 C 
BRANCH  18  19
ATOM     19  O   UNL A   1      34.525  16.003  24.665  1.00  0.00    -0.380 OA
ATOM     20  C   UNL A   1      33.279  15.642  25.254  1.00  0.00     0.195 C 
ENDBRANCH  18  19
ENDBRANCH  13  18
ENDBRANCH  11  12
ENDBRANCH   9  11
ENDBRANCH   5   9
ENDBRANCH   2   4
ENDBRANCH   1   2
BRANCH   1  21
ATOM     21  C   UNL A   1      42.940  20.907  25.816  1.00  0.00     0.275 C 
BRANCH  21  22
ATOM     22  C   UNL A   1      43.672  22.028  25.066  1.00  0.00     0.275 C 
BRANCH  22  23
ATOM     23  O   UNL A   1      43.055  23.307  25.316  1.00  0.00    -0.458 OA
BRANCH  23  24
ATOM     24  C   UNL A   1      43.900  24.366  25.355  1.00  0.00     0.338 C 
ATOM     25  O   UNL A   1      44.760  24.652  24.540  1.00  0.00    -0.246 OA
BRANCH  24  26
ATOM     26  C   UNL A   1      43.530  25.241  26.480  1.00  0.00     0.060 A 
ATOM     27  C   UNL A   1      42.642  24.735  27.431  1.00  0.00     0.016 A 
ATOM     28  C   UNL A   1      43.996  26.551  26.580  1.00  0.00     0.016 A 
ATOM     29  C   UNL A   1      42.209  25.529  28.486  1.00  0.00     0.010 A 
ATOM     30  C   UNL A   1      43.564  27.351  27.645  1.00  0.00     0.010 A 
ATOM     31  C   UNL A   1      42.662  26.847  28.599  1.00  0.00    -0.014 A 
BRANCH  31  32
ATOM     32  C   UNL A   1      42.138  27.701  29.692  1.00  0.00     0.031 A 
ATOM     33  C   UNL A   1      42.834  27.723  31.021  1.00  0.00     0.074 A 
ATOM     34  C   UNL A   1      41.068  28.486  29.475  1.00  0.00     0.049 A 
ATOM     35  N   UNL A   1      42.506  28.355  32.118  1.00  0.00    -0.248 NA
ATOM     36  C   UNL A   1      44.066  26.924  31.130  1.00  0.00     0.031 C 
ATOM     37  C   UNL A   1      40.340  28.592  28.210  1.00  0.00     0.029 A 
ATOM     38  N   UNL A   1      40.409  29.348  30.315  1.00  0.00    -0.354 N 
ATOM     39  C   UNL A   1      43.477  28.019  33.052  1.00  0.00     0.074 A 
ATOM     40  C   UNL A   1      44.394  27.109  32.400  1.00  0.00     0.031 C 
ATOM     41  C   UNL A   1      39.337  29.472  28.356  1.00  0.00     0.029 A 
ATOM     42  C   UNL A   1      39.323  29.956  29.733  1.00  0.00     0.049 A 
ATOM     43  H   UNL A   1      40.687  29.516  31.244  1.00  0.00     0.167 HD
ATOM     44  C   UNL A   1      43.592  28.436  34.336  1.00  0.00     0.037 A 
ATOM     45  C   UNL A   1      38.406  30.789  30.261  1.00  0.00     0.037 A 
ATOM     46  C   UNL A   1      42.684  29.352  34.975  1.00  0.00     0.049 A 
ATOM     47  C   UNL A   1      38.522  31.189  31.705  1.00  0.00     0.074 A 
ATOM     48  C   UNL A   1      42.722  29.843  36.268  1.00  0.00     0.029 A 
ATOM     49  N   UNL A   1      41.574  29.918  34.364  1.00  0.00    -0.354 N 
ATOM     50  N   UNL A   1      39.437  30.858  32.584  1.00  0.00    -0.248 NA
ATOM     51  C   UNL A   1      37.474  32.073  32.234  1.00  0.00     0.031 C 
ATOM     52  C   UNL A   1      41.609  30.671  36.455  1.00  0.00     0.029 A 
ATOM     53  C   UNL A   1      40.906  30.734  35.262  1.00  0.00     0.049 A 
ATOM     54  H   UNL A   1      41.302  29.762  33.432  1.00  0.00     0.167 HD
ATOM     55  C   UNL A   1      39.090  31.510  33.761  1.00  0.00     0.074 A 
ATOM     56  C   UNL A   1      37.886  32.266  33.479  1.00  0.00     0.031 C 
ATOM     57  C   UNL A   1      39.711  31.483  34.965  1.00  0.00     0.037 A 
BRANCH  44  58
ATOM     58  C   UNL A   1      44.727  27.874  35.142  1.00  0.00     0.057 A 
ATOM     59  C   UNL A   1      45.992  28.474  35.166  1.00  0.00     0.134 A 
ATOM     60  C   UNL A   1      44.543  26.722  35.919  1.00  0.00     0.134 A 
ATOM     61  F   UNL A   1      46.238  29.570  34.432  1.00  0.00    -0.206 F 
ATOM     62  C   UNL A   1      47.041  27.935  35.913  1.00  0.00     0.040 A 
ATOM     63  C   UNL A   1      45.577  26.188  36.690  1.00  0.00     0.040 A 
ATOM     64  F   UNL A   1      43.355  26.100  35.945  1.00  0.00    -0.206 F 
ATOM     65  C   UNL A   1      46.833  26.792  36.683  1.00  0.00     0.006 A 
ENDBRANCH  44  58
BRANCH  45  66
ATOM     66  C   UNL A   1      37.287  31.285  29.421  1.00  0.00     0.057 A 
ATOM     67  C   UNL A   1      37.319  32.559  28.846  1.00  0.00     0.134 A 
ATOM     68  C   UNL A   1      36.156  30.495  29.177  1.00  0.00     0.134 A 
ATOM     69  F   UNL A   1      38.363  33.371  29.061  1.00  0.00    -0.206 F 
ATOM     70  C   UNL A   1      36.263  33.036  28.066  1.00  0.00     0.040 A 
ATOM     71  C   UNL A   1      35.105  30.948  28.380  1.00  0.00     0.040 A 
ATOM     72  F   UNL A   1      36.065  29.263  29.702  1.00  0.00    -0.206 F 
ATOM     73  C   UNL A   1      35.154  32.225  27.826  1.00  0.00     0.006 A 
ENDBRANCH  45  66
BRANCH  57  74
ATOM     74  C   UNL A   1      39.118  32.321  36.059  1.00  0.00     0.057 A 
ATOM     75  C   UNL A   1      38.203  31.794  36.980  1.00  0.00     0.134 A 
ATOM     76  C   UNL A   1      39.494  33.661  36.215  1.00  0.00     0.134 A 
ATOM     77  F   UNL A   1      37.791  30.521  36.878  1.00  0.00    -0.206 F 
ATOM     78  C   UNL A   1      37.667  32.578  38.004  1.00  0.00     0.040 A 
ATOM     79  C   UNL A   1      38.985  34.447  37.250  1.00  0.00     0.040 A 
ATOM     80  F   UNL A   1      40.372  34.224  35.371  1.00  0.00    -0.206 F 
ATOM     81  C   UNL A   1      38.065  33.906  38.144  1.00  0.00     0.006 A 
ENDBRANCH  57  74
ENDBRANCH  31  32
ENDBRANCH  24  26
ENDBRANCH  23  24
ENDBRANCH  22  23
ENDBRANCH  21  22
ENDBRANCH   1  21
TORSDOF 16
ENDMDL
MODEL 2
REMARK VINA RESULT:     -11.0      5.308     11.438
REMARK SMILES COCc1cccc(O[C@@H](C)c2ccc(C(=O)OCCOC(=O)c3ccc(-c4c5nc(c(-c6c(F)cccc6F)c6ccc([nH]6)c(-c6c(F)cccc6F)c6nc(c(-c7c(F)cccc7F)c7ccc4[nH]7)C=C6)C=C5)cc3)o2)c1
REMARK SMILES IDX 18 1 16 2 17 3 15 4 12 5 13 6 78 7 14 8 10 9 11 10 9 11 8 12
REMARK SMILES IDX 4 13 5 14 79 15 6 16 7 17 3 18 2 19 1 20 19 21 20 22 21 23
REMARK SMILES IDX 22 24 23 25 24 26 25 27 77 28 26 29 76 30 27 31 28 32 29 33
REMARK SMILES IDX 70 34 30 35 75 36 69 37 71 38 31 39 74 40 68 41 67 42 32 44
REMARK SMILES IDX 58 45 41 46 57 47 42 48 45 49 56 50 72 51 43 52 44 53 55 55
REMARK SMILES IDX 73 56 46 57 33 58 34 59 39 60 35 61 36 62 38 63 40 64 37 65
REMARK SMILES IDX 59 66 60 67 65 68 61 69 62 70 64 71 66 72 63 73 47 74 48 75
REMARK SMILES IDX 53 76 49 77 50 78 52 79 54 80 51 81
REMARK H PARENT 71 43 45 54
REMARK Flexibility Score: inf
ROOT
ATOM      1  O   UNL A   1      32.580  34.646  29.244  1.00  0.00    -0.456 OA
ENDROOT
BRANCH   1   2
ATOM      2  C   UNL A   1      32.926  35.937  29.535  1.00  0.00     0.374 C 
ATOM      3  O   UNL A   1      32.776  36.884  28.781  1.00  0.00    -0.242 OA
BRANCH   2   4
ATOM      4  C   UNL A   1      33.341  36.001  30.921  1.00  0.00     0.211 A 
ATOM      5  C   UNL A   1      34.638  35.432  32.634  1.00  0.00     0.145 A 
ATOM      6  C   UNL A   1      34.124  36.690  32.895  1.00  0.00     0.050 A 
ATOM      7  O   UNL A   1      34.115  34.990  31.441  1.00  0.00    -0.450 OA
ATOM      8  C   UNL A   1      33.237  37.015  31.849  1.00  0.00     0.058 A 
BRANCH   5   9
ATOM      9  C   UNL A   1      35.680  34.540  33.274  1.00  0.00     0.236 C 
ATOM     10  C   UNL A   1      35.449  34.199  34.742  1.00  0.00     0.062 C 
BRANCH   9  11
ATOM     11  O   UNL A   1      37.048  34.939  33.021  1.00  0.00    -0.483 OA
BRANCH  11  12
ATOM     12  C   UNL A   1      37.818  34.338  32.068  1.00  0.00     0.120 A 
ATOM     13  C   UNL A   1      39.884  34.088  30.806  1.00  0.00    -0.019 A 
ATOM     14  C   UNL A   1      39.162  33.459  29.783  1.00  0.00     0.006 A 
ATOM     15  C   UNL A   1      39.201  34.452  31.972  1.00  0.00     0.052 A 
ATOM     16  C   UNL A   1      37.793  33.220  29.926  1.00  0.00     0.004 A 
ATOM     17  C   UNL A   1      37.120  33.674  31.061  1.00  0.00     0.046 A 
BRANCH  13  18
ATOM     18  C   UNL A   1      41.311  34.540  30.574  1.00  0.00     0.195 C 
BRANCH  18  19
ATOM     19  O   UNL A   1      42.139  33.561  29.945  1.00  0.00    -0.380 OA
ATOM     20  C   UNL A   1      43.165  34.090  29.110  1.00  0.00     0.195 C 
ENDBRANCH  18  19
ENDBRANCH  13  18
ENDBRANCH  11  12
ENDBRANCH   9  11
ENDBRANCH   5   9
ENDBRANCH   2   4
ENDBRANCH   1   2
BRANCH   1  21
ATOM     21  C   UNL A   1      33.057  34.100  28.002  1.00  0.00     0.275 C 
BRANCH  21  22
ATOM     22  C   UNL A   1      34.439  33.466  28.206  1.00  0.00     0.275 C 
BRANCH  22  23
ATOM     23  O   UNL A   1      34.332  32.184  28.856  1.00  0.00    -0.458 OA
BRANCH  23  24
ATOM     24  C   UNL A   1      34.545  31.106  28.063  1.00  0.00     0.338 C 
ATOM     25  O   UNL A   1      33.875  30.748  27.109  1.00  0.00    -0.246 OA
BRANCH  24  26
ATOM     26  C   UNL A   1      35.827  30.480  28.430  1.00  0.00     0.060 A 
ATOM     27  C   UNL A   1      35.903  29.830  29.662  1.00  0.00     0.016 A 
ATOM     28  C   UNL A   1      36.953  30.571  27.613  1.00  0.00     0.016 A 
ATOM     29  C   UNL A   1      37.099  29.269  30.093  1.00  0.00     0.010 A 
ATOM     30  C   UNL A   1      38.158  30.002  28.043  1.00  0.00     0.010 A 
ATOM     31  C   UNL A   1      38.239  29.354  29.289  1.00  0.00    -0.014 A 
BRANCH  31  32
ATOM     32  C   UNL A   1      39.522  28.809  29.793  1.00  0.00     0.031 A 
ATOM     33  C   UNL A   1      40.161  29.409  31.010  1.00  0.00     0.074 A 
ATOM     34  C   UNL A   1      40.085  27.749  29.185  1.00  0.00     0.049 A 
ATOM     35  N   UNL A   1      41.303  29.115  31.577  1.00  0.00    -0.248 NA
ATOM     36  C   UNL A   1      39.415  30.486  31.680  1.00  0.00     0.031 C 
ATOM     37  C   UNL A   1      39.531  27.046  28.028  1.00  0.00     0.029 A 
ATOM     38  N   UNL A   1      41.249  27.077  29.460  1.00  0.00    -0.354 N 
ATOM     39  C   UNL A   1      41.423  29.980  32.656  1.00  0.00     0.074 A 
ATOM     40  C   UNL A   1      40.247  30.824  32.654  1.00  0.00     0.031 C 
ATOM     41  C   UNL A   1      40.352  26.039  27.694  1.00  0.00     0.029 A 
ATOM     42  C   UNL A   1      41.511  26.053  28.583  1.00  0.00     0.049 A 
ATOM     43  H   UNL A   1      41.839  27.305  30.215  1.00  0.00     0.167 HD
ATOM     44  C   UNL A   1      42.421  30.057  33.568  1.00  0.00     0.037 A 
ATOM     45  C   UNL A   1      42.578  25.237  28.491  1.00  0.00     0.037 A 
ATOM     46  C   UNL A   1      43.582  29.205  33.574  1.00  0.00     0.049 A 
ATOM     47  C   UNL A   1      43.702  25.384  29.479  1.00  0.00     0.074 A 
ATOM     48  C   UNL A   1      44.644  29.199  34.461  1.00  0.00     0.029 A 
ATOM     49  N   UNL A   1      43.830  28.204  32.646  1.00  0.00    -0.354 N 
ATOM     50  N   UNL A   1      43.811  26.211  30.490  1.00  0.00    -0.248 NA
ATOM     51  C   UNL A   1      44.854  24.488  29.308  1.00  0.00     0.031 C 
ATOM     52  C   UNL A   1      45.557  28.224  34.044  1.00  0.00     0.029 A 
ATOM     53  C   UNL A   1      45.040  27.590  32.926  1.00  0.00     0.049 A 
ATOM     54  H   UNL A   1      43.235  27.966  31.899  1.00  0.00     0.167 HD
ATOM     55  C   UNL A   1      45.030  25.921  31.090  1.00  0.00     0.074 A 
ATOM     56  C   UNL A   1      45.618  24.833  30.336  1.00  0.00     0.031 C 
ATOM     57  C   UNL A   1      45.609  26.505  32.167  1.00  0.00     0.037 A 
BRANCH  44  58
ATOM     58  C   UNL A   1      42.314  31.126  34.617  1.00  0.00     0.057 A 
ATOM     59  C   UNL A   1      42.651  32.460  34.357  1.00  0.00     0.134 A 
ATOM     60  C   UNL A   1      41.848  30.816  35.901  1.00  0.00     0.134 A 
ATOM     61  F   UNL A   1      43.119  32.821  33.152  1.00  0.00    -0.206 F 
ATOM     62  C   UNL A   1      42.555  33.442  35.345  1.00  0.00     0.040 A 
ATOM     63  C   UNL A   1      41.723  31.794  36.889  1.00  0.00     0.040 A 
ATOM     64  F   UNL A   1      41.502  29.559  36.215  1.00  0.00    -0.206 F 
ATOM     65  C   UNL A   1      42.084  33.111  36.614  1.00  0.00     0.006 A 
ENDBRANCH  44  58
BRANCH  45  66
ATOM     66  C   UNL A   1      42.641  24.221  27.410  1.00  0.00     0.057 A 
ATOM     67  C   UNL A   1      43.185  24.524  26.158  1.00  0.00     0.134 A 
ATOM     68  C   UNL A   1      42.156  22.922  27.606  1.00  0.00     0.134 A 
ATOM     69  F   UNL A   1      43.645  25.758  25.903  1.00  0.00    -0.206 F 
ATOM     70  C   UNL A   1      43.235  23.576  25.134  1.00  0.00     0.040 A 
ATOM     71  C   UNL A   1      42.222  21.957  26.601  1.00  0.00     0.040 A 
ATOM     72  F   UNL A   1      41.622  22.568  28.785  1.00  0.00    -0.206 F 
ATOM     73  C   UNL A   1      42.759  22.285  25.357  1.00  0.00     0.006 A 
ENDBRANCH  45  66
BRANCH  57  74
ATOM     74  C   UNL A   1      46.932  25.956  32.613  1.00  0.00     0.057 A 
ATOM     75  C   UNL A   1      48.144  26.435  32.097  1.00  0.00     0.134 A 
ATOM     76  C   UNL A   1      46.996  24.961  33.597  1.00  0.00     0.134 A 
ATOM     77  F   UNL A   1      48.150  27.378  31.143  1.00  0.00    -0.206 F 
ATOM     78  C   UNL A   1      49.370  25.928  32.529  1.00  0.00     0.040 A 
ATOM     79  C   UNL A   1      48.218  24.465  34.055  1.00  0.00     0.040 A 
ATOM     80  F   UNL A   1      45.873  24.465  34.137  1.00  0.00    -0.206 F 
ATOM     81  C   UNL A   1      49.409  24.945  33.516  1.00  0.00     0.006 A 
ENDBRANCH  57  74
ENDBRANCH  31  32
ENDBRANCH  24  26
ENDBRANCH  23  24
ENDBRANCH  22  23
ENDBRANCH  21  22
ENDBRANCH   1  21
TORSDOF 16
ENDMDL
MODEL 3
REMARK VINA RESULT:     -10.8      5.475     10.326
REMARK SMILES COCc1cccc(O[C@@H](C)c2ccc(C(=O)OCCOC(=O)c3ccc(-c4c5nc(c(-c6c(F)cccc6F)c6ccc([nH]6)c(-c6c(F)cccc6F)c6nc(c(-c7c(F)cccc7F)c7ccc4[nH]7)C=C6)C=C5)cc3)o2)c1
REMARK SMILES IDX 18 1 16 2 17 3 15 4 12 5 13 6 78 7 14 8 10 9 11 10 9 11 8 12
REMARK SMILES IDX 4 13 5 14 79 15 6 16 7 17 3 18 2 19 1 20 19 21 20 22 21 23
REMARK SMILES IDX 22 24 23 25 24 26 25 27 77 28 26 29 76 30 27 31 28 32 29 33
REMARK SMILES IDX 70 34 30 35 75 36 69 37 71 38 31 39 74 40 68 41 67 42 32 44
REMARK SMILES IDX 58 45 41 46 57 47 42 48 45 49 56 50 72 51 43 52 44 53 55 55
REMARK SMILES IDX 73 56 46 57 33 58 34 59 39 60 35 61 36 62 38 63 40 64 37 65
REMARK SMILES IDX 59 66 60 67 65 68 61 69 62 70 64 71 66 72 63 73 47 74 48 75
REMARK SMILES IDX 53 76 49 77 50 78 52 79 54 80 51 81
REMARK H PARENT 71 43 45 54
REMARK Flexibility Score: inf
ROOT
ATOM      1  O   UNL A   1      33.990  32.966  29.478  1.00  0.00    -0.456 OA
ENDROOT
BRANCH   1   2
ATOM      2  C   UNL A   1      34.635  32.768  28.288  1.00  0.00     0.374 C 
ATOM      3  O   UNL A   1      35.332  33.598  27.729  1.00  0.00    -0.242 OA
BRANCH   2   4
ATOM      4  C   UNL A   1      34.477  31.381  27.905  1.00  0.00     0.211 A 
ATOM      5  C   UNL A   1      33.643  29.751  26.645  1.00  0.00     0.145 A 
ATOM      6  C   UNL A   1      34.842  29.304  27.170  1.00  0.00     0.050 A 
ATOM      7  O   UNL A   1      33.396  31.011  27.139  1.00  0.00    -0.450 OA
ATOM      8  C   UNL A   1      35.329  30.305  28.034  1.00  0.00     0.058 A 
BRANCH   5   9
ATOM      9  C   UNL A   1      32.661  29.238  25.614  1.00  0.00     0.236 C 
ATOM     10  C   UNL A   1      31.378  30.049  25.459  1.00  0.00     0.062 C 
BRANCH   9  11
ATOM     11  O   UNL A   1      32.395  27.818  25.693  1.00  0.00    -0.483 OA
BRANCH  11  12
ATOM     12  C   UNL A   1      33.052  26.909  24.916  1.00  0.00     0.120 A 
ATOM     13  C   UNL A   1      33.244  25.496  22.944  1.00  0.00    -0.019 A 
ATOM     14  C   UNL A   1      34.152  24.684  23.636  1.00  0.00     0.006 A 
ATOM     15  C   UNL A   1      32.764  26.646  23.581  1.00  0.00     0.052 A 
ATOM     16  C   UNL A   1      34.552  25.013  24.933  1.00  0.00     0.004 A 
ATOM     17  C   UNL A   1      33.989  26.116  25.577  1.00  0.00     0.046 A 
BRANCH  13  18
ATOM     18  C   UNL A   1      32.648  25.035  21.630  1.00  0.00     0.195 C 
BRANCH  18  19
ATOM     19  O   UNL A   1      33.155  25.721  20.485  1.00  0.00    -0.380 OA
ATOM     20  C   UNL A   1      32.532  25.372  19.252  1.00  0.00     0.195 C 
ENDBRANCH  18  19
ENDBRANCH  13  18
ENDBRANCH  11  12
ENDBRANCH   9  11
ENDBRANCH   5   9
ENDBRANCH   2   4
ENDBRANCH   1   2
BRANCH   1  21
ATOM     21  C   UNL A   1      34.381  34.109  30.258  1.00  0.00     0.275 C 
BRANCH  21  22
ATOM     22  C   UNL A   1      34.472  33.725  31.740  1.00  0.00     0.275 C 
BRANCH  22  23
ATOM     23  O   UNL A   1      34.936  32.369  31.898  1.00  0.00    -0.458 OA
BRANCH  23  24
ATOM     24  C   UNL A   1      36.014  32.210  32.703  1.00  0.00     0.338 C 
ATOM     25  O   UNL A   1      36.065  32.383  33.909  1.00  0.00    -0.246 OA
BRANCH  24  26
ATOM     26  C   UNL A   1      37.122  31.636  31.921  1.00  0.00     0.060 A 
ATOM     27  C   UNL A   1      38.086  30.897  32.608  1.00  0.00     0.016 A 
ATOM     28  C   UNL A   1      37.252  31.860  30.551  1.00  0.00     0.016 A 
ATOM     29  C   UNL A   1      39.187  30.377  31.938  1.00  0.00     0.010 A 
ATOM     30  C   UNL A   1      38.358  31.333  29.874  1.00  0.00     0.010 A 
ATOM     31  C   UNL A   1      39.336  30.595  30.565  1.00  0.00    -0.014 A 
BRANCH  31  32
ATOM     32  C   UNL A   1      40.550  30.091  29.880  1.00  0.00     0.031 A 
ATOM     33  C   UNL A   1      41.731  30.996  29.691  1.00  0.00     0.074 A 
ATOM     34  C   UNL A   1      40.606  28.810  29.471  1.00  0.00     0.049 A 
ATOM     35  N   UNL A   1      42.861  30.766  29.073  1.00  0.00    -0.248 NA
ATOM     36  C   UNL A   1      41.626  32.342  30.276  1.00  0.00     0.031 C 
ATOM     37  C   UNL A   1      39.543  27.820  29.647  1.00  0.00     0.029 A 
ATOM     38  N   UNL A   1      41.602  28.122  28.825  1.00  0.00    -0.354 N 
ATOM     39  C   UNL A   1      43.594  31.941  29.178  1.00  0.00     0.074 A 
ATOM     40  C   UNL A   1      42.773  32.889  29.900  1.00  0.00     0.031 C 
ATOM     41  C   UNL A   1      39.945  26.651  29.126  1.00  0.00     0.029 A 
ATOM     42  C   UNL A   1      41.271  26.820  28.539  1.00  0.00     0.049 A 
ATOM     43  H   UNL A   1      42.470  28.523  28.591  1.00  0.00     0.167 HD
ATOM     44  C   UNL A   1      44.840  32.201  28.716  1.00  0.00     0.037 A 
ATOM     45  C   UNL A   1      41.952  25.879  27.858  1.00  0.00     0.037 A 
ATOM     46  C   UNL A   1      45.658  31.249  28.010  1.00  0.00     0.049 A 
ATOM     47  C   UNL A   1      43.309  26.212  27.302  1.00  0.00     0.074 A 
ATOM     48  C   UNL A   1      46.938  31.414  27.511  1.00  0.00     0.029 A 
ATOM     49  N   UNL A   1      45.275  29.951  27.707  1.00  0.00    -0.354 N 
ATOM     50  N   UNL A   1      43.990  27.328  27.397  1.00  0.00    -0.248 NA
ATOM     51  C   UNL A   1      43.989  25.156  26.539  1.00  0.00     0.031 C 
ATOM     52  C   UNL A   1      47.312  30.230  26.865  1.00  0.00     0.029 A 
ATOM     53  C   UNL A   1      46.284  29.311  27.005  1.00  0.00     0.049 A 
ATOM     54  H   UNL A   1      44.412  29.545  27.952  1.00  0.00     0.167 HD
ATOM     55  C   UNL A   1      45.186  27.104  26.728  1.00  0.00     0.074 A 
ATOM     56  C   UNL A   1      45.143  25.739  26.242  1.00  0.00     0.031 C 
ATOM     57  C   UNL A   1      46.226  27.951  26.533  1.00  0.00     0.037 A 
BRANCH  44  58
ATOM     58  C   UNL A   1      45.379  33.585  28.933  1.00  0.00     0.057 A 
ATOM     59  C   UNL A   1      46.146  33.917  30.057  1.00  0.00     0.134 A 
ATOM     60  C   UNL A   1      45.140  34.596  27.993  1.00  0.00     0.134 A 
ATOM     61  F   UNL A   1      46.399  32.999  31.003  1.00  0.00    -0.206 F 
ATOM     62  C   UNL A   1      46.633  35.211  30.251  1.00  0.00     0.040 A 
ATOM     63  C   UNL A   1      45.642  35.886  28.163  1.00  0.00     0.040 A 
ATOM     64  F   UNL A   1      44.416  34.344  26.892  1.00  0.00    -0.206 F 
ATOM     65  C   UNL A   1      46.387  36.199  29.299  1.00  0.00     0.006 A 
ENDBRANCH  44  58
BRANCH  45  66
ATOM     66  C   UNL A   1      41.351  24.539  27.647  1.00  0.00     0.057 A 
ATOM     67  C   UNL A   1      41.766  23.430  28.392  1.00  0.00     0.134 A 
ATOM     68  C   UNL A   1      40.348  24.335  26.691  1.00  0.00     0.134 A 
ATOM     69  F   UNL A   1      42.739  23.557  29.305  1.00  0.00    -0.206 F 
ATOM     70  C   UNL A   1      41.214  22.164  28.188  1.00  0.00     0.040 A 
ATOM     71  C   UNL A   1      39.769  23.081  26.494  1.00  0.00     0.040 A 
ATOM     72  F   UNL A   1      39.906  25.358  25.943  1.00  0.00    -0.206 F 
ATOM     73  C   UNL A   1      40.206  21.989  27.240  1.00  0.00     0.006 A 
ENDBRANCH  45  66
BRANCH  57  74
ATOM     74  C   UNL A   1      47.414  27.416  25.789  1.00  0.00     0.057 A 
ATOM     75  C   UNL A   1      48.464  26.761  26.445  1.00  0.00     0.134 A 
ATOM     76  C   UNL A   1      47.490  27.526  24.395  1.00  0.00     0.134 A 
ATOM     77  F   UNL A   1      48.457  26.635  27.781  1.00  0.00    -0.206 F 
ATOM     78  C   UNL A   1      49.558  26.254  25.743  1.00  0.00     0.040 A 
ATOM     79  C   UNL A   1      48.567  26.999  23.679  1.00  0.00     0.040 A 
ATOM     80  F   UNL A   1      46.514  28.134  23.705  1.00  0.00    -0.206 F 
ATOM     81  C   UNL A   1      49.608  26.367  24.355  1.00  0.00     0.006 A 
ENDBRANCH  57  74
ENDBRANCH  31  32
ENDBRANCH  24  26
ENDBRANCH  23  24
ENDBRANCH  22  23
ENDBRANCH  21  22
ENDBRANCH   1  21
TORSDOF 16
ENDMDL
