MODEL 1
REMARK VINA RESULT:     -10.8      0.000      0.000
REMARK SMILES CC(C)[C@H](NC(=O)OCc1ccccc1)C(=O)NCC(=O)OCCOC(=O)c1ccc(-c2c3nc(c(-c4c(F)cccc4F)c4ccc([nH]4)c(-c4c(F)cccc4F)c4nc(c(-c5c(F)cccc5F)c5ccc2[nH]5)C=C4)C=C3)cc1
REMARK SMILES IDX 20 1 21 2 19 3 18 4 16 5 17 6 4 8 2 9 1 10 3 11 5 12 6 13
REMARK SMILES IDX 7 15 8 16 9 17 10 18 11 19 15 20 12 21 14 22 13 23 22 24
REMARK SMILES IDX 23 25 24 26 25 27 26 28 27 29 28 30 29 31 81 32 30 33 80 34
REMARK SMILES IDX 31 35 32 36 33 37 74 38 34 39 79 40 73 41 75 42 35 43 78 44
REMARK SMILES IDX 72 45 71 46 36 48 62 49 45 50 61 51 46 52 49 53 60 54 76 55
REMARK SMILES IDX 47 56 48 57 59 59 77 60 50 61 37 62 38 63 43 64 39 65 40 66
REMARK SMILES IDX 42 67 44 68 41 69 63 70 64 71 69 72 65 73 66 74 68 75 70 76
REMARK SMILES IDX 67 77 51 78 52 79 57 80 53 81 54 82 56 83 58 84 55 85
REMARK H PARENT 18 7 5 14 75 47 49 58
REMARK Flexibility Score: inf
ROOT
ATOM      1  C   UNL A   1      32.381  29.737  26.922  1.00  0.00     0.325 C 
ATOM      2  O   UNL A   1      31.509  29.193  27.595  1.00  0.00    -0.250 OA
ENDROOT
BRANCH   1   3
ATOM      3  C   UNL A   1      33.729  29.067  26.684  1.00  0.00     0.238 C 
BRANCH   3   4
ATOM      4  N   UNL A   1      34.313  29.106  25.367  1.00  0.00    -0.343 N 
ATOM      5  C   UNL A   1      34.019  28.354  24.275  1.00  0.00     0.243 C 
ATOM      6  O   UNL A   1      34.491  28.722  23.194  1.00  0.00    -0.273 OA
ATOM      7  H   UNL A   1      35.027  29.772  25.241  1.00  0.00     0.164 HD
BRANCH   5   8
ATOM      8  C   UNL A   1      33.122  27.091  24.346  1.00  0.00     0.177 C 
BRANCH   8   9
ATOM      9  C   UNL A   1      33.705  25.871  25.098  1.00  0.00     0.015 C 
ATOM     10  C   UNL A   1      32.680  25.215  26.031  1.00  0.00     0.010 C 
ATOM     11  C   UNL A   1      34.205  24.821  24.096  1.00  0.00     0.010 C 
ENDBRANCH   8   9
BRANCH   8  12
ATOM     12  N   UNL A   1      32.525  26.876  23.019  1.00  0.00    -0.309 N 
ATOM     13  C   UNL A   1      31.314  27.175  22.479  1.00  0.00     0.408 C 
ATOM     14  H   UNL A   1      33.130  26.421  22.390  1.00  0.00     0.167 HD
ATOM     15  O   UNL A   1      30.964  26.639  21.435  1.00  0.00    -0.225 OA
BRANCH  13  16
ATOM     16  O   UNL A   1      30.569  28.035  23.205  1.00  0.00    -0.445 OA
BRANCH  16  17
ATOM     17  C   UNL A   1      29.251  28.303  22.703  1.00  0.00     0.270 C 
BRANCH  17  18
ATOM     18  C   UNL A   1      28.943  29.773  22.604  1.00  0.00    -0.011 A 
ATOM     19  C   UNL A   1      28.405  30.326  21.436  1.00  0.00     0.007 A 
ATOM     20  C   UNL A   1      29.234  30.615  23.686  1.00  0.00     0.007 A 
ATOM     21  C   UNL A   1      28.188  31.701  21.347  1.00  0.00     0.000 A 
ATOM     22  C   UNL A   1      29.014  31.989  23.598  1.00  0.00     0.000 A 
ATOM     23  C   UNL A   1      28.496  32.532  22.425  1.00  0.00     0.000 A 
ENDBRANCH  17  18
ENDBRANCH  16  17
ENDBRANCH  13  16
ENDBRANCH   8  12
ENDBRANCH   5   8
ENDBRANCH   3   4
ENDBRANCH   1   3
BRANCH   1  24
ATOM     24  O   UNL A   1      32.193  30.867  26.197  1.00  0.00    -0.461 OA
BRANCH  24  25
ATOM     25  C   UNL A   1      31.284  31.813  26.794  1.00  0.00     0.274 C 
BRANCH  25  26
ATOM     26  C   UNL A   1      31.898  33.219  26.894  1.00  0.00     0.275 C 
BRANCH  26  27
ATOM     27  O   UNL A   1      32.156  33.630  28.256  1.00  0.00    -0.458 OA
BRANCH  27  28
ATOM     28  C   UNL A   1      33.254  34.402  28.423  1.00  0.00     0.338 C 
ATOM     29  O   UNL A   1      33.290  35.619  28.529  1.00  0.00    -0.246 OA
BRANCH  28  30
ATOM     30  C   UNL A   1      34.463  33.584  28.608  1.00  0.00     0.060 A 
ATOM     31  C   UNL A   1      34.304  32.251  28.999  1.00  0.00     0.016 A 
ATOM     32  C   UNL A   1      35.727  34.168  28.609  1.00  0.00     0.016 A 
ATOM     33  C   UNL A   1      35.384  31.517  29.466  1.00  0.00     0.010 A 
ATOM     34  C   UNL A   1      36.825  33.416  29.046  1.00  0.00     0.010 A 
ATOM     35  C   UNL A   1      36.650  32.102  29.517  1.00  0.00    -0.014 A 
BRANCH  35  36
ATOM     36  C   UNL A   1      37.748  31.361  30.180  1.00  0.00     0.031 A 
ATOM     37  C   UNL A   1      37.993  31.568  31.646  1.00  0.00     0.074 A 
ATOM     38  C   UNL A   1      38.464  30.453  29.492  1.00  0.00     0.049 A 
ATOM     39  N   UNL A   1      38.955  31.102  32.400  1.00  0.00    -0.248 NA
ATOM     40  C   UNL A   1      37.023  32.414  32.363  1.00  0.00     0.031 C 
ATOM     41  C   UNL A   1      38.258  30.101  28.086  1.00  0.00     0.029 A 
ATOM     42  N   UNL A   1      39.503  29.652  29.889  1.00  0.00    -0.354 N 
ATOM     43  C   UNL A   1      38.733  31.632  33.665  1.00  0.00     0.074 A 
ATOM     44  C   UNL A   1      37.548  32.457  33.579  1.00  0.00     0.031 C 
ATOM     45  C   UNL A   1      39.139  29.149  27.740  1.00  0.00     0.029 A 
ATOM     46  C   UNL A   1      40.006  28.871  28.880  1.00  0.00     0.049 A 
ATOM     47  H   UNL A   1      39.853  29.640  30.809  1.00  0.00     0.167 HD
ATOM     48  C   UNL A   1      39.457  31.446  34.794  1.00  0.00     0.037 A 
ATOM     49  C   UNL A   1      41.072  28.048  28.869  1.00  0.00     0.037 A 
ATOM     50  C   UNL A   1      40.614  30.595  34.877  1.00  0.00     0.049 A 
ATOM     51  C   UNL A   1      41.887  27.894  30.122  1.00  0.00     0.074 A 
ATOM     52  C   UNL A   1      41.427  30.343  35.969  1.00  0.00     0.029 A 
ATOM     53  N   UNL A   1      41.112  29.841  33.825  1.00  0.00    -0.354 N 
ATOM     54  N   UNL A   1      41.704  28.442  31.299  1.00  0.00    -0.248 NA
ATOM     55  C   UNL A   1      43.059  27.013  30.043  1.00  0.00     0.031 C 
ATOM     56  C   UNL A   1      42.437  29.461  35.568  1.00  0.00     0.029 A 
ATOM     57  C   UNL A   1      42.227  29.131  34.238  1.00  0.00     0.049 A 
ATOM     58  H   UNL A   1      40.730  29.815  32.918  1.00  0.00     0.167 HD
ATOM     59  C   UNL A   1      42.725  27.958  32.107  1.00  0.00     0.074 A 
ATOM     60  C   UNL A   1      43.513  27.060  31.288  1.00  0.00     0.031 C 
ATOM     61  C   UNL A   1      42.988  28.233  33.408  1.00  0.00     0.037 A 
BRANCH  48  62
ATOM     62  C   UNL A   1      39.040  32.213  36.014  1.00  0.00     0.057 A 
ATOM     63  C   UNL A   1      38.201  31.664  36.990  1.00  0.00     0.134 A 
ATOM     64  C   UNL A   1      39.500  33.521  36.217  1.00  0.00     0.134 A 
ATOM     65  F   UNL A   1      37.710  30.424  36.845  1.00  0.00    -0.206 F 
ATOM     66  C   UNL A   1      37.814  32.396  38.115  1.00  0.00     0.040 A 
ATOM     67  C   UNL A   1      39.141  34.254  37.349  1.00  0.00     0.040 A 
ATOM     68  F   UNL A   1      40.308  34.106  35.321  1.00  0.00    -0.206 F 
ATOM     69  C   UNL A   1      38.290  33.694  38.299  1.00  0.00     0.006 A 
ENDBRANCH  48  62
BRANCH  49  70
ATOM     70  C   UNL A   1      41.446  27.336  27.621  1.00  0.00     0.057 A 
ATOM     71  C   UNL A   1      42.243  27.948  26.648  1.00  0.00     0.134 A 
ATOM     72  C   UNL A   1      41.010  26.030  27.371  1.00  0.00     0.134 A 
ATOM     73  F   UNL A   1      42.674  29.207  26.821  1.00  0.00    -0.206 F 
ATOM     74  C   UNL A   1      42.584  27.291  25.465  1.00  0.00     0.040 A 
ATOM     75  C   UNL A   1      41.363  25.351  26.205  1.00  0.00     0.040 A 
ATOM     76  F   UNL A   1      40.244  25.388  28.267  1.00  0.00    -0.206 F 
ATOM     77  C   UNL A   1      42.148  25.985  25.244  1.00  0.00     0.006 A 
ENDBRANCH  49  70
BRANCH  61  78
ATOM     78  C   UNL A   1      44.150  27.519  34.031  1.00  0.00     0.057 A 
ATOM     79  C   UNL A   1      44.011  26.261  34.629  1.00  0.00     0.134 A 
ATOM     80  C   UNL A   1      45.428  28.090  34.005  1.00  0.00     0.134 A 
ATOM     81  F   UNL A   1      42.808  25.669  34.696  1.00  0.00    -0.206 F 
ATOM     82  C   UNL A   1      45.100  25.605  35.203  1.00  0.00     0.040 A 
ATOM     83  C   UNL A   1      46.529  27.432  34.554  1.00  0.00     0.040 A 
ATOM     84  F   UNL A   1      45.629  29.289  33.440  1.00  0.00    -0.206 F 
ATOM     85  C   UNL A   1      46.365  26.188  35.161  1.00  0.00     0.006 A 
ENDBRANCH  61  78
ENDBRANCH  35  36
ENDBRANCH  28  30
ENDBRANCH  27  28
ENDBRANCH  26  27
ENDBRANCH  25  26
ENDBRANCH  24  25
ENDBRANCH   1  24
TORSDOF 18
ENDMDL
MODEL 2
REMARK VINA RESULT:     -10.7      4.278      9.224
REMARK SMILES CC(C)[C@H](NC(=O)OCc1ccccc1)C(=O)NCC(=O)OCCOC(=O)c1ccc(-c2c3nc(c(-c4c(F)cccc4F)c4ccc([nH]4)c(-c4c(F)cccc4F)c4nc(c(-c5c(F)cccc5F)c5ccc2[nH]5)C=C4)C=C3)cc1
REMARK SMILES IDX 20 1 21 2 19 3 18 4 16 5 17 6 4 8 2 9 1 10 3 11 5 12 6 13
REMARK SMILES IDX 7 15 8 16 9 17 10 18 11 19 15 20 12 21 14 22 13 23 22 24
REMARK SMILES IDX 23 25 24 26 25 27 26 28 27 29 28 30 29 31 81 32 30 33 80 34
REMARK SMILES IDX 31 35 32 36 33 37 74 38 34 39 79 40 73 41 75 42 35 43 78 44
REMARK SMILES IDX 72 45 71 46 36 48 62 49 45 50 61 51 46 52 49 53 60 54 76 55
REMARK SMILES IDX 47 56 48 57 59 59 77 60 50 61 37 62 38 63 43 64 39 65 40 66
REMARK SMILES IDX 42 67 44 68 41 69 63 70 64 71 69 72 65 73 66 74 68 75 70 76
REMARK SMILES IDX 67 77 51 78 52 79 57 80 53 81 54 82 56 83 58 84 55 85
REMARK H PARENT 18 7 5 14 75 47 49 58
REMARK Flexibility Score: inf
ROOT
ATOM      1  C   UNL A   1      40.072  20.314  26.102  1.00  0.00     0.325 C 
ATOM      2  O   UNL A   1      40.208  19.144  25.755  1.00  0.00    -0.250 OA
ENDROOT
BRANCH   1   3
ATOM      3  C   UNL A   1      38.836  21.116  25.712  1.00  0.00     0.238 C 
BRANCH   3   4
ATOM      4  N   UNL A   1      38.794  22.529  25.994  1.00  0.00    -0.343 N 
ATOM      5  C   UNL A   1      37.731  23.373  25.990  1.00  0.00     0.243 C 
ATOM      6  O   UNL A   1      37.898  24.492  26.485  1.00  0.00    -0.273 OA
ATOM      7  H   UNL A   1      39.659  22.940  26.220  1.00  0.00     0.164 HD
BRANCH   5   8
ATOM      8  C   UNL A   1      36.350  22.976  25.407  1.00  0.00     0.177 C 
BRANCH   8   9
ATOM      9  C   UNL A   1      35.680  23.998  24.459  1.00  0.00     0.015 C 
ATOM     10  C   UNL A   1      35.013  23.327  23.252  1.00  0.00     0.010 C 
ATOM     11  C   UNL A   1      34.622  24.812  25.218  1.00  0.00     0.010 C 
ENDBRANCH   8   9
BRANCH   8  12
ATOM     12  N   UNL A   1      35.544  22.393  26.491  1.00  0.00    -0.309 N 
ATOM     13  C   UNL A   1      34.610  21.406  26.537  1.00  0.00     0.408 C 
ATOM     14  H   UNL A   1      35.718  22.805  27.368  1.00  0.00     0.167 HD
ATOM     15  O   UNL A   1      33.883  21.302  27.516  1.00  0.00    -0.225 OA
BRANCH  13  16
ATOM     16  O   UNL A   1      34.547  20.638  25.428  1.00  0.00    -0.445 OA
BRANCH  16  17
ATOM     17  C   UNL A   1      33.266  20.060  25.138  1.00  0.00     0.270 C 
BRANCH  17  18
ATOM     18  C   UNL A   1      33.321  18.569  24.941  1.00  0.00    -0.011 A 
ATOM     19  C   UNL A   1      33.950  18.006  23.824  1.00  0.00     0.007 A 
ATOM     20  C   UNL A   1      32.698  17.725  25.871  1.00  0.00     0.007 A 
ATOM     21  C   UNL A   1      33.932  16.624  23.632  1.00  0.00     0.000 A 
ATOM     22  C   UNL A   1      32.683  16.344  25.679  1.00  0.00     0.000 A 
ATOM     23  C   UNL A   1      33.295  15.795  24.556  1.00  0.00     0.000 A 
ENDBRANCH  17  18
ENDBRANCH  16  17
ENDBRANCH  13  16
ENDBRANCH   8  12
ENDBRANCH   5   8
ENDBRANCH   3   4
ENDBRANCH   1   3
BRANCH   1  24
ATOM     24  O   UNL A   1      40.884  20.950  26.983  1.00  0.00    -0.461 OA
BRANCH  24  25
ATOM     25  C   UNL A   1      42.235  21.142  26.516  1.00  0.00     0.274 C 
BRANCH  25  26
ATOM     26  C   UNL A   1      42.694  22.602  26.663  1.00  0.00     0.275 C 
BRANCH  26  27
ATOM     27  O   UNL A   1      41.667  23.558  26.314  1.00  0.00    -0.458 OA
BRANCH  27  28
ATOM     28  C   UNL A   1      42.118  24.798  26.016  1.00  0.00     0.338 C 
ATOM     29  O   UNL A   1      42.841  25.115  25.083  1.00  0.00    -0.246 OA
BRANCH  28  30
ATOM     30  C   UNL A   1      41.514  25.814  26.893  1.00  0.00     0.060 A 
ATOM     31  C   UNL A   1      42.045  27.107  26.866  1.00  0.00     0.016 A 
ATOM     32  C   UNL A   1      40.594  25.454  27.874  1.00  0.00     0.016 A 
ATOM     33  C   UNL A   1      41.725  28.024  27.856  1.00  0.00     0.010 A 
ATOM     34  C   UNL A   1      40.241  26.391  28.854  1.00  0.00     0.010 A 
ATOM     35  C   UNL A   1      40.839  27.665  28.873  1.00  0.00    -0.014 A 
BRANCH  35  36
ATOM     36  C   UNL A   1      40.649  28.595  30.010  1.00  0.00     0.031 A 
ATOM     37  C   UNL A   1      39.529  29.593  29.963  1.00  0.00     0.074 A 
ATOM     38  C   UNL A   1      41.421  28.489  31.107  1.00  0.00     0.049 A 
ATOM     39  N   UNL A   1      39.245  30.560  30.798  1.00  0.00    -0.248 NA
ATOM     40  C   UNL A   1      38.603  29.491  28.824  1.00  0.00     0.031 C 
ATOM     41  C   UNL A   1      42.481  27.499  31.304  1.00  0.00     0.029 A 
ATOM     42  N   UNL A   1      41.423  29.218  32.268  1.00  0.00    -0.354 N 
ATOM     43  C   UNL A   1      38.138  31.206  30.262  1.00  0.00     0.074 A 
ATOM     44  C   UNL A   1      37.802  30.526  29.030  1.00  0.00     0.031 C 
ATOM     45  C   UNL A   1      43.026  27.679  32.518  1.00  0.00     0.029 A 
ATOM     46  C   UNL A   1      42.396  28.830  33.154  1.00  0.00     0.049 A 
ATOM     47  H   UNL A   1      40.787  29.948  32.448  1.00  0.00     0.167 HD
ATOM     48  C   UNL A   1      37.466  32.273  30.757  1.00  0.00     0.037 A 
ATOM     49  C   UNL A   1      42.760  29.369  34.333  1.00  0.00     0.037 A 
ATOM     50  C   UNL A   1      37.786  32.920  32.001  1.00  0.00     0.049 A 
ATOM     51  C   UNL A   1      42.029  30.580  34.838  1.00  0.00     0.074 A 
ATOM     52  C   UNL A   1      37.177  34.015  32.590  1.00  0.00     0.029 A 
ATOM     53  N   UNL A   1      38.799  32.517  32.859  1.00  0.00    -0.354 N 
ATOM     54  N   UNL A   1      41.020  31.221  34.299  1.00  0.00    -0.248 NA
ATOM     55  C   UNL A   1      42.492  31.148  36.111  1.00  0.00     0.031 C 
ATOM     56  C   UNL A   1      37.842  34.293  33.789  1.00  0.00     0.029 A 
ATOM     57  C   UNL A   1      38.839  33.345  33.967  1.00  0.00     0.049 A 
ATOM     58  H   UNL A   1      39.401  31.754  32.702  1.00  0.00     0.167 HD
ATOM     59  C   UNL A   1      40.713  32.253  35.175  1.00  0.00     0.074 A 
ATOM     60  C   UNL A   1      41.634  32.143  36.288  1.00  0.00     0.031 C 
ATOM     61  C   UNL A   1      39.757  33.208  35.068  1.00  0.00     0.037 A 
BRANCH  48  62
ATOM     62  C   UNL A   1      36.348  32.829  29.925  1.00  0.00     0.057 A 
ATOM     63  C   UNL A   1      36.581  33.558  28.754  1.00  0.00     0.134 A 
ATOM     64  C   UNL A   1      35.015  32.617  30.301  1.00  0.00     0.134 A 
ATOM     65  F   UNL A   1      37.835  33.814  28.350  1.00  0.00    -0.206 F 
ATOM     66  C   UNL A   1      35.528  34.078  27.996  1.00  0.00     0.040 A 
ATOM     67  C   UNL A   1      33.954  33.109  29.539  1.00  0.00     0.040 A 
ATOM     68  F   UNL A   1      34.722  31.925  31.412  1.00  0.00    -0.206 F 
ATOM     69  C   UNL A   1      34.210  33.848  28.386  1.00  0.00     0.006 A 
ENDBRANCH  48  62
BRANCH  49  70
ATOM     70  C   UNL A   1      43.892  28.785  35.096  1.00  0.00     0.057 A 
ATOM     71  C   UNL A   1      43.677  27.839  36.103  1.00  0.00     0.134 A 
ATOM     72  C   UNL A   1      45.215  29.166  34.839  1.00  0.00     0.134 A 
ATOM     73  F   UNL A   1      42.430  27.451  36.410  1.00  0.00    -0.206 F 
ATOM     74  C   UNL A   1      44.735  27.299  36.836  1.00  0.00     0.040 A 
ATOM     75  C   UNL A   1      46.285  28.617  35.546  1.00  0.00     0.040 A 
ATOM     76  F   UNL A   1      45.487  30.068  33.885  1.00  0.00    -0.206 F 
ATOM     77  C   UNL A   1      46.045  27.684  36.554  1.00  0.00     0.006 A 
ENDBRANCH  49  70
BRANCH  61  78
ATOM     78  C   UNL A   1      39.636  34.178  36.205  1.00  0.00     0.057 A 
ATOM     79  C   UNL A   1      38.924  33.867  37.370  1.00  0.00     0.134 A 
ATOM     80  C   UNL A   1      40.264  35.428  36.141  1.00  0.00     0.134 A 
ATOM     81  F   UNL A   1      38.290  32.690  37.485  1.00  0.00    -0.206 F 
ATOM     82  C   UNL A   1      38.822  34.776  38.423  1.00  0.00     0.040 A 
ATOM     83  C   UNL A   1      40.188  36.335  37.198  1.00  0.00     0.040 A 
ATOM     84  F   UNL A   1      40.968  35.782  35.055  1.00  0.00    -0.206 F 
ATOM     85  C   UNL A   1      39.460  36.012  38.340  1.00  0.00     0.006 A 
ENDBRANCH  61  78
ENDBRANCH  35  36
ENDBRANCH  28  30
ENDBRANCH  27  28
ENDBRANCH  26  27
ENDBRANCH  25  26
ENDBRANCH  24  25
ENDBRANCH   1  24
TORSDOF 18
ENDMDL
MODEL 3
REMARK VINA RESULT:     -10.3      5.179      8.929
REMARK SMILES CC(C)[C@H](NC(=O)OCc1ccccc1)C(=O)NCC(=O)OCCOC(=O)c1ccc(-c2c3nc(c(-c4c(F)cccc4F)c4ccc([nH]4)c(-c4c(F)cccc4F)c4nc(c(-c5c(F)cccc5F)c5ccc2[nH]5)C=C4)C=C3)cc1
REMARK SMILES IDX 20 1 21 2 19 3 18 4 16 5 17 6 4 8 2 9 1 10 3 11 5 12 6 13
REMARK SMILES IDX 7 15 8 16 9 17 10 18 11 19 15 20 12 21 14 22 13 23 22 24
REMARK SMILES IDX 23 25 24 26 25 27 26 28 27 29 28 30 29 31 81 32 30 33 80 34
REMARK SMILES IDX 31 35 32 36 33 37 74 38 34 39 79 40 73 41 75 42 35 43 78 44
REMARK SMILES IDX 72 45 71 46 36 48 62 49 45 50 61 51 46 52 49 53 60 54 76 55
REMARK SMILES IDX 47 56 48 57 59 59 77 60 50 61 37 62 38 63 43 64 39 65 40 66
REMARK SMILES IDX 42 67 44 68 41 69 63 70 64 71 69 72 65 73 66 74 68 75 70 76
REMARK SMILES IDX 67 77 51 78 52 79 57 80 53 81 54 82 56 83 58 84 55 85
REMARK H PARENT 18 7 5 14 75 47 49 58
REMARK Flexibility Score: inf
ROOT
ATOM      1  C   UNL A   1      36.980  22.242  25.258  1.00  0.00     0.325 C 
ATOM      2  O   UNL A   1      36.985  23.463  25.121  1.00  0.00    -0.250 OA
ENDROOT
BRANCH   1   3
ATOM      3  C   UNL A   1      35.742  21.509  25.760  1.00  0.00     0.238 C 
BRANCH   3   4
ATOM      4  N   UNL A   1      35.056  22.002  26.929  1.00  0.00    -0.343 N 
ATOM      5  C   UNL A   1      33.769  22.413  27.058  1.00  0.00     0.243 C 
ATOM      6  O   UNL A   1      33.343  22.576  28.206  1.00  0.00    -0.273 OA
ATOM      7  H   UNL A   1      35.599  22.047  27.748  1.00  0.00     0.164 HD
BRANCH   5   8
ATOM      8  C   UNL A   1      32.844  22.664  25.838  1.00  0.00     0.177 C 
BRANCH   8   9
ATOM      9  C   UNL A   1      33.129  23.935  25.005  1.00  0.00     0.015 C 
ATOM     10  C   UNL A   1      34.025  24.933  25.749  1.00  0.00     0.010 C 
ATOM     11  C   UNL A   1      33.805  23.559  23.678  1.00  0.00     0.010 C 
ENDBRANCH   8   9
BRANCH   8  12
ATOM     12  N   UNL A   1      31.458  22.391  26.250  1.00  0.00    -0.309 N 
ATOM     13  C   UNL A   1      30.504  23.133  26.871  1.00  0.00     0.408 C 
ATOM     14  H   UNL A   1      31.159  21.480  26.028  1.00  0.00     0.167 HD
ATOM     15  O   UNL A   1      29.522  22.582  27.352  1.00  0.00    -0.225 OA
BRANCH  13  16
ATOM     16  O   UNL A   1      30.771  24.455  26.939  1.00  0.00    -0.445 OA
BRANCH  16  17
ATOM     17  C   UNL A   1      29.944  25.305  26.131  1.00  0.00     0.270 C 
BRANCH  17  18
ATOM     18  C   UNL A   1      30.646  26.559  25.681  1.00  0.00    -0.011 A 
ATOM     19  C   UNL A   1      30.713  26.907  24.327  1.00  0.00     0.007 A 
ATOM     20  C   UNL A   1      31.279  27.375  26.628  1.00  0.00     0.007 A 
ATOM     21  C   UNL A   1      31.424  28.040  23.930  1.00  0.00     0.000 A 
ATOM     22  C   UNL A   1      31.987  28.508  26.231  1.00  0.00     0.000 A 
ATOM     23  C   UNL A   1      32.064  28.837  24.880  1.00  0.00     0.000 A 
ENDBRANCH  17  18
ENDBRANCH  16  17
ENDBRANCH  13  16
ENDBRANCH   8  12
ENDBRANCH   5   8
ENDBRANCH   3   4
ENDBRANCH   1   3
BRANCH   1  24
ATOM     24  O   UNL A   1      37.969  21.421  24.830  1.00  0.00    -0.461 OA
BRANCH  24  25
ATOM     25  C   UNL A   1      37.672  20.015  24.953  1.00  0.00     0.274 C 
BRANCH  25  26
ATOM     26  C   UNL A   1      38.903  19.200  25.381  1.00  0.00     0.275 C 
BRANCH  26  27
ATOM     27  O   UNL A   1      39.809  19.943  26.228  1.00  0.00    -0.458 OA
BRANCH  27  28
ATOM     28  C   UNL A   1      41.109  19.583  26.129  1.00  0.00     0.338 C 
ATOM     29  O   UNL A   1      41.549  18.507  25.753  1.00  0.00    -0.246 OA
BRANCH  28  30
ATOM     30  C   UNL A   1      42.003  20.719  26.407  1.00  0.00     0.060 A 
ATOM     31  C   UNL A   1      42.191  21.100  27.739  1.00  0.00     0.016 A 
ATOM     32  C   UNL A   1      42.474  21.526  25.374  1.00  0.00     0.016 A 
ATOM     33  C   UNL A   1      42.778  22.317  28.051  1.00  0.00     0.010 A 
ATOM     34  C   UNL A   1      43.099  22.739  25.688  1.00  0.00     0.010 A 
ATOM     35  C   UNL A   1      43.214  23.159  27.027  1.00  0.00    -0.014 A 
BRANCH  35  36
ATOM     36  C   UNL A   1      43.673  24.523  27.376  1.00  0.00     0.031 A 
ATOM     37  C   UNL A   1      42.672  25.537  27.849  1.00  0.00     0.074 A 
ATOM     38  C   UNL A   1      44.985  24.824  27.348  1.00  0.00     0.049 A 
ATOM     39  N   UNL A   1      42.839  26.808  28.109  1.00  0.00    -0.248 NA
ATOM     40  C   UNL A   1      41.296  25.056  28.056  1.00  0.00     0.031 C 
ATOM     41  C   UNL A   1      46.058  23.895  26.992  1.00  0.00     0.029 A 
ATOM     42  N   UNL A   1      45.636  25.995  27.635  1.00  0.00    -0.354 N 
ATOM     43  C   UNL A   1      41.585  27.287  28.468  1.00  0.00     0.074 A 
ATOM     44  C   UNL A   1      40.665  26.173  28.389  1.00  0.00     0.031 C 
ATOM     45  C   UNL A   1      47.236  24.531  27.089  1.00  0.00     0.029 A 
ATOM     46  C   UNL A   1      46.994  25.923  27.454  1.00  0.00     0.049 A 
ATOM     47  H   UNL A   1      45.173  26.808  27.941  1.00  0.00     0.167 HD
ATOM     48  C   UNL A   1      41.236  28.545  28.828  1.00  0.00     0.037 A 
ATOM     49  C   UNL A   1      47.933  26.885  27.539  1.00  0.00     0.037 A 
ATOM     50  C   UNL A   1      42.166  29.637  28.938  1.00  0.00     0.049 A 
ATOM     51  C   UNL A   1      47.514  28.283  27.895  1.00  0.00     0.074 A 
ATOM     52  C   UNL A   1      41.917  30.954  29.284  1.00  0.00     0.029 A 
ATOM     53  N   UNL A   1      43.531  29.533  28.717  1.00  0.00    -0.354 N 
ATOM     54  N   UNL A   1      46.318  28.741  28.177  1.00  0.00    -0.248 NA
ATOM     55  C   UNL A   1      48.574  29.299  27.938  1.00  0.00     0.031 C 
ATOM     56  C   UNL A   1      43.128  31.653  29.242  1.00  0.00     0.029 A 
ATOM     57  C   UNL A   1      44.137  30.762  28.911  1.00  0.00     0.049 A 
ATOM     58  H   UNL A   1      44.000  28.706  28.461  1.00  0.00     0.167 HD
ATOM     59  C   UNL A   1      46.483  30.092  28.451  1.00  0.00     0.074 A 
ATOM     60  C   UNL A   1      47.898  30.375  28.315  1.00  0.00     0.031 C 
ATOM     61  C   UNL A   1      45.549  31.016  28.783  1.00  0.00     0.037 A 
BRANCH  48  62
ATOM     62  C   UNL A   1      39.783  28.810  29.085  1.00  0.00     0.057 A 
ATOM     63  C   UNL A   1      39.216  28.693  30.359  1.00  0.00     0.134 A 
ATOM     64  C   UNL A   1      38.940  29.200  28.036  1.00  0.00     0.134 A 
ATOM     65  F   UNL A   1      39.964  28.304  31.403  1.00  0.00    -0.206 F 
ATOM     66  C   UNL A   1      37.858  28.934  30.578  1.00  0.00     0.040 A 
ATOM     67  C   UNL A   1      37.586  29.467  28.246  1.00  0.00     0.040 A 
ATOM     68  F   UNL A   1      39.419  29.331  26.789  1.00  0.00    -0.206 F 
ATOM     69  C   UNL A   1      37.040  29.328  29.520  1.00  0.00     0.006 A 
ENDBRANCH  48  62
BRANCH  49  70
ATOM     70  C   UNL A   1      49.352  26.562  27.248  1.00  0.00     0.057 A 
ATOM     71  C   UNL A   1      49.842  26.558  25.938  1.00  0.00     0.134 A 
ATOM     72  C   UNL A   1      50.250  26.244  28.274  1.00  0.00     0.134 A 
ATOM     73  F   UNL A   1      49.024  26.833  24.911  1.00  0.00    -0.206 F 
ATOM     74  C   UNL A   1      51.171  26.238  25.656  1.00  0.00     0.040 A 
ATOM     75  C   UNL A   1      51.587  25.947  28.011  1.00  0.00     0.040 A 
ATOM     76  F   UNL A   1      49.842  26.232  29.552  1.00  0.00    -0.206 F 
ATOM     77  C   UNL A   1      52.050  25.937  26.696  1.00  0.00     0.006 A 
ENDBRANCH  49  70
BRANCH  61  78
ATOM     78  C   UNL A   1      46.038  32.406  29.062  1.00  0.00     0.057 A 
ATOM     79  C   UNL A   1      46.117  33.379  28.059  1.00  0.00     0.134 A 
ATOM     80  C   UNL A   1      46.409  32.779  30.360  1.00  0.00     0.134 A 
ATOM     81  F   UNL A   1      45.788  33.078  26.793  1.00  0.00    -0.206 F 
ATOM     82  C   UNL A   1      46.571  34.670  28.332  1.00  0.00     0.040 A 
ATOM     83  C   UNL A   1      46.841  34.073  30.650  1.00  0.00     0.040 A 
ATOM     84  F   UNL A   1      46.348  31.895  31.367  1.00  0.00    -0.206 F 
ATOM     85  C   UNL A   1      46.928  35.021  29.632  1.00  0.00     0.006 A 
ENDBRANCH  61  78
ENDBRANCH  35  36
ENDBRANCH  28  30
ENDBRANCH  27  28
ENDBRANCH  26  27
ENDBRANCH  25  26
ENDBRANCH  24  25
ENDBRANCH   1  24
TORSDOF 18
ENDMDL
