MODEL 1
REMARK VINA RESULT:     -11.6      0.000      0.000
REMARK SMILES COc1cc(Cl)ccc1-c1ccc(CC(=O)OCCOC(=O)c2ccc(-c3c4nc(c(-c5c(F)cccc5F)c5ccc([nH]5)c(-c5c(F)cccc5F)c5nc(c(-c6c(F)cccc6F)c6ccc3[nH]6)C=C5)C=C4)cc2)cc1
REMARK SMILES IDX 18 1 17 2 15 3 16 4 14 5 13 6 10 7 11 8 78 9 12 10 77 11
REMARK SMILES IDX 9 12 3 13 4 14 5 15 8 16 6 17 7 18 2 19 1 20 19 21 20 22
REMARK SMILES IDX 21 23 22 24 23 25 24 26 76 27 25 28 75 29 26 30 27 31 28 32
REMARK SMILES IDX 69 33 29 34 74 35 68 36 70 37 30 38 73 39 67 40 66 41 31 43
REMARK SMILES IDX 57 44 40 45 56 46 41 47 44 48 55 49 71 50 42 51 43 52 54 54
REMARK SMILES IDX 72 55 45 56 32 57 33 58 38 59 34 60 35 61 37 62 39 63 36 64
REMARK SMILES IDX 58 65 59 66 64 67 60 68 61 69 63 70 65 71 62 72 46 73 47 74
REMARK SMILES IDX 52 75 48 76 49 77 51 78 53 79 50 80
REMARK H PARENT 70 42 44 53
REMARK Flexibility Score: inf
ROOT
ATOM      1  C   UNL A   1      44.459  20.318  25.376  1.00  0.00     0.274 C 
ENDROOT
BRANCH   1   2
ATOM      2  O   UNL A   1      43.030  20.230  25.212  1.00  0.00    -0.462 OA
BRANCH   2   3
ATOM      3  C   UNL A   1      42.414  19.233  25.899  1.00  0.00     0.310 C 
ATOM      4  O   UNL A   1      42.643  18.037  25.751  1.00  0.00    -0.252 OA
BRANCH   3   5
ATOM      5  C   UNL A   1      41.338  19.727  26.835  1.00  0.00     0.158 C 
BRANCH   5   6
ATOM      6  C   UNL A   1      40.119  20.360  26.210  1.00  0.00    -0.037 A 
ATOM      7  C   UNL A   1      37.745  21.481  25.153  1.00  0.00    -0.015 A 
ATOM      8  C   UNL A   1      38.639  22.265  25.891  1.00  0.00     0.009 A 
ATOM      9  C   UNL A   1      38.065  20.133  24.937  1.00  0.00     0.009 A 
ATOM     10  C   UNL A   1      39.810  21.711  26.416  1.00  0.00     0.005 A 
ATOM     11  C   UNL A   1      39.236  19.578  25.457  1.00  0.00     0.005 A 
BRANCH   7  12
ATOM     12  C   UNL A   1      36.503  22.049  24.609  1.00  0.00     0.024 A 
ATOM     13  C   UNL A   1      35.276  21.961  25.298  1.00  0.00     0.128 A 
ATOM     14  C   UNL A   1      34.105  22.489  24.743  1.00  0.00     0.067 A 
ATOM     15  C   UNL A   1      34.147  23.080  23.482  1.00  0.00     0.044 A 
ATOM     16  C   UNL A   1      36.518  22.665  23.346  1.00  0.00     0.014 A 
ATOM     17  Cl  UNL A   1      32.704  23.708  22.787  1.00  0.00    -0.084 Cl
ATOM     18  C   UNL A   1      35.346  23.172  22.782  1.00  0.00     0.021 A 
BRANCH  13  19
ATOM     19  O   UNL A   1      35.284  21.429  26.566  1.00  0.00    -0.496 OA
ATOM     20  C   UNL A   1      34.030  21.533  27.233  1.00  0.00     0.278 C 
ENDBRANCH  13  19
ENDBRANCH   7  12
ENDBRANCH   5   6
ENDBRANCH   3   5
ENDBRANCH   2   3
ENDBRANCH   1   2
BRANCH   1  21
ATOM     21  C   UNL A   1      44.877  21.743  25.727  1.00  0.00     0.275 C 
BRANCH  21  22
ATOM     22  O   UNL A   1      43.731  22.493  26.169  1.00  0.00    -0.458 OA
BRANCH  22  23
ATOM     23  C   UNL A   1      43.450  23.607  25.462  1.00  0.00     0.338 C 
ATOM     24  O   UNL A   1      43.605  23.800  24.269  1.00  0.00    -0.246 OA
BRANCH  23  25
ATOM     25  C   UNL A   1      42.909  24.630  26.366  1.00  0.00     0.060 A 
ATOM     26  C   UNL A   1      43.441  25.922  26.360  1.00  0.00     0.016 A 
ATOM     27  C   UNL A   1      41.949  24.260  27.309  1.00  0.00     0.016 A 
ATOM     28  C   UNL A   1      43.051  26.836  27.338  1.00  0.00     0.010 A 
ATOM     29  C   UNL A   1      41.522  25.193  28.254  1.00  0.00     0.010 A 
ATOM     30  C   UNL A   1      42.092  26.477  28.296  1.00  0.00    -0.014 A 
BRANCH  30  31
ATOM     31  C   UNL A   1      41.712  27.421  29.374  1.00  0.00     0.031 A 
ATOM     32  C   UNL A   1      42.462  27.414  30.676  1.00  0.00     0.074 A 
ATOM     33  C   UNL A   1      40.689  28.275  29.191  1.00  0.00     0.049 A 
ATOM     34  N   UNL A   1      42.204  28.061  31.783  1.00  0.00    -0.248 NA
ATOM     35  C   UNL A   1      43.659  26.560  30.741  1.00  0.00     0.031 C 
ATOM     36  C   UNL A   1      39.901  28.404  27.965  1.00  0.00     0.029 A 
ATOM     37  N   UNL A   1      40.132  29.192  30.046  1.00  0.00    -0.354 N 
ATOM     38  C   UNL A   1      43.185  27.672  32.685  1.00  0.00     0.074 A 
ATOM     39  C   UNL A   1      44.040  26.726  32.000  1.00  0.00     0.031 C 
ATOM     40  C   UNL A   1      38.966  29.350  28.145  1.00  0.00     0.029 A 
ATOM     41  C   UNL A   1      39.057  29.856  29.511  1.00  0.00     0.049 A 
ATOM     42  H   UNL A   1      40.470  29.357  30.956  1.00  0.00     0.167 HD
ATOM     43  C   UNL A   1      43.357  28.068  33.968  1.00  0.00     0.037 A 
ATOM     44  C   UNL A   1      38.222  30.753  30.068  1.00  0.00     0.037 A 
ATOM     45  C   UNL A   1      42.526  29.029  34.644  1.00  0.00     0.049 A 
ATOM     46  C   UNL A   1      38.415  31.152  31.502  1.00  0.00     0.074 A 
ATOM     47  C   UNL A   1      42.631  29.503  35.939  1.00  0.00     0.029 A 
ATOM     48  N   UNL A   1      41.439  29.669  34.069  1.00  0.00    -0.354 N 
ATOM     49  N   UNL A   1      39.329  30.757  32.354  1.00  0.00    -0.248 NA
ATOM     50  C   UNL A   1      37.450  32.113  32.057  1.00  0.00     0.031 C 
ATOM     51  C   UNL A   1      41.593  30.416  36.157  1.00  0.00     0.029 A 
ATOM     52  C   UNL A   1      40.859  30.528  34.988  1.00  0.00     0.049 A 
ATOM     53  H   UNL A   1      41.127  29.533  33.146  1.00  0.00     0.167 HD
ATOM     54  C   UNL A   1      39.059  31.427  33.539  1.00  0.00     0.074 A 
ATOM     55  C   UNL A   1      37.901  32.263  33.295  1.00  0.00     0.031 C 
ATOM     56  C   UNL A   1      39.708  31.352  34.725  1.00  0.00     0.037 A 
BRANCH  43  57
ATOM     57  C   UNL A   1      44.481  27.441  34.735  1.00  0.00     0.057 A 
ATOM     58  C   UNL A   1      44.312  26.245  35.444  1.00  0.00     0.134 A 
ATOM     59  C   UNL A   1      45.753  28.025  34.739  1.00  0.00     0.134 A 
ATOM     60  F   UNL A   1      43.113  25.645  35.490  1.00  0.00    -0.206 F 
ATOM     61  C   UNL A   1      45.369  25.660  36.145  1.00  0.00     0.040 A 
ATOM     62  C   UNL A   1      46.821  27.441  35.422  1.00  0.00     0.040 A 
ATOM     63  F   UNL A   1      45.978  29.170  34.077  1.00  0.00    -0.206 F 
ATOM     64  C   UNL A   1      46.628  26.256  36.130  1.00  0.00     0.006 A 
ENDBRANCH  43  57
BRANCH  44  65
ATOM     65  C   UNL A   1      37.111  31.319  29.268  1.00  0.00     0.057 A 
ATOM     66  C   UNL A   1      35.953  30.577  29.018  1.00  0.00     0.134 A 
ATOM     67  C   UNL A   1      37.181  32.614  28.741  1.00  0.00     0.134 A 
ATOM     68  F   UNL A   1      35.842  29.323  29.480  1.00  0.00    -0.206 F 
ATOM     69  C   UNL A   1      34.902  31.100  28.264  1.00  0.00     0.040 A 
ATOM     70  C   UNL A   1      36.130  33.157  28.002  1.00  0.00     0.040 A 
ATOM     71  F   UNL A   1      38.267  33.372  28.950  1.00  0.00    -0.206 F 
ATOM     72  C   UNL A   1      34.987  32.397  27.759  1.00  0.00     0.006 A 
ENDBRANCH  44  65
BRANCH  56  73
ATOM     73  C   UNL A   1      39.194  32.213  35.838  1.00  0.00     0.057 A 
ATOM     74  C   UNL A   1      39.627  33.533  36.001  1.00  0.00     0.134 A 
ATOM     75  C   UNL A   1      38.236  31.724  36.734  1.00  0.00     0.134 A 
ATOM     76  F   UNL A   1      40.553  34.052  35.181  1.00  0.00    -0.206 F 
ATOM     77  C   UNL A   1      39.133  34.337  37.029  1.00  0.00     0.040 A 
ATOM     78  C   UNL A   1      37.724  32.523  37.757  1.00  0.00     0.040 A 
ATOM     79  F   UNL A   1      37.781  30.467  36.626  1.00  0.00    -0.206 F 
ATOM     80  C   UNL A   1      38.176  33.833  37.907  1.00  0.00     0.006 A 
ENDBRANCH  56  73
ENDBRANCH  30  31
ENDBRANCH  23  25
ENDBRANCH  22  23
ENDBRANCH  21  22
ENDBRANCH   1  21
TORSDOF 14
ENDMDL
MODEL 2
REMARK VINA RESULT:     -11.1      1.306      2.281
REMARK SMILES COc1cc(Cl)ccc1-c1ccc(CC(=O)OCCOC(=O)c2ccc(-c3c4nc(c(-c5c(F)cccc5F)c5ccc([nH]5)c(-c5c(F)cccc5F)c5nc(c(-c6c(F)cccc6F)c6ccc3[nH]6)C=C5)C=C4)cc2)cc1
REMARK SMILES IDX 18 1 17 2 15 3 16 4 14 5 13 6 10 7 11 8 78 9 12 10 77 11
REMARK SMILES IDX 9 12 3 13 4 14 5 15 8 16 6 17 7 18 2 19 1 20 19 21 20 22
REMARK SMILES IDX 21 23 22 24 23 25 24 26 76 27 25 28 75 29 26 30 27 31 28 32
REMARK SMILES IDX 69 33 29 34 74 35 68 36 70 37 30 38 73 39 67 40 66 41 31 43
REMARK SMILES IDX 57 44 40 45 56 46 41 47 44 48 55 49 71 50 42 51 43 52 54 54
REMARK SMILES IDX 72 55 45 56 32 57 33 58 38 59 34 60 35 61 37 62 39 63 36 64
REMARK SMILES IDX 58 65 59 66 64 67 60 68 61 69 63 70 65 71 62 72 46 73 47 74
REMARK SMILES IDX 52 75 48 76 49 77 51 78 53 79 50 80
REMARK H PARENT 70 42 44 53
REMARK Flexibility Score: inf
ROOT
ATOM      1  C   UNL A   1      42.517  20.479  26.163  1.00  0.00     0.274 C 
ENDROOT
BRANCH   1   2
ATOM      2  O   UNL A   1      41.267  20.266  25.480  1.00  0.00    -0.462 OA
BRANCH   2   3
ATOM      3  C   UNL A   1      40.150  20.643  26.156  1.00  0.00     0.310 C 
ATOM      4  O   UNL A   1      40.148  21.176  27.261  1.00  0.00    -0.252 OA
BRANCH   3   5
ATOM      5  C   UNL A   1      38.869  20.272  25.450  1.00  0.00     0.158 C 
BRANCH   5   6
ATOM      6  C   UNL A   1      37.802  21.335  25.355  1.00  0.00    -0.037 A 
ATOM      7  C   UNL A   1      35.839  23.347  25.024  1.00  0.00    -0.015 A 
ATOM      8  C   UNL A   1      35.477  21.996  25.069  1.00  0.00     0.009 A 
ATOM      9  C   UNL A   1      37.195  23.678  25.165  1.00  0.00     0.009 A 
ATOM     10  C   UNL A   1      36.447  21.001  25.229  1.00  0.00     0.005 A 
ATOM     11  C   UNL A   1      38.165  22.686  25.330  1.00  0.00     0.005 A 
BRANCH   7  12
ATOM     12  C   UNL A   1      34.830  24.400  24.840  1.00  0.00     0.024 A 
ATOM     13  C   UNL A   1      34.206  24.630  23.597  1.00  0.00     0.128 A 
ATOM     14  C   UNL A   1      33.269  25.657  23.447  1.00  0.00     0.067 A 
ATOM     15  C   UNL A   1      32.972  26.481  24.530  1.00  0.00     0.044 A 
ATOM     16  C   UNL A   1      34.499  25.238  25.920  1.00  0.00     0.014 A 
ATOM     17  Cl  UNL A   1      31.836  27.760  24.341  1.00  0.00    -0.084 Cl
ATOM     18  C   UNL A   1      33.580  26.277  25.765  1.00  0.00     0.021 A 
BRANCH  13  19
ATOM     19  O   UNL A   1      34.476  23.757  22.569  1.00  0.00    -0.496 OA
ATOM     20  C   UNL A   1      33.314  23.121  22.045  1.00  0.00     0.278 C 
ENDBRANCH  13  19
ENDBRANCH   7  12
ENDBRANCH   5   6
ENDBRANCH   3   5
ENDBRANCH   2   3
ENDBRANCH   1   2
BRANCH   1  21
ATOM     21  C   UNL A   1      43.388  21.474  25.400  1.00  0.00     0.275 C 
BRANCH  21  22
ATOM     22  O   UNL A   1      42.645  22.681  25.149  1.00  0.00    -0.458 OA
BRANCH  22  23
ATOM     23  C   UNL A   1      43.375  23.812  25.062  1.00  0.00     0.338 C 
ATOM     24  O   UNL A   1      44.339  24.033  24.350  1.00  0.00    -0.246 OA
BRANCH  23  25
ATOM     25  C   UNL A   1      42.838  24.807  26.000  1.00  0.00     0.060 A 
ATOM     26  C   UNL A   1      43.362  26.102  26.022  1.00  0.00     0.016 A 
ATOM     27  C   UNL A   1      41.892  24.405  26.943  1.00  0.00     0.016 A 
ATOM     28  C   UNL A   1      42.978  26.987  27.028  1.00  0.00     0.010 A 
ATOM     29  C   UNL A   1      41.470  25.310  27.918  1.00  0.00     0.010 A 
ATOM     30  C   UNL A   1      42.033  26.596  27.987  1.00  0.00    -0.014 A 
BRANCH  30  31
ATOM     31  C   UNL A   1      41.659  27.509  29.095  1.00  0.00     0.031 A 
ATOM     32  C   UNL A   1      42.433  27.481  30.383  1.00  0.00     0.074 A 
ATOM     33  C   UNL A   1      40.621  28.353  28.951  1.00  0.00     0.049 A 
ATOM     34  N   UNL A   1      42.187  28.098  31.510  1.00  0.00    -0.248 NA
ATOM     35  C   UNL A   1      43.642  26.642  30.406  1.00  0.00     0.031 C 
ATOM     36  C   UNL A   1      39.810  28.500  27.743  1.00  0.00     0.029 A 
ATOM     37  N   UNL A   1      40.068  29.241  29.838  1.00  0.00    -0.354 N 
ATOM     38  C   UNL A   1      43.189  27.700  32.385  1.00  0.00     0.074 A 
ATOM     39  C   UNL A   1      44.044  26.783  31.662  1.00  0.00     0.031 C 
ATOM     40  C   UNL A   1      38.866  29.428  27.962  1.00  0.00     0.029 A 
ATOM     41  C   UNL A   1      38.974  29.903  29.338  1.00  0.00     0.049 A 
ATOM     42  H   UNL A   1      40.420  29.389  30.746  1.00  0.00     0.167 HD
ATOM     43  C   UNL A   1      43.379  28.068  33.674  1.00  0.00     0.037 A 
ATOM     44  C   UNL A   1      38.138  30.774  29.932  1.00  0.00     0.037 A 
ATOM     45  C   UNL A   1      42.546  29.000  34.387  1.00  0.00     0.049 A 
ATOM     46  C   UNL A   1      38.351  31.142  31.372  1.00  0.00     0.074 A 
ATOM     47  C   UNL A   1      42.669  29.445  35.692  1.00  0.00     0.029 A 
ATOM     48  N   UNL A   1      41.441  29.639  33.847  1.00  0.00    -0.354 N 
ATOM     49  N   UNL A   1      39.286  30.739  32.197  1.00  0.00    -0.248 NA
ATOM     50  C   UNL A   1      37.383  32.075  31.967  1.00  0.00     0.031 C 
ATOM     51  C   UNL A   1      41.623  30.338  35.950  1.00  0.00     0.029 A 
ATOM     52  C   UNL A   1      40.866  30.468  34.797  1.00  0.00     0.049 A 
ATOM     53  H   UNL A   1      41.114  29.521  32.927  1.00  0.00     0.167 HD
ATOM     54  C   UNL A   1      39.028  31.376  33.402  1.00  0.00     0.074 A 
ATOM     55  C   UNL A   1      37.855  32.201  33.199  1.00  0.00     0.031 C 
ATOM     56  C   UNL A   1      39.700  31.282  34.575  1.00  0.00     0.037 A 
BRANCH  43  57
ATOM     57  C   UNL A   1      44.524  27.438  34.405  1.00  0.00     0.057 A 
ATOM     58  C   UNL A   1      45.787  28.040  34.455  1.00  0.00     0.134 A 
ATOM     59  C   UNL A   1      44.352  26.230  35.092  1.00  0.00     0.134 A 
ATOM     60  F   UNL A   1      46.017  29.192  33.806  1.00  0.00    -0.206 F 
ATOM     61  C   UNL A   1      46.845  27.453  35.152  1.00  0.00     0.040 A 
ATOM     62  C   UNL A   1      45.398  25.642  35.804  1.00  0.00     0.040 A 
ATOM     63  F   UNL A   1      43.165  25.604  35.082  1.00  0.00    -0.206 F 
ATOM     64  C   UNL A   1      46.650  26.254  35.833  1.00  0.00     0.006 A 
ENDBRANCH  43  57
BRANCH  44  65
ATOM     65  C   UNL A   1      37.006  31.344  29.166  1.00  0.00     0.057 A 
ATOM     66  C   UNL A   1      35.865  30.583  28.892  1.00  0.00     0.134 A 
ATOM     67  C   UNL A   1      37.035  32.662  28.695  1.00  0.00     0.134 A 
ATOM     68  F   UNL A   1      35.792  29.307  29.300  1.00  0.00    -0.206 F 
ATOM     69  C   UNL A   1      34.793  31.109  28.170  1.00  0.00     0.040 A 
ATOM     70  C   UNL A   1      35.964  33.207  27.988  1.00  0.00     0.040 A 
ATOM     71  F   UNL A   1      38.103  33.439  28.927  1.00  0.00    -0.206 F 
ATOM     72  C   UNL A   1      34.839  32.428  27.721  1.00  0.00     0.006 A 
ENDBRANCH  44  65
BRANCH  56  73
ATOM     73  C   UNL A   1      39.194  32.108  35.717  1.00  0.00     0.057 A 
ATOM     74  C   UNL A   1      38.311  31.580  36.666  1.00  0.00     0.134 A 
ATOM     75  C   UNL A   1      39.618  33.431  35.884  1.00  0.00     0.134 A 
ATOM     76  F   UNL A   1      37.860  30.322  36.550  1.00  0.00    -0.206 F 
ATOM     77  C   UNL A   1      37.855  32.348  37.738  1.00  0.00     0.040 A 
ATOM     78  C   UNL A   1      39.180  34.204  36.960  1.00  0.00     0.040 A 
ATOM     79  F   UNL A   1      40.466  33.991  35.008  1.00  0.00    -0.206 F 
ATOM     80  C   UNL A   1      38.293  33.662  37.889  1.00  0.00     0.006 A 
ENDBRANCH  56  73
ENDBRANCH  30  31
ENDBRANCH  23  25
ENDBRANCH  22  23
ENDBRANCH  21  22
ENDBRANCH   1  21
TORSDOF 14
ENDMDL
MODEL 3
REMARK VINA RESULT:     -11.1      5.193     10.602
REMARK SMILES COc1cc(Cl)ccc1-c1ccc(CC(=O)OCCOC(=O)c2ccc(-c3c4nc(c(-c5c(F)cccc5F)c5ccc([nH]5)c(-c5c(F)cccc5F)c5nc(c(-c6c(F)cccc6F)c6ccc3[nH]6)C=C5)C=C4)cc2)cc1
REMARK SMILES IDX 18 1 17 2 15 3 16 4 14 5 13 6 10 7 11 8 78 9 12 10 77 11
REMARK SMILES IDX 9 12 3 13 4 14 5 15 8 16 6 17 7 18 2 19 1 20 19 21 20 22
REMARK SMILES IDX 21 23 22 24 23 25 24 26 76 27 25 28 75 29 26 30 27 31 28 32
REMARK SMILES IDX 69 33 29 34 74 35 68 36 70 37 30 38 73 39 67 40 66 41 31 43
REMARK SMILES IDX 57 44 40 45 56 46 41 47 44 48 55 49 71 50 42 51 43 52 54 54
REMARK SMILES IDX 72 55 45 56 32 57 33 58 38 59 34 60 35 61 37 62 39 63 36 64
REMARK SMILES IDX 58 65 59 66 64 67 60 68 61 69 63 70 65 71 62 72 46 73 47 74
REMARK SMILES IDX 52 75 48 76 49 77 51 78 53 79 50 80
REMARK H PARENT 70 42 44 53
REMARK Flexibility Score: inf
ROOT
ATOM      1  C   UNL A   1      34.573  34.294  30.702  1.00  0.00     0.274 C 
ENDROOT
BRANCH   1   2
ATOM      2  O   UNL A   1      33.768  33.927  29.564  1.00  0.00    -0.462 OA
BRANCH   2   3
ATOM      3  C   UNL A   1      34.438  33.751  28.395  1.00  0.00     0.310 C 
ATOM      4  O   UNL A   1      34.364  34.501  27.427  1.00  0.00    -0.252 OA
BRANCH   3   5
ATOM      5  C   UNL A   1      35.247  32.478  28.355  1.00  0.00     0.158 C 
BRANCH   5   6
ATOM      6  C   UNL A   1      34.576  31.252  27.785  1.00  0.00    -0.037 A 
ATOM      7  C   UNL A   1      33.336  29.017  26.570  1.00  0.00    -0.015 A 
ATOM      8  C   UNL A   1      34.654  28.938  27.036  1.00  0.00     0.009 A 
ATOM      9  C   UNL A   1      32.642  30.224  26.739  1.00  0.00     0.009 A 
ATOM     10  C   UNL A   1      35.268  30.044  27.632  1.00  0.00     0.005 A 
ATOM     11  C   UNL A   1      33.252  31.328  27.339  1.00  0.00     0.005 A 
BRANCH   7  12
ATOM     12  C   UNL A   1      32.686  27.866  25.927  1.00  0.00     0.024 A 
ATOM     13  C   UNL A   1      33.005  27.464  24.614  1.00  0.00     0.128 A 
ATOM     14  C   UNL A   1      32.349  26.381  24.019  1.00  0.00     0.067 A 
ATOM     15  C   UNL A   1      31.350  25.711  24.722  1.00  0.00     0.044 A 
ATOM     16  C   UNL A   1      31.683  27.162  26.618  1.00  0.00     0.014 A 
ATOM     17  Cl  UNL A   1      30.526  24.393  23.983  1.00  0.00    -0.084 Cl
ATOM     18  C   UNL A   1      31.014  26.095  26.017  1.00  0.00     0.021 A 
BRANCH  13  19
ATOM     19  O   UNL A   1      34.040  28.107  23.976  1.00  0.00    -0.496 OA
ATOM     20  C   UNL A   1      33.674  28.655  22.713  1.00  0.00     0.278 C 
ENDBRANCH  13  19
ENDBRANCH   7  12
ENDBRANCH   5   6
ENDBRANCH   3   5
ENDBRANCH   2   3
ENDBRANCH   1   2
BRANCH   1  21
ATOM     21  C   UNL A   1      34.210  33.446  31.918  1.00  0.00     0.275 C 
BRANCH  21  22
ATOM     22  O   UNL A   1      34.871  32.170  31.838  1.00  0.00    -0.458 OA
BRANCH  22  23
ATOM     23  C   UNL A   1      35.896  31.986  32.695  1.00  0.00     0.338 C 
ATOM     24  O   UNL A   1      35.973  32.330  33.862  1.00  0.00    -0.246 OA
BRANCH  23  25
ATOM     25  C   UNL A   1      36.985  31.284  32.004  1.00  0.00     0.060 A 
ATOM     26  C   UNL A   1      37.937  30.571  32.738  1.00  0.00     0.016 A 
ATOM     27  C   UNL A   1      37.123  31.443  30.624  1.00  0.00     0.016 A 
ATOM     28  C   UNL A   1      39.063  30.059  32.097  1.00  0.00     0.010 A 
ATOM     29  C   UNL A   1      38.226  30.885  29.977  1.00  0.00     0.010 A 
ATOM     30  C   UNL A   1      39.219  30.216  30.713  1.00  0.00    -0.014 A 
BRANCH  30  31
ATOM     31  C   UNL A   1      40.441  29.725  30.030  1.00  0.00     0.031 A 
ATOM     32  C   UNL A   1      41.610  30.648  29.829  1.00  0.00     0.074 A 
ATOM     33  C   UNL A   1      40.498  28.458  29.581  1.00  0.00     0.049 A 
ATOM     34  N   UNL A   1      42.709  30.455  29.146  1.00  0.00    -0.248 NA
ATOM     35  C   UNL A   1      41.528  31.965  30.481  1.00  0.00     0.031 C 
ATOM     36  C   UNL A   1      39.447  27.454  29.740  1.00  0.00     0.029 A 
ATOM     37  N   UNL A   1      41.486  27.804  28.889  1.00  0.00    -0.354 N 
ATOM     38  C   UNL A   1      43.434  31.633  29.258  1.00  0.00     0.074 A 
ATOM     39  C   UNL A   1      42.649  32.540  30.069  1.00  0.00     0.031 C 
ATOM     40  C   UNL A   1      39.847  26.308  29.167  1.00  0.00     0.029 A 
ATOM     41  C   UNL A   1      41.159  26.512  28.559  1.00  0.00     0.049 A 
ATOM     42  H   UNL A   1      42.346  28.220  28.651  1.00  0.00     0.167 HD
ATOM     43  C   UNL A   1      44.646  31.932  28.732  1.00  0.00     0.037 A 
ATOM     44  C   UNL A   1      41.829  25.604  27.826  1.00  0.00     0.037 A 
ATOM     45  C   UNL A   1      45.441  31.024  27.949  1.00  0.00     0.049 A 
ATOM     46  C   UNL A   1      43.157  25.970  27.228  1.00  0.00     0.074 A 
ATOM     47  C   UNL A   1      46.687  31.232  27.385  1.00  0.00     0.029 A 
ATOM     48  N   UNL A   1      45.067  29.728  27.628  1.00  0.00    -0.354 N 
ATOM     49  N   UNL A   1      43.821  27.096  27.318  1.00  0.00    -0.248 NA
ATOM     50  C   UNL A   1      43.821  24.942  26.414  1.00  0.00     0.031 C 
ATOM     51  C   UNL A   1      47.060  30.068  26.703  1.00  0.00     0.029 A 
ATOM     52  C   UNL A   1      46.055  29.128  26.865  1.00  0.00     0.049 A 
ATOM     53  H   UNL A   1      44.225  29.299  27.901  1.00  0.00     0.167 HD
ATOM     54  C   UNL A   1      44.984  26.910  26.585  1.00  0.00     0.074 A 
ATOM     55  C   UNL A   1      44.942  25.559  26.065  1.00  0.00     0.031 C 
ATOM     56  C   UNL A   1      45.995  27.782  26.358  1.00  0.00     0.037 A 
BRANCH  43  57
ATOM     57  C   UNL A   1      45.177  33.312  28.971  1.00  0.00     0.057 A 
ATOM     58  C   UNL A   1      46.007  33.604  30.060  1.00  0.00     0.134 A 
ATOM     59  C   UNL A   1      44.876  34.353  28.084  1.00  0.00     0.134 A 
ATOM     60  F   UNL A   1      46.319  32.652  30.951  1.00  0.00    -0.206 F 
ATOM     61  C   UNL A   1      46.509  34.891  30.266  1.00  0.00     0.040 A 
ATOM     62  C   UNL A   1      45.385  35.639  28.272  1.00  0.00     0.040 A 
ATOM     63  F   UNL A   1      44.086  34.136  27.022  1.00  0.00    -0.206 F 
ATOM     64  C   UNL A   1      46.202  35.910  29.368  1.00  0.00     0.006 A 
ENDBRANCH  43  57
BRANCH  44  65
ATOM     65  C   UNL A   1      41.242  24.263  27.601  1.00  0.00     0.057 A 
ATOM     66  C   UNL A   1      40.192  24.080  26.696  1.00  0.00     0.134 A 
ATOM     67  C   UNL A   1      41.719  23.136  28.280  1.00  0.00     0.134 A 
ATOM     68  F   UNL A   1      39.681  25.128  26.034  1.00  0.00    -0.206 F 
ATOM     69  C   UNL A   1      39.630  22.821  26.477  1.00  0.00     0.040 A 
ATOM     70  C   UNL A   1      41.180  21.869  28.058  1.00  0.00     0.040 A 
ATOM     71  F   UNL A   1      42.725  23.252  29.160  1.00  0.00    -0.206 F 
ATOM     72  C   UNL A   1      40.129  21.710  27.156  1.00  0.00     0.006 A 
ENDBRANCH  44  65
BRANCH  56  73
ATOM     73  C   UNL A   1      47.143  27.293  25.531  1.00  0.00     0.057 A 
ATOM     74  C   UNL A   1      47.212  27.540  24.156  1.00  0.00     0.134 A 
ATOM     75  C   UNL A   1      48.203  26.594  26.122  1.00  0.00     0.134 A 
ATOM     76  F   UNL A   1      46.220  28.193  23.532  1.00  0.00    -0.206 F 
ATOM     77  C   UNL A   1      48.291  27.096  23.391  1.00  0.00     0.040 A 
ATOM     78  C   UNL A   1      49.295  26.159  25.371  1.00  0.00     0.040 A 
ATOM     79  F   UNL A   1      48.194  26.329  27.437  1.00  0.00    -0.206 F 
ATOM     80  C   UNL A   1      49.339  26.407  24.000  1.00  0.00     0.006 A 
ENDBRANCH  56  73
ENDBRANCH  30  31
ENDBRANCH  23  25
ENDBRANCH  22  23
ENDBRANCH  21  22
ENDBRANCH   1  21
TORSDOF 14
ENDMDL
