MODEL 1
REMARK VINA RESULT:     -11.7      0.000      0.000
REMARK SMILES Cc1nc2scc(C)n2c1CNc1ccc(C(=O)OCCOC(=O)c2ccc(-c3c4nc(c(-c5c(F)cccc5F)c5ccc([nH]5)c(-c5c(F)cccc5F)c5nc(c(-c6c(F)cccc6F)c6ccc3[nH]6)C=C5)C=C4)cc2)cc1
REMARK SMILES IDX 20 1 19 2 17 3 18 4 16 5 13 6 14 7 80 8 15 9 79 10 12 11
REMARK SMILES IDX 11 13 10 14 1 15 2 16 3 17 4 18 9 19 5 20 7 21 6 22 8 23
REMARK SMILES IDX 21 24 22 25 23 26 24 27 25 28 26 29 78 30 27 31 77 32 28 33
REMARK SMILES IDX 29 34 30 35 71 36 31 37 76 38 70 39 72 40 32 41 75 42 69 43
REMARK SMILES IDX 68 44 33 46 59 47 42 48 58 49 43 50 46 51 57 52 73 53 44 54
REMARK SMILES IDX 45 55 56 57 74 58 47 59 34 60 35 61 40 62 36 63 37 64 39 65
REMARK SMILES IDX 41 66 38 67 60 68 61 69 66 70 62 71 63 72 65 73 67 74 64 75
REMARK SMILES IDX 48 76 49 77 54 78 50 79 51 80 53 81 55 82 52 83
REMARK H PARENT 12 12 72 45 46 56
REMARK Flexibility Score: inf
ROOT
ATOM      1  C   UNL A   1      42.203  19.720  26.660  1.00  0.00     0.275 C 
ENDROOT
BRANCH   1   2
ATOM      2  O   UNL A   1      41.247  20.589  26.038  1.00  0.00    -0.458 OA
BRANCH   2   3
ATOM      3  C   UNL A   1      40.492  21.323  26.892  1.00  0.00     0.338 C 
ATOM      4  O   UNL A   1      40.769  21.599  28.052  1.00  0.00    -0.246 OA
BRANCH   3   5
ATOM      5  C   UNL A   1      39.285  21.840  26.207  1.00  0.00     0.060 A 
ATOM      6  C   UNL A   1      36.869  22.832  25.183  1.00  0.00     0.034 A 
ATOM      7  C   UNL A   1      37.728  23.668  25.903  1.00  0.00     0.026 A 
ATOM      8  C   UNL A   1      37.298  21.534  24.877  1.00  0.00     0.026 A 
ATOM      9  C   UNL A   1      38.918  23.171  26.434  1.00  0.00     0.018 A 
ATOM     10  C   UNL A   1      38.502  21.036  25.377  1.00  0.00     0.018 A 
BRANCH   6  11
ATOM     11  N   UNL A   1      35.563  23.242  24.964  1.00  0.00    -0.379 N 
ATOM     12  H   UNL A   1      34.986  22.748  24.338  1.00  0.00     0.160 HD
BRANCH  11  13
ATOM     13  C   UNL A   1      35.052  24.405  25.665  1.00  0.00     0.169 C 
BRANCH  13  14
ATOM     14  C   UNL A   1      33.622  24.302  26.040  1.00  0.00     0.066 A 
ATOM     15  C   UNL A   1      33.618  22.319  27.708  1.00  0.00     0.069 C 
ATOM     16  C   UNL A   1      33.000  23.408  26.914  1.00  0.00     0.062 A 
ATOM     17  N   UNL A   1      31.651  23.656  27.019  1.00  0.00    -0.224 NA
ATOM     18  C   UNL A   1      31.471  24.682  26.239  1.00  0.00     0.194 A 
ATOM     19  N   UNL A   1      32.608  25.147  25.634  1.00  0.00    -0.290 N 
ATOM     20  S   UNL A   1      30.080  25.638  25.844  1.00  0.00    -0.105 S 
ATOM     21  C   UNL A   1      32.411  26.284  24.852  1.00  0.00     0.032 A 
ATOM     22  C   UNL A   1      31.118  26.670  24.868  1.00  0.00     0.090 A 
ATOM     23  C   UNL A   1      33.466  27.027  24.116  1.00  0.00     0.066 C 
ENDBRANCH  13  14
ENDBRANCH  11  13
ENDBRANCH   6  11
ENDBRANCH   3   5
ENDBRANCH   2   3
ENDBRANCH   1   2
BRANCH   1  24
ATOM     24  C   UNL A   1      43.258  19.267  25.660  1.00  0.00     0.275 C 
BRANCH  24  25
ATOM     25  O   UNL A   1      43.509  20.246  24.650  1.00  0.00    -0.458 OA
BRANCH  25  26
ATOM     26  C   UNL A   1      44.741  20.799  24.694  1.00  0.00     0.338 C 
ATOM     27  O   UNL A   1      45.815  20.237  24.554  1.00  0.00    -0.246 OA
BRANCH  26  28
ATOM     28  C   UNL A   1      44.636  22.173  25.195  1.00  0.00     0.060 A 
ATOM     29  C   UNL A   1      45.490  22.559  26.232  1.00  0.00     0.016 A 
ATOM     30  C   UNL A   1      43.545  22.965  24.809  1.00  0.00     0.016 A 
ATOM     31  C   UNL A   1      45.188  23.698  26.953  1.00  0.00     0.010 A 
ATOM     32  C   UNL A   1      43.237  24.094  25.535  1.00  0.00     0.010 A 
ATOM     33  C   UNL A   1      44.035  24.427  26.627  1.00  0.00    -0.014 A 
BRANCH  33  34
ATOM     34  C   UNL A   1      43.799  25.677  27.330  1.00  0.00     0.031 A 
ATOM     35  C   UNL A   1      44.833  26.696  27.022  1.00  0.00     0.074 A 
ATOM     36  C   UNL A   1      42.677  25.929  28.033  1.00  0.00     0.049 A 
ATOM     37  N   UNL A   1      45.645  27.273  27.842  1.00  0.00    -0.248 NA
ATOM     38  C   UNL A   1      45.105  26.997  25.603  1.00  0.00     0.031 C 
ATOM     39  C   UNL A   1      41.483  25.081  28.112  1.00  0.00     0.029 A 
ATOM     40  N   UNL A   1      42.310  27.045  28.730  1.00  0.00    -0.354 N 
ATOM     41  C   UNL A   1      46.370  28.179  27.070  1.00  0.00     0.074 A 
ATOM     42  C   UNL A   1      46.140  27.831  25.697  1.00  0.00     0.031 C 
ATOM     43  C   UNL A   1      40.456  25.806  28.608  1.00  0.00     0.029 A 
ATOM     44  C   UNL A   1      40.947  27.117  28.999  1.00  0.00     0.049 A 
ATOM     45  H   UNL A   1      42.951  27.735  29.016  1.00  0.00     0.167 HD
ATOM     46  C   UNL A   1      46.825  29.333  27.627  1.00  0.00     0.037 A 
ATOM     47  C   UNL A   1      40.263  28.197  29.450  1.00  0.00     0.037 A 
ATOM     48  C   UNL A   1      46.850  29.228  29.063  1.00  0.00     0.049 A 
ATOM     49  C   UNL A   1      41.237  29.128  30.063  1.00  0.00     0.074 A 
ATOM     50  C   UNL A   1      47.602  28.572  30.010  1.00  0.00     0.029 A 
ATOM     51  N   UNL A   1      45.683  29.617  29.660  1.00  0.00    -0.354 N 
ATOM     52  N   UNL A   1      41.873  28.889  31.175  1.00  0.00    -0.248 NA
ATOM     53  C   UNL A   1      41.760  30.236  29.270  1.00  0.00     0.031 C 
ATOM     54  C   UNL A   1      46.760  28.431  31.154  1.00  0.00     0.029 A 
ATOM     55  C   UNL A   1      45.532  29.032  30.884  1.00  0.00     0.049 A 
ATOM     56  H   UNL A   1      45.034  30.240  29.258  1.00  0.00     0.167 HD
ATOM     57  C   UNL A   1      43.099  29.499  31.002  1.00  0.00     0.074 A 
ATOM     58  C   UNL A   1      42.901  30.460  29.925  1.00  0.00     0.031 C 
ATOM     59  C   UNL A   1      44.231  28.933  31.507  1.00  0.00     0.037 A 
BRANCH  46  60
ATOM     60  C   UNL A   1      46.698  30.692  26.959  1.00  0.00     0.057 A 
ATOM     61  C   UNL A   1      47.813  31.552  26.972  1.00  0.00     0.134 A 
ATOM     62  C   UNL A   1      45.474  31.316  26.630  1.00  0.00     0.134 A 
ATOM     63  F   UNL A   1      49.034  31.089  27.280  1.00  0.00    -0.206 F 
ATOM     64  C   UNL A   1      47.703  32.933  26.768  1.00  0.00     0.040 A 
ATOM     65  C   UNL A   1      45.364  32.687  26.376  1.00  0.00     0.040 A 
ATOM     66  F   UNL A   1      44.305  30.669  26.632  1.00  0.00    -0.206 F 
ATOM     67  C   UNL A   1      46.472  33.508  26.480  1.00  0.00     0.006 A 
ENDBRANCH  46  60
BRANCH  47  68
ATOM     68  C   UNL A   1      38.857  28.600  29.211  1.00  0.00     0.057 A 
ATOM     69  C   UNL A   1      37.932  28.652  30.268  1.00  0.00     0.134 A 
ATOM     70  C   UNL A   1      38.454  29.215  28.014  1.00  0.00     0.134 A 
ATOM     71  F   UNL A   1      38.229  28.120  31.462  1.00  0.00    -0.206 F 
ATOM     72  C   UNL A   1      36.701  29.314  30.154  1.00  0.00     0.040 A 
ATOM     73  C   UNL A   1      37.224  29.869  27.883  1.00  0.00     0.040 A 
ATOM     74  F   UNL A   1      39.277  29.282  26.958  1.00  0.00    -0.206 F 
ATOM     75  C   UNL A   1      36.351  29.939  28.961  1.00  0.00     0.006 A 
ENDBRANCH  47  68
BRANCH  59  76
ATOM     76  C   UNL A   1      44.082  28.014  32.677  1.00  0.00     0.057 A 
ATOM     77  C   UNL A   1      43.953  26.621  32.591  1.00  0.00     0.134 A 
ATOM     78  C   UNL A   1      44.160  28.572  33.959  1.00  0.00     0.134 A 
ATOM     79  F   UNL A   1      43.948  25.995  31.407  1.00  0.00    -0.206 F 
ATOM     80  C   UNL A   1      43.865  25.826  33.737  1.00  0.00     0.040 A 
ATOM     81  C   UNL A   1      44.113  27.785  35.109  1.00  0.00     0.040 A 
ATOM     82  F   UNL A   1      44.323  29.896  34.112  1.00  0.00    -0.206 F 
ATOM     83  C   UNL A   1      43.953  26.407  35.000  1.00  0.00     0.006 A 
ENDBRANCH  59  76
ENDBRANCH  33  34
ENDBRANCH  26  28
ENDBRANCH  25  26
ENDBRANCH  24  25
ENDBRANCH   1  24
TORSDOF 14
ENDMDL
MODEL 2
REMARK VINA RESULT:     -11.2      4.565      9.435
REMARK SMILES Cc1nc2scc(C)n2c1CNc1ccc(C(=O)OCCOC(=O)c2ccc(-c3c4nc(c(-c5c(F)cccc5F)c5ccc([nH]5)c(-c5c(F)cccc5F)c5nc(c(-c6c(F)cccc6F)c6ccc3[nH]6)C=C5)C=C4)cc2)cc1
REMARK SMILES IDX 20 1 19 2 17 3 18 4 16 5 13 6 14 7 80 8 15 9 79 10 12 11
REMARK SMILES IDX 11 13 10 14 1 15 2 16 3 17 4 18 9 19 5 20 7 21 6 22 8 23
REMARK SMILES IDX 21 24 22 25 23 26 24 27 25 28 26 29 78 30 27 31 77 32 28 33
REMARK SMILES IDX 29 34 30 35 71 36 31 37 76 38 70 39 72 40 32 41 75 42 69 43
REMARK SMILES IDX 68 44 33 46 59 47 42 48 58 49 43 50 46 51 57 52 73 53 44 54
REMARK SMILES IDX 45 55 56 57 74 58 47 59 34 60 35 61 40 62 36 63 37 64 39 65
REMARK SMILES IDX 41 66 38 67 60 68 61 69 66 70 62 71 63 72 65 73 67 74 64 75
REMARK SMILES IDX 48 76 49 77 54 78 50 79 51 80 53 81 55 82 52 83
REMARK H PARENT 12 12 72 45 46 56
REMARK Flexibility Score: inf
ROOT
ATOM      1  C   UNL A   1      33.782  34.915  28.722  1.00  0.00     0.275 C 
ENDROOT
BRANCH   1   2
ATOM      2  O   UNL A   1      33.654  33.487  28.695  1.00  0.00    -0.458 OA
BRANCH   2   3
ATOM      3  C   UNL A   1      34.581  32.838  27.950  1.00  0.00     0.338 C 
ATOM      4  O   UNL A   1      35.668  33.278  27.598  1.00  0.00    -0.246 OA
BRANCH   3   5
ATOM      5  C   UNL A   1      34.144  31.451  27.668  1.00  0.00     0.060 A 
ATOM      6  C   UNL A   1      33.498  28.833  26.891  1.00  0.00     0.034 A 
ATOM      7  C   UNL A   1      34.752  29.118  27.440  1.00  0.00     0.026 A 
ATOM      8  C   UNL A   1      32.534  29.850  26.858  1.00  0.00     0.026 A 
ATOM      9  C   UNL A   1      35.084  30.423  27.804  1.00  0.00     0.018 A 
ATOM     10  C   UNL A   1      32.847  31.153  27.249  1.00  0.00     0.018 A 
BRANCH   6  11
ATOM     11  N   UNL A   1      33.312  27.628  26.233  1.00  0.00    -0.379 N 
ATOM     12  H   UNL A   1      33.818  26.829  26.508  1.00  0.00     0.160 HD
BRANCH  11  13
ATOM     13  C   UNL A   1      32.367  27.553  25.135  1.00  0.00     0.169 C 
BRANCH  13  14
ATOM     14  C   UNL A   1      32.830  26.721  23.998  1.00  0.00     0.066 A 
ATOM     15  C   UNL A   1      33.926  28.471  22.431  1.00  0.00     0.069 C 
ATOM     16  C   UNL A   1      33.498  27.110  22.835  1.00  0.00     0.062 A 
ATOM     17  N   UNL A   1      33.785  26.032  22.029  1.00  0.00    -0.224 NA
ATOM     18  C   UNL A   1      33.315  25.021  22.700  1.00  0.00     0.194 A 
ATOM     19  N   UNL A   1      32.749  25.347  23.904  1.00  0.00    -0.290 N 
ATOM     20  S   UNL A   1      33.306  23.311  22.413  1.00  0.00    -0.105 S 
ATOM     21  C   UNL A   1      32.306  24.249  24.639  1.00  0.00     0.032 A 
ATOM     22  C   UNL A   1      32.537  23.094  23.980  1.00  0.00     0.090 A 
ATOM     23  C   UNL A   1      31.693  24.297  25.991  1.00  0.00     0.066 C 
ENDBRANCH  13  14
ENDBRANCH  11  13
ENDBRANCH   6  11
ENDBRANCH   3   5
ENDBRANCH   2   3
ENDBRANCH   1   2
BRANCH   1  24
ATOM     24  C   UNL A   1      33.245  35.485  30.027  1.00  0.00     0.275 C 
BRANCH  24  25
ATOM     25  O   UNL A   1      33.217  34.515  31.076  1.00  0.00    -0.458 OA
BRANCH  25  26
ATOM     26  C   UNL A   1      33.940  34.846  32.169  1.00  0.00     0.338 C 
ATOM     27  O   UNL A   1      33.810  35.829  32.878  1.00  0.00    -0.246 OA
BRANCH  26  28
ATOM     28  C   UNL A   1      35.108  33.965  32.259  1.00  0.00     0.060 A 
ATOM     29  C   UNL A   1      36.356  34.553  32.479  1.00  0.00     0.016 A 
ATOM     30  C   UNL A   1      34.987  32.619  31.881  1.00  0.00     0.016 A 
ATOM     31  C   UNL A   1      37.494  33.814  32.221  1.00  0.00     0.010 A 
ATOM     32  C   UNL A   1      36.121  31.886  31.612  1.00  0.00     0.010 A 
ATOM     33  C   UNL A   1      37.364  32.502  31.742  1.00  0.00    -0.014 A 
BRANCH  33  34
ATOM     34  C   UNL A   1      38.573  31.712  31.580  1.00  0.00     0.031 A 
ATOM     35  C   UNL A   1      39.258  31.468  32.874  1.00  0.00     0.074 A 
ATOM     36  C   UNL A   1      38.924  31.128  30.418  1.00  0.00     0.049 A 
ATOM     37  N   UNL A   1      40.450  31.822  33.218  1.00  0.00    -0.248 NA
ATOM     38  C   UNL A   1      38.464  30.894  33.978  1.00  0.00     0.031 C 
ATOM     39  C   UNL A   1      38.126  31.072  29.189  1.00  0.00     0.029 A 
ATOM     40  N   UNL A   1      40.010  30.356  30.116  1.00  0.00    -0.354 N 
ATOM     41  C   UNL A   1      40.633  31.309  34.501  1.00  0.00     0.074 A 
ATOM     42  C   UNL A   1      39.337  30.929  34.984  1.00  0.00     0.031 C 
ATOM     43  C   UNL A   1      38.636  30.125  28.371  1.00  0.00     0.029 A 
ATOM     44  C   UNL A   1      39.860  29.603  28.956  1.00  0.00     0.049 A 
ATOM     45  H   UNL A   1      40.824  30.335  30.669  1.00  0.00     0.167 HD
ATOM     46  C   UNL A   1      41.875  30.941  34.914  1.00  0.00     0.037 A 
ATOM     47  C   UNL A   1      40.651  28.584  28.540  1.00  0.00     0.037 A 
ATOM     48  C   UNL A   1      42.886  31.553  34.090  1.00  0.00     0.049 A 
ATOM     49  C   UNL A   1      41.950  28.701  29.241  1.00  0.00     0.074 A 
ATOM     50  C   UNL A   1      43.409  32.812  33.910  1.00  0.00     0.029 A 
ATOM     51  N   UNL A   1      43.228  30.803  32.998  1.00  0.00    -0.354 N 
ATOM     52  N   UNL A   1      42.814  29.649  29.018  1.00  0.00    -0.248 NA
ATOM     53  C   UNL A   1      42.181  27.917  30.450  1.00  0.00     0.031 C 
ATOM     54  C   UNL A   1      43.931  32.836  32.581  1.00  0.00     0.029 A 
ATOM     55  C   UNL A   1      43.740  31.583  32.002  1.00  0.00     0.049 A 
ATOM     56  H   UNL A   1      43.118  29.827  32.938  1.00  0.00     0.167 HD
ATOM     57  C   UNL A   1      43.408  29.862  30.246  1.00  0.00     0.074 A 
ATOM     58  C   UNL A   1      43.132  28.660  31.020  1.00  0.00     0.031 C 
ATOM     59  C   UNL A   1      43.768  31.119  30.632  1.00  0.00     0.037 A 
BRANCH  46  60
ATOM     60  C   UNL A   1      42.163  29.639  35.642  1.00  0.00     0.057 A 
ATOM     61  C   UNL A   1      43.129  29.645  36.668  1.00  0.00     0.134 A 
ATOM     62  C   UNL A   1      41.815  28.355  35.166  1.00  0.00     0.134 A 
ATOM     63  F   UNL A   1      43.557  30.799  37.202  1.00  0.00    -0.206 F 
ATOM     64  C   UNL A   1      43.761  28.478  37.116  1.00  0.00     0.040 A 
ATOM     65  C   UNL A   1      42.407  27.182  35.642  1.00  0.00     0.040 A 
ATOM     66  F   UNL A   1      40.966  28.163  34.152  1.00  0.00    -0.206 F 
ATOM     67  C   UNL A   1      43.409  27.241  36.594  1.00  0.00     0.006 A 
ENDBRANCH  46  60
BRANCH  47  68
ATOM     68  C   UNL A   1      40.312  27.381  27.743  1.00  0.00     0.057 A 
ATOM     69  C   UNL A   1      40.910  27.153  26.492  1.00  0.00     0.134 A 
ATOM     70  C   UNL A   1      39.621  26.292  28.299  1.00  0.00     0.134 A 
ATOM     71  F   UNL A   1      41.617  28.118  25.887  1.00  0.00    -0.206 F 
ATOM     72  C   UNL A   1      40.862  25.904  25.856  1.00  0.00     0.040 A 
ATOM     73  C   UNL A   1      39.556  25.044  27.670  1.00  0.00     0.040 A 
ATOM     74  F   UNL A   1      39.061  26.373  29.514  1.00  0.00    -0.206 F 
ATOM     75  C   UNL A   1      40.196  24.840  26.454  1.00  0.00     0.006 A 
ENDBRANCH  47  68
BRANCH  59  76
ATOM     76  C   UNL A   1      44.039  32.123  29.557  1.00  0.00     0.057 A 
ATOM     77  C   UNL A   1      43.133  33.103  29.129  1.00  0.00     0.134 A 
ATOM     78  C   UNL A   1      45.318  32.142  28.990  1.00  0.00     0.134 A 
ATOM     79  F   UNL A   1      41.913  33.208  29.673  1.00  0.00    -0.206 F 
ATOM     80  C   UNL A   1      43.480  34.036  28.148  1.00  0.00     0.040 A 
ATOM     81  C   UNL A   1      45.688  33.092  28.039  1.00  0.00     0.040 A 
ATOM     82  F   UNL A   1      46.246  31.254  29.383  1.00  0.00    -0.206 F 
ATOM     83  C   UNL A   1      44.763  34.037  27.607  1.00  0.00     0.006 A 
ENDBRANCH  59  76
ENDBRANCH  33  34
ENDBRANCH  26  28
ENDBRANCH  25  26
ENDBRANCH  24  25
ENDBRANCH   1  24
TORSDOF 14
ENDMDL
MODEL 3
REMARK VINA RESULT:     -11.0      2.162      5.992
REMARK SMILES Cc1nc2scc(C)n2c1CNc1ccc(C(=O)OCCOC(=O)c2ccc(-c3c4nc(c(-c5c(F)cccc5F)c5ccc([nH]5)c(-c5c(F)cccc5F)c5nc(c(-c6c(F)cccc6F)c6ccc3[nH]6)C=C5)C=C4)cc2)cc1
REMARK SMILES IDX 20 1 19 2 17 3 18 4 16 5 13 6 14 7 80 8 15 9 79 10 12 11
REMARK SMILES IDX 11 13 10 14 1 15 2 16 3 17 4 18 9 19 5 20 7 21 6 22 8 23
REMARK SMILES IDX 21 24 22 25 23 26 24 27 25 28 26 29 78 30 27 31 77 32 28 33
REMARK SMILES IDX 29 34 30 35 71 36 31 37 76 38 70 39 72 40 32 41 75 42 69 43
REMARK SMILES IDX 68 44 33 46 59 47 42 48 58 49 43 50 46 51 57 52 73 53 44 54
REMARK SMILES IDX 45 55 56 57 74 58 47 59 34 60 35 61 40 62 36 63 37 64 39 65
REMARK SMILES IDX 41 66 38 67 60 68 61 69 66 70 62 71 63 72 65 73 67 74 64 75
REMARK SMILES IDX 48 76 49 77 54 78 50 79 51 80 53 81 55 82 52 83
REMARK H PARENT 12 12 72 45 46 56
REMARK Flexibility Score: inf
ROOT
ATOM      1  C   UNL A   1      37.876  19.641  25.011  1.00  0.00     0.275 C 
ENDROOT
BRANCH   1   2
ATOM      2  O   UNL A   1      38.075  20.958  24.480  1.00  0.00    -0.458 OA
BRANCH   2   3
ATOM      3  C   UNL A   1      37.937  21.968  25.373  1.00  0.00     0.338 C 
ATOM      4  O   UNL A   1      38.666  22.196  26.330  1.00  0.00    -0.246 OA
BRANCH   3   5
ATOM      5  C   UNL A   1      36.805  22.846  24.997  1.00  0.00     0.060 A 
ATOM      6  C   UNL A   1      34.499  24.363  24.492  1.00  0.00     0.034 A 
ATOM      7  C   UNL A   1      35.237  24.566  25.662  1.00  0.00     0.026 A 
ATOM      8  C   UNL A   1      35.005  23.484  23.526  1.00  0.00     0.026 A 
ATOM      9  C   UNL A   1      36.370  23.796  25.927  1.00  0.00     0.018 A 
ATOM     10  C   UNL A   1      36.155  22.731  23.767  1.00  0.00     0.018 A 
BRANCH   6  11
ATOM     11  N   UNL A   1      33.217  24.882  24.410  1.00  0.00    -0.379 N 
ATOM     12  H   UNL A   1      32.684  24.761  23.591  1.00  0.00     0.160 HD
BRANCH  11  13
ATOM     13  C   UNL A   1      32.666  25.606  25.541  1.00  0.00     0.169 C 
BRANCH  13  14
ATOM     14  C   UNL A   1      32.320  27.016  25.242  1.00  0.00     0.066 A 
ATOM     15  C   UNL A   1      34.247  28.322  26.379  1.00  0.00     0.069 C 
ATOM     16  C   UNL A   1      32.993  28.185  25.600  1.00  0.00     0.062 A 
ATOM     17  N   UNL A   1      32.366  29.305  25.104  1.00  0.00    -0.224 NA
ATOM     18  C   UNL A   1      31.351  28.817  24.452  1.00  0.00     0.194 A 
ATOM     19  N   UNL A   1      31.266  27.450  24.463  1.00  0.00    -0.290 N 
ATOM     20  S   UNL A   1      30.094  29.544  23.504  1.00  0.00    -0.105 S 
ATOM     21  C   UNL A   1      30.211  26.940  23.709  1.00  0.00     0.032 A 
ATOM     22  C   UNL A   1      29.498  27.931  23.132  1.00  0.00     0.090 A 
ATOM     23  C   UNL A   1      29.902  25.502  23.507  1.00  0.00     0.066 C 
ENDBRANCH  13  14
ENDBRANCH  11  13
ENDBRANCH   6  11
ENDBRANCH   3   5
ENDBRANCH   2   3
ENDBRANCH   1   2
BRANCH   1  24
ATOM     24  C   UNL A   1      39.130  19.143  25.716  1.00  0.00     0.275 C 
BRANCH  24  25
ATOM     25  O   UNL A   1      40.328  19.571  25.066  1.00  0.00    -0.458 OA
BRANCH  25  26
ATOM     26  C   UNL A   1      41.468  19.266  25.727  1.00  0.00     0.338 C 
ATOM     27  O   UNL A   1      41.969  18.164  25.875  1.00  0.00    -0.246 OA
BRANCH  26  28
ATOM     28  C   UNL A   1      41.916  20.439  26.483  1.00  0.00     0.060 A 
ATOM     29  C   UNL A   1      41.458  20.586  27.795  1.00  0.00     0.016 A 
ATOM     30  C   UNL A   1      42.569  21.483  25.811  1.00  0.00     0.016 A 
ATOM     31  C   UNL A   1      41.566  21.823  28.402  1.00  0.00     0.010 A 
ATOM     32  C   UNL A   1      42.667  22.718  26.412  1.00  0.00     0.010 A 
ATOM     33  C   UNL A   1      42.125  22.890  27.684  1.00  0.00    -0.014 A 
BRANCH  33  34
ATOM     34  C   UNL A   1      42.325  24.150  28.381  1.00  0.00     0.031 A 
ATOM     35  C   UNL A   1      41.256  25.133  28.077  1.00  0.00     0.074 A 
ATOM     36  C   UNL A   1      43.271  24.330  29.323  1.00  0.00     0.049 A 
ATOM     37  N   UNL A   1      41.381  26.294  27.529  1.00  0.00    -0.248 NA
ATOM     38  C   UNL A   1      39.855  24.708  28.263  1.00  0.00     0.031 C 
ATOM     39  C   UNL A   1      44.151  23.303  29.892  1.00  0.00     0.029 A 
ATOM     40  N   UNL A   1      43.571  25.438  30.065  1.00  0.00    -0.354 N 
ATOM     41  C   UNL A   1      40.098  26.838  27.516  1.00  0.00     0.074 A 
ATOM     42  C   UNL A   1      39.189  25.762  27.791  1.00  0.00     0.031 C 
ATOM     43  C   UNL A   1      44.705  23.774  31.031  1.00  0.00     0.029 A 
ATOM     44  C   UNL A   1      44.325  25.167  31.202  1.00  0.00     0.049 A 
ATOM     45  H   UNL A   1      43.281  26.345  29.817  1.00  0.00     0.167 HD
ATOM     46  C   UNL A   1      39.930  28.184  27.607  1.00  0.00     0.037 A 
ATOM     47  C   UNL A   1      44.566  26.007  32.238  1.00  0.00     0.037 A 
ATOM     48  C   UNL A   1      41.148  28.871  27.266  1.00  0.00     0.049 A 
ATOM     49  C   UNL A   1      44.317  27.389  31.769  1.00  0.00     0.074 A 
ATOM     50  C   UNL A   1      41.875  29.123  26.125  1.00  0.00     0.029 A 
ATOM     51  N   UNL A   1      41.972  29.087  28.336  1.00  0.00    -0.354 N 
ATOM     52  N   UNL A   1      45.068  28.011  30.906  1.00  0.00    -0.248 NA
ATOM     53  C   UNL A   1      43.022  28.008  32.031  1.00  0.00     0.031 C 
ATOM     54  C   UNL A   1      43.221  29.329  26.552  1.00  0.00     0.029 A 
ATOM     55  C   UNL A   1      43.271  29.229  27.942  1.00  0.00     0.049 A 
ATOM     56  H   UNL A   1      41.668  29.133  29.271  1.00  0.00     0.167 HD
ATOM     57  C   UNL A   1      44.189  28.815  30.209  1.00  0.00     0.074 A 
ATOM     58  C   UNL A   1      43.011  28.922  31.059  1.00  0.00     0.031 C 
ATOM     59  C   UNL A   1      44.360  29.034  28.875  1.00  0.00     0.037 A 
BRANCH  46  60
ATOM     60  C   UNL A   1      38.909  28.840  28.522  1.00  0.00     0.057 A 
ATOM     61  C   UNL A   1      38.892  28.471  29.881  1.00  0.00     0.134 A 
ATOM     62  C   UNL A   1      37.754  29.522  28.081  1.00  0.00     0.134 A 
ATOM     63  F   UNL A   1      39.924  27.807  30.425  1.00  0.00    -0.206 F 
ATOM     64  C   UNL A   1      37.781  28.681  30.707  1.00  0.00     0.040 A 
ATOM     65  C   UNL A   1      36.659  29.779  28.912  1.00  0.00     0.040 A 
ATOM     66  F   UNL A   1      37.568  29.890  26.809  1.00  0.00    -0.206 F 
ATOM     67  C   UNL A   1      36.653  29.327  30.219  1.00  0.00     0.006 A 
ENDBRANCH  46  60
BRANCH  47  68
ATOM     68  C   UNL A   1      44.791  25.708  33.672  1.00  0.00     0.057 A 
ATOM     69  C   UNL A   1      43.708  25.510  34.546  1.00  0.00     0.134 A 
ATOM     70  C   UNL A   1      46.052  25.330  34.163  1.00  0.00     0.134 A 
ATOM     71  F   UNL A   1      42.459  25.811  34.164  1.00  0.00    -0.206 F 
ATOM     72  C   UNL A   1      43.865  24.928  35.812  1.00  0.00     0.040 A 
ATOM     73  C   UNL A   1      46.224  24.760  35.429  1.00  0.00     0.040 A 
ATOM     74  F   UNL A   1      47.149  25.418  33.398  1.00  0.00    -0.206 F 
ATOM     75  C   UNL A   1      45.125  24.537  36.250  1.00  0.00     0.006 A 
ENDBRANCH  47  68
BRANCH  59  76
ATOM     76  C   UNL A   1      45.741  28.889  28.320  1.00  0.00     0.057 A 
ATOM     77  C   UNL A   1      46.278  27.701  27.808  1.00  0.00     0.134 A 
ATOM     78  C   UNL A   1      46.530  30.042  28.229  1.00  0.00     0.134 A 
ATOM     79  F   UNL A   1      45.565  26.568  27.784  1.00  0.00    -0.206 F 
ATOM     80  C   UNL A   1      47.565  27.660  27.264  1.00  0.00     0.040 A 
ATOM     81  C   UNL A   1      47.800  30.021  27.653  1.00  0.00     0.040 A 
ATOM     82  F   UNL A   1      46.060  31.221  28.666  1.00  0.00    -0.206 F 
ATOM     83  C   UNL A   1      48.326  28.823  27.179  1.00  0.00     0.006 A 
ENDBRANCH  59  76
ENDBRANCH  33  34
ENDBRANCH  26  28
ENDBRANCH  25  26
ENDBRANCH  24  25
ENDBRANCH   1  24
TORSDOF 14
ENDMDL
