MODEL 1
REMARK VINA RESULT:     -10.2      0.000      0.000
REMARK SMILES C=CC[C@@H](Cc1ccc(C)cc1)C(=O)OCCOC(=O)c1ccc(-c2c3nc(c(-c4c(F)cccc4F)c4ccc([nH]4)c(-c4c(F)cccc4F)c4nc(c(-c5c(F)cccc5F)c5ccc2[nH]5)C=C4)C=C3)cc1
REMARK SMILES IDX 16 1 15 2 13 3 14 4 4 5 3 6 2 7 1 8 5 9 6 10 7 11 12 12 8 13
REMARK SMILES IDX 11 14 9 15 10 16 17 17 18 18 19 19 20 20 21 21 22 22 74 23
REMARK SMILES IDX 23 24 73 25 24 26 25 27 26 28 67 29 27 30 72 31 66 32 68 33
REMARK SMILES IDX 28 34 71 35 65 36 64 37 29 39 55 40 38 41 54 42 39 43 42 44
REMARK SMILES IDX 53 45 69 46 40 47 41 48 52 50 70 51 43 52 30 53 31 54 36 55
REMARK SMILES IDX 32 56 33 57 35 58 37 59 34 60 56 61 57 62 62 63 58 64 59 65
REMARK SMILES IDX 61 66 63 67 60 68 44 69 45 70 50 71 46 72 47 73 49 74 51 75
REMARK SMILES IDX 48 76
REMARK H PARENT 68 38 42 49
REMARK Flexibility Score: inf
ROOT
ATOM      1  C   UNL A   1      32.738  35.891  30.285  1.00  0.00     0.274 C 
ENDROOT
BRANCH   1   2
ATOM      2  O   UNL A   1      33.821  35.453  29.462  1.00  0.00    -0.462 OA
BRANCH   2   3
ATOM      3  C   UNL A   1      33.502  34.426  28.618  1.00  0.00     0.309 C 
ATOM      4  O   UNL A   1      32.412  34.293  28.101  1.00  0.00    -0.252 OA
BRANCH   3   5
ATOM      5  C   UNL A   1      34.713  33.526  28.366  1.00  0.00     0.107 C 
BRANCH   5   6
ATOM      6  C   UNL A   1      36.006  34.217  28.841  1.00  0.00     0.042 C 
BRANCH   6   7
ATOM      7  C   UNL A   1      37.280  33.446  28.666  1.00  0.00    -0.034 C 
ATOM      8  C   UNL A   1      38.493  33.955  28.912  1.00  0.00     0.004 C 
ENDBRANCH   6   7
ENDBRANCH   5   6
BRANCH   5   9
ATOM      9  C   UNL A   1      34.437  32.086  28.847  1.00  0.00     0.051 C 
BRANCH   9  10
ATOM     10  C   UNL A   1      34.088  30.999  27.855  1.00  0.00    -0.047 A 
ATOM     11  C   UNL A   1      35.024  29.974  27.642  1.00  0.00     0.004 A 
ATOM     12  C   UNL A   1      32.901  30.969  27.118  1.00  0.00     0.004 A 
ATOM     13  C   UNL A   1      34.783  28.964  26.707  1.00  0.00     0.004 A 
ATOM     14  C   UNL A   1      32.659  29.963  26.183  1.00  0.00     0.004 A 
ATOM     15  C   UNL A   1      33.597  28.953  25.968  1.00  0.00    -0.051 A 
ATOM     16  C   UNL A   1      33.352  27.896  24.936  1.00  0.00     0.044 C 
ENDBRANCH   9  10
ENDBRANCH   5   9
ENDBRANCH   3   5
ENDBRANCH   2   3
ENDBRANCH   1   2
BRANCH   1  17
ATOM     17  C   UNL A   1      33.240  36.645  31.523  1.00  0.00     0.275 C 
BRANCH  17  18
ATOM     18  O   UNL A   1      33.683  35.871  32.676  1.00  0.00    -0.458 OA
BRANCH  18  19
ATOM     19  C   UNL A   1      33.793  34.531  32.853  1.00  0.00     0.338 C 
ATOM     20  O   UNL A   1      32.855  33.849  33.246  1.00  0.00    -0.246 OA
BRANCH  19  21
ATOM     21  C   UNL A   1      35.062  33.881  32.492  1.00  0.00     0.060 A 
ATOM     22  C   UNL A   1      36.238  34.646  32.452  1.00  0.00     0.016 A 
ATOM     23  C   UNL A   1      35.099  32.512  32.260  1.00  0.00     0.016 A 
ATOM     24  C   UNL A   1      37.476  34.014  32.318  1.00  0.00     0.010 A 
ATOM     25  C   UNL A   1      36.321  31.876  32.228  1.00  0.00     0.010 A 
ATOM     26  C   UNL A   1      37.515  32.619  32.247  1.00  0.00    -0.014 A 
BRANCH  26  27
ATOM     27  C   UNL A   1      38.707  31.871  31.858  1.00  0.00     0.031 A 
ATOM     28  C   UNL A   1      38.723  30.648  31.033  1.00  0.00     0.074 A 
ATOM     29  C   UNL A   1      39.847  32.410  32.338  1.00  0.00     0.049 A 
ATOM     30  N   UNL A   1      39.623  29.725  31.152  1.00  0.00    -0.248 NA
ATOM     31  C   UNL A   1      37.736  30.348  30.001  1.00  0.00     0.031 C 
ATOM     32  C   UNL A   1      41.229  32.076  32.053  1.00  0.00     0.029 A 
ATOM     33  N   UNL A   1      39.916  33.312  33.410  1.00  0.00    -0.354 N 
ATOM     34  C   UNL A   1      39.498  28.881  30.070  1.00  0.00     0.074 A 
ATOM     35  C   UNL A   1      38.254  29.248  29.437  1.00  0.00     0.031 C 
ATOM     36  C   UNL A   1      41.984  32.511  33.080  1.00  0.00     0.029 A 
ATOM     37  C   UNL A   1      41.073  32.990  34.117  1.00  0.00     0.049 A 
ATOM     38  H   UNL A   1      39.275  34.030  33.620  1.00  0.00     0.167 HD
ATOM     39  C   UNL A   1      40.534  28.073  29.704  1.00  0.00     0.037 A 
ATOM     40  C   UNL A   1      40.967  32.492  35.382  1.00  0.00     0.037 A 
ATOM     41  C   UNL A   1      41.679  28.252  30.582  1.00  0.00     0.049 A 
ATOM     42  C   UNL A   1      41.605  31.133  35.495  1.00  0.00     0.074 A 
ATOM     43  C   UNL A   1      42.776  29.092  30.487  1.00  0.00     0.029 A 
ATOM     44  N   UNL A   1      41.624  27.816  31.901  1.00  0.00    -0.354 N 
ATOM     45  N   UNL A   1      41.659  30.273  34.516  1.00  0.00    -0.248 NA
ATOM     46  C   UNL A   1      42.261  30.662  36.708  1.00  0.00     0.031 C 
ATOM     47  C   UNL A   1      43.325  29.242  31.781  1.00  0.00     0.029 A 
ATOM     48  C   UNL A   1      42.591  28.455  32.651  1.00  0.00     0.049 A 
ATOM     49  H   UNL A   1      40.989  27.149  32.249  1.00  0.00     0.167 HD
ATOM     50  C   UNL A   1      42.408  29.199  34.914  1.00  0.00     0.074 A 
ATOM     51  C   UNL A   1      42.737  29.473  36.302  1.00  0.00     0.031 C 
ATOM     52  C   UNL A   1      42.753  28.187  34.068  1.00  0.00     0.037 A 
BRANCH  39  53
ATOM     53  C   UNL A   1      40.590  27.402  28.358  1.00  0.00     0.057 A 
ATOM     54  C   UNL A   1      39.999  26.144  28.135  1.00  0.00     0.134 A 
ATOM     55  C   UNL A   1      41.258  27.949  27.251  1.00  0.00     0.134 A 
ATOM     56  F   UNL A   1      39.290  25.520  29.084  1.00  0.00    -0.206 F 
ATOM     57  C   UNL A   1      40.130  25.444  26.929  1.00  0.00     0.040 A 
ATOM     58  C   UNL A   1      41.421  27.247  26.046  1.00  0.00     0.040 A 
ATOM     59  F   UNL A   1      41.776  29.186  27.305  1.00  0.00    -0.206 F 
ATOM     60  C   UNL A   1      40.866  25.984  25.886  1.00  0.00     0.006 A 
ENDBRANCH  39  53
BRANCH  40  61
ATOM     61  C   UNL A   1      39.762  32.936  36.152  1.00  0.00     0.057 A 
ATOM     62  C   UNL A   1      38.595  32.142  36.139  1.00  0.00     0.134 A 
ATOM     63  C   UNL A   1      39.788  33.980  37.081  1.00  0.00     0.134 A 
ATOM     64  F   UNL A   1      38.485  31.119  35.275  1.00  0.00    -0.206 F 
ATOM     65  C   UNL A   1      37.554  32.321  37.054  1.00  0.00     0.040 A 
ATOM     66  C   UNL A   1      38.740  34.182  37.994  1.00  0.00     0.040 A 
ATOM     67  F   UNL A   1      40.850  34.793  37.170  1.00  0.00    -0.206 F 
ATOM     68  C   UNL A   1      37.632  33.336  38.000  1.00  0.00     0.006 A 
ENDBRANCH  40  61
BRANCH  52  69
ATOM     69  C   UNL A   1      43.410  26.905  34.483  1.00  0.00     0.057 A 
ATOM     70  C   UNL A   1      42.696  25.787  34.933  1.00  0.00     0.134 A 
ATOM     71  C   UNL A   1      44.793  26.707  34.287  1.00  0.00     0.134 A 
ATOM     72  F   UNL A   1      41.361  25.819  35.066  1.00  0.00    -0.206 F 
ATOM     73  C   UNL A   1      43.321  24.569  35.217  1.00  0.00     0.040 A 
ATOM     74  C   UNL A   1      45.420  25.483  34.519  1.00  0.00     0.040 A 
ATOM     75  F   UNL A   1      45.591  27.689  33.840  1.00  0.00    -0.206 F 
ATOM     76  C   UNL A   1      44.685  24.409  34.998  1.00  0.00     0.006 A 
ENDBRANCH  52  69
ENDBRANCH  26  27
ENDBRANCH  19  21
ENDBRANCH  18  19
ENDBRANCH  17  18
ENDBRANCH   1  17
TORSDOF 15
ENDMDL
MODEL 2
REMARK VINA RESULT:     -10.0      4.467      9.465
REMARK SMILES C=CC[C@@H](Cc1ccc(C)cc1)C(=O)OCCOC(=O)c1ccc(-c2c3nc(c(-c4c(F)cccc4F)c4ccc([nH]4)c(-c4c(F)cccc4F)c4nc(c(-c5c(F)cccc5F)c5ccc2[nH]5)C=C4)C=C3)cc1
REMARK SMILES IDX 16 1 15 2 13 3 14 4 4 5 3 6 2 7 1 8 5 9 6 10 7 11 12 12 8 13
REMARK SMILES IDX 11 14 9 15 10 16 17 17 18 18 19 19 20 20 21 21 22 22 74 23
REMARK SMILES IDX 23 24 73 25 24 26 25 27 26 28 67 29 27 30 72 31 66 32 68 33
REMARK SMILES IDX 28 34 71 35 65 36 64 37 29 39 55 40 38 41 54 42 39 43 42 44
REMARK SMILES IDX 53 45 69 46 40 47 41 48 52 50 70 51 43 52 30 53 31 54 36 55
REMARK SMILES IDX 32 56 33 57 35 58 37 59 34 60 56 61 57 62 62 63 58 64 59 65
REMARK SMILES IDX 61 66 63 67 60 68 44 69 45 70 50 71 46 72 47 73 49 74 51 75
REMARK SMILES IDX 48 76
REMARK H PARENT 68 38 42 49
REMARK Flexibility Score: inf
ROOT
ATOM      1  C   UNL A   1      36.696  22.592  25.417  1.00  0.00     0.274 C 
ENDROOT
BRANCH   1   2
ATOM      2  O   UNL A   1      35.595  23.183  24.723  1.00  0.00    -0.462 OA
BRANCH   2   3
ATOM      3  C   UNL A   1      34.605  23.651  25.540  1.00  0.00     0.309 C 
ATOM      4  O   UNL A   1      34.407  23.237  26.664  1.00  0.00    -0.252 OA
BRANCH   3   5
ATOM      5  C   UNL A   1      33.841  24.798  24.876  1.00  0.00     0.107 C 
BRANCH   5   6
ATOM      6  C   UNL A   1      33.359  24.384  23.473  1.00  0.00     0.042 C 
BRANCH   6   7
ATOM      7  C   UNL A   1      32.883  25.486  22.576  1.00  0.00    -0.034 C 
ATOM      8  C   UNL A   1      33.510  26.662  22.449  1.00  0.00     0.004 C 
ENDBRANCH   6   7
ENDBRANCH   5   6
BRANCH   5   9
ATOM      9  C   UNL A   1      32.812  25.410  25.850  1.00  0.00     0.051 C 
BRANCH   9  10
ATOM     10  C   UNL A   1      32.923  26.858  26.273  1.00  0.00    -0.047 A 
ATOM     11  C   UNL A   1      31.835  27.433  26.952  1.00  0.00     0.004 A 
ATOM     12  C   UNL A   1      34.031  27.666  26.007  1.00  0.00     0.004 A 
ATOM     13  C   UNL A   1      31.854  28.777  27.331  1.00  0.00     0.004 A 
ATOM     14  C   UNL A   1      34.052  29.009  26.383  1.00  0.00     0.004 A 
ATOM     15  C   UNL A   1      32.965  29.576  27.047  1.00  0.00    -0.051 A 
ATOM     16  C   UNL A   1      32.974  31.027  27.416  1.00  0.00     0.044 C 
ENDBRANCH   9  10
ENDBRANCH   5   9
ENDBRANCH   3   5
ENDBRANCH   2   3
ENDBRANCH   1   2
BRANCH   1  17
ATOM     17  C   UNL A   1      37.735  23.643  25.825  1.00  0.00     0.275 C 
BRANCH  17  18
ATOM     18  O   UNL A   1      38.900  23.210  26.588  1.00  0.00    -0.458 OA
BRANCH  18  19
ATOM     19  C   UNL A   1      40.069  23.843  26.853  1.00  0.00     0.338 C 
ATOM     20  O   UNL A   1      41.152  23.364  26.542  1.00  0.00    -0.246 OA
BRANCH  19  21
ATOM     21  C   UNL A   1      40.016  25.177  27.471  1.00  0.00     0.060 A 
ATOM     22  C   UNL A   1      40.543  26.277  26.777  1.00  0.00     0.016 A 
ATOM     23  C   UNL A   1      39.390  25.348  28.699  1.00  0.00     0.016 A 
ATOM     24  C   UNL A   1      40.317  27.571  27.249  1.00  0.00     0.010 A 
ATOM     25  C   UNL A   1      39.079  26.625  29.115  1.00  0.00     0.010 A 
ATOM     26  C   UNL A   1      39.546  27.742  28.401  1.00  0.00    -0.014 A 
BRANCH  26  27
ATOM     27  C   UNL A   1      39.454  29.009  29.121  1.00  0.00     0.031 A 
ATOM     28  C   UNL A   1      38.429  30.048  28.907  1.00  0.00     0.074 A 
ATOM     29  C   UNL A   1      40.430  29.165  30.041  1.00  0.00     0.049 A 
ATOM     30  N   UNL A   1      38.646  31.310  29.099  1.00  0.00    -0.248 NA
ATOM     31  C   UNL A   1      37.068  29.769  28.460  1.00  0.00     0.031 C 
ATOM     32  C   UNL A   1      40.600  30.184  31.058  1.00  0.00     0.029 A 
ATOM     33  N   UNL A   1      41.633  28.444  30.059  1.00  0.00    -0.354 N 
ATOM     34  C   UNL A   1      37.427  31.951  29.070  1.00  0.00     0.074 A 
ATOM     35  C   UNL A   1      36.489  30.973  28.572  1.00  0.00     0.031 C 
ATOM     36  C   UNL A   1      41.903  30.224  31.395  1.00  0.00     0.029 A 
ATOM     37  C   UNL A   1      42.616  29.338  30.479  1.00  0.00     0.049 A 
ATOM     38  H   UNL A   1      41.758  27.496  29.823  1.00  0.00     0.167 HD
ATOM     39  C   UNL A   1      37.285  33.186  29.632  1.00  0.00     0.037 A 
ATOM     40  C   UNL A   1      43.600  29.709  29.610  1.00  0.00     0.037 A 
ATOM     41  C   UNL A   1      38.536  33.651  30.210  1.00  0.00     0.049 A 
ATOM     42  C   UNL A   1      43.614  31.199  29.396  1.00  0.00     0.074 A 
ATOM     43  C   UNL A   1      39.050  33.525  31.490  1.00  0.00     0.029 A 
ATOM     44  N   UNL A   1      39.602  33.996  29.385  1.00  0.00    -0.354 N 
ATOM     45  N   UNL A   1      42.549  31.951  29.451  1.00  0.00    -0.248 NA
ATOM     46  C   UNL A   1      44.834  31.954  29.143  1.00  0.00     0.031 C 
ATOM     47  C   UNL A   1      40.451  33.698  31.417  1.00  0.00     0.029 A 
ATOM     48  C   UNL A   1      40.781  33.976  30.102  1.00  0.00     0.049 A 
ATOM     49  H   UNL A   1      39.525  34.222  28.430  1.00  0.00     0.167 HD
ATOM     50  C   UNL A   1      42.927  33.261  29.335  1.00  0.00     0.074 A 
ATOM     51  C   UNL A   1      44.362  33.212  29.113  1.00  0.00     0.031 C 
ATOM     52  C   UNL A   1      42.052  34.296  29.481  1.00  0.00     0.037 A 
BRANCH  39  53
ATOM     53  C   UNL A   1      35.935  33.776  29.939  1.00  0.00     0.057 A 
ATOM     54  C   UNL A   1      35.105  34.286  28.923  1.00  0.00     0.134 A 
ATOM     55  C   UNL A   1      35.426  33.899  31.242  1.00  0.00     0.134 A 
ATOM     56  F   UNL A   1      35.437  34.197  27.629  1.00  0.00    -0.206 F 
ATOM     57  C   UNL A   1      33.896  34.941  29.186  1.00  0.00     0.040 A 
ATOM     58  C   UNL A   1      34.230  34.578  31.522  1.00  0.00     0.040 A 
ATOM     59  F   UNL A   1      36.075  33.363  32.286  1.00  0.00    -0.206 F 
ATOM     60  C   UNL A   1      33.465  35.114  30.493  1.00  0.00     0.006 A 
ENDBRANCH  39  53
BRANCH  40  61
ATOM     61  C   UNL A   1      43.958  28.694  28.569  1.00  0.00     0.057 A 
ATOM     62  C   UNL A   1      43.562  28.900  27.230  1.00  0.00     0.134 A 
ATOM     63  C   UNL A   1      44.866  27.656  28.792  1.00  0.00     0.134 A 
ATOM     64  F   UNL A   1      42.689  29.875  26.926  1.00  0.00    -0.206 F 
ATOM     65  C   UNL A   1      44.105  28.175  26.165  1.00  0.00     0.040 A 
ATOM     66  C   UNL A   1      45.405  26.906  27.733  1.00  0.00     0.040 A 
ATOM     67  F   UNL A   1      45.300  27.378  30.029  1.00  0.00    -0.206 F 
ATOM     68  C   UNL A   1      45.046  27.182  26.414  1.00  0.00     0.006 A 
ENDBRANCH  40  61
BRANCH  52  69
ATOM     69  C   UNL A   1      42.364  35.733  29.187  1.00  0.00     0.057 A 
ATOM     70  C   UNL A   1      43.217  36.510  29.981  1.00  0.00     0.134 A 
ATOM     71  C   UNL A   1      41.930  36.335  27.987  1.00  0.00     0.134 A 
ATOM     72  F   UNL A   1      43.774  36.017  31.097  1.00  0.00    -0.206 F 
ATOM     73  C   UNL A   1      43.575  37.816  29.631  1.00  0.00     0.040 A 
ATOM     74  C   UNL A   1      42.320  37.617  27.603  1.00  0.00     0.040 A 
ATOM     75  F   UNL A   1      41.126  35.692  27.125  1.00  0.00    -0.206 F 
ATOM     76  C   UNL A   1      43.137  38.370  28.433  1.00  0.00     0.006 A 
ENDBRANCH  52  69
ENDBRANCH  26  27
ENDBRANCH  19  21
ENDBRANCH  18  19
ENDBRANCH  17  18
ENDBRANCH   1  17
TORSDOF 15
ENDMDL
MODEL 3
REMARK VINA RESULT:      -9.9      3.637      6.256
REMARK SMILES C=CC[C@@H](Cc1ccc(C)cc1)C(=O)OCCOC(=O)c1ccc(-c2c3nc(c(-c4c(F)cccc4F)c4ccc([nH]4)c(-c4c(F)cccc4F)c4nc(c(-c5c(F)cccc5F)c5ccc2[nH]5)C=C4)C=C3)cc1
REMARK SMILES IDX 16 1 15 2 13 3 14 4 4 5 3 6 2 7 1 8 5 9 6 10 7 11 12 12 8 13
REMARK SMILES IDX 11 14 9 15 10 16 17 17 18 18 19 19 20 20 21 21 22 22 74 23
REMARK SMILES IDX 23 24 73 25 24 26 25 27 26 28 67 29 27 30 72 31 66 32 68 33
REMARK SMILES IDX 28 34 71 35 65 36 64 37 29 39 55 40 38 41 54 42 39 43 42 44
REMARK SMILES IDX 53 45 69 46 40 47 41 48 52 50 70 51 43 52 30 53 31 54 36 55
REMARK SMILES IDX 32 56 33 57 35 58 37 59 34 60 56 61 57 62 62 63 58 64 59 65
REMARK SMILES IDX 61 66 63 67 60 68 44 69 45 70 50 71 46 72 47 73 49 74 51 75
REMARK SMILES IDX 48 76
REMARK H PARENT 68 38 42 49
REMARK Flexibility Score: inf
ROOT
ATOM      1  C   UNL A   1      33.123  29.078  26.734  1.00  0.00     0.274 C 
ENDROOT
BRANCH   1   2
ATOM      2  O   UNL A   1      32.710  27.711  26.672  1.00  0.00    -0.462 OA
BRANCH   2   3
ATOM      3  C   UNL A   1      32.162  27.346  25.473  1.00  0.00     0.309 C 
ATOM      4  O   UNL A   1      31.066  27.705  25.096  1.00  0.00    -0.252 OA
BRANCH   3   5
ATOM      5  C   UNL A   1      33.140  26.495  24.661  1.00  0.00     0.107 C 
BRANCH   5   6
ATOM      6  C   UNL A   1      33.650  27.280  23.437  1.00  0.00     0.042 C 
BRANCH   6   7
ATOM      7  C   UNL A   1      33.438  26.643  22.097  1.00  0.00    -0.034 C 
ATOM      8  C   UNL A   1      32.591  25.629  21.884  1.00  0.00     0.004 C 
ENDBRANCH   6   7
ENDBRANCH   5   6
BRANCH   5   9
ATOM      9  C   UNL A   1      34.180  25.822  25.581  1.00  0.00     0.051 C 
BRANCH   9  10
ATOM     10  C   UNL A   1      34.457  24.340  25.471  1.00  0.00    -0.047 A 
ATOM     11  C   UNL A   1      34.946  23.849  24.248  1.00  0.00     0.004 A 
ATOM     12  C   UNL A   1      34.233  23.426  26.503  1.00  0.00     0.004 A 
ATOM     13  C   UNL A   1      35.181  22.484  24.064  1.00  0.00     0.004 A 
ATOM     14  C   UNL A   1      34.465  22.062  26.322  1.00  0.00     0.004 A 
ATOM     15  C   UNL A   1      34.940  21.580  25.102  1.00  0.00    -0.051 A 
ATOM     16  C   UNL A   1      35.152  20.112  24.898  1.00  0.00     0.044 C 
ENDBRANCH   9  10
ENDBRANCH   5   9
ENDBRANCH   3   5
ENDBRANCH   2   3
ENDBRANCH   1   2
BRANCH   1  17
ATOM     17  C   UNL A   1      34.591  29.205  27.157  1.00  0.00     0.275 C 
BRANCH  17  18
ATOM     18  O   UNL A   1      34.962  30.280  28.069  1.00  0.00    -0.458 OA
BRANCH  18  19
ATOM     19  C   UNL A   1      36.159  30.875  28.295  1.00  0.00     0.338 C 
ATOM     20  O   UNL A   1      36.263  32.085  28.453  1.00  0.00    -0.246 OA
BRANCH  19  21
ATOM     21  C   UNL A   1      37.350  30.021  28.422  1.00  0.00     0.060 A 
ATOM     22  C   UNL A   1      37.498  29.212  29.560  1.00  0.00     0.016 A 
ATOM     23  C   UNL A   1      38.281  29.971  27.392  1.00  0.00     0.016 A 
ATOM     24  C   UNL A   1      38.506  28.247  29.602  1.00  0.00     0.010 A 
ATOM     25  C   UNL A   1      39.212  28.956  27.386  1.00  0.00     0.010 A 
ATOM     26  C   UNL A   1      39.338  28.095  28.491  1.00  0.00    -0.014 A 
BRANCH  26  27
ATOM     27  C   UNL A   1      40.567  27.307  28.514  1.00  0.00     0.031 A 
ATOM     28  C   UNL A   1      40.667  25.861  28.238  1.00  0.00     0.074 A 
ATOM     29  C   UNL A   1      41.657  28.038  28.828  1.00  0.00     0.049 A 
ATOM     30  N   UNL A   1      41.563  25.096  28.774  1.00  0.00    -0.248 NA
ATOM     31  C   UNL A   1      39.775  25.141  27.335  1.00  0.00     0.031 C 
ATOM     32  C   UNL A   1      43.062  27.680  28.800  1.00  0.00     0.029 A 
ATOM     33  N   UNL A   1      41.625  29.289  29.463  1.00  0.00    -0.354 N 
ATOM     34  C   UNL A   1      41.540  23.893  28.102  1.00  0.00     0.074 A 
ATOM     35  C   UNL A   1      40.350  23.931  27.286  1.00  0.00     0.031 C 
ATOM     36  C   UNL A   1      43.721  28.513  29.628  1.00  0.00     0.029 A 
ATOM     37  C   UNL A   1      42.720  29.317  30.324  1.00  0.00     0.049 A 
ATOM     38  H   UNL A   1      40.961  30.003  29.328  1.00  0.00     0.167 HD
ATOM     39  C   UNL A   1      42.612  23.052  28.160  1.00  0.00     0.037 A 
ATOM     40  C   UNL A   1      42.513  29.346  31.672  1.00  0.00     0.037 A 
ATOM     41  C   UNL A   1      43.677  23.607  28.980  1.00  0.00     0.049 A 
ATOM     42  C   UNL A   1      43.153  28.168  32.354  1.00  0.00     0.074 A 
ATOM     43  C   UNL A   1      44.768  24.392  28.646  1.00  0.00     0.029 A 
ATOM     44  N   UNL A   1      43.514  23.718  30.357  1.00  0.00    -0.354 N 
ATOM     45  N   UNL A   1      43.300  26.997  31.797  1.00  0.00    -0.248 NA
ATOM     46  C   UNL A   1      43.709  28.234  33.700  1.00  0.00     0.031 C 
ATOM     47  C   UNL A   1      45.203  25.056  29.815  1.00  0.00     0.029 A 
ATOM     48  C   UNL A   1      44.407  24.640  30.866  1.00  0.00     0.049 A 
ATOM     49  H   UNL A   1      42.859  23.212  30.890  1.00  0.00     0.167 HD
ATOM     50  C   UNL A   1      44.024  26.196  32.637  1.00  0.00     0.074 A 
ATOM     51  C   UNL A   1      44.231  27.002  33.828  1.00  0.00     0.031 C 
ATOM     52  C   UNL A   1      44.450  24.950  32.283  1.00  0.00     0.037 A 
BRANCH  39  53
ATOM     53  C   UNL A   1      42.790  21.914  27.192  1.00  0.00     0.057 A 
ATOM     54  C   UNL A   1      42.032  20.731  27.296  1.00  0.00     0.134 A 
ATOM     55  C   UNL A   1      43.735  21.925  26.154  1.00  0.00     0.134 A 
ATOM     56  F   UNL A   1      41.062  20.593  28.209  1.00  0.00    -0.206 F 
ATOM     57  C   UNL A   1      42.251  19.613  26.483  1.00  0.00     0.040 A 
ATOM     58  C   UNL A   1      43.985  20.801  25.350  1.00  0.00     0.040 A 
ATOM     59  F   UNL A   1      44.449  23.029  25.887  1.00  0.00    -0.206 F 
ATOM     60  C   UNL A   1      43.250  19.634  25.520  1.00  0.00     0.006 A 
ENDBRANCH  39  53
BRANCH  40  61
ATOM     61  C   UNL A   1      41.242  30.002  32.115  1.00  0.00     0.057 A 
ATOM     62  C   UNL A   1      40.169  29.206  32.569  1.00  0.00     0.134 A 
ATOM     63  C   UNL A   1      41.125  31.379  32.330  1.00  0.00     0.134 A 
ATOM     64  F   UNL A   1      40.198  27.874  32.401  1.00  0.00    -0.206 F 
ATOM     65  C   UNL A   1      39.084  29.738  33.273  1.00  0.00     0.040 A 
ATOM     66  C   UNL A   1      40.031  31.928  33.019  1.00  0.00     0.040 A 
ATOM     67  F   UNL A   1      42.089  32.220  31.931  1.00  0.00    -0.206 F 
ATOM     68  C   UNL A   1      39.021  31.105  33.516  1.00  0.00     0.006 A 
ENDBRANCH  40  61
BRANCH  52  69
ATOM     69  C   UNL A   1      45.083  23.961  33.214  1.00  0.00     0.057 A 
ATOM     70  C   UNL A   1      46.378  24.110  33.726  1.00  0.00     0.134 A 
ATOM     71  C   UNL A   1      44.332  22.895  33.754  1.00  0.00     0.134 A 
ATOM     72  F   UNL A   1      47.157  25.141  33.366  1.00  0.00    -0.206 F 
ATOM     73  C   UNL A   1      46.910  23.229  34.674  1.00  0.00     0.040 A 
ATOM     74  C   UNL A   1      44.834  22.041  34.735  1.00  0.00     0.040 A 
ATOM     75  F   UNL A   1      43.071  22.652  33.366  1.00  0.00    -0.206 F 
ATOM     76  C   UNL A   1      46.134  22.198  35.191  1.00  0.00     0.006 A 
ENDBRANCH  52  69
ENDBRANCH  26  27
ENDBRANCH  19  21
ENDBRANCH  18  19
ENDBRANCH  17  18
ENDBRANCH   1  17
TORSDOF 15
ENDMDL
