MODEL 1
REMARK VINA RESULT:     -13.5      0.000      0.000
REMARK SMILES Cc1ccccc1-c1c(Cl)ccc2c1C=C(C(=O)OCCOC(=O)c1ccc(-c3c4nc(c(-c5c(F)cccc5F)c5ccc([nH]5)c(-c5c(F)cccc5F)c5nc(c(-c6c(F)cccc6F)c6ccc3[nH]6)C=C5)C=C4)cc1)[C@@H](C(F)(F)F)O2
REMARK SMILES IDX 21 1 20 2 19 3 17 4 18 5 16 6 8 7 9 8 14 9 10 10 11 11 13 12
REMARK SMILES IDX 15 13 12 14 84 15 79 16 7 17 1 18 2 19 3 20 4 21 6 22 5 23
REMARK SMILES IDX 80 24 81 25 82 26 83 27 22 28 23 29 24 30 25 31 26 32 78 33
REMARK SMILES IDX 27 34 77 35 28 36 29 37 30 38 71 39 31 40 76 41 70 42 72 43
REMARK SMILES IDX 32 44 75 45 69 46 68 47 33 49 59 50 42 51 58 52 43 53 46 54
REMARK SMILES IDX 57 55 73 56 44 57 45 58 56 60 74 61 47 62 34 63 35 64 40 65
REMARK SMILES IDX 36 66 37 67 39 68 41 69 38 70 60 71 61 72 66 73 62 74 63 75
REMARK SMILES IDX 65 76 67 77 64 78 48 79 49 80 54 81 50 82 51 83 53 84 55 85
REMARK SMILES IDX 52 86
REMARK H PARENT 72 48 46 59
REMARK Flexibility Score: inf
ROOT
ATOM      1  C   UNL A   1      34.489  31.473  27.611  1.00  0.00     0.275 C 
ENDROOT
BRANCH   1   2
ATOM      2  C   UNL A   1      33.300  30.543  27.307  1.00  0.00     0.275 C 
BRANCH   2   3
ATOM      3  O   UNL A   1      33.340  29.878  26.024  1.00  0.00    -0.459 OA
BRANCH   3   4
ATOM      4  C   UNL A   1      33.751  28.580  26.143  1.00  0.00     0.338 C 
ATOM      5  O   UNL A   1      34.677  28.237  26.868  1.00  0.00    -0.246 OA
BRANCH   4   6
ATOM      6  C   UNL A   1      32.823  27.603  25.519  1.00  0.00     0.087 C 
ATOM      7  C   UNL A   1      33.226  23.926  25.612  1.00  0.00     0.012 A 
ATOM      8  C   UNL A   1      32.463  22.902  26.242  1.00  0.00     0.049 A 
ATOM      9  C   UNL A   1      32.603  25.206  25.492  1.00  0.00     0.027 A 
ATOM     10  Cl  UNL A   1      33.133  21.346  26.636  1.00  0.00    -0.084 Cl
ATOM     11  C   UNL A   1      31.132  23.101  26.626  1.00  0.00     0.025 A 
ATOM     12  C   UNL A   1      31.263  25.387  25.902  1.00  0.00     0.128 A 
ATOM     13  C   UNL A   1      33.374  26.424  25.196  1.00  0.00     0.028 C 
ATOM     14  C   UNL A   1      30.522  24.332  26.424  1.00  0.00     0.049 A 
ATOM     15  O   UNL A   1      30.620  26.604  25.927  1.00  0.00    -0.475 OA
ATOM     16  C   UNL A   1      31.341  27.745  25.398  1.00  0.00     0.316 C 
BRANCH   7  17
ATOM     17  C   UNL A   1      34.576  23.604  25.038  1.00  0.00    -0.013 A 
ATOM     18  C   UNL A   1      33.845  23.080  22.605  1.00  0.00     0.045 C 
ATOM     19  C   UNL A   1      34.862  23.240  23.700  1.00  0.00    -0.043 A 
ATOM     20  C   UNL A   1      36.191  22.958  23.315  1.00  0.00     0.004 A 
ATOM     21  C   UNL A   1      37.251  23.080  24.205  1.00  0.00     0.000 A 
ATOM     22  C   UNL A   1      35.681  23.696  25.923  1.00  0.00     0.009 A 
ATOM     23  C   UNL A   1      36.996  23.463  25.511  1.00  0.00     0.001 A 
ENDBRANCH   7  17
BRANCH  16  24
ATOM     24  C   UNL A   1      30.954  27.954  23.919  1.00  0.00     0.430 C 
ATOM     25  F   UNL A   1      29.857  28.740  23.802  1.00  0.00    -0.167 F 
ATOM     26  F   UNL A   1      31.953  28.562  23.234  1.00  0.00    -0.167 F 
ATOM     27  F   UNL A   1      30.681  26.791  23.281  1.00  0.00    -0.167 F 
ENDBRANCH  16  24
ENDBRANCH   4   6
ENDBRANCH   3   4
ENDBRANCH   2   3
ENDBRANCH   1   2
BRANCH   1  28
ATOM     28  O   UNL A   1      35.788  30.857  27.788  1.00  0.00    -0.458 OA
BRANCH  28  29
ATOM     29  C   UNL A   1      36.380  30.571  28.982  1.00  0.00     0.338 C 
ATOM     30  O   UNL A   1      35.908  30.877  30.049  1.00  0.00    -0.246 OA
BRANCH  29  31
ATOM     31  C   UNL A   1      37.613  29.775  28.885  1.00  0.00     0.060 A 
ATOM     32  C   UNL A   1      37.843  28.797  29.855  1.00  0.00     0.016 A 
ATOM     33  C   UNL A   1      38.432  29.912  27.769  1.00  0.00     0.016 A 
ATOM     34  C   UNL A   1      38.844  27.862  29.656  1.00  0.00     0.010 A 
ATOM     35  C   UNL A   1      39.360  28.932  27.516  1.00  0.00     0.010 A 
ATOM     36  C   UNL A   1      39.581  27.934  28.473  1.00  0.00    -0.014 A 
BRANCH  36  37
ATOM     37  C   UNL A   1      40.855  27.248  28.345  1.00  0.00     0.031 A 
ATOM     38  C   UNL A   1      40.889  25.816  28.044  1.00  0.00     0.074 A 
ATOM     39  C   UNL A   1      41.899  28.050  28.639  1.00  0.00     0.049 A 
ATOM     40  N   UNL A   1      41.390  24.908  28.807  1.00  0.00    -0.248 NA
ATOM     41  C   UNL A   1      40.250  25.288  26.839  1.00  0.00     0.031 C 
ATOM     42  C   UNL A   1      43.326  27.815  28.637  1.00  0.00     0.029 A 
ATOM     43  N   UNL A   1      41.757  29.309  29.244  1.00  0.00    -0.354 N 
ATOM     44  C   UNL A   1      41.452  23.764  28.034  1.00  0.00     0.074 A 
ATOM     45  C   UNL A   1      40.580  23.993  26.906  1.00  0.00     0.031 C 
ATOM     46  C   UNL A   1      43.892  28.712  29.474  1.00  0.00     0.029 A 
ATOM     47  C   UNL A   1      42.818  29.467  30.122  1.00  0.00     0.049 A 
ATOM     48  H   UNL A   1      41.038  29.959  29.077  1.00  0.00     0.167 HD
ATOM     49  C   UNL A   1      42.484  22.881  28.165  1.00  0.00     0.037 A 
ATOM     50  C   UNL A   1      42.552  29.514  31.459  1.00  0.00     0.037 A 
ATOM     51  C   UNL A   1      43.525  23.502  28.965  1.00  0.00     0.049 A 
ATOM     52  C   UNL A   1      43.186  28.335  32.141  1.00  0.00     0.074 A 
ATOM     53  C   UNL A   1      44.540  24.346  28.539  1.00  0.00     0.029 A 
ATOM     54  N   UNL A   1      43.377  23.702  30.331  1.00  0.00    -0.354 N 
ATOM     55  N   UNL A   1      43.204  27.125  31.650  1.00  0.00    -0.248 NA
ATOM     56  C   UNL A   1      43.921  28.473  33.390  1.00  0.00     0.031 C 
ATOM     57  C   UNL A   1      44.975  25.097  29.645  1.00  0.00     0.029 A 
ATOM     58  C   UNL A   1      44.238  24.703  30.747  1.00  0.00     0.049 A 
ATOM     59  H   UNL A   1      42.755  23.209  30.914  1.00  0.00     0.167 HD
ATOM     60  C   UNL A   1      44.014  26.353  32.447  1.00  0.00     0.074 A 
ATOM     61  C   UNL A   1      44.418  27.235  33.529  1.00  0.00     0.031 C 
ATOM     62  C   UNL A   1      44.369  25.070  32.140  1.00  0.00     0.037 A 
BRANCH  49  63
ATOM     63  C   UNL A   1      42.732  21.786  27.156  1.00  0.00     0.057 A 
ATOM     64  C   UNL A   1      42.051  20.556  27.213  1.00  0.00     0.134 A 
ATOM     65  C   UNL A   1      43.676  21.895  26.119  1.00  0.00     0.134 A 
ATOM     66  F   UNL A   1      41.059  20.337  28.085  1.00  0.00    -0.206 F 
ATOM     67  C   UNL A   1      42.367  19.474  26.384  1.00  0.00     0.040 A 
ATOM     68  C   UNL A   1      44.013  20.814  25.289  1.00  0.00     0.040 A 
ATOM     69  F   UNL A   1      44.320  23.051  25.891  1.00  0.00    -0.206 F 
ATOM     70  C   UNL A   1      43.371  19.590  25.435  1.00  0.00     0.006 A 
ENDBRANCH  49  63
BRANCH  50  71
ATOM     71  C   UNL A   1      41.243  30.121  31.882  1.00  0.00     0.057 A 
ATOM     72  C   UNL A   1      40.279  29.331  32.546  1.00  0.00     0.134 A 
ATOM     73  C   UNL A   1      40.954  31.486  31.794  1.00  0.00     0.134 A 
ATOM     74  F   UNL A   1      40.450  28.002  32.657  1.00  0.00    -0.206 F 
ATOM     75  C   UNL A   1      39.147  29.876  33.163  1.00  0.00     0.040 A 
ATOM     76  C   UNL A   1      39.811  32.044  32.393  1.00  0.00     0.040 A 
ATOM     77  F   UNL A   1      41.789  32.326  31.167  1.00  0.00    -0.206 F 
ATOM     78  C   UNL A   1      38.918  31.243  33.100  1.00  0.00     0.006 A 
ENDBRANCH  50  71
BRANCH  62  79
ATOM     79  C   UNL A   1      45.071  24.104  33.058  1.00  0.00     0.057 A 
ATOM     80  C   UNL A   1      46.393  24.265  33.492  1.00  0.00     0.134 A 
ATOM     81  C   UNL A   1      44.370  23.028  33.653  1.00  0.00     0.134 A 
ATOM     82  F   UNL A   1      47.134  25.316  33.116  1.00  0.00    -0.206 F 
ATOM     83  C   UNL A   1      47.000  23.373  34.383  1.00  0.00     0.040 A 
ATOM     84  C   UNL A   1      44.945  22.176  34.595  1.00  0.00     0.040 A 
ATOM     85  F   UNL A   1      43.086  22.766  33.370  1.00  0.00    -0.206 F 
ATOM     86  C   UNL A   1      46.274  22.332  34.946  1.00  0.00     0.006 A 
ENDBRANCH  62  79
ENDBRANCH  36  37
ENDBRANCH  29  31
ENDBRANCH  28  29
ENDBRANCH   1  28
TORSDOF 13
ENDMDL
MODEL 2
REMARK VINA RESULT:     -13.3      3.857      9.156
REMARK SMILES Cc1ccccc1-c1c(Cl)ccc2c1C=C(C(=O)OCCOC(=O)c1ccc(-c3c4nc(c(-c5c(F)cccc5F)c5ccc([nH]5)c(-c5c(F)cccc5F)c5nc(c(-c6c(F)cccc6F)c6ccc3[nH]6)C=C5)C=C4)cc1)[C@@H](C(F)(F)F)O2
REMARK SMILES IDX 21 1 20 2 19 3 17 4 18 5 16 6 8 7 9 8 14 9 10 10 11 11 13 12
REMARK SMILES IDX 15 13 12 14 84 15 79 16 7 17 1 18 2 19 3 20 4 21 6 22 5 23
REMARK SMILES IDX 80 24 81 25 82 26 83 27 22 28 23 29 24 30 25 31 26 32 78 33
REMARK SMILES IDX 27 34 77 35 28 36 29 37 30 38 71 39 31 40 76 41 70 42 72 43
REMARK SMILES IDX 32 44 75 45 69 46 68 47 33 49 59 50 42 51 58 52 43 53 46 54
REMARK SMILES IDX 57 55 73 56 44 57 45 58 56 60 74 61 47 62 34 63 35 64 40 65
REMARK SMILES IDX 36 66 37 67 39 68 41 69 38 70 60 71 61 72 66 73 62 74 63 75
REMARK SMILES IDX 65 76 67 77 64 78 48 79 49 80 54 81 50 82 51 83 53 84 55 85
REMARK SMILES IDX 52 86
REMARK H PARENT 72 48 46 59
REMARK Flexibility Score: inf
ROOT
ATOM      1  C   UNL A   1      38.988  22.461  26.305  1.00  0.00     0.275 C 
ENDROOT
BRANCH   1   2
ATOM      2  C   UNL A   1      37.779  22.335  25.359  1.00  0.00     0.275 C 
BRANCH   2   3
ATOM      3  O   UNL A   1      37.143  23.580  24.989  1.00  0.00    -0.459 OA
BRANCH   3   4
ATOM      4  C   UNL A   1      36.208  23.396  24.009  1.00  0.00     0.338 C 
ATOM      5  O   UNL A   1      36.501  23.203  22.835  1.00  0.00    -0.246 OA
BRANCH   4   6
ATOM      6  C   UNL A   1      34.832  23.200  24.531  1.00  0.00     0.087 C 
ATOM      7  C   UNL A   1      32.180  25.780  24.564  1.00  0.00     0.012 A 
ATOM      8  C   UNL A   1      30.945  25.882  23.864  1.00  0.00     0.049 A 
ATOM      9  C   UNL A   1      32.804  24.495  24.579  1.00  0.00     0.027 A 
ATOM     10  Cl  UNL A   1      30.149  27.404  23.589  1.00  0.00    -0.084 Cl
ATOM     11  C   UNL A   1      30.312  24.762  23.311  1.00  0.00     0.025 A 
ATOM     12  C   UNL A   1      32.153  23.381  24.000  1.00  0.00     0.128 A 
ATOM     13  C   UNL A   1      34.217  24.318  24.945  1.00  0.00     0.028 C 
ATOM     14  C   UNL A   1      30.900  23.508  23.409  1.00  0.00     0.049 A 
ATOM     15  O   UNL A   1      32.724  22.136  23.868  1.00  0.00    -0.475 OA
ATOM     16  C   UNL A   1      34.032  21.940  24.461  1.00  0.00     0.316 C 
BRANCH   7  17
ATOM     17  C   UNL A   1      32.714  26.969  25.310  1.00  0.00    -0.013 A 
ATOM     18  C   UNL A   1      34.073  28.053  23.383  1.00  0.00     0.045 C 
ATOM     19  C   UNL A   1      33.545  27.991  24.789  1.00  0.00    -0.043 A 
ATOM     20  C   UNL A   1      33.974  29.045  25.625  1.00  0.00     0.004 A 
ATOM     21  C   UNL A   1      33.556  29.145  26.947  1.00  0.00     0.000 A 
ATOM     22  C   UNL A   1      32.328  27.094  26.668  1.00  0.00     0.009 A 
ATOM     23  C   UNL A   1      32.720  28.172  27.467  1.00  0.00     0.001 A 
ENDBRANCH   7  17
BRANCH  16  24
ATOM     24  C   UNL A   1      33.870  21.344  25.875  1.00  0.00     0.430 C 
ATOM     25  F   UNL A   1      33.706  20.000  25.828  1.00  0.00    -0.167 F 
ATOM     26  F   UNL A   1      34.967  21.584  26.634  1.00  0.00    -0.167 F 
ATOM     27  F   UNL A   1      32.804  21.852  26.538  1.00  0.00    -0.167 F 
ENDBRANCH  16  24
ENDBRANCH   4   6
ENDBRANCH   3   4
ENDBRANCH   2   3
ENDBRANCH   1   2
BRANCH   1  28
ATOM     28  O   UNL A   1      39.127  23.698  27.046  1.00  0.00    -0.458 OA
BRANCH  28  29
ATOM     29  C   UNL A   1      40.218  24.514  27.040  1.00  0.00     0.338 C 
ATOM     30  O   UNL A   1      41.236  24.261  26.444  1.00  0.00    -0.246 OA
BRANCH  29  31
ATOM     31  C   UNL A   1      40.039  25.790  27.750  1.00  0.00     0.060 A 
ATOM     32  C   UNL A   1      40.280  26.973  27.049  1.00  0.00     0.016 A 
ATOM     33  C   UNL A   1      39.501  25.791  29.034  1.00  0.00     0.016 A 
ATOM     34  C   UNL A   1      39.877  28.181  27.591  1.00  0.00     0.010 A 
ATOM     35  C   UNL A   1      39.009  26.971  29.535  1.00  0.00     0.010 A 
ATOM     36  C   UNL A   1      39.227  28.160  28.827  1.00  0.00    -0.014 A 
BRANCH  36  37
ATOM     37  C   UNL A   1      39.101  29.367  29.624  1.00  0.00     0.031 A 
ATOM     38  C   UNL A   1      38.069  30.354  29.300  1.00  0.00     0.074 A 
ATOM     39  C   UNL A   1      40.075  29.473  30.550  1.00  0.00     0.049 A 
ATOM     40  N   UNL A   1      38.291  31.573  28.948  1.00  0.00    -0.248 NA
ATOM     41  C   UNL A   1      36.655  29.978  29.269  1.00  0.00     0.031 C 
ATOM     42  C   UNL A   1      40.343  30.475  31.558  1.00  0.00     0.029 A 
ATOM     43  N   UNL A   1      41.215  28.653  30.567  1.00  0.00    -0.354 N 
ATOM     44  C   UNL A   1      37.063  32.205  29.002  1.00  0.00     0.074 A 
ATOM     45  C   UNL A   1      36.071  31.156  29.024  1.00  0.00     0.031 C 
ATOM     46  C   UNL A   1      41.658  30.412  31.861  1.00  0.00     0.029 A 
ATOM     47  C   UNL A   1      42.285  29.440  30.962  1.00  0.00     0.049 A 
ATOM     48  H   UNL A   1      41.249  27.696  30.339  1.00  0.00     0.167 HD
ATOM     49  C   UNL A   1      36.958  33.504  29.405  1.00  0.00     0.037 A 
ATOM     50  C   UNL A   1      43.274  29.692  30.058  1.00  0.00     0.037 A 
ATOM     51  C   UNL A   1      38.222  33.910  29.992  1.00  0.00     0.049 A 
ATOM     52  C   UNL A   1      43.317  31.163  29.755  1.00  0.00     0.074 A 
ATOM     53  C   UNL A   1      38.653  33.730  31.298  1.00  0.00     0.029 A 
ATOM     54  N   UNL A   1      39.353  34.126  29.217  1.00  0.00    -0.354 N 
ATOM     55  N   UNL A   1      42.259  31.913  29.600  1.00  0.00    -0.248 NA
ATOM     56  C   UNL A   1      44.572  31.899  29.696  1.00  0.00     0.031 C 
ATOM     57  C   UNL A   1      40.058  33.788  31.305  1.00  0.00     0.029 A 
ATOM     58  C   UNL A   1      40.484  34.018  30.009  1.00  0.00     0.049 A 
ATOM     59  H   UNL A   1      39.353  34.325  28.252  1.00  0.00     0.167 HD
ATOM     60  C   UNL A   1      42.671  33.220  29.515  1.00  0.00     0.074 A 
ATOM     61  C   UNL A   1      44.122  33.155  29.557  1.00  0.00     0.031 C 
ATOM     62  C   UNL A   1      41.809  34.280  29.492  1.00  0.00     0.037 A 
BRANCH  49  63
ATOM     63  C   UNL A   1      35.627  34.130  29.745  1.00  0.00     0.057 A 
ATOM     64  C   UNL A   1      34.815  34.728  28.763  1.00  0.00     0.134 A 
ATOM     65  C   UNL A   1      35.120  34.197  31.055  1.00  0.00     0.134 A 
ATOM     66  F   UNL A   1      35.117  34.663  27.460  1.00  0.00    -0.206 F 
ATOM     67  C   UNL A   1      33.653  35.443  29.071  1.00  0.00     0.040 A 
ATOM     68  C   UNL A   1      33.964  34.923  31.380  1.00  0.00     0.040 A 
ATOM     69  F   UNL A   1      35.747  33.578  32.068  1.00  0.00    -0.206 F 
ATOM     70  C   UNL A   1      33.237  35.567  30.387  1.00  0.00     0.006 A 
ENDBRANCH  49  63
BRANCH  50  71
ATOM     71  C   UNL A   1      43.575  28.621  29.047  1.00  0.00     0.057 A 
ATOM     72  C   UNL A   1      43.340  28.856  27.675  1.00  0.00     0.134 A 
ATOM     73  C   UNL A   1      44.225  27.421  29.356  1.00  0.00     0.134 A 
ATOM     74  F   UNL A   1      42.695  29.967  27.278  1.00  0.00    -0.206 F 
ATOM     75  C   UNL A   1      43.804  28.001  26.669  1.00  0.00     0.040 A 
ATOM     76  C   UNL A   1      44.679  26.544  28.356  1.00  0.00     0.040 A 
ATOM     77  F   UNL A   1      44.481  27.086  30.628  1.00  0.00    -0.206 F 
ATOM     78  C   UNL A   1      44.491  26.844  27.009  1.00  0.00     0.006 A 
ENDBRANCH  50  71
BRANCH  62  79
ATOM     79  C   UNL A   1      42.175  35.710  29.191  1.00  0.00     0.057 A 
ATOM     80  C   UNL A   1      43.002  36.490  30.008  1.00  0.00     0.134 A 
ATOM     81  C   UNL A   1      41.803  36.311  27.965  1.00  0.00     0.134 A 
ATOM     82  F   UNL A   1      43.539  36.002  31.135  1.00  0.00    -0.206 F 
ATOM     83  C   UNL A   1      43.360  37.801  29.674  1.00  0.00     0.040 A 
ATOM     84  C   UNL A   1      42.213  37.591  27.591  1.00  0.00     0.040 A 
ATOM     85  F   UNL A   1      41.045  35.678  27.057  1.00  0.00    -0.206 F 
ATOM     86  C   UNL A   1      42.976  38.352  28.459  1.00  0.00     0.006 A 
ENDBRANCH  62  79
ENDBRANCH  36  37
ENDBRANCH  29  31
ENDBRANCH  28  29
ENDBRANCH   1  28
TORSDOF 13
ENDMDL
MODEL 3
REMARK VINA RESULT:     -12.9      0.945      1.987
REMARK SMILES Cc1ccccc1-c1c(Cl)ccc2c1C=C(C(=O)OCCOC(=O)c1ccc(-c3c4nc(c(-c5c(F)cccc5F)c5ccc([nH]5)c(-c5c(F)cccc5F)c5nc(c(-c6c(F)cccc6F)c6ccc3[nH]6)C=C5)C=C4)cc1)[C@@H](C(F)(F)F)O2
REMARK SMILES IDX 21 1 20 2 19 3 17 4 18 5 16 6 8 7 9 8 14 9 10 10 11 11 13 12
REMARK SMILES IDX 15 13 12 14 84 15 79 16 7 17 1 18 2 19 3 20 4 21 6 22 5 23
REMARK SMILES IDX 80 24 81 25 82 26 83 27 22 28 23 29 24 30 25 31 26 32 78 33
REMARK SMILES IDX 27 34 77 35 28 36 29 37 30 38 71 39 31 40 76 41 70 42 72 43
REMARK SMILES IDX 32 44 75 45 69 46 68 47 33 49 59 50 42 51 58 52 43 53 46 54
REMARK SMILES IDX 57 55 73 56 44 57 45 58 56 60 74 61 47 62 34 63 35 64 40 65
REMARK SMILES IDX 36 66 37 67 39 68 41 69 38 70 60 71 61 72 66 73 62 74 63 75
REMARK SMILES IDX 65 76 67 77 64 78 48 79 49 80 54 81 50 82 51 83 53 84 55 85
REMARK SMILES IDX 52 86
REMARK H PARENT 72 48 46 59
REMARK Flexibility Score: inf
ROOT
ATOM      1  C   UNL A   1      34.365  30.860  27.506  1.00  0.00     0.275 C 
ENDROOT
BRANCH   1   2
ATOM      2  C   UNL A   1      33.278  29.872  27.042  1.00  0.00     0.275 C 
BRANCH   2   3
ATOM      3  O   UNL A   1      33.634  28.472  27.116  1.00  0.00    -0.459 OA
BRANCH   3   4
ATOM      4  C   UNL A   1      32.544  27.667  26.942  1.00  0.00     0.338 C 
ATOM      5  O   UNL A   1      31.689  27.506  27.805  1.00  0.00    -0.246 OA
BRANCH   4   6
ATOM      6  C   UNL A   1      32.358  27.212  25.541  1.00  0.00     0.087 C 
ATOM      7  C   UNL A   1      33.074  23.801  24.298  1.00  0.00     0.012 A 
ATOM      8  C   UNL A   1      32.224  22.771  23.807  1.00  0.00     0.049 A 
ATOM      9  C   UNL A   1      32.513  25.113  24.373  1.00  0.00     0.027 A 
ATOM     10  Cl  UNL A   1      32.682  21.093  23.825  1.00  0.00    -0.084 Cl
ATOM     11  C   UNL A   1      30.940  23.041  23.317  1.00  0.00     0.025 A 
ATOM     12  C   UNL A   1      31.209  25.359  23.887  1.00  0.00     0.128 A 
ATOM     13  C   UNL A   1      33.133  26.182  25.171  1.00  0.00     0.028 C 
ATOM     14  C   UNL A   1      30.447  24.339  23.326  1.00  0.00     0.049 A 
ATOM     15  O   UNL A   1      30.549  26.559  24.020  1.00  0.00    -0.475 OA
ATOM     16  C   UNL A   1      31.288  27.662  24.601  1.00  0.00     0.316 C 
BRANCH   7  17
ATOM     17  C   UNL A   1      34.508  23.493  24.622  1.00  0.00    -0.013 A 
ATOM     18  C   UNL A   1      34.244  23.067  27.168  1.00  0.00     0.045 C 
ATOM     19  C   UNL A   1      35.035  23.153  25.892  1.00  0.00    -0.043 A 
ATOM     20  C   UNL A   1      36.416  22.897  26.037  1.00  0.00     0.004 A 
ATOM     21  C   UNL A   1      37.279  22.915  24.949  1.00  0.00     0.000 A 
ATOM     22  C   UNL A   1      35.425  23.523  23.540  1.00  0.00     0.009 A 
ATOM     23  C   UNL A   1      36.780  23.217  23.693  1.00  0.00     0.001 A 
ENDBRANCH   7  17
BRANCH  16  24
ATOM     24  C   UNL A   1      31.906  28.514  23.473  1.00  0.00     0.430 C 
ATOM     25  F   UNL A   1      31.008  29.394  22.970  1.00  0.00    -0.167 F 
ATOM     26  F   UNL A   1      32.959  29.237  23.929  1.00  0.00    -0.167 F 
ATOM     27  F   UNL A   1      32.353  27.765  22.437  1.00  0.00    -0.167 F 
ENDBRANCH  16  24
ENDBRANCH   4   6
ENDBRANCH   3   4
ENDBRANCH   2   3
ENDBRANCH   1   2
BRANCH   1  28
ATOM     28  O   UNL A   1      35.726  30.368  27.573  1.00  0.00    -0.458 OA
BRANCH  28  29
ATOM     29  C   UNL A   1      36.600  30.574  28.599  1.00  0.00     0.338 C 
ATOM     30  O   UNL A   1      36.385  31.329  29.515  1.00  0.00    -0.246 OA
BRANCH  29  31
ATOM     31  C   UNL A   1      37.807  29.735  28.560  1.00  0.00     0.060 A 
ATOM     32  C   UNL A   1      37.910  28.687  29.478  1.00  0.00     0.016 A 
ATOM     33  C   UNL A   1      38.730  29.908  27.534  1.00  0.00     0.016 A 
ATOM     34  C   UNL A   1      38.891  27.726  29.308  1.00  0.00     0.010 A 
ATOM     35  C   UNL A   1      39.642  28.908  27.300  1.00  0.00     0.010 A 
ATOM     36  C   UNL A   1      39.738  27.842  28.204  1.00  0.00    -0.014 A 
BRANCH  36  37
ATOM     37  C   UNL A   1      40.992  27.114  28.145  1.00  0.00     0.031 A 
ATOM     38  C   UNL A   1      40.990  25.667  27.926  1.00  0.00     0.074 A 
ATOM     39  C   UNL A   1      42.053  27.900  28.419  1.00  0.00     0.049 A 
ATOM     40  N   UNL A   1      41.445  24.789  28.751  1.00  0.00    -0.248 NA
ATOM     41  C   UNL A   1      40.361  25.090  26.737  1.00  0.00     0.031 C 
ATOM     42  C   UNL A   1      43.472  27.624  28.465  1.00  0.00     0.029 A 
ATOM     43  N   UNL A   1      41.937  29.195  28.950  1.00  0.00    -0.354 N 
ATOM     44  C   UNL A   1      41.489  23.601  28.044  1.00  0.00     0.074 A 
ATOM     45  C   UNL A   1      40.651  23.792  26.884  1.00  0.00     0.031 C 
ATOM     46  C   UNL A   1      44.046  28.550  29.264  1.00  0.00     0.029 A 
ATOM     47  C   UNL A   1      42.981  29.372  29.843  1.00  0.00     0.049 A 
ATOM     48  H   UNL A   1      41.241  29.856  28.729  1.00  0.00     0.167 HD
ATOM     49  C   UNL A   1      42.490  22.698  28.249  1.00  0.00     0.037 A 
ATOM     50  C   UNL A   1      42.686  29.502  31.168  1.00  0.00     0.037 A 
ATOM     51  C   UNL A   1      43.531  23.332  29.039  1.00  0.00     0.049 A 
ATOM     52  C   UNL A   1      43.268  28.345  31.930  1.00  0.00     0.074 A 
ATOM     53  C   UNL A   1      44.581  24.120  28.591  1.00  0.00     0.029 A 
ATOM     54  N   UNL A   1      43.359  23.613  30.387  1.00  0.00    -0.354 N 
ATOM     55  N   UNL A   1      43.261  27.109  31.509  1.00  0.00    -0.248 NA
ATOM     56  C   UNL A   1      43.979  28.532  33.187  1.00  0.00     0.031 C 
ATOM     57  C   UNL A   1      45.014  24.920  29.663  1.00  0.00     0.029 A 
ATOM     58  C   UNL A   1      44.241  24.610  30.768  1.00  0.00     0.049 A 
ATOM     59  H   UNL A   1      42.709  23.172  30.982  1.00  0.00     0.167 HD
ATOM     60  C   UNL A   1      44.029  26.360  32.367  1.00  0.00     0.074 A 
ATOM     61  C   UNL A   1      44.434  27.290  33.407  1.00  0.00     0.031 C 
ATOM     62  C   UNL A   1      44.350  25.052  32.140  1.00  0.00     0.037 A 
BRANCH  49  63
ATOM     63  C   UNL A   1      42.728  21.541  27.309  1.00  0.00     0.057 A 
ATOM     64  C   UNL A   1      43.679  21.609  26.274  1.00  0.00     0.134 A 
ATOM     65  C   UNL A   1      42.002  20.338  27.371  1.00  0.00     0.134 A 
ATOM     66  F   UNL A   1      44.511  22.651  26.145  1.00  0.00    -0.206 F 
ATOM     67  C   UNL A   1      43.815  20.613  25.301  1.00  0.00     0.040 A 
ATOM     68  C   UNL A   1      42.118  19.337  26.394  1.00  0.00     0.040 A 
ATOM     69  F   UNL A   1      41.138  20.105  28.371  1.00  0.00    -0.206 F 
ATOM     70  C   UNL A   1      43.013  19.482  25.341  1.00  0.00     0.006 A 
ENDBRANCH  49  63
BRANCH  50  71
ATOM     71  C   UNL A   1      41.387  30.169  31.525  1.00  0.00     0.057 A 
ATOM     72  C   UNL A   1      41.126  31.487  31.088  1.00  0.00     0.134 A 
ATOM     73  C   UNL A   1      40.323  29.515  32.154  1.00  0.00     0.134 A 
ATOM     74  F   UNL A   1      42.093  32.210  30.499  1.00  0.00    -0.206 F 
ATOM     75  C   UNL A   1      39.863  32.081  31.187  1.00  0.00     0.040 A 
ATOM     76  C   UNL A   1      39.055  30.107  32.277  1.00  0.00     0.040 A 
ATOM     77  F   UNL A   1      40.466  28.268  32.625  1.00  0.00    -0.206 F 
ATOM     78  C   UNL A   1      38.815  31.382  31.771  1.00  0.00     0.006 A 
ENDBRANCH  50  71
BRANCH  62  79
ATOM     79  C   UNL A   1      45.002  24.120  33.128  1.00  0.00     0.057 A 
ATOM     80  C   UNL A   1      44.374  22.985  33.658  1.00  0.00     0.134 A 
ATOM     81  C   UNL A   1      46.366  24.269  33.477  1.00  0.00     0.134 A 
ATOM     82  F   UNL A   1      43.127  22.644  33.308  1.00  0.00    -0.206 F 
ATOM     83  C   UNL A   1      45.025  22.114  34.538  1.00  0.00     0.040 A 
ATOM     84  C   UNL A   1      47.043  23.368  34.297  1.00  0.00     0.040 A 
ATOM     85  F   UNL A   1      47.115  25.283  33.020  1.00  0.00    -0.206 F 
ATOM     86  C   UNL A   1      46.366  22.296  34.852  1.00  0.00     0.006 A 
ENDBRANCH  62  79
ENDBRANCH  36  37
ENDBRANCH  29  31
ENDBRANCH  28  29
ENDBRANCH   1  28
TORSDOF 13
ENDMDL
