MODEL 1
REMARK VINA RESULT:      -9.2      0.000      0.000
REMARK SMILES O=C(C[C@@H](Br)C(=O)c1ccc2c(c1)CCC2)OCCOC(=O)c1ccc(-c2c3nc(c(-c4c(F)cccc4F)c4ccc([nH]4)c(-c4c(F)cccc4F)c4nc(c(-c5c(F)cccc5F)c5ccc2[nH]5)C=C4)C=C3)cc1
REMARK SMILES IDX 18 1 17 2 2 3 1 4 3 5 4 6 5 7 6 8 7 9 8 10 9 11 13 12 10 13
REMARK SMILES IDX 12 14 11 15 14 16 16 17 15 18 19 19 20 20 21 21 22 22 23 23
REMARK SMILES IDX 24 24 76 25 25 26 75 27 26 28 27 29 28 30 69 31 29 32 74 33
REMARK SMILES IDX 68 34 70 35 30 36 73 37 67 38 66 39 31 41 57 42 40 43 56 44
REMARK SMILES IDX 41 45 44 46 55 47 71 48 42 49 43 50 54 52 72 53 45 54 32 55
REMARK SMILES IDX 33 56 38 57 34 58 35 59 37 60 39 61 36 62 58 63 59 64 64 65
REMARK SMILES IDX 60 66 61 67 63 68 65 69 62 70 46 71 47 72 52 73 48 74 49 75
REMARK SMILES IDX 51 76 53 77 50 78
REMARK H PARENT 70 40 44 51
REMARK Flexibility Score: inf
ROOT
ATOM      1  C   UNL A   1      45.776  20.259  24.653  1.00  0.00     0.274 C 
ENDROOT
BRANCH   1   2
ATOM      2  O   UNL A   1      45.838  21.594  25.206  1.00  0.00    -0.462 OA
BRANCH   2   3
ATOM      3  C   UNL A   1      45.933  22.712  24.440  1.00  0.00     0.307 C 
ATOM      4  O   UNL A   1      45.116  22.947  23.556  1.00  0.00    -0.252 OA
BRANCH   3   5
ATOM      5  C   UNL A   1      47.166  23.558  24.614  1.00  0.00     0.146 C 
BRANCH   5   6
ATOM      6  C   UNL A   1      47.027  24.691  25.607  1.00  0.00     0.140 C 
ATOM      7  Br  UNL A   1      48.647  24.862  26.694  1.00  0.00    -0.080 Br
BRANCH   6   8
ATOM      8  C   UNL A   1      46.786  26.061  24.966  1.00  0.00     0.177 C 
ATOM      9  O   UNL A   1      47.423  26.430  23.978  1.00  0.00    -0.293 OA
BRANCH   8  10
ATOM     10  C   UNL A   1      45.734  26.982  25.492  1.00  0.00     0.019 A 
ATOM     11  C   UNL A   1      46.074  28.110  26.257  1.00  0.00     0.012 A 
ATOM     12  C   UNL A   1      44.395  26.742  25.170  1.00  0.00     0.015 A 
ATOM     13  C   UNL A   1      45.102  28.960  26.788  1.00  0.00     0.005 A 
ATOM     14  C   UNL A   1      43.435  27.620  25.660  1.00  0.00    -0.044 A 
ATOM     15  C   UNL A   1      43.786  28.703  26.474  1.00  0.00    -0.045 A 
ATOM     16  C   UNL A   1      41.951  27.583  25.457  1.00  0.00     0.036 C 
ATOM     17  C   UNL A   1      42.577  29.472  26.907  1.00  0.00     0.036 C 
ATOM     18  C   UNL A   1      41.563  29.018  25.850  1.00  0.00     0.010 C 
ENDBRANCH   8  10
ENDBRANCH   6   8
ENDBRANCH   5   6
ENDBRANCH   3   5
ENDBRANCH   2   3
ENDBRANCH   1   2
BRANCH   1  19
ATOM     19  C   UNL A   1      44.621  19.430  25.228  1.00  0.00     0.275 C 
BRANCH  19  20
ATOM     20  O   UNL A   1      43.342  19.883  24.744  1.00  0.00    -0.458 OA
BRANCH  20  21
ATOM     21  C   UNL A   1      42.345  19.911  25.668  1.00  0.00     0.338 C 
ATOM     22  O   UNL A   1      41.614  18.992  25.982  1.00  0.00    -0.246 OA
BRANCH  21  23
ATOM     23  C   UNL A   1      42.373  21.212  26.377  1.00  0.00     0.060 A 
ATOM     24  C   UNL A   1      42.497  22.375  25.611  1.00  0.00     0.016 A 
ATOM     25  C   UNL A   1      42.250  21.301  27.766  1.00  0.00     0.016 A 
ATOM     26  C   UNL A   1      42.495  23.627  26.232  1.00  0.00     0.010 A 
ATOM     27  C   UNL A   1      42.203  22.557  28.382  1.00  0.00     0.010 A 
ATOM     28  C   UNL A   1      42.357  23.731  27.624  1.00  0.00    -0.014 A 
BRANCH  28  29
ATOM     29  C   UNL A   1      42.521  25.048  28.297  1.00  0.00     0.031 A 
ATOM     30  C   UNL A   1      43.882  25.444  28.807  1.00  0.00     0.074 A 
ATOM     31  C   UNL A   1      41.487  25.900  28.441  1.00  0.00     0.049 A 
ATOM     32  N   UNL A   1      44.257  26.543  29.413  1.00  0.00    -0.248 NA
ATOM     33  C   UNL A   1      44.964  24.464  28.621  1.00  0.00     0.031 C 
ATOM     34  C   UNL A   1      40.112  25.651  28.015  1.00  0.00     0.029 A 
ATOM     35  N   UNL A   1      41.443  27.157  28.997  1.00  0.00    -0.354 N 
ATOM     36  C   UNL A   1      45.608  26.381  29.687  1.00  0.00     0.074 A 
ATOM     37  C   UNL A   1      45.978  25.061  29.227  1.00  0.00     0.031 C 
ATOM     38  C   UNL A   1      39.362  26.728  28.310  1.00  0.00     0.029 A 
ATOM     39  C   UNL A   1      40.197  27.735  28.963  1.00  0.00     0.049 A 
ATOM     40  H   UNL A   1      42.232  27.603  29.383  1.00  0.00     0.167 HD
ATOM     41  C   UNL A   1      46.476  27.255  30.247  1.00  0.00     0.037 A 
ATOM     42  C   UNL A   1      39.779  28.937  29.406  1.00  0.00     0.037 A 
ATOM     43  C   UNL A   1      46.135  28.581  30.682  1.00  0.00     0.049 A 
ATOM     44  C   UNL A   1      40.759  29.887  30.043  1.00  0.00     0.074 A 
ATOM     45  C   UNL A   1      46.962  29.552  31.220  1.00  0.00     0.029 A 
ATOM     46  N   UNL A   1      44.862  29.125  30.627  1.00  0.00    -0.354 N 
ATOM     47  N   UNL A   1      42.046  29.741  30.244  1.00  0.00    -0.248 NA
ATOM     48  C   UNL A   1      40.225  31.177  30.511  1.00  0.00     0.031 C 
ATOM     49  C   UNL A   1      46.184  30.674  31.520  1.00  0.00     0.029 A 
ATOM     50  C   UNL A   1      44.879  30.413  31.136  1.00  0.00     0.049 A 
ATOM     51  H   UNL A   1      44.064  28.665  30.278  1.00  0.00     0.167 HD
ATOM     52  C   UNL A   1      42.478  30.926  30.828  1.00  0.00     0.074 A 
ATOM     53  C   UNL A   1      41.320  31.784  30.947  1.00  0.00     0.031 C 
ATOM     54  C   UNL A   1      43.726  31.269  31.230  1.00  0.00     0.037 A 
BRANCH  41  55
ATOM     55  C   UNL A   1      47.892  26.797  30.416  1.00  0.00     0.057 A 
ATOM     56  C   UNL A   1      48.276  25.976  31.485  1.00  0.00     0.134 A 
ATOM     57  C   UNL A   1      48.879  27.168  29.495  1.00  0.00     0.134 A 
ATOM     58  F   UNL A   1      47.379  25.603  32.410  1.00  0.00    -0.206 F 
ATOM     59  C   UNL A   1      49.598  25.561  31.646  1.00  0.00     0.040 A 
ATOM     60  C   UNL A   1      50.200  26.740  29.633  1.00  0.00     0.040 A 
ATOM     61  F   UNL A   1      48.575  27.951  28.450  1.00  0.00    -0.206 F 
ATOM     62  C   UNL A   1      50.563  25.939  30.714  1.00  0.00     0.006 A 
ENDBRANCH  41  55
BRANCH  42  63
ATOM     63  C   UNL A   1      38.357  29.337  29.252  1.00  0.00     0.057 A 
ATOM     64  C   UNL A   1      37.467  29.264  30.330  1.00  0.00     0.134 A 
ATOM     65  C   UNL A   1      37.847  29.751  28.018  1.00  0.00     0.134 A 
ATOM     66  F   UNL A   1      37.893  28.843  31.531  1.00  0.00    -0.206 F 
ATOM     67  C   UNL A   1      36.113  29.570  30.181  1.00  0.00     0.040 A 
ATOM     68  C   UNL A   1      36.500  30.081  27.860  1.00  0.00     0.040 A 
ATOM     69  F   UNL A   1      38.648  29.830  26.947  1.00  0.00    -0.206 F 
ATOM     70  C   UNL A   1      35.628  29.983  28.942  1.00  0.00     0.006 A 
ENDBRANCH  42  63
BRANCH  54  71
ATOM     71  C   UNL A   1      43.922  32.644  31.797  1.00  0.00     0.057 A 
ATOM     72  C   UNL A   1      44.203  33.746  30.980  1.00  0.00     0.134 A 
ATOM     73  C   UNL A   1      43.765  32.877  33.169  1.00  0.00     0.134 A 
ATOM     74  F   UNL A   1      44.375  33.587  29.659  1.00  0.00    -0.206 F 
ATOM     75  C   UNL A   1      44.337  35.030  31.510  1.00  0.00     0.040 A 
ATOM     76  C   UNL A   1      43.876  34.159  33.708  1.00  0.00     0.040 A 
ATOM     77  F   UNL A   1      43.485  31.866  34.004  1.00  0.00    -0.206 F 
ATOM     78  C   UNL A   1      44.165  35.241  32.878  1.00  0.00     0.006 A 
ENDBRANCH  54  71
ENDBRANCH  28  29
ENDBRANCH  21  23
ENDBRANCH  20  21
ENDBRANCH  19  20
ENDBRANCH   1  19
TORSDOF 14
ENDMDL
MODEL 2
REMARK VINA RESULT:      -8.4      5.506     10.359
REMARK SMILES O=C(C[C@@H](Br)C(=O)c1ccc2c(c1)CCC2)OCCOC(=O)c1ccc(-c2c3nc(c(-c4c(F)cccc4F)c4ccc([nH]4)c(-c4c(F)cccc4F)c4nc(c(-c5c(F)cccc5F)c5ccc2[nH]5)C=C4)C=C3)cc1
REMARK SMILES IDX 18 1 17 2 2 3 1 4 3 5 4 6 5 7 6 8 7 9 8 10 9 11 13 12 10 13
REMARK SMILES IDX 12 14 11 15 14 16 16 17 15 18 19 19 20 20 21 21 22 22 23 23
REMARK SMILES IDX 24 24 76 25 25 26 75 27 26 28 27 29 28 30 69 31 29 32 74 33
REMARK SMILES IDX 68 34 70 35 30 36 73 37 67 38 66 39 31 41 57 42 40 43 56 44
REMARK SMILES IDX 41 45 44 46 55 47 71 48 42 49 43 50 54 52 72 53 45 54 32 55
REMARK SMILES IDX 33 56 38 57 34 58 35 59 37 60 39 61 36 62 58 63 59 64 64 65
REMARK SMILES IDX 60 66 61 67 63 68 65 69 62 70 46 71 47 72 52 73 48 74 49 75
REMARK SMILES IDX 51 76 53 77 50 78
REMARK H PARENT 70 40 44 51
REMARK Flexibility Score: inf
ROOT
ATOM      1  C   UNL A   1      33.638  34.070  28.004  1.00  0.00     0.274 C 
ENDROOT
BRANCH   1   2
ATOM      2  O   UNL A   1      32.646  34.671  28.867  1.00  0.00    -0.462 OA
BRANCH   2   3
ATOM      3  C   UNL A   1      32.902  35.743  29.662  1.00  0.00     0.307 C 
ATOM      4  O   UNL A   1      33.182  36.836  29.182  1.00  0.00    -0.252 OA
BRANCH   3   5
ATOM      5  C   UNL A   1      32.989  35.491  31.143  1.00  0.00     0.146 C 
BRANCH   5   6
ATOM      6  C   UNL A   1      34.392  35.315  31.679  1.00  0.00     0.140 C 
ATOM      7  Br  UNL A   1      34.422  35.517  33.626  1.00  0.00    -0.080 Br
BRANCH   6   8
ATOM      8  C   UNL A   1      35.013  33.947  31.374  1.00  0.00     0.177 C 
ATOM      9  O   UNL A   1      34.344  32.914  31.416  1.00  0.00    -0.293 OA
BRANCH   8  10
ATOM     10  C   UNL A   1      36.446  33.826  30.970  1.00  0.00     0.019 A 
ATOM     11  C   UNL A   1      36.803  33.438  29.668  1.00  0.00     0.012 A 
ATOM     12  C   UNL A   1      37.444  34.157  31.892  1.00  0.00     0.015 A 
ATOM     13  C   UNL A   1      38.136  33.285  29.285  1.00  0.00     0.005 A 
ATOM     14  C   UNL A   1      38.770  34.050  31.489  1.00  0.00    -0.044 A 
ATOM     15  C   UNL A   1      39.109  33.601  30.208  1.00  0.00    -0.045 A 
ATOM     16  C   UNL A   1      40.008  34.344  32.279  1.00  0.00     0.036 C 
ATOM     17  C   UNL A   1      40.593  33.531  30.031  1.00  0.00     0.036 C 
ATOM     18  C   UNL A   1      41.054  34.462  31.158  1.00  0.00     0.010 C 
ENDBRANCH   8  10
ENDBRANCH   6   8
ENDBRANCH   5   6
ENDBRANCH   3   5
ENDBRANCH   2   3
ENDBRANCH   1   2
BRANCH   1  19
ATOM     19  C   UNL A   1      33.292  32.629  27.611  1.00  0.00     0.275 C 
BRANCH  19  20
ATOM     20  O   UNL A   1      34.044  31.668  28.376  1.00  0.00    -0.458 OA
BRANCH  20  21
ATOM     21  C   UNL A   1      34.465  30.574  27.687  1.00  0.00     0.338 C 
ATOM     22  O   UNL A   1      33.963  30.103  26.687  1.00  0.00    -0.246 OA
BRANCH  21  23
ATOM     23  C   UNL A   1      35.755  30.110  28.251  1.00  0.00     0.060 A 
ATOM     24  C   UNL A   1      36.880  30.131  27.421  1.00  0.00     0.016 A 
ATOM     25  C   UNL A   1      35.874  29.688  29.578  1.00  0.00     0.016 A 
ATOM     26  C   UNL A   1      38.125  29.734  27.919  1.00  0.00     0.010 A 
ATOM     27  C   UNL A   1      37.129  29.333  30.086  1.00  0.00     0.010 A 
ATOM     28  C   UNL A   1      38.261  29.323  29.253  1.00  0.00    -0.014 A 
BRANCH  28  29
ATOM     29  C   UNL A   1      39.546  28.745  29.732  1.00  0.00     0.031 A 
ATOM     30  C   UNL A   1      40.194  29.325  30.962  1.00  0.00     0.074 A 
ATOM     31  C   UNL A   1      40.129  27.707  29.103  1.00  0.00     0.049 A 
ATOM     32  N   UNL A   1      41.305  28.974  31.561  1.00  0.00    -0.248 NA
ATOM     33  C   UNL A   1      39.506  30.460  31.594  1.00  0.00     0.031 C 
ATOM     34  C   UNL A   1      39.631  27.051  27.896  1.00  0.00     0.029 A 
ATOM     35  N   UNL A   1      41.283  27.021  29.404  1.00  0.00    -0.354 N 
ATOM     36  C   UNL A   1      41.450  29.849  32.629  1.00  0.00     0.074 A 
ATOM     37  C   UNL A   1      40.343  30.778  32.568  1.00  0.00     0.031 C 
ATOM     38  C   UNL A   1      40.466  26.049  27.567  1.00  0.00     0.029 A 
ATOM     39  C   UNL A   1      41.566  26.001  28.527  1.00  0.00     0.049 A 
ATOM     40  H   UNL A   1      41.853  27.240  30.177  1.00  0.00     0.167 HD
ATOM     41  C   UNL A   1      42.401  29.871  33.591  1.00  0.00     0.037 A 
ATOM     42  C   UNL A   1      42.594  25.130  28.504  1.00  0.00     0.037 A 
ATOM     43  C   UNL A   1      43.491  28.938  33.685  1.00  0.00     0.049 A 
ATOM     44  C   UNL A   1      43.652  25.184  29.576  1.00  0.00     0.074 A 
ATOM     45  C   UNL A   1      44.476  28.859  34.655  1.00  0.00     0.029 A 
ATOM     46  N   UNL A   1      43.738  27.922  32.777  1.00  0.00    -0.354 N 
ATOM     47  N   UNL A   1      43.744  25.982  30.611  1.00  0.00    -0.248 NA
ATOM     48  C   UNL A   1      44.748  24.206  29.477  1.00  0.00     0.031 C 
ATOM     49  C   UNL A   1      45.339  27.811  34.317  1.00  0.00     0.029 A 
ATOM     50  C   UNL A   1      44.870  27.219  33.156  1.00  0.00     0.049 A 
ATOM     51  H   UNL A   1      43.191  27.728  31.982  1.00  0.00     0.167 HD
ATOM     52  C   UNL A   1      44.884  25.583  31.300  1.00  0.00     0.074 A 
ATOM     53  C   UNL A   1      45.450  24.470  30.570  1.00  0.00     0.031 C 
ATOM     54  C   UNL A   1      45.413  26.098  32.437  1.00  0.00     0.037 A 
BRANCH  41  55
ATOM     55  C   UNL A   1      42.297  30.945  34.630  1.00  0.00     0.057 A 
ATOM     56  C   UNL A   1      41.714  30.703  35.880  1.00  0.00     0.134 A 
ATOM     57  C   UNL A   1      42.795  32.230  34.382  1.00  0.00     0.134 A 
ATOM     58  F   UNL A   1      41.202  29.498  36.169  1.00  0.00    -0.206 F 
ATOM     59  C   UNL A   1      41.608  31.709  36.841  1.00  0.00     0.040 A 
ATOM     60  C   UNL A   1      42.716  33.238  35.344  1.00  0.00     0.040 A 
ATOM     61  F   UNL A   1      43.366  32.524  33.205  1.00  0.00    -0.206 F 
ATOM     62  C   UNL A   1      42.115  32.980  36.575  1.00  0.00     0.006 A 
ENDBRANCH  41  55
BRANCH  42  63
ATOM     63  C   UNL A   1      42.680  24.104  27.434  1.00  0.00     0.057 A 
ATOM     64  C   UNL A   1      43.278  24.394  26.203  1.00  0.00     0.134 A 
ATOM     65  C   UNL A   1      42.123  22.832  27.599  1.00  0.00     0.134 A 
ATOM     66  F   UNL A   1      43.802  25.609  25.975  1.00  0.00    -0.206 F 
ATOM     67  C   UNL A   1      43.303  23.461  25.164  1.00  0.00     0.040 A 
ATOM     68  C   UNL A   1      42.159  21.882  26.577  1.00  0.00     0.040 A 
ATOM     69  F   UNL A   1      41.526  22.499  28.753  1.00  0.00    -0.206 F 
ATOM     70  C   UNL A   1      42.743  22.199  25.353  1.00  0.00     0.006 A 
ENDBRANCH  42  63
BRANCH  54  71
ATOM     71  C   UNL A   1      46.642  25.440  32.993  1.00  0.00     0.057 A 
ATOM     72  C   UNL A   1      47.929  25.830  32.603  1.00  0.00     0.134 A 
ATOM     73  C   UNL A   1      46.534  24.446  33.973  1.00  0.00     0.134 A 
ATOM     74  F   UNL A   1      48.099  26.769  31.661  1.00  0.00    -0.206 F 
ATOM     75  C   UNL A   1      49.066  25.244  33.161  1.00  0.00     0.040 A 
ATOM     76  C   UNL A   1      47.663  23.868  34.553  1.00  0.00     0.040 A 
ATOM     77  F   UNL A   1      45.329  24.034  34.397  1.00  0.00    -0.206 F 
ATOM     78  C   UNL A   1      48.936  24.265  34.145  1.00  0.00     0.006 A 
ENDBRANCH  54  71
ENDBRANCH  28  29
ENDBRANCH  21  23
ENDBRANCH  20  21
ENDBRANCH  19  20
ENDBRANCH   1  19
TORSDOF 14
ENDMDL
MODEL 3
REMARK VINA RESULT:      -8.3      2.340      4.270
REMARK SMILES O=C(C[C@@H](Br)C(=O)c1ccc2c(c1)CCC2)OCCOC(=O)c1ccc(-c2c3nc(c(-c4c(F)cccc4F)c4ccc([nH]4)c(-c4c(F)cccc4F)c4nc(c(-c5c(F)cccc5F)c5ccc2[nH]5)C=C4)C=C3)cc1
REMARK SMILES IDX 18 1 17 2 2 3 1 4 3 5 4 6 5 7 6 8 7 9 8 10 9 11 13 12 10 13
REMARK SMILES IDX 12 14 11 15 14 16 16 17 15 18 19 19 20 20 21 21 22 22 23 23
REMARK SMILES IDX 24 24 76 25 25 26 75 27 26 28 27 29 28 30 69 31 29 32 74 33
REMARK SMILES IDX 68 34 70 35 30 36 73 37 67 38 66 39 31 41 57 42 40 43 56 44
REMARK SMILES IDX 41 45 44 46 55 47 71 48 42 49 43 50 54 52 72 53 45 54 32 55
REMARK SMILES IDX 33 56 38 57 34 58 35 59 37 60 39 61 36 62 58 63 59 64 64 65
REMARK SMILES IDX 60 66 61 67 63 68 65 69 62 70 46 71 47 72 52 73 48 74 49 75
REMARK SMILES IDX 51 76 53 77 50 78
REMARK H PARENT 70 40 44 51
REMARK Flexibility Score: inf
ROOT
ATOM      1  C   UNL A   1      41.331  19.687  26.673  1.00  0.00     0.274 C 
ENDROOT
BRANCH   1   2
ATOM      2  O   UNL A   1      42.012  18.919  25.653  1.00  0.00    -0.462 OA
BRANCH   2   3
ATOM      3  C   UNL A   1      43.363  18.789  25.598  1.00  0.00     0.307 C 
ATOM      4  O   UNL A   1      43.956  18.006  26.334  1.00  0.00    -0.252 OA
BRANCH   3   5
ATOM      5  C   UNL A   1      44.109  19.756  24.718  1.00  0.00     0.146 C 
BRANCH   5   6
ATOM      6  C   UNL A   1      44.766  20.905  25.449  1.00  0.00     0.140 C 
ATOM      7  Br  UNL A   1      46.305  21.578  24.442  1.00  0.00    -0.080 Br
BRANCH   6   8
ATOM      8  C   UNL A   1      43.845  22.106  25.689  1.00  0.00     0.177 C 
ATOM      9  O   UNL A   1      43.018  22.459  24.847  1.00  0.00    -0.293 OA
BRANCH   8  10
ATOM     10  C   UNL A   1      43.888  22.864  26.975  1.00  0.00     0.019 A 
ATOM     11  C   UNL A   1      42.814  22.822  27.879  1.00  0.00     0.012 A 
ATOM     12  C   UNL A   1      45.042  23.583  27.304  1.00  0.00     0.015 A 
ATOM     13  C   UNL A   1      42.823  23.554  29.067  1.00  0.00     0.005 A 
ATOM     14  C   UNL A   1      45.064  24.269  28.512  1.00  0.00    -0.044 A 
ATOM     15  C   UNL A   1      43.960  24.268  29.372  1.00  0.00    -0.045 A 
ATOM     16  C   UNL A   1      46.169  25.100  29.089  1.00  0.00     0.036 C 
ATOM     17  C   UNL A   1      44.212  25.111  30.582  1.00  0.00     0.036 C 
ATOM     18  C   UNL A   1      45.744  25.175  30.565  1.00  0.00     0.010 C 
ENDBRANCH   8  10
ENDBRANCH   6   8
ENDBRANCH   5   6
ENDBRANCH   3   5
ENDBRANCH   2   3
ENDBRANCH   1   2
BRANCH   1  19
ATOM     19  C   UNL A   1      40.110  20.440  26.135  1.00  0.00     0.275 C 
BRANCH  19  20
ATOM     20  O   UNL A   1      40.301  21.868  26.171  1.00  0.00    -0.458 OA
BRANCH  20  21
ATOM     21  C   UNL A   1      39.162  22.609  26.226  1.00  0.00     0.338 C 
ATOM     22  O   UNL A   1      38.030  22.226  26.004  1.00  0.00    -0.246 OA
BRANCH  21  23
ATOM     23  C   UNL A   1      39.479  23.953  26.764  1.00  0.00     0.060 A 
ATOM     24  C   UNL A   1      40.220  24.825  25.960  1.00  0.00     0.016 A 
ATOM     25  C   UNL A   1      39.036  24.370  28.022  1.00  0.00     0.016 A 
ATOM     26  C   UNL A   1      40.515  26.114  26.412  1.00  0.00     0.010 A 
ATOM     27  C   UNL A   1      39.295  25.676  28.454  1.00  0.00     0.010 A 
ATOM     28  C   UNL A   1      40.064  26.550  27.666  1.00  0.00    -0.014 A 
BRANCH  28  29
ATOM     29  C   UNL A   1      40.518  27.857  28.213  1.00  0.00     0.031 A 
ATOM     30  C   UNL A   1      41.989  28.183  28.203  1.00  0.00     0.074 A 
ATOM     31  C   UNL A   1      39.644  28.762  28.695  1.00  0.00     0.049 A 
ATOM     32  N   UNL A   1      42.606  29.261  28.617  1.00  0.00    -0.248 NA
ATOM     33  C   UNL A   1      42.887  27.148  27.667  1.00  0.00     0.031 C 
ATOM     34  C   UNL A   1      38.196  28.584  28.785  1.00  0.00     0.029 A 
ATOM     35  N   UNL A   1      39.859  30.020  29.206  1.00  0.00    -0.354 N 
ATOM     36  C   UNL A   1      43.957  29.029  28.401  1.00  0.00     0.074 A 
ATOM     37  C   UNL A   1      44.077  27.691  27.866  1.00  0.00     0.031 C 
ATOM     38  C   UNL A   1      37.651  29.699  29.305  1.00  0.00     0.029 A 
ATOM     39  C   UNL A   1      38.710  30.662  29.602  1.00  0.00     0.049 A 
ATOM     40  H   UNL A   1      40.754  30.424  29.281  1.00  0.00     0.167 HD
ATOM     41  C   UNL A   1      45.008  29.857  28.604  1.00  0.00     0.037 A 
ATOM     42  C   UNL A   1      38.534  31.884  30.141  1.00  0.00     0.037 A 
ATOM     43  C   UNL A   1      44.907  31.200  29.105  1.00  0.00     0.049 A 
ATOM     44  C   UNL A   1      39.720  32.783  30.374  1.00  0.00     0.074 A 
ATOM     45  C   UNL A   1      45.916  32.127  29.299  1.00  0.00     0.029 A 
ATOM     46  N   UNL A   1      43.723  31.809  29.491  1.00  0.00    -0.354 N 
ATOM     47  N   UNL A   1      40.987  32.570  30.112  1.00  0.00    -0.248 NA
ATOM     48  C   UNL A   1      39.448  34.100  30.975  1.00  0.00     0.031 C 
ATOM     49  C   UNL A   1      45.349  33.288  29.832  1.00  0.00     0.029 A 
ATOM     50  C   UNL A   1      43.981  33.095  29.937  1.00  0.00     0.049 A 
ATOM     51  H   UNL A   1      42.833  31.391  29.454  1.00  0.00     0.167 HD
ATOM     52  C   UNL A   1      41.654  33.732  30.484  1.00  0.00     0.074 A 
ATOM     53  C   UNL A   1      40.655  34.649  30.986  1.00  0.00     0.031 C 
ATOM     54  C   UNL A   1      42.979  34.010  30.414  1.00  0.00     0.037 A 
BRANCH  41  55
ATOM     55  C   UNL A   1      46.369  29.326  28.272  1.00  0.00     0.057 A 
ATOM     56  C   UNL A   1      47.148  28.657  29.225  1.00  0.00     0.134 A 
ATOM     57  C   UNL A   1      46.900  29.474  26.986  1.00  0.00     0.134 A 
ATOM     58  F   UNL A   1      46.700  28.501  30.480  1.00  0.00    -0.206 F 
ATOM     59  C   UNL A   1      48.420  28.174  28.916  1.00  0.00     0.040 A 
ATOM     60  C   UNL A   1      48.162  28.975  26.659  1.00  0.00     0.040 A 
ATOM     61  F   UNL A   1      46.204  30.105  26.029  1.00  0.00    -0.206 F 
ATOM     62  C   UNL A   1      48.927  28.329  27.628  1.00  0.00     0.006 A 
ENDBRANCH  41  55
BRANCH  42  63
ATOM     63  C   UNL A   1      37.170  32.357  30.490  1.00  0.00     0.057 A 
ATOM     64  C   UNL A   1      36.434  33.153  29.604  1.00  0.00     0.134 A 
ATOM     65  C   UNL A   1      36.595  32.069  31.731  1.00  0.00     0.134 A 
ATOM     66  F   UNL A   1      36.949  33.489  28.411  1.00  0.00    -0.206 F 
ATOM     67  C   UNL A   1      35.181  33.663  29.948  1.00  0.00     0.040 A 
ATOM     68  C   UNL A   1      35.333  32.554  32.081  1.00  0.00     0.040 A 
ATOM     69  F   UNL A   1      37.256  31.321  32.626  1.00  0.00    -0.206 F 
ATOM     70  C   UNL A   1      34.627  33.360  31.190  1.00  0.00     0.006 A 
ENDBRANCH  42  63
BRANCH  54  71
ATOM     71  C   UNL A   1      43.427  35.374  30.849  1.00  0.00     0.057 A 
ATOM     72  C   UNL A   1      43.816  35.638  32.168  1.00  0.00     0.134 A 
ATOM     73  C   UNL A   1      43.528  36.418  29.922  1.00  0.00     0.134 A 
ATOM     74  F   UNL A   1      43.733  34.683  33.105  1.00  0.00    -0.206 F 
ATOM     75  C   UNL A   1      44.276  36.898  32.552  1.00  0.00     0.040 A 
ATOM     76  C   UNL A   1      44.006  37.676  30.289  1.00  0.00     0.040 A 
ATOM     77  F   UNL A   1      43.180  36.228  28.640  1.00  0.00    -0.206 F 
ATOM     78  C   UNL A   1      44.381  37.920  31.610  1.00  0.00     0.006 A 
ENDBRANCH  54  71
ENDBRANCH  28  29
ENDBRANCH  21  23
ENDBRANCH  20  21
ENDBRANCH  19  20
ENDBRANCH   1  19
TORSDOF 14
ENDMDL
