MODEL 1
REMARK VINA RESULT:     -13.1      0.000      0.000
REMARK SMILES Cc1cnn(C2(C(=O)OCCOC(=O)c3ccc(-c4c5nc(c(-c6c(F)cccc6F)c6ccc([nH]6)c(-c6c(F)cccc6F)c6nc(c(-c7c(F)cccc7F)c7ccc4[nH]7)C=C6)C=C5)cc3)CCN(C(=O)c3cc4ccccc4[nH]3)CC2)c1
REMARK SMILES IDX 11 1 10 2 9 3 7 4 8 5 6 6 69 7 84 8 70 9 83 10 71 11 72 12
REMARK SMILES IDX 73 13 5 14 1 15 2 16 3 17 85 18 4 19 74 20 75 21 82 22 76 23
REMARK SMILES IDX 81 24 77 26 80 27 78 28 79 29 12 30 13 31 14 32 15 33 16 34
REMARK SMILES IDX 68 35 17 36 67 37 18 38 19 39 20 40 61 41 21 42 66 43 60 44
REMARK SMILES IDX 62 45 22 46 65 47 59 48 58 49 23 51 49 52 32 53 48 54 33 55
REMARK SMILES IDX 36 56 47 57 63 58 34 59 35 60 46 62 64 63 37 64 24 65 25 66
REMARK SMILES IDX 30 67 26 68 27 69 29 70 31 71 28 72 50 73 51 74 56 75 52 76
REMARK SMILES IDX 53 77 55 78 57 79 54 80 38 81 39 82 44 83 40 84 41 85 43 86
REMARK SMILES IDX 45 87 42 88
REMARK H PARENT 82 25 62 50 36 61
REMARK Flexibility Score: inf
ROOT
ATOM      1  C   UNL A   1      38.634  23.253  26.061  1.00  0.00     0.275 C 
ENDROOT
BRANCH   1   2
ATOM      2  C   UNL A   1      38.118  21.849  25.754  1.00  0.00     0.274 C 
BRANCH   2   3
ATOM      3  O   UNL A   1      36.680  21.776  25.839  1.00  0.00    -0.460 OA
BRANCH   3   4
ATOM      4  C   UNL A   1      35.974  21.809  24.657  1.00  0.00     0.334 C 
ATOM      5  O   UNL A   1      36.507  22.138  23.605  1.00  0.00    -0.249 OA
BRANCH   4   6
ATOM      6  C   UNL A   1      34.448  21.605  24.905  1.00  0.00     0.163 C 
ATOM      7  C   UNL A   1      34.063  21.862  26.389  1.00  0.00     0.064 C 
ATOM      8  C   UNL A   1      33.860  22.675  23.968  1.00  0.00     0.064 C 
ATOM      9  C   UNL A   1      32.637  22.344  26.627  1.00  0.00     0.123 C 
ATOM     10  C   UNL A   1      32.431  23.064  24.260  1.00  0.00     0.123 C 
ATOM     11  N   UNL A   1      32.217  23.361  25.673  1.00  0.00    -0.337 N 
ATOM     12  C   UNL A   1      31.576  24.512  26.151  1.00  0.00     0.270 C 
ATOM     13  O   UNL A   1      31.579  24.817  27.339  1.00  0.00    -0.267 OA
BRANCH   6  14
ATOM     14  N   UNL A   1      33.976  20.250  24.505  1.00  0.00    -0.255 N 
ATOM     15  C   UNL A   1      34.094  16.601  24.114  1.00  0.00     0.048 C 
ATOM     16  C   UNL A   1      33.827  18.057  24.160  1.00  0.00    -0.013 A 
ATOM     17  C   UNL A   1      32.701  18.753  23.690  1.00  0.00     0.138 A 
ATOM     18  C   UNL A   1      34.635  19.051  24.660  1.00  0.00     0.113 A 
ATOM     19  N   UNL A   1      32.813  20.072  23.849  1.00  0.00    -0.180 NA
ENDBRANCH   6  14
BRANCH  12  20
ATOM     20  C   UNL A   1      30.961  25.372  25.166  1.00  0.00     0.105 A 
ATOM     21  C   UNL A   1      31.510  26.335  24.336  1.00  0.00     0.042 A 
ATOM     22  N   UNL A   1      29.613  25.349  24.898  1.00  0.00    -0.351 N 
ATOM     23  C   UNL A   1      30.442  27.100  23.802  1.00  0.00     0.000 A 
ATOM     24  C   UNL A   1      29.259  26.461  24.170  1.00  0.00     0.046 A 
ATOM     25  H   UNL A   1      28.992  24.640  25.183  1.00  0.00     0.167 HD
ATOM     26  C   UNL A   1      30.375  28.301  23.073  1.00  0.00     0.010 A 
ATOM     27  C   UNL A   1      27.998  26.955  23.824  1.00  0.00     0.026 A 
ATOM     28  C   UNL A   1      29.121  28.826  22.746  1.00  0.00     0.001 A 
ATOM     29  C   UNL A   1      27.952  28.159  23.111  1.00  0.00     0.002 A 
ENDBRANCH  12  20
ENDBRANCH   4   6
ENDBRANCH   3   4
ENDBRANCH   2   3
ENDBRANCH   1   2
BRANCH   1  30
ATOM     30  O   UNL A   1      39.588  23.232  27.126  1.00  0.00    -0.458 OA
BRANCH  30  31
ATOM     31  C   UNL A   1      40.411  24.303  27.118  1.00  0.00     0.338 C 
ATOM     32  O   UNL A   1      41.612  24.303  26.900  1.00  0.00    -0.246 OA
BRANCH  31  33
ATOM     33  C   UNL A   1      39.721  25.515  27.549  1.00  0.00     0.060 A 
ATOM     34  C   UNL A   1      40.111  26.706  26.925  1.00  0.00     0.016 A 
ATOM     35  C   UNL A   1      39.045  25.496  28.771  1.00  0.00     0.016 A 
ATOM     36  C   UNL A   1      40.030  27.881  27.632  1.00  0.00     0.010 A 
ATOM     37  C   UNL A   1      38.962  26.675  29.478  1.00  0.00     0.010 A 
ATOM     38  C   UNL A   1      39.559  27.823  28.941  1.00  0.00    -0.014 A 
BRANCH  38  39
ATOM     39  C   UNL A   1      39.825  28.963  29.802  1.00  0.00     0.031 A 
ATOM     40  C   UNL A   1      38.712  29.930  29.983  1.00  0.00     0.074 A 
ATOM     41  C   UNL A   1      40.975  28.986  30.504  1.00  0.00     0.049 A 
ATOM     42  N   UNL A   1      38.754  31.223  30.022  1.00  0.00    -0.248 NA
ATOM     43  C   UNL A   1      37.354  29.370  30.095  1.00  0.00     0.031 C 
ATOM     44  C   UNL A   1      41.992  27.927  30.596  1.00  0.00     0.029 A 
ATOM     45  N   UNL A   1      41.393  29.887  31.430  1.00  0.00    -0.354 N 
ATOM     46  C   UNL A   1      37.454  31.638  30.305  1.00  0.00     0.074 A 
ATOM     47  C   UNL A   1      36.619  30.467  30.253  1.00  0.00     0.031 C 
ATOM     48  C   UNL A   1      42.726  28.121  31.711  1.00  0.00     0.029 A 
ATOM     49  C   UNL A   1      42.300  29.362  32.335  1.00  0.00     0.049 A 
ATOM     50  H   UNL A   1      41.082  30.821  31.455  1.00  0.00     0.167 HD
ATOM     51  C   UNL A   1      37.151  32.897  30.717  1.00  0.00     0.037 A 
ATOM     52  C   UNL A   1      42.561  29.841  33.574  1.00  0.00     0.037 A 
ATOM     53  C   UNL A   1      38.171  33.844  30.377  1.00  0.00     0.049 A 
ATOM     54  C   UNL A   1      42.052  31.235  33.640  1.00  0.00     0.074 A 
ATOM     55  C   UNL A   1      38.695  34.303  29.186  1.00  0.00     0.029 A 
ATOM     56  N   UNL A   1      39.041  34.263  31.353  1.00  0.00    -0.354 N 
ATOM     57  N   UNL A   1      42.558  32.238  32.976  1.00  0.00    -0.248 NA
ATOM     58  C   UNL A   1      40.690  31.432  34.119  1.00  0.00     0.031 C 
ATOM     59  C   UNL A   1      40.072  34.543  29.453  1.00  0.00     0.029 A 
ATOM     60  C   UNL A   1      40.293  34.225  30.794  1.00  0.00     0.049 A 
ATOM     61  H   UNL A   1      38.811  34.535  32.270  1.00  0.00     0.167 HD
ATOM     62  C   UNL A   1      41.466  33.018  32.615  1.00  0.00     0.074 A 
ATOM     63  C   UNL A   1      40.357  32.521  33.425  1.00  0.00     0.031 C 
ATOM     64  C   UNL A   1      41.480  33.802  31.497  1.00  0.00     0.037 A 
BRANCH  51  65
ATOM     65  C   UNL A   1      36.016  33.217  31.646  1.00  0.00     0.057 A 
ATOM     66  C   UNL A   1      34.988  34.081  31.236  1.00  0.00     0.134 A 
ATOM     67  C   UNL A   1      36.035  32.908  33.022  1.00  0.00     0.134 A 
ATOM     68  F   UNL A   1      34.889  34.474  29.957  1.00  0.00    -0.206 F 
ATOM     69  C   UNL A   1      34.064  34.623  32.137  1.00  0.00     0.040 A 
ATOM     70  C   UNL A   1      35.088  33.402  33.921  1.00  0.00     0.040 A 
ATOM     71  F   UNL A   1      37.022  32.188  33.572  1.00  0.00    -0.206 F 
ATOM     72  C   UNL A   1      34.112  34.284  33.484  1.00  0.00     0.006 A 
ENDBRANCH  51  65
BRANCH  52  73
ATOM     73  C   UNL A   1      42.887  29.031  34.771  1.00  0.00     0.057 A 
ATOM     74  C   UNL A   1      42.101  27.938  35.151  1.00  0.00     0.134 A 
ATOM     75  C   UNL A   1      44.102  29.186  35.468  1.00  0.00     0.134 A 
ATOM     76  F   UNL A   1      40.959  27.667  34.504  1.00  0.00    -0.206 F 
ATOM     77  C   UNL A   1      42.487  27.067  36.180  1.00  0.00     0.040 A 
ATOM     78  C   UNL A   1      44.490  28.337  36.507  1.00  0.00     0.040 A 
ATOM     79  F   UNL A   1      44.995  30.122  35.114  1.00  0.00    -0.206 F 
ATOM     80  C   UNL A   1      43.683  27.268  36.865  1.00  0.00     0.006 A 
ENDBRANCH  52  73
BRANCH  64  81
ATOM     81  C   UNL A   1      42.779  33.970  30.758  1.00  0.00     0.057 A 
ATOM     82  C   UNL A   1      43.196  33.098  29.741  1.00  0.00     0.134 A 
ATOM     83  C   UNL A   1      43.515  35.148  30.919  1.00  0.00     0.134 A 
ATOM     84  F   UNL A   1      42.486  32.006  29.435  1.00  0.00    -0.206 F 
ATOM     85  C   UNL A   1      44.313  33.366  28.946  1.00  0.00     0.040 A 
ATOM     86  C   UNL A   1      44.615  35.445  30.110  1.00  0.00     0.040 A 
ATOM     87  F   UNL A   1      43.134  36.066  31.822  1.00  0.00    -0.206 F 
ATOM     88  C   UNL A   1      45.022  34.549  29.124  1.00  0.00     0.006 A 
ENDBRANCH  64  81
ENDBRANCH  38  39
ENDBRANCH  31  33
ENDBRANCH  30  31
ENDBRANCH   1  30
TORSDOF 13
ENDMDL
MODEL 2
REMARK VINA RESULT:     -13.0      5.203     10.805
REMARK SMILES Cc1cnn(C2(C(=O)OCCOC(=O)c3ccc(-c4c5nc(c(-c6c(F)cccc6F)c6ccc([nH]6)c(-c6c(F)cccc6F)c6nc(c(-c7c(F)cccc7F)c7ccc4[nH]7)C=C6)C=C5)cc3)CCN(C(=O)c3cc4ccccc4[nH]3)CC2)c1
REMARK SMILES IDX 11 1 10 2 9 3 7 4 8 5 6 6 69 7 84 8 70 9 83 10 71 11 72 12
REMARK SMILES IDX 73 13 5 14 1 15 2 16 3 17 85 18 4 19 74 20 75 21 82 22 76 23
REMARK SMILES IDX 81 24 77 26 80 27 78 28 79 29 12 30 13 31 14 32 15 33 16 34
REMARK SMILES IDX 68 35 17 36 67 37 18 38 19 39 20 40 61 41 21 42 66 43 60 44
REMARK SMILES IDX 62 45 22 46 65 47 59 48 58 49 23 51 49 52 32 53 48 54 33 55
REMARK SMILES IDX 36 56 47 57 63 58 34 59 35 60 46 62 64 63 37 64 24 65 25 66
REMARK SMILES IDX 30 67 26 68 27 69 29 70 31 71 28 72 50 73 51 74 56 75 52 76
REMARK SMILES IDX 53 77 55 78 57 79 54 80 38 81 39 82 44 83 40 84 41 85 43 86
REMARK SMILES IDX 45 87 42 88
REMARK H PARENT 82 25 62 50 36 61
REMARK Flexibility Score: inf
ROOT
ATOM      1  C   UNL A   1      38.575  30.520  32.653  1.00  0.00     0.275 C 
ENDROOT
BRANCH   1   2
ATOM      2  C   UNL A   1      37.881  31.376  33.711  1.00  0.00     0.274 C 
BRANCH   2   3
ATOM      3  O   UNL A   1      36.507  31.647  33.363  1.00  0.00    -0.460 OA
BRANCH   3   4
ATOM      4  C   UNL A   1      36.056  32.937  33.530  1.00  0.00     0.334 C 
ATOM      5  O   UNL A   1      35.935  33.431  34.644  1.00  0.00    -0.249 OA
BRANCH   4   6
ATOM      6  C   UNL A   1      35.537  33.532  32.185  1.00  0.00     0.163 C 
ATOM      7  C   UNL A   1      36.705  33.913  31.232  1.00  0.00     0.064 C 
ATOM      8  C   UNL A   1      34.720  32.345  31.643  1.00  0.00     0.064 C 
ATOM      9  C   UNL A   1      36.384  33.859  29.743  1.00  0.00     0.123 C 
ATOM     10  C   UNL A   1      34.423  32.396  30.164  1.00  0.00     0.123 C 
ATOM     11  N   UNL A   1      35.616  32.680  29.371  1.00  0.00    -0.337 N 
ATOM     12  C   UNL A   1      36.013  31.940  28.249  1.00  0.00     0.270 C 
ATOM     13  O   UNL A   1      37.111  32.089  27.723  1.00  0.00    -0.267 OA
BRANCH   6  14
ATOM     14  N   UNL A   1      34.659  34.719  32.382  1.00  0.00    -0.255 N 
ATOM     15  C   UNL A   1      33.801  38.260  32.836  1.00  0.00     0.048 C 
ATOM     16  C   UNL A   1      33.904  36.793  32.668  1.00  0.00    -0.013 A 
ATOM     17  C   UNL A   1      32.869  35.843  32.640  1.00  0.00     0.138 A 
ATOM     18  C   UNL A   1      35.042  36.034  32.519  1.00  0.00     0.113 A 
ATOM     19  N   UNL A   1      33.324  34.595  32.521  1.00  0.00    -0.180 NA
ENDBRANCH   6  14
BRANCH  12  20
ATOM     20  C   UNL A   1      35.094  30.933  27.773  1.00  0.00     0.105 A 
ATOM     21  C   UNL A   1      35.238  29.561  27.646  1.00  0.00     0.042 A 
ATOM     22  N   UNL A   1      33.825  31.232  27.336  1.00  0.00    -0.351 N 
ATOM     23  C   UNL A   1      34.171  29.090  26.840  1.00  0.00     0.000 A 
ATOM     24  C   UNL A   1      33.295  30.159  26.658  1.00  0.00     0.046 A 
ATOM     25  H   UNL A   1      33.363  32.088  27.488  1.00  0.00     0.167 HD
ATOM     26  C   UNL A   1      33.891  27.861  26.217  1.00  0.00     0.010 A 
ATOM     27  C   UNL A   1      32.130  30.055  25.893  1.00  0.00     0.026 A 
ATOM     28  C   UNL A   1      32.747  27.748  25.422  1.00  0.00     0.001 A 
ATOM     29  C   UNL A   1      31.878  28.828  25.269  1.00  0.00     0.002 A 
ENDBRANCH  12  20
ENDBRANCH   4   6
ENDBRANCH   3   4
ENDBRANCH   2   3
ENDBRANCH   1   2
BRANCH   1  30
ATOM     30  O   UNL A   1      38.152  30.882  31.336  1.00  0.00    -0.458 OA
BRANCH  30  31
ATOM     31  C   UNL A   1      37.549  29.868  30.678  1.00  0.00     0.338 C 
ATOM     32  O   UNL A   1      36.476  29.354  30.949  1.00  0.00    -0.246 OA
BRANCH  31  33
ATOM     33  C   UNL A   1      38.407  29.322  29.631  1.00  0.00     0.060 A 
ATOM     34  C   UNL A   1      38.343  27.936  29.438  1.00  0.00     0.016 A 
ATOM     35  C   UNL A   1      39.483  30.091  29.183  1.00  0.00     0.016 A 
ATOM     36  C   UNL A   1      39.465  27.277  28.997  1.00  0.00     0.010 A 
ATOM     37  C   UNL A   1      40.606  29.430  28.740  1.00  0.00     0.010 A 
ATOM     38  C   UNL A   1      40.613  28.028  28.763  1.00  0.00    -0.014 A 
BRANCH  38  39
ATOM     39  C   UNL A   1      41.875  27.316  28.672  1.00  0.00     0.031 A 
ATOM     40  C   UNL A   1      42.818  27.489  29.807  1.00  0.00     0.074 A 
ATOM     41  C   UNL A   1      42.043  26.427  27.672  1.00  0.00     0.049 A 
ATOM     42  N   UNL A   1      44.103  27.638  29.784  1.00  0.00    -0.248 NA
ATOM     43  C   UNL A   1      42.231  27.543  31.157  1.00  0.00     0.031 C 
ATOM     44  C   UNL A   1      41.047  25.993  26.681  1.00  0.00     0.029 A 
ATOM     45  N   UNL A   1      43.085  25.587  27.441  1.00  0.00    -0.354 N 
ATOM     46  C   UNL A   1      44.508  27.663  31.118  1.00  0.00     0.074 A 
ATOM     47  C   UNL A   1      43.312  27.690  31.918  1.00  0.00     0.031 C 
ATOM     48  C   UNL A   1      41.429  24.804  26.169  1.00  0.00     0.029 A 
ATOM     49  C   UNL A   1      42.731  24.463  26.714  1.00  0.00     0.049 A 
ATOM     50  H   UNL A   1      44.001  25.760  27.760  1.00  0.00     0.167 HD
ATOM     51  C   UNL A   1      45.802  27.508  31.503  1.00  0.00     0.037 A 
ATOM     52  C   UNL A   1      43.396  23.284  26.692  1.00  0.00     0.037 A 
ATOM     53  C   UNL A   1      46.725  27.795  30.445  1.00  0.00     0.049 A 
ATOM     54  C   UNL A   1      44.765  23.523  27.216  1.00  0.00     0.074 A 
ATOM     55  C   UNL A   1      47.023  28.926  29.713  1.00  0.00     0.029 A 
ATOM     56  N   UNL A   1      47.314  26.751  29.775  1.00  0.00    -0.354 N 
ATOM     57  N   UNL A   1      45.678  24.227  26.604  1.00  0.00    -0.248 NA
ATOM     58  C   UNL A   1      44.980  23.335  28.645  1.00  0.00     0.031 C 
ATOM     59  C   UNL A   1      47.349  28.451  28.412  1.00  0.00     0.029 A 
ATOM     60  C   UNL A   1      47.240  27.060  28.441  1.00  0.00     0.049 A 
ATOM     61  H   UNL A   1      47.709  25.943  30.174  1.00  0.00     0.167 HD
ATOM     62  C   UNL A   1      46.357  24.895  27.616  1.00  0.00     0.074 A 
ATOM     63  C   UNL A   1      45.944  24.235  28.852  1.00  0.00     0.031 C 
ATOM     64  C   UNL A   1      46.968  26.097  27.401  1.00  0.00     0.037 A 
BRANCH  51  65
ATOM     65  C   UNL A   1      46.213  26.860  32.793  1.00  0.00     0.057 A 
ATOM     66  C   UNL A   1      45.920  25.509  33.031  1.00  0.00     0.134 A 
ATOM     67  C   UNL A   1      46.661  27.591  33.913  1.00  0.00     0.134 A 
ATOM     68  F   UNL A   1      45.453  24.722  32.049  1.00  0.00    -0.206 F 
ATOM     69  C   UNL A   1      46.033  24.932  34.302  1.00  0.00     0.040 A 
ATOM     70  C   UNL A   1      46.826  27.013  35.174  1.00  0.00     0.040 A 
ATOM     71  F   UNL A   1      46.870  28.913  33.860  1.00  0.00    -0.206 F 
ATOM     72  C   UNL A   1      46.488  25.685  35.378  1.00  0.00     0.006 A 
ENDBRANCH  51  65
BRANCH  52  73
ATOM     73  C   UNL A   1      42.782  21.939  26.588  1.00  0.00     0.057 A 
ATOM     74  C   UNL A   1      43.309  20.959  25.741  1.00  0.00     0.134 A 
ATOM     75  C   UNL A   1      41.772  21.510  27.472  1.00  0.00     0.134 A 
ATOM     76  F   UNL A   1      44.320  21.252  24.910  1.00  0.00    -0.206 F 
ATOM     77  C   UNL A   1      42.842  19.636  25.754  1.00  0.00     0.040 A 
ATOM     78  C   UNL A   1      41.284  20.201  27.482  1.00  0.00     0.040 A 
ATOM     79  F   UNL A   1      41.275  22.327  28.413  1.00  0.00    -0.206 F 
ATOM     80  C   UNL A   1      41.823  19.256  26.623  1.00  0.00     0.006 A 
ENDBRANCH  52  73
BRANCH  64  81
ATOM     81  C   UNL A   1      47.073  26.603  25.989  1.00  0.00     0.057 A 
ATOM     82  C   UNL A   1      46.111  27.443  25.408  1.00  0.00     0.134 A 
ATOM     83  C   UNL A   1      48.265  26.423  25.281  1.00  0.00     0.134 A 
ATOM     84  F   UNL A   1      44.992  27.768  26.063  1.00  0.00    -0.206 F 
ATOM     85  C   UNL A   1      46.309  28.046  24.163  1.00  0.00     0.040 A 
ATOM     86  C   UNL A   1      48.490  27.046  24.050  1.00  0.00     0.040 A 
ATOM     87  F   UNL A   1      49.261  25.692  25.807  1.00  0.00    -0.206 F 
ATOM     88  C   UNL A   1      47.508  27.854  23.483  1.00  0.00     0.006 A 
ENDBRANCH  64  81
ENDBRANCH  38  39
ENDBRANCH  31  33
ENDBRANCH  30  31
ENDBRANCH   1  30
TORSDOF 13
ENDMDL
MODEL 3
REMARK VINA RESULT:     -13.0      3.287      8.092
REMARK SMILES Cc1cnn(C2(C(=O)OCCOC(=O)c3ccc(-c4c5nc(c(-c6c(F)cccc6F)c6ccc([nH]6)c(-c6c(F)cccc6F)c6nc(c(-c7c(F)cccc7F)c7ccc4[nH]7)C=C6)C=C5)cc3)CCN(C(=O)c3cc4ccccc4[nH]3)CC2)c1
REMARK SMILES IDX 11 1 10 2 9 3 7 4 8 5 6 6 69 7 84 8 70 9 83 10 71 11 72 12
REMARK SMILES IDX 73 13 5 14 1 15 2 16 3 17 85 18 4 19 74 20 75 21 82 22 76 23
REMARK SMILES IDX 81 24 77 26 80 27 78 28 79 29 12 30 13 31 14 32 15 33 16 34
REMARK SMILES IDX 68 35 17 36 67 37 18 38 19 39 20 40 61 41 21 42 66 43 60 44
REMARK SMILES IDX 62 45 22 46 65 47 59 48 58 49 23 51 49 52 32 53 48 54 33 55
REMARK SMILES IDX 36 56 47 57 63 58 34 59 35 60 46 62 64 63 37 64 24 65 25 66
REMARK SMILES IDX 30 67 26 68 27 69 29 70 31 71 28 72 50 73 51 74 56 75 52 76
REMARK SMILES IDX 53 77 55 78 57 79 54 80 38 81 39 82 44 83 40 84 41 85 43 86
REMARK SMILES IDX 45 87 42 88
REMARK H PARENT 82 25 62 50 36 61
REMARK Flexibility Score: inf
ROOT
ATOM      1  C   UNL A   1      33.746  30.887  27.108  1.00  0.00     0.275 C 
ENDROOT
BRANCH   1   2
ATOM      2  C   UNL A   1      32.503  30.001  27.156  1.00  0.00     0.274 C 
BRANCH   2   3
ATOM      3  O   UNL A   1      32.827  28.612  26.941  1.00  0.00    -0.460 OA
BRANCH   3   4
ATOM      4  C   UNL A   1      31.778  27.741  26.751  1.00  0.00     0.334 C 
ATOM      5  O   UNL A   1      31.020  27.444  27.666  1.00  0.00    -0.249 OA
BRANCH   4   6
ATOM      6  C   UNL A   1      31.854  27.064  25.347  1.00  0.00     0.163 C 
ATOM      7  C   UNL A   1      33.295  27.099  24.765  1.00  0.00     0.064 C 
ATOM      8  C   UNL A   1      31.412  25.631  25.696  1.00  0.00     0.064 C 
ATOM      9  C   UNL A   1      33.647  25.967  23.807  1.00  0.00     0.123 C 
ATOM     10  C   UNL A   1      31.775  24.584  24.670  1.00  0.00     0.123 C 
ATOM     11  N   UNL A   1      33.176  24.669  24.267  1.00  0.00    -0.337 N 
ATOM     12  C   UNL A   1      34.054  23.578  24.226  1.00  0.00     0.270 C 
ATOM     13  O   UNL A   1      35.262  23.716  24.063  1.00  0.00    -0.267 OA
BRANCH   6  14
ATOM     14  N   UNL A   1      30.915  27.672  24.364  1.00  0.00    -0.255 N 
ATOM     15  C   UNL A   1      29.656  30.155  21.970  1.00  0.00     0.048 C 
ATOM     16  C   UNL A   1      29.956  29.031  22.886  1.00  0.00    -0.013 A 
ATOM     17  C   UNL A   1      29.187  27.883  23.139  1.00  0.00     0.138 A 
ATOM     18  C   UNL A   1      31.050  28.872  23.704  1.00  0.00     0.113 A 
ATOM     19  N   UNL A   1      29.735  27.094  24.063  1.00  0.00    -0.180 NA
ENDBRANCH   6  14
BRANCH  12  20
ATOM     20  C   UNL A   1      33.482  22.272  24.455  1.00  0.00     0.105 A 
ATOM     21  C   UNL A   1      33.400  21.507  25.607  1.00  0.00     0.042 A 
ATOM     22  N   UNL A   1      32.884  21.537  23.458  1.00  0.00    -0.351 N 
ATOM     23  C   UNL A   1      33.037  20.191  25.225  1.00  0.00     0.000 A 
ATOM     24  C   UNL A   1      32.717  20.235  23.869  1.00  0.00     0.046 A 
ATOM     25  H   UNL A   1      32.614  21.891  22.580  1.00  0.00     0.167 HD
ATOM     26  C   UNL A   1      32.989  18.960  25.901  1.00  0.00     0.010 A 
ATOM     27  C   UNL A   1      32.327  19.101  23.151  1.00  0.00     0.026 A 
ATOM     28  C   UNL A   1      32.632  17.809  25.191  1.00  0.00     0.001 A 
ATOM     29  C   UNL A   1      32.300  17.882  23.839  1.00  0.00     0.002 A 
ENDBRANCH  12  20
ENDBRANCH   4   6
ENDBRANCH   3   4
ENDBRANCH   2   3
ENDBRANCH   1   2
BRANCH   1  30
ATOM     30  O   UNL A   1      34.795  30.349  27.919  1.00  0.00    -0.458 OA
BRANCH  30  31
ATOM     31  C   UNL A   1      35.749  31.258  28.218  1.00  0.00     0.338 C 
ATOM     32  O   UNL A   1      35.936  32.331  27.670  1.00  0.00    -0.246 OA
BRANCH  31  33
ATOM     33  C   UNL A   1      36.674  30.753  29.228  1.00  0.00     0.060 A 
ATOM     34  C   UNL A   1      37.809  31.535  29.475  1.00  0.00     0.016 A 
ATOM     35  C   UNL A   1      36.604  29.403  29.579  1.00  0.00     0.016 A 
ATOM     36  C   UNL A   1      38.969  30.912  29.869  1.00  0.00     0.010 A 
ATOM     37  C   UNL A   1      37.766  28.780  29.975  1.00  0.00     0.010 A 
ATOM     38  C   UNL A   1      38.952  29.526  30.002  1.00  0.00    -0.014 A 
BRANCH  38  39
ATOM     39  C   UNL A   1      40.231  28.840  30.040  1.00  0.00     0.031 A 
ATOM     40  C   UNL A   1      40.861  28.683  31.377  1.00  0.00     0.074 A 
ATOM     41  C   UNL A   1      40.678  28.248  28.914  1.00  0.00     0.049 A 
ATOM     42  N   UNL A   1      42.104  28.808  31.711  1.00  0.00    -0.248 NA
ATOM     43  C   UNL A   1      39.962  28.386  32.506  1.00  0.00     0.031 C 
ATOM     44  C   UNL A   1      39.974  28.114  27.630  1.00  0.00     0.029 A 
ATOM     45  N   UNL A   1      41.784  27.480  28.734  1.00  0.00    -0.354 N 
ATOM     46  C   UNL A   1      42.172  28.467  33.061  1.00  0.00     0.074 A 
ATOM     47  C   UNL A   1      40.818  28.302  33.520  1.00  0.00     0.031 C 
ATOM     48  C   UNL A   1      40.525  27.099  26.933  1.00  0.00     0.029 A 
ATOM     49  C   UNL A   1      41.671  26.599  27.672  1.00  0.00     0.049 A 
ATOM     50  H   UNL A   1      42.586  27.543  29.303  1.00  0.00     0.167 HD
ATOM     51  C   UNL A   1      43.340  28.189  33.698  1.00  0.00     0.037 A 
ATOM     52  C   UNL A   1      42.377  25.455  27.504  1.00  0.00     0.037 A 
ATOM     53  C   UNL A   1      44.477  28.730  33.015  1.00  0.00     0.049 A 
ATOM     54  C   UNL A   1      43.565  25.518  28.393  1.00  0.00     0.074 A 
ATOM     55  C   UNL A   1      44.890  30.010  32.705  1.00  0.00     0.029 A 
ATOM     56  N   UNL A   1      45.260  27.892  32.260  1.00  0.00    -0.354 N 
ATOM     57  N   UNL A   1      44.564  26.343  28.233  1.00  0.00    -0.248 NA
ATOM     58  C   UNL A   1      43.436  24.951  29.729  1.00  0.00     0.031 C 
ATOM     59  C   UNL A   1      45.545  29.895  31.446  1.00  0.00     0.029 A 
ATOM     60  C   UNL A   1      45.498  28.549  31.080  1.00  0.00     0.049 A 
ATOM     61  H   UNL A   1      45.585  27.000  32.516  1.00  0.00     0.167 HD
ATOM     62  C   UNL A   1      44.945  26.702  29.521  1.00  0.00     0.074 A 
ATOM     63  C   UNL A   1      44.276  25.743  30.397  1.00  0.00     0.031 C 
ATOM     64  C   UNL A   1      45.532  27.905  29.788  1.00  0.00     0.037 A 
BRANCH  51  65
ATOM     65  C   UNL A   1      43.457  27.212  34.832  1.00  0.00     0.057 A 
ATOM     66  C   UNL A   1      43.537  25.835  34.573  1.00  0.00     0.134 A 
ATOM     67  C   UNL A   1      43.233  27.564  36.179  1.00  0.00     0.134 A 
ATOM     68  F   UNL A   1      43.712  25.378  33.323  1.00  0.00    -0.206 F 
ATOM     69  C   UNL A   1      43.374  24.875  35.579  1.00  0.00     0.040 A 
ATOM     70  C   UNL A   1      43.121  26.616  37.198  1.00  0.00     0.040 A 
ATOM     71  F   UNL A   1      43.024  28.833  36.554  1.00  0.00    -0.206 F 
ATOM     72  C   UNL A   1      43.166  25.265  36.896  1.00  0.00     0.006 A 
ENDBRANCH  51  65
BRANCH  52  73
ATOM     73  C   UNL A   1      41.871  24.200  26.900  1.00  0.00     0.057 A 
ATOM     74  C   UNL A   1      42.670  23.421  26.057  1.00  0.00     0.134 A 
ATOM     75  C   UNL A   1      40.648  23.622  27.295  1.00  0.00     0.134 A 
ATOM     76  F   UNL A   1      43.881  23.854  25.679  1.00  0.00    -0.206 F 
ATOM     77  C   UNL A   1      42.266  22.154  25.613  1.00  0.00     0.040 A 
ATOM     78  C   UNL A   1      40.224  22.370  26.845  1.00  0.00     0.040 A 
ATOM     79  F   UNL A   1      39.853  24.220  28.195  1.00  0.00    -0.206 F 
ATOM     80  C   UNL A   1      41.037  21.627  26.003  1.00  0.00     0.006 A 
ENDBRANCH  52  73
BRANCH  64  81
ATOM     81  C   UNL A   1      45.952  28.768  28.631  1.00  0.00     0.057 A 
ATOM     82  C   UNL A   1      45.094  29.696  28.022  1.00  0.00     0.134 A 
ATOM     83  C   UNL A   1      47.302  28.825  28.269  1.00  0.00     0.134 A 
ATOM     84  F   UNL A   1      43.812  29.796  28.391  1.00  0.00    -0.206 F 
ATOM     85  C   UNL A   1      45.548  30.612  27.070  1.00  0.00     0.040 A 
ATOM     86  C   UNL A   1      47.776  29.757  27.342  1.00  0.00     0.040 A 
ATOM     87  F   UNL A   1      48.195  28.018  28.863  1.00  0.00    -0.206 F 
ATOM     88  C   UNL A   1      46.897  30.650  26.734  1.00  0.00     0.006 A 
ENDBRANCH  64  81
ENDBRANCH  38  39
ENDBRANCH  31  33
ENDBRANCH  30  31
ENDBRANCH   1  30
TORSDOF 13
ENDMDL
