MODEL 1
REMARK VINA RESULT:      -9.6      0.000      0.000
REMARK SMILES Cc1ccc(S(=O)(=O)N2CCN(C(=O)[C@H]3CCCC[C@@H]3C(=O)OCCOC(=O)c3ccc(-c4c5nc(c(-c6c(F)cccc6F)c6ccc([nH]6)c(-c6c(F)cccc6F)c6nc(c(-c7c(F)cccc7F)c7ccc4[nH]7)C=C6)C=C5)cc3)CC2)cc1C
REMARK SMILES IDX 24 1 23 2 21 3 22 4 20 5 15 6 16 7 17 8 19 9 18 10 13 11
REMARK SMILES IDX 9 12 10 13 84 14 11 15 83 16 12 17 14 18 6 19 7 20 8 21 5 22
REMARK SMILES IDX 1 23 2 24 3 25 86 26 4 27 85 28 87 29 25 30 26 31 27 32
REMARK SMILES IDX 28 33 29 34 30 35 82 36 31 37 81 38 32 39 33 40 34 41 75 42
REMARK SMILES IDX 35 43 80 44 74 45 76 46 36 47 79 48 73 49 72 50 37 52 63 53
REMARK SMILES IDX 46 54 62 55 47 56 50 57 61 58 77 59 48 60 49 61 60 63 78 64
REMARK SMILES IDX 51 65 38 66 39 67 44 68 40 69 41 70 43 71 45 72 42 73 64 74
REMARK SMILES IDX 65 75 70 76 66 77 67 78 69 79 71 80 68 81 52 82 53 83 58 84
REMARK SMILES IDX 54 85 55 86 57 87 59 88 56 89
REMARK H PARENT 76 51 50 62
REMARK Flexibility Score: inf
ROOT
ATOM      1  C   UNL A   1      41.914  19.256  26.373  1.00  0.00     0.274 C 
ENDROOT
BRANCH   1   2
ATOM      2  O   UNL A   1      42.877  20.326  26.457  1.00  0.00    -0.462 OA
BRANCH   2   3
ATOM      3  C   UNL A   1      43.858  20.320  25.511  1.00  0.00     0.309 C 
ATOM      4  O   UNL A   1      43.909  19.542  24.566  1.00  0.00    -0.252 OA
BRANCH   3   5
ATOM      5  C   UNL A   1      44.891  21.409  25.781  1.00  0.00     0.111 C 
ATOM      6  C   UNL A   1      44.269  22.618  26.540  1.00  0.00     0.093 C 
ATOM      7  C   UNL A   1      43.378  23.480  25.630  1.00  0.00     0.014 C 
ATOM      8  C   UNL A   1      44.048  23.856  24.316  1.00  0.00     0.001 C 
ATOM      9  C   UNL A   1      45.540  21.824  24.454  1.00  0.00     0.016 C 
ATOM     10  C   UNL A   1      44.592  22.640  23.580  1.00  0.00     0.001 C 
BRANCH   6  11
ATOM     11  C   UNL A   1      45.352  23.462  27.229  1.00  0.00     0.226 C 
ATOM     12  N   UNL A   1      44.784  24.806  31.215  1.00  0.00    -0.194 NA
ATOM     13  C   UNL A   1      45.581  25.564  30.233  1.00  0.00     0.124 C 
ATOM     14  C   UNL A   1      43.785  23.874  30.656  1.00  0.00     0.124 C 
ATOM     15  C   UNL A   1      46.215  24.617  29.211  1.00  0.00     0.136 C 
ATOM     16  C   UNL A   1      44.363  23.001  29.527  1.00  0.00     0.136 C 
ATOM     17  N   UNL A   1      45.221  23.733  28.584  1.00  0.00    -0.340 N 
ATOM     18  O   UNL A   1      46.311  23.895  26.588  1.00  0.00    -0.275 OA
BRANCH  12  19
ATOM     19  S   UNL A   1      45.089  24.910  32.862  1.00  0.00     0.243 S 
ATOM     20  O   UNL A   1      46.393  25.493  33.053  1.00  0.00    -0.207 OA
ATOM     21  O   UNL A   1      44.741  23.619  33.433  1.00  0.00    -0.207 OA
BRANCH  19  22
ATOM     22  C   UNL A   1      43.896  26.078  33.479  1.00  0.00     0.082 A 
ATOM     23  C   UNL A   1      41.179  29.030  35.049  1.00  0.00     0.044 C 
ATOM     24  C   UNL A   1      42.104  28.004  34.460  1.00  0.00    -0.048 A 
ATOM     25  C   UNL A   1      42.547  26.954  35.275  1.00  0.00     0.005 A 
ATOM     26  C   UNL A   1      42.527  28.057  33.116  1.00  0.00    -0.047 A 
ATOM     27  C   UNL A   1      43.413  25.985  34.778  1.00  0.00     0.022 A 
ATOM     28  C   UNL A   1      43.449  27.104  32.645  1.00  0.00     0.025 A 
ATOM     29  C   UNL A   1      42.000  29.070  32.136  1.00  0.00     0.044 C 
ENDBRANCH  19  22
ENDBRANCH  12  19
ENDBRANCH   6  11
ENDBRANCH   3   5
ENDBRANCH   2   3
ENDBRANCH   1   2
BRANCH   1  30
ATOM     30  C   UNL A   1      40.491  19.794  26.234  1.00  0.00     0.275 C 
BRANCH  30  31
ATOM     31  O   UNL A   1      40.369  21.039  26.942  1.00  0.00    -0.458 OA
BRANCH  31  32
ATOM     32  C   UNL A   1      39.514  21.944  26.412  1.00  0.00     0.338 C 
ATOM     33  O   UNL A   1      38.543  21.737  25.706  1.00  0.00    -0.246 OA
BRANCH  32  34
ATOM     34  C   UNL A   1      39.901  23.288  26.871  1.00  0.00     0.060 A 
ATOM     35  C   UNL A   1      39.520  24.386  26.107  1.00  0.00     0.016 A 
ATOM     36  C   UNL A   1      40.717  23.465  27.985  1.00  0.00     0.016 A 
ATOM     37  C   UNL A   1      39.970  25.662  26.423  1.00  0.00     0.010 A 
ATOM     38  C   UNL A   1      41.106  24.761  28.351  1.00  0.00     0.010 A 
ATOM     39  C   UNL A   1      40.747  25.874  27.567  1.00  0.00    -0.014 A 
BRANCH  39  40
ATOM     40  C   UNL A   1      41.184  27.251  27.930  1.00  0.00     0.031 A 
ATOM     41  C   UNL A   1      42.628  27.649  27.789  1.00  0.00     0.074 A 
ATOM     42  C   UNL A   1      40.294  28.152  28.394  1.00  0.00     0.049 A 
ATOM     43  N   UNL A   1      43.246  28.702  28.258  1.00  0.00    -0.248 NA
ATOM     44  C   UNL A   1      43.490  26.733  27.030  1.00  0.00     0.031 C 
ATOM     45  C   UNL A   1      38.853  27.925  28.537  1.00  0.00     0.029 A 
ATOM     46  N   UNL A   1      40.471  29.438  28.844  1.00  0.00    -0.354 N 
ATOM     47  C   UNL A   1      44.582  28.543  27.914  1.00  0.00     0.074 A 
ATOM     48  C   UNL A   1      44.681  27.297  27.183  1.00  0.00     0.031 C 
ATOM     49  C   UNL A   1      38.280  29.033  29.029  1.00  0.00     0.029 A 
ATOM     50  C   UNL A   1      39.320  30.009  29.332  1.00  0.00     0.049 A 
ATOM     51  H   UNL A   1      41.337  29.904  28.820  1.00  0.00     0.167 HD
ATOM     52  C   UNL A   1      45.628  29.357  28.194  1.00  0.00     0.037 A 
ATOM     53  C   UNL A   1      39.124  31.150  30.021  1.00  0.00     0.037 A 
ATOM     54  C   UNL A   1      45.510  30.627  28.864  1.00  0.00     0.049 A 
ATOM     55  C   UNL A   1      40.301  32.014  30.364  1.00  0.00     0.074 A 
ATOM     56  C   UNL A   1      46.499  31.560  29.125  1.00  0.00     0.029 A 
ATOM     57  N   UNL A   1      44.329  31.145  29.374  1.00  0.00    -0.354 N 
ATOM     58  N   UNL A   1      41.565  31.838  30.067  1.00  0.00    -0.248 NA
ATOM     59  C   UNL A   1      40.030  33.216  31.164  1.00  0.00     0.031 C 
ATOM     60  C   UNL A   1      45.924  32.618  29.840  1.00  0.00     0.029 A 
ATOM     61  C   UNL A   1      44.571  32.364  29.987  1.00  0.00     0.049 A 
ATOM     62  H   UNL A   1      43.447  30.711  29.310  1.00  0.00     0.167 HD
ATOM     63  C   UNL A   1      42.242  32.902  30.647  1.00  0.00     0.074 A 
ATOM     64  C   UNL A   1      41.245  33.732  31.292  1.00  0.00     0.031 C 
ATOM     65  C   UNL A   1      43.571  33.164  30.648  1.00  0.00     0.037 A 
BRANCH  52  66
ATOM     66  C   UNL A   1      47.002  28.881  27.814  1.00  0.00     0.057 A 
ATOM     67  C   UNL A   1      47.499  28.996  26.511  1.00  0.00     0.134 A 
ATOM     68  C   UNL A   1      47.850  28.321  28.777  1.00  0.00     0.134 A 
ATOM     69  F   UNL A   1      46.732  29.508  25.541  1.00  0.00    -0.206 F 
ATOM     70  C   UNL A   1      48.775  28.544  26.169  1.00  0.00     0.040 A 
ATOM     71  C   UNL A   1      49.139  27.889  28.455  1.00  0.00     0.040 A 
ATOM     72  F   UNL A   1      47.444  28.188  30.049  1.00  0.00    -0.206 F 
ATOM     73  C   UNL A   1      49.602  27.993  27.146  1.00  0.00     0.006 A 
ENDBRANCH  52  66
BRANCH  53  74
ATOM     74  C   UNL A   1      37.761  31.479  30.509  1.00  0.00     0.057 A 
ATOM     75  C   UNL A   1      37.319  31.070  31.770  1.00  0.00     0.134 A 
ATOM     76  C   UNL A   1      36.882  32.250  29.735  1.00  0.00     0.134 A 
ATOM     77  F   UNL A   1      38.103  30.308  32.545  1.00  0.00    -0.206 F 
ATOM     78  C   UNL A   1      36.055  31.421  32.249  1.00  0.00     0.040 A 
ATOM     79  C   UNL A   1      35.627  32.632  30.213  1.00  0.00     0.040 A 
ATOM     80  F   UNL A   1      37.247  32.675  28.517  1.00  0.00    -0.206 F 
ATOM     81  C   UNL A   1      35.211  32.216  31.474  1.00  0.00     0.006 A 
ENDBRANCH  53  74
BRANCH  65  82
ATOM     82  C   UNL A   1      44.024  34.392  31.381  1.00  0.00     0.057 A 
ATOM     83  C   UNL A   1      44.026  35.651  30.766  1.00  0.00     0.134 A 
ATOM     84  C   UNL A   1      44.426  34.323  32.720  1.00  0.00     0.134 A 
ATOM     85  F   UNL A   1      43.667  35.780  29.480  1.00  0.00    -0.206 F 
ATOM     86  C   UNL A   1      44.426  36.797  31.455  1.00  0.00     0.040 A 
ATOM     87  C   UNL A   1      44.808  35.466  33.425  1.00  0.00     0.040 A 
ATOM     88  F   UNL A   1      44.441  33.149  33.368  1.00  0.00    -0.206 F 
ATOM     89  C   UNL A   1      44.813  36.707  32.791  1.00  0.00     0.006 A 
ENDBRANCH  65  82
ENDBRANCH  39  40
ENDBRANCH  32  34
ENDBRANCH  31  32
ENDBRANCH  30  31
ENDBRANCH   1  30
TORSDOF 14
ENDMDL
MODEL 2
REMARK VINA RESULT:      -9.6      4.705      8.397
REMARK SMILES Cc1ccc(S(=O)(=O)N2CCN(C(=O)[C@H]3CCCC[C@@H]3C(=O)OCCOC(=O)c3ccc(-c4c5nc(c(-c6c(F)cccc6F)c6ccc([nH]6)c(-c6c(F)cccc6F)c6nc(c(-c7c(F)cccc7F)c7ccc4[nH]7)C=C6)C=C5)cc3)CC2)cc1C
REMARK SMILES IDX 24 1 23 2 21 3 22 4 20 5 15 6 16 7 17 8 19 9 18 10 13 11
REMARK SMILES IDX 9 12 10 13 84 14 11 15 83 16 12 17 14 18 6 19 7 20 8 21 5 22
REMARK SMILES IDX 1 23 2 24 3 25 86 26 4 27 85 28 87 29 25 30 26 31 27 32
REMARK SMILES IDX 28 33 29 34 30 35 82 36 31 37 81 38 32 39 33 40 34 41 75 42
REMARK SMILES IDX 35 43 80 44 74 45 76 46 36 47 79 48 73 49 72 50 37 52 63 53
REMARK SMILES IDX 46 54 62 55 47 56 50 57 61 58 77 59 48 60 49 61 60 63 78 64
REMARK SMILES IDX 51 65 38 66 39 67 44 68 40 69 41 70 43 71 45 72 42 73 64 74
REMARK SMILES IDX 65 75 70 76 66 77 67 78 69 79 71 80 68 81 52 82 53 83 58 84
REMARK SMILES IDX 54 85 55 86 57 87 59 88 56 89
REMARK H PARENT 76 51 50 62
REMARK Flexibility Score: inf
ROOT
ATOM      1  C   UNL A   1      40.644  20.891  26.650  1.00  0.00     0.274 C 
ENDROOT
BRANCH   1   2
ATOM      2  O   UNL A   1      39.541  21.030  25.731  1.00  0.00    -0.462 OA
BRANCH   2   3
ATOM      3  C   UNL A   1      38.712  22.090  25.951  1.00  0.00     0.309 C 
ATOM      4  O   UNL A   1      38.766  22.824  26.929  1.00  0.00    -0.252 OA
BRANCH   3   5
ATOM      5  C   UNL A   1      37.703  22.244  24.818  1.00  0.00     0.111 C 
ATOM      6  C   UNL A   1      36.361  22.854  25.321  1.00  0.00     0.093 C 
ATOM      7  C   UNL A   1      35.528  21.843  26.126  1.00  0.00     0.014 C 
ATOM      8  C   UNL A   1      35.370  20.502  25.425  1.00  0.00     0.001 C 
ATOM      9  C   UNL A   1      37.505  20.885  24.134  1.00  0.00     0.016 C 
ATOM     10  C   UNL A   1      36.708  19.914  25.001  1.00  0.00     0.001 C 
BRANCH   6  11
ATOM     11  C   UNL A   1      35.551  23.454  24.161  1.00  0.00     0.226 C 
ATOM     12  N   UNL A   1      31.465  24.459  24.718  1.00  0.00    -0.194 NA
ATOM     13  C   UNL A   1      32.002  24.036  23.411  1.00  0.00     0.124 C 
ATOM     14  C   UNL A   1      32.234  24.031  25.902  1.00  0.00     0.124 C 
ATOM     15  C   UNL A   1      33.478  24.425  23.287  1.00  0.00     0.136 C 
ATOM     16  C   UNL A   1      33.745  24.288  25.747  1.00  0.00     0.136 C 
ATOM     17  N   UNL A   1      34.276  23.938  24.421  1.00  0.00    -0.340 N 
ATOM     18  O   UNL A   1      36.023  23.494  23.024  1.00  0.00    -0.275 OA
BRANCH  12  19
ATOM     19  S   UNL A   1      30.131  25.471  24.833  1.00  0.00     0.243 S 
ATOM     20  O   UNL A   1      29.351  25.076  25.979  1.00  0.00    -0.207 OA
ATOM     21  O   UNL A   1      29.548  25.546  23.504  1.00  0.00    -0.207 OA
BRANCH  19  22
ATOM     22  C   UNL A   1      30.804  27.081  25.185  1.00  0.00     0.082 A 
ATOM     23  C   UNL A   1      32.233  31.036  26.125  1.00  0.00     0.044 C 
ATOM     24  C   UNL A   1      31.772  29.639  25.819  1.00  0.00    -0.048 A 
ATOM     25  C   UNL A   1      31.126  29.398  24.601  1.00  0.00     0.005 A 
ATOM     26  C   UNL A   1      31.982  28.567  26.711  1.00  0.00    -0.047 A 
ATOM     27  C   UNL A   1      30.671  28.123  24.276  1.00  0.00     0.022 A 
ATOM     28  C   UNL A   1      31.465  27.296  26.396  1.00  0.00     0.025 A 
ATOM     29  C   UNL A   1      32.781  28.706  27.978  1.00  0.00     0.044 C 
ENDBRANCH  19  22
ENDBRANCH  12  19
ENDBRANCH   6  11
ENDBRANCH   3   5
ENDBRANCH   2   3
ENDBRANCH   1   2
BRANCH   1  30
ATOM     30  C   UNL A   1      41.965  21.305  26.005  1.00  0.00     0.275 C 
BRANCH  30  31
ATOM     31  O   UNL A   1      41.869  22.656  25.522  1.00  0.00    -0.458 OA
BRANCH  31  32
ATOM     32  C   UNL A   1      42.993  23.404  25.616  1.00  0.00     0.338 C 
ATOM     33  O   UNL A   1      44.012  23.315  24.955  1.00  0.00    -0.246 OA
BRANCH  32  34
ATOM     34  C   UNL A   1      42.791  24.435  26.645  1.00  0.00     0.060 A 
ATOM     35  C   UNL A   1      41.864  24.195  27.654  1.00  0.00     0.016 A 
ATOM     36  C   UNL A   1      43.432  25.669  26.569  1.00  0.00     0.016 A 
ATOM     37  C   UNL A   1      41.541  25.186  28.573  1.00  0.00     0.010 A 
ATOM     38  C   UNL A   1      43.165  26.641  27.543  1.00  0.00     0.010 A 
ATOM     39  C   UNL A   1      42.207  26.416  28.550  1.00  0.00    -0.014 A 
BRANCH  39  40
ATOM     40  C   UNL A   1      41.894  27.457  29.569  1.00  0.00     0.031 A 
ATOM     41  C   UNL A   1      42.655  27.500  30.865  1.00  0.00     0.074 A 
ATOM     42  C   UNL A   1      40.924  28.366  29.342  1.00  0.00     0.049 A 
ATOM     43  N   UNL A   1      42.389  28.166  31.959  1.00  0.00    -0.248 NA
ATOM     44  C   UNL A   1      43.868  26.675  30.943  1.00  0.00     0.031 C 
ATOM     45  C   UNL A   1      40.137  28.478  28.112  1.00  0.00     0.029 A 
ATOM     46  N   UNL A   1      40.424  29.362  30.145  1.00  0.00    -0.354 N 
ATOM     47  C   UNL A   1      43.358  27.787  32.880  1.00  0.00     0.074 A 
ATOM     48  C   UNL A   1      44.227  26.844  32.209  1.00  0.00     0.031 C 
ATOM     49  C   UNL A   1      39.264  29.488  28.237  1.00  0.00     0.029 A 
ATOM     50  C   UNL A   1      39.357  30.027  29.590  1.00  0.00     0.049 A 
ATOM     51  H   UNL A   1      40.793  29.578  31.031  1.00  0.00     0.167 HD
ATOM     52  C   UNL A   1      43.499  28.184  34.168  1.00  0.00     0.037 A 
ATOM     53  C   UNL A   1      38.493  30.912  30.123  1.00  0.00     0.037 A 
ATOM     54  C   UNL A   1      42.668  29.173  34.807  1.00  0.00     0.049 A 
ATOM     55  C   UNL A   1      38.635  31.302  31.565  1.00  0.00     0.074 A 
ATOM     56  C   UNL A   1      42.779  29.698  36.083  1.00  0.00     0.029 A 
ATOM     57  N   UNL A   1      41.577  29.790  34.215  1.00  0.00    -0.354 N 
ATOM     58  N   UNL A   1      39.531  30.911  32.438  1.00  0.00    -0.248 NA
ATOM     59  C   UNL A   1      37.629  32.226  32.104  1.00  0.00     0.031 C 
ATOM     60  C   UNL A   1      41.722  30.594  36.280  1.00  0.00     0.029 A 
ATOM     61  C   UNL A   1      40.978  30.658  35.114  1.00  0.00     0.049 A 
ATOM     62  H   UNL A   1      41.271  29.634  33.292  1.00  0.00     0.167 HD
ATOM     63  C   UNL A   1      39.197  31.538  33.630  1.00  0.00     0.074 A 
ATOM     64  C   UNL A   1      38.029  32.353  33.363  1.00  0.00     0.031 C 
ATOM     65  C   UNL A   1      39.801  31.442  34.839  1.00  0.00     0.037 A 
BRANCH  52  66
ATOM     66  C   UNL A   1      44.566  27.516  34.988  1.00  0.00     0.057 A 
ATOM     67  C   UNL A   1      45.861  28.036  35.096  1.00  0.00     0.134 A 
ATOM     68  C   UNL A   1      44.283  26.346  35.703  1.00  0.00     0.134 A 
ATOM     69  F   UNL A   1      46.200  29.143  34.425  1.00  0.00    -0.206 F 
ATOM     70  C   UNL A   1      46.846  27.403  35.857  1.00  0.00     0.040 A 
ATOM     71  C   UNL A   1      45.251  25.716  36.489  1.00  0.00     0.040 A 
ATOM     72  F   UNL A   1      43.061  25.796  35.654  1.00  0.00    -0.206 F 
ATOM     73  C   UNL A   1      46.539  26.241  36.562  1.00  0.00     0.006 A 
ENDBRANCH  52  66
BRANCH  53  74
ATOM     74  C   UNL A   1      37.360  31.409  29.302  1.00  0.00     0.057 A 
ATOM     75  C   UNL A   1      36.222  30.628  29.081  1.00  0.00     0.134 A 
ATOM     76  C   UNL A   1      37.377  32.698  28.751  1.00  0.00     0.134 A 
ATOM     77  F   UNL A   1      36.158  29.378  29.558  1.00  0.00    -0.206 F 
ATOM     78  C   UNL A   1      35.136  31.114  28.349  1.00  0.00     0.040 A 
ATOM     79  C   UNL A   1      36.287  33.206  28.042  1.00  0.00     0.040 A 
ATOM     80  F   UNL A   1      38.439  33.496  28.930  1.00  0.00    -0.206 F 
ATOM     81  C   UNL A   1      35.163  32.412  27.839  1.00  0.00     0.006 A 
ENDBRANCH  53  74
BRANCH  65  82
ATOM     82  C   UNL A   1      39.199  32.228  35.966  1.00  0.00     0.057 A 
ATOM     83  C   UNL A   1      38.232  31.670  36.811  1.00  0.00     0.134 A 
ATOM     84  C   UNL A   1      39.613  33.539  36.231  1.00  0.00     0.134 A 
ATOM     85  F   UNL A   1      37.782  30.423  36.600  1.00  0.00    -0.206 F 
ATOM     86  C   UNL A   1      37.688  32.393  37.874  1.00  0.00     0.040 A 
ATOM     87  C   UNL A   1      39.092  34.265  37.303  1.00  0.00     0.040 A 
ATOM     88  F   UNL A   1      40.540  34.129  35.462  1.00  0.00    -0.206 F 
ATOM     89  C   UNL A   1      38.123  33.694  38.125  1.00  0.00     0.006 A 
ENDBRANCH  65  82
ENDBRANCH  39  40
ENDBRANCH  32  34
ENDBRANCH  31  32
ENDBRANCH  30  31
ENDBRANCH   1  30
TORSDOF 14
ENDMDL
MODEL 3
REMARK VINA RESULT:      -9.3      5.051     10.052
REMARK SMILES Cc1ccc(S(=O)(=O)N2CCN(C(=O)[C@H]3CCCC[C@@H]3C(=O)OCCOC(=O)c3ccc(-c4c5nc(c(-c6c(F)cccc6F)c6ccc([nH]6)c(-c6c(F)cccc6F)c6nc(c(-c7c(F)cccc7F)c7ccc4[nH]7)C=C6)C=C5)cc3)CC2)cc1C
REMARK SMILES IDX 24 1 23 2 21 3 22 4 20 5 15 6 16 7 17 8 19 9 18 10 13 11
REMARK SMILES IDX 9 12 10 13 84 14 11 15 83 16 12 17 14 18 6 19 7 20 8 21 5 22
REMARK SMILES IDX 1 23 2 24 3 25 86 26 4 27 85 28 87 29 25 30 26 31 27 32
REMARK SMILES IDX 28 33 29 34 30 35 82 36 31 37 81 38 32 39 33 40 34 41 75 42
REMARK SMILES IDX 35 43 80 44 74 45 76 46 36 47 79 48 73 49 72 50 37 52 63 53
REMARK SMILES IDX 46 54 62 55 47 56 50 57 61 58 77 59 48 60 49 61 60 63 78 64
REMARK SMILES IDX 51 65 38 66 39 67 44 68 40 69 41 70 43 71 45 72 42 73 64 74
REMARK SMILES IDX 65 75 70 76 66 77 67 78 69 79 71 80 68 81 52 82 53 83 58 84
REMARK SMILES IDX 54 85 55 86 57 87 59 88 56 89
REMARK H PARENT 76 51 50 62
REMARK Flexibility Score: inf
ROOT
ATOM      1  C   UNL A   1      40.235  22.476  26.891  1.00  0.00     0.274 C 
ENDROOT
BRANCH   1   2
ATOM      2  O   UNL A   1      39.134  22.131  26.026  1.00  0.00    -0.462 OA
BRANCH   2   3
ATOM      3  C   UNL A   1      38.066  22.978  26.055  1.00  0.00     0.309 C 
ATOM      4  O   UNL A   1      37.801  23.732  26.983  1.00  0.00    -0.252 OA
BRANCH   3   5
ATOM      5  C   UNL A   1      37.239  22.866  24.779  1.00  0.00     0.111 C 
ATOM      6  C   UNL A   1      35.771  23.336  25.000  1.00  0.00     0.093 C 
ATOM      7  C   UNL A   1      34.947  22.315  25.801  1.00  0.00     0.014 C 
ATOM      8  C   UNL A   1      35.065  20.896  25.265  1.00  0.00     0.001 C 
ATOM      9  C   UNL A   1      37.317  21.426  24.256  1.00  0.00     0.016 C 
ATOM     10  C   UNL A   1      36.514  20.456  25.117  1.00  0.00     0.001 C 
BRANCH   6  11
ATOM     11  C   UNL A   1      35.090  23.687  23.668  1.00  0.00     0.226 C 
ATOM     12  N   UNL A   1      31.370  25.731  23.655  1.00  0.00    -0.194 NA
ATOM     13  C   UNL A   1      31.756  24.788  22.589  1.00  0.00     0.124 C 
ATOM     14  C   UNL A   1      32.052  25.555  24.952  1.00  0.00     0.124 C 
ATOM     15  C   UNL A   1      33.277  24.763  22.419  1.00  0.00     0.136 C 
ATOM     16  C   UNL A   1      33.576  25.391  24.797  1.00  0.00     0.136 C 
ATOM     17  N   UNL A   1      33.972  24.510  23.689  1.00  0.00    -0.340 N 
ATOM     18  O   UNL A   1      35.525  23.239  22.606  1.00  0.00    -0.275 OA
BRANCH  12  19
ATOM     19  S   UNL A   1      30.314  27.002  23.363  1.00  0.00     0.243 S 
ATOM     20  O   UNL A   1      29.009  26.639  23.856  1.00  0.00    -0.207 OA
ATOM     21  O   UNL A   1      30.520  27.408  21.983  1.00  0.00    -0.207 OA
BRANCH  19  22
ATOM     22  C   UNL A   1      30.907  28.337  24.381  1.00  0.00     0.082 A 
ATOM     23  C   UNL A   1      32.159  31.542  26.974  1.00  0.00     0.044 C 
ATOM     24  C   UNL A   1      31.764  30.404  26.075  1.00  0.00    -0.048 A 
ATOM     25  C   UNL A   1      30.919  30.670  24.990  1.00  0.00     0.005 A 
ATOM     26  C   UNL A   1      32.227  29.089  26.282  1.00  0.00    -0.047 A 
ATOM     27  C   UNL A   1      30.518  29.647  24.135  1.00  0.00     0.022 A 
ATOM     28  C   UNL A   1      31.766  28.056  25.445  1.00  0.00     0.025 A 
ATOM     29  C   UNL A   1      33.239  28.738  27.339  1.00  0.00     0.044 C 
ENDBRANCH  19  22
ENDBRANCH  12  19
ENDBRANCH   6  11
ENDBRANCH   3   5
ENDBRANCH   2   3
ENDBRANCH   1   2
BRANCH   1  30
ATOM     30  C   UNL A   1      41.285  23.306  26.155  1.00  0.00     0.275 C 
BRANCH  30  31
ATOM     31  O   UNL A   1      40.723  24.571  25.767  1.00  0.00    -0.458 OA
BRANCH  31  32
ATOM     32  C   UNL A   1      41.545  25.642  25.857  1.00  0.00     0.338 C 
ATOM     33  O   UNL A   1      42.448  25.960  25.105  1.00  0.00    -0.246 OA
BRANCH  32  34
ATOM     34  C   UNL A   1      41.149  26.448  27.022  1.00  0.00     0.060 A 
ATOM     35  C   UNL A   1      41.813  27.647  27.257  1.00  0.00     0.016 A 
ATOM     36  C   UNL A   1      40.204  25.987  27.934  1.00  0.00     0.016 A 
ATOM     37  C   UNL A   1      41.570  28.380  28.413  1.00  0.00     0.010 A 
ATOM     38  C   UNL A   1      39.900  26.765  29.060  1.00  0.00     0.010 A 
ATOM     39  C   UNL A   1      40.588  27.965  29.318  1.00  0.00    -0.014 A 
BRANCH  39  40
ATOM     40  C   UNL A   1      40.294  28.782  30.530  1.00  0.00     0.031 A 
ATOM     41  C   UNL A   1      39.188  29.800  30.507  1.00  0.00     0.074 A 
ATOM     42  C   UNL A   1      41.019  28.619  31.656  1.00  0.00     0.049 A 
ATOM     43  N   UNL A   1      38.925  30.755  31.361  1.00  0.00    -0.248 NA
ATOM     44  C   UNL A   1      38.265  29.741  29.366  1.00  0.00     0.031 C 
ATOM     45  C   UNL A   1      42.089  27.637  31.843  1.00  0.00     0.029 A 
ATOM     46  N   UNL A   1      40.974  29.289  32.855  1.00  0.00    -0.354 N 
ATOM     47  C   UNL A   1      37.852  31.457  30.827  1.00  0.00     0.074 A 
ATOM     48  C   UNL A   1      37.504  30.806  29.581  1.00  0.00     0.031 C 
ATOM     49  C   UNL A   1      42.590  27.760  33.081  1.00  0.00     0.029 A 
ATOM     50  C   UNL A   1      41.952  28.895  33.737  1.00  0.00     0.049 A 
ATOM     51  H   UNL A   1      40.308  29.984  33.062  1.00  0.00     0.167 HD
ATOM     52  C   UNL A   1      37.225  32.549  31.326  1.00  0.00     0.037 A 
ATOM     53  C   UNL A   1      42.352  29.427  34.908  1.00  0.00     0.037 A 
ATOM     54  C   UNL A   1      37.535  33.151  32.598  1.00  0.00     0.049 A 
ATOM     55  C   UNL A   1      41.678  30.666  35.421  1.00  0.00     0.074 A 
ATOM     56  C   UNL A   1      36.906  34.212  33.227  1.00  0.00     0.029 A 
ATOM     57  N   UNL A   1      38.558  32.739  33.439  1.00  0.00    -0.354 N 
ATOM     58  N   UNL A   1      40.690  31.344  34.892  1.00  0.00    -0.248 NA
ATOM     59  C   UNL A   1      42.197  31.232  36.674  1.00  0.00     0.031 C 
ATOM     60  C   UNL A   1      37.584  34.475  34.424  1.00  0.00     0.029 A 
ATOM     61  C   UNL A   1      38.608  33.552  34.560  1.00  0.00     0.049 A 
ATOM     62  H   UNL A   1      39.162  31.980  33.264  1.00  0.00     0.167 HD
ATOM     63  C   UNL A   1      40.469  32.418  35.743  1.00  0.00     0.074 A 
ATOM     64  C   UNL A   1      41.411  32.289  36.835  1.00  0.00     0.031 C 
ATOM     65  C   UNL A   1      39.569  33.424  35.626  1.00  0.00     0.037 A 
BRANCH  52  66
ATOM     66  C   UNL A   1      36.167  33.194  30.476  1.00  0.00     0.057 A 
ATOM     67  C   UNL A   1      34.802  33.065  30.755  1.00  0.00     0.134 A 
ATOM     68  C   UNL A   1      36.524  33.980  29.373  1.00  0.00     0.134 A 
ATOM     69  F   UNL A   1      34.394  32.315  31.786  1.00  0.00    -0.206 F 
ATOM     70  C   UNL A   1      33.828  33.664  29.954  1.00  0.00     0.040 A 
ATOM     71  C   UNL A   1      35.561  34.606  28.578  1.00  0.00     0.040 A 
ATOM     72  F   UNL A   1      37.814  34.155  29.051  1.00  0.00    -0.206 F 
ATOM     73  C   UNL A   1      34.208  34.443  28.864  1.00  0.00     0.006 A 
ENDBRANCH  52  66
BRANCH  53  74
ATOM     74  C   UNL A   1      43.514  28.835  35.617  1.00  0.00     0.057 A 
ATOM     75  C   UNL A   1      44.815  29.296  35.397  1.00  0.00     0.134 A 
ATOM     76  C   UNL A   1      43.341  27.818  36.566  1.00  0.00     0.134 A 
ATOM     77  F   UNL A   1      45.048  30.248  34.482  1.00  0.00    -0.206 F 
ATOM     78  C   UNL A   1      45.902  28.772  36.100  1.00  0.00     0.040 A 
ATOM     79  C   UNL A   1      44.414  27.306  37.296  1.00  0.00     0.040 A 
ATOM     80  F   UNL A   1      42.117  27.335  36.824  1.00  0.00    -0.206 F 
ATOM     81  C   UNL A   1      45.700  27.783  37.062  1.00  0.00     0.006 A 
ENDBRANCH  53  74
BRANCH  65  82
ATOM     82  C   UNL A   1      39.571  34.470  36.700  1.00  0.00     0.057 A 
ATOM     83  C   UNL A   1      38.865  34.290  37.896  1.00  0.00     0.134 A 
ATOM     84  C   UNL A   1      40.312  35.650  36.556  1.00  0.00     0.134 A 
ATOM     85  F   UNL A   1      38.123  33.188  38.089  1.00  0.00    -0.206 F 
ATOM     86  C   UNL A   1      38.885  35.253  38.906  1.00  0.00     0.040 A 
ATOM     87  C   UNL A   1      40.356  36.611  37.567  1.00  0.00     0.040 A 
ATOM     88  F   UNL A   1      41.014  35.880  35.437  1.00  0.00    -0.206 F 
ATOM     89  C   UNL A   1      39.638  36.415  38.745  1.00  0.00     0.006 A 
ENDBRANCH  65  82
ENDBRANCH  39  40
ENDBRANCH  32  34
ENDBRANCH  31  32
ENDBRANCH  30  31
ENDBRANCH   1  30
TORSDOF 14
ENDMDL
