MODEL 1
REMARK VINA RESULT:     -10.0      0.000      0.000
REMARK SMILES CCN(CC(C)(C)O)C(=O)[C@H]1CC=CC[C@H]1C(=O)OCCOC(=O)c1ccc(-c2c3nc(c(-c4c(F)cccc4F)c4ccc([nH]4)c(-c4c(F)cccc4F)c4nc(c(-c5c(F)cccc5F)c5ccc2[nH]5)C=C4)C=C3)cc1
REMARK SMILES IDX 19 1 17 2 18 3 16 4 11 5 12 6 13 7 15 8 14 9 9 10 10 11 3 12
REMARK SMILES IDX 2 13 1 14 4 15 5 16 6 17 7 18 8 19 20 21 21 22 22 23 23 24
REMARK SMILES IDX 24 25 25 26 26 27 78 28 27 29 77 30 28 31 29 32 30 33 71 34
REMARK SMILES IDX 31 35 76 36 70 37 72 38 32 39 75 40 69 41 68 42 33 44 59 45
REMARK SMILES IDX 42 46 58 47 43 48 46 49 57 50 73 51 44 52 45 53 56 55 74 56
REMARK SMILES IDX 47 57 34 58 35 59 40 60 36 61 37 62 39 63 41 64 38 65 60 66
REMARK SMILES IDX 61 67 66 68 62 69 63 70 65 71 67 72 64 73 48 74 49 75 54 76
REMARK SMILES IDX 50 77 51 78 53 79 55 80 52 81
REMARK H PARENT 8 20 72 43 46 54
REMARK Flexibility Score: inf
ROOT
ATOM      1  O   UNL A   1      33.124  30.192  27.573  1.00  0.00    -0.462 OA
ENDROOT
BRANCH   1   2
ATOM      2  C   UNL A   1      33.849  29.163  27.074  1.00  0.00     0.310 C 
ATOM      3  O   UNL A   1      35.060  29.193  26.884  1.00  0.00    -0.252 OA
BRANCH   2   4
ATOM      4  C   UNL A   1      33.027  27.928  26.767  1.00  0.00     0.115 C 
ATOM      5  C   UNL A   1      31.702  28.127  26.007  1.00  0.00     0.097 C 
ATOM      6  C   UNL A   1      30.962  26.776  25.869  1.00  0.00     0.041 C 
ATOM      7  C   UNL A   1      31.844  25.570  25.705  1.00  0.00    -0.030 C 
ATOM      8  C   UNL A   1      33.936  26.855  26.158  1.00  0.00     0.043 C 
ATOM      9  C   UNL A   1      33.180  25.608  25.807  1.00  0.00    -0.030 C 
BRANCH   5  10
ATOM     10  C   UNL A   1      31.873  28.733  24.610  1.00  0.00     0.226 C 
ATOM     11  O   UNL A   1      32.629  29.696  24.454  1.00  0.00    -0.275 OA
BRANCH  10  12
ATOM     12  N   UNL A   1      31.198  28.175  23.525  1.00  0.00    -0.340 N 
BRANCH  12  13
ATOM     13  C   UNL A   1      32.012  27.421  22.566  1.00  0.00     0.116 C 
ATOM     14  C   UNL A   1      31.266  26.203  22.032  1.00  0.00     0.027 C 
ENDBRANCH  12  13
BRANCH  12  15
ATOM     15  C   UNL A   1      29.797  28.417  23.121  1.00  0.00     0.154 C 
BRANCH  15  16
ATOM     16  C   UNL A   1      29.483  29.815  22.510  1.00  0.00     0.077 C 
ATOM     17  C   UNL A   1      28.193  29.824  21.692  1.00  0.00     0.043 C 
ATOM     18  C   UNL A   1      29.369  30.848  23.638  1.00  0.00     0.043 C 
BRANCH  16  19
ATOM     19  O   UNL A   1      30.560  30.239  21.664  1.00  0.00    -0.389 OA
ATOM     20  H   UNL A   1      31.186  30.770  22.181  1.00  0.00     0.211 HD
ENDBRANCH  16  19
ENDBRANCH  15  16
ENDBRANCH  12  15
ENDBRANCH  10  12
ENDBRANCH   5  10
ENDBRANCH   2   4
ENDBRANCH   1   2
BRANCH   1  21
ATOM     21  C   UNL A   1      33.648  31.512  27.325  1.00  0.00     0.274 C 
BRANCH  21  22
ATOM     22  C   UNL A   1      32.586  32.566  27.626  1.00  0.00     0.275 C 
BRANCH  22  23
ATOM     23  O   UNL A   1      33.173  33.879  27.586  1.00  0.00    -0.458 OA
BRANCH  23  24
ATOM     24  C   UNL A   1      33.362  34.472  28.785  1.00  0.00     0.338 C 
ATOM     25  O   UNL A   1      32.633  35.259  29.360  1.00  0.00    -0.246 OA
BRANCH  24  26
ATOM     26  C   UNL A   1      34.606  33.973  29.382  1.00  0.00     0.060 A 
ATOM     27  C   UNL A   1      35.817  34.227  28.735  1.00  0.00     0.016 A 
ATOM     28  C   UNL A   1      34.551  33.147  30.506  1.00  0.00     0.016 A 
ATOM     29  C   UNL A   1      36.987  33.630  29.203  1.00  0.00     0.010 A 
ATOM     30  C   UNL A   1      35.727  32.563  30.982  1.00  0.00     0.010 A 
ATOM     31  C   UNL A   1      36.946  32.782  30.319  1.00  0.00    -0.014 A 
BRANCH  31  32
ATOM     32  C   UNL A   1      38.176  32.082  30.760  1.00  0.00     0.031 A 
ATOM     33  C   UNL A   1      38.948  32.590  31.944  1.00  0.00     0.074 A 
ATOM     34  C   UNL A   1      38.588  30.983  30.104  1.00  0.00     0.049 A 
ATOM     35  N   UNL A   1      40.056  32.131  32.468  1.00  0.00    -0.248 NA
ATOM     36  C   UNL A   1      38.403  33.773  32.628  1.00  0.00     0.031 C 
ATOM     37  C   UNL A   1      37.916  30.388  28.950  1.00  0.00     0.029 A 
ATOM     38  N   UNL A   1      39.673  30.172  30.319  1.00  0.00    -0.354 N 
ATOM     39  C   UNL A   1      40.346  32.970  33.535  1.00  0.00     0.074 A 
ATOM     40  C   UNL A   1      39.308  33.978  33.574  1.00  0.00     0.031 C 
ATOM     41  C   UNL A   1      38.600  29.298  28.562  1.00  0.00     0.029 A 
ATOM     42  C   UNL A   1      39.768  29.136  29.424  1.00  0.00     0.049 A 
ATOM     43  H   UNL A   1      40.322  30.320  31.045  1.00  0.00     0.167 HD
ATOM     44  C   UNL A   1      41.382  32.904  34.405  1.00  0.00     0.037 A 
ATOM     45  C   UNL A   1      40.698  28.170  29.309  1.00  0.00     0.037 A 
ATOM     46  C   UNL A   1      42.413  31.900  34.370  1.00  0.00     0.049 A 
ATOM     47  C   UNL A   1      41.845  28.128  30.276  1.00  0.00     0.074 A 
ATOM     48  C   UNL A   1      43.503  31.749  35.212  1.00  0.00     0.029 A 
ATOM     49  N   UNL A   1      42.480  30.873  33.442  1.00  0.00    -0.354 N 
ATOM     50  N   UNL A   1      42.107  28.927  31.282  1.00  0.00    -0.248 NA
ATOM     51  C   UNL A   1      42.826  27.049  30.092  1.00  0.00     0.031 C 
ATOM     52  C   UNL A   1      44.243  30.642  34.777  1.00  0.00     0.029 A 
ATOM     53  C   UNL A   1      43.597  30.088  33.684  1.00  0.00     0.049 A 
ATOM     54  H   UNL A   1      41.831  30.722  32.718  1.00  0.00     0.167 HD
ATOM     55  C   UNL A   1      43.275  28.445  31.856  1.00  0.00     0.074 A 
ATOM     56  C   UNL A   1      43.661  27.272  31.097  1.00  0.00     0.031 C 
ATOM     57  C   UNL A   1      43.968  28.931  32.914  1.00  0.00     0.037 A 
BRANCH  44  58
ATOM     58  C   UNL A   1      41.459  33.963  35.461  1.00  0.00     0.057 A 
ATOM     59  C   UNL A   1      40.868  33.791  36.719  1.00  0.00     0.134 A 
ATOM     60  C   UNL A   1      42.153  35.157  35.228  1.00  0.00     0.134 A 
ATOM     61  F   UNL A   1      40.175  32.677  36.997  1.00  0.00    -0.206 F 
ATOM     62  C   UNL A   1      40.953  34.777  37.705  1.00  0.00     0.040 A 
ATOM     63  C   UNL A   1      42.259  36.142  36.211  1.00  0.00     0.040 A 
ATOM     64  F   UNL A   1      42.742  35.382  34.043  1.00  0.00    -0.206 F 
ATOM     65  C   UNL A   1      41.655  35.954  37.453  1.00  0.00     0.006 A 
ENDBRANCH  44  58
BRANCH  45  66
ATOM     66  C   UNL A   1      40.575  27.159  28.234  1.00  0.00     0.057 A 
ATOM     67  C   UNL A   1      39.768  26.028  28.398  1.00  0.00     0.134 A 
ATOM     68  C   UNL A   1      41.252  27.302  27.018  1.00  0.00     0.134 A 
ATOM     69  F   UNL A   1      39.113  25.828  29.551  1.00  0.00    -0.206 F 
ATOM     70  C   UNL A   1      39.643  25.070  27.391  1.00  0.00     0.040 A 
ATOM     71  C   UNL A   1      41.121  26.362  25.996  1.00  0.00     0.040 A 
ATOM     72  F   UNL A   1      42.040  28.367  26.804  1.00  0.00    -0.206 F 
ATOM     73  C   UNL A   1      40.317  25.239  26.183  1.00  0.00     0.006 A 
ENDBRANCH  45  66
BRANCH  57  74
ATOM     74  C   UNL A   1      45.206  28.186  33.310  1.00  0.00     0.057 A 
ATOM     75  C   UNL A   1      45.158  27.118  34.215  1.00  0.00     0.134 A 
ATOM     76  C   UNL A   1      46.452  28.532  32.775  1.00  0.00     0.134 A 
ATOM     77  F   UNL A   1      43.994  26.750  34.771  1.00  0.00    -0.206 F 
ATOM     78  C   UNL A   1      46.313  26.433  34.592  1.00  0.00     0.040 A 
ATOM     79  C   UNL A   1      47.612  27.842  33.132  1.00  0.00     0.040 A 
ATOM     80  F   UNL A   1      46.562  29.542  31.900  1.00  0.00    -0.206 F 
ATOM     81  C   UNL A   1      47.545  26.794  34.047  1.00  0.00     0.006 A 
ENDBRANCH  57  74
ENDBRANCH  31  32
ENDBRANCH  24  26
ENDBRANCH  23  24
ENDBRANCH  22  23
ENDBRANCH  21  22
ENDBRANCH   1  21
TORSDOF 17
ENDMDL
MODEL 2
REMARK VINA RESULT:      -9.9      1.281      6.518
REMARK SMILES CCN(CC(C)(C)O)C(=O)[C@H]1CC=CC[C@H]1C(=O)OCCOC(=O)c1ccc(-c2c3nc(c(-c4c(F)cccc4F)c4ccc([nH]4)c(-c4c(F)cccc4F)c4nc(c(-c5c(F)cccc5F)c5ccc2[nH]5)C=C4)C=C3)cc1
REMARK SMILES IDX 19 1 17 2 18 3 16 4 11 5 12 6 13 7 15 8 14 9 9 10 10 11 3 12
REMARK SMILES IDX 2 13 1 14 4 15 5 16 6 17 7 18 8 19 20 21 21 22 22 23 23 24
REMARK SMILES IDX 24 25 25 26 26 27 78 28 27 29 77 30 28 31 29 32 30 33 71 34
REMARK SMILES IDX 31 35 76 36 70 37 72 38 32 39 75 40 69 41 68 42 33 44 59 45
REMARK SMILES IDX 42 46 58 47 43 48 46 49 57 50 73 51 44 52 45 53 56 55 74 56
REMARK SMILES IDX 47 57 34 58 35 59 40 60 36 61 37 62 39 63 41 64 38 65 60 66
REMARK SMILES IDX 61 67 66 68 62 69 63 70 65 71 67 72 64 73 48 74 49 75 54 76
REMARK SMILES IDX 50 77 51 78 53 79 55 80 52 81
REMARK H PARENT 8 20 72 43 46 54
REMARK Flexibility Score: inf
ROOT
ATOM      1  O   UNL A   1      31.827  30.290  27.158  1.00  0.00    -0.462 OA
ENDROOT
BRANCH   1   2
ATOM      2  C   UNL A   1      32.834  29.451  26.819  1.00  0.00     0.310 C 
ATOM      3  O   UNL A   1      34.010  29.782  26.715  1.00  0.00    -0.252 OA
BRANCH   2   4
ATOM      4  C   UNL A   1      32.387  28.024  26.580  1.00  0.00     0.115 C 
ATOM      5  C   UNL A   1      31.305  27.788  25.508  1.00  0.00     0.097 C 
ATOM      6  C   UNL A   1      30.911  26.293  25.473  1.00  0.00     0.041 C 
ATOM      7  C   UNL A   1      32.024  25.325  25.762  1.00  0.00    -0.030 C 
ATOM      8  C   UNL A   1      33.619  27.127  26.425  1.00  0.00     0.043 C 
ATOM      9  C   UNL A   1      33.247  25.698  26.162  1.00  0.00    -0.030 C 
BRANCH   5  10
ATOM     10  C   UNL A   1      31.726  28.214  24.098  1.00  0.00     0.226 C 
ATOM     11  O   UNL A   1      32.706  28.951  23.954  1.00  0.00    -0.275 OA
BRANCH  10  12
ATOM     12  N   UNL A   1      31.020  27.743  22.992  1.00  0.00    -0.340 N 
BRANCH  12  13
ATOM     13  C   UNL A   1      29.776  28.447  22.662  1.00  0.00     0.116 C 
ATOM     14  C   UNL A   1      30.049  29.756  21.930  1.00  0.00     0.027 C 
ENDBRANCH  12  13
BRANCH  12  15
ATOM     15  C   UNL A   1      31.270  26.500  22.233  1.00  0.00     0.154 C 
BRANCH  15  16
ATOM     16  C   UNL A   1      32.701  26.321  21.646  1.00  0.00     0.077 C 
ATOM     17  C   UNL A   1      33.618  25.514  22.563  1.00  0.00     0.043 C 
ATOM     18  C   UNL A   1      32.607  25.618  20.286  1.00  0.00     0.043 C 
BRANCH  16  19
ATOM     19  O   UNL A   1      33.304  27.600  21.412  1.00  0.00    -0.389 OA
ATOM     20  H   UNL A   1      34.269  27.518  21.473  1.00  0.00     0.211 HD
ENDBRANCH  16  19
ENDBRANCH  15  16
ENDBRANCH  12  15
ENDBRANCH  10  12
ENDBRANCH   5  10
ENDBRANCH   2   4
ENDBRANCH   1   2
BRANCH   1  21
ATOM     21  C   UNL A   1      31.645  31.436  26.301  1.00  0.00     0.274 C 
BRANCH  21  22
ATOM     22  C   UNL A   1      31.646  32.718  27.128  1.00  0.00     0.275 C 
BRANCH  22  23
ATOM     23  O   UNL A   1      32.968  33.285  27.153  1.00  0.00    -0.458 OA
BRANCH  23  24
ATOM     24  C   UNL A   1      33.208  34.163  28.151  1.00  0.00     0.338 C 
ATOM     25  O   UNL A   1      32.601  35.184  28.419  1.00  0.00    -0.246 OA
BRANCH  24  26
ATOM     26  C   UNL A   1      34.326  33.677  28.967  1.00  0.00     0.060 A 
ATOM     27  C   UNL A   1      35.612  34.154  28.708  1.00  0.00     0.016 A 
ATOM     28  C   UNL A   1      34.112  32.655  29.894  1.00  0.00     0.016 A 
ATOM     29  C   UNL A   1      36.703  33.589  29.366  1.00  0.00     0.010 A 
ATOM     30  C   UNL A   1      35.205  32.100  30.563  1.00  0.00     0.010 A 
ATOM     31  C   UNL A   1      36.508  32.548  30.285  1.00  0.00    -0.014 A 
BRANCH  31  32
ATOM     32  C   UNL A   1      37.677  31.892  30.917  1.00  0.00     0.031 A 
ATOM     33  C   UNL A   1      38.450  30.847  30.166  1.00  0.00     0.074 A 
ATOM     34  C   UNL A   1      38.049  32.246  32.160  1.00  0.00     0.049 A 
ATOM     35  N   UNL A   1      39.485  30.145  30.553  1.00  0.00    -0.248 NA
ATOM     36  C   UNL A   1      38.000  30.550  28.797  1.00  0.00     0.031 C 
ATOM     37  C   UNL A   1      37.386  33.256  32.983  1.00  0.00     0.029 A 
ATOM     38  N   UNL A   1      39.081  31.795  32.943  1.00  0.00    -0.354 N 
ATOM     39  C   UNL A   1      39.804  29.318  29.484  1.00  0.00     0.074 A 
ATOM     40  C   UNL A   1      38.843  29.592  28.436  1.00  0.00     0.031 C 
ATOM     41  C   UNL A   1      38.033  33.355  34.156  1.00  0.00     0.029 A 
ATOM     42  C   UNL A   1      39.138  32.399  34.173  1.00  0.00     0.049 A 
ATOM     43  H   UNL A   1      39.718  31.104  32.651  1.00  0.00     0.167 HD
ATOM     44  C   UNL A   1      40.809  28.416  29.383  1.00  0.00     0.037 A 
ATOM     45  C   UNL A   1      39.982  32.198  35.202  1.00  0.00     0.037 A 
ATOM     46  C   UNL A   1      41.769  28.145  30.422  1.00  0.00     0.049 A 
ATOM     47  C   UNL A   1      41.078  31.181  35.071  1.00  0.00     0.074 A 
ATOM     48  C   UNL A   1      42.825  27.250  30.412  1.00  0.00     0.029 A 
ATOM     49  N   UNL A   1      41.787  28.771  31.659  1.00  0.00    -0.354 N 
ATOM     50  N   UNL A   1      41.370  30.407  34.054  1.00  0.00    -0.248 NA
ATOM     51  C   UNL A   1      41.963  31.009  36.232  1.00  0.00     0.031 C 
ATOM     52  C   UNL A   1      43.470  27.318  31.653  1.00  0.00     0.029 A 
ATOM     53  C   UNL A   1      42.831  28.276  32.424  1.00  0.00     0.049 A 
ATOM     54  H   UNL A   1      41.153  29.463  31.951  1.00  0.00     0.167 HD
ATOM     55  C   UNL A   1      42.474  29.664  34.446  1.00  0.00     0.074 A 
ATOM     56  C   UNL A   1      42.813  30.093  35.788  1.00  0.00     0.031 C 
ATOM     57  C   UNL A   1      43.146  28.710  33.759  1.00  0.00     0.037 A 
BRANCH  44  58
ATOM     58  C   UNL A   1      40.909  27.641  28.105  1.00  0.00     0.057 A 
ATOM     59  C   UNL A   1      41.657  28.110  27.019  1.00  0.00     0.134 A 
ATOM     60  C   UNL A   1      40.273  26.401  27.969  1.00  0.00     0.134 A 
ATOM     61  F   UNL A   1      42.276  29.298  27.081  1.00  0.00    -0.206 F 
ATOM     62  C   UNL A   1      41.758  27.377  25.833  1.00  0.00     0.040 A 
ATOM     63  C   UNL A   1      40.380  25.652  26.796  1.00  0.00     0.040 A 
ATOM     64  F   UNL A   1      39.541  25.897  28.975  1.00  0.00    -0.206 F 
ATOM     65  C   UNL A   1      41.122  26.143  25.723  1.00  0.00     0.006 A 
ENDBRANCH  44  58
BRANCH  45  66
ATOM     66  C   UNL A   1      39.823  32.986  36.446  1.00  0.00     0.057 A 
ATOM     67  C   UNL A   1      38.909  32.601  37.432  1.00  0.00     0.134 A 
ATOM     68  C   UNL A   1      40.586  34.135  36.682  1.00  0.00     0.134 A 
ATOM     69  F   UNL A   1      38.137  31.520  37.250  1.00  0.00    -0.206 F 
ATOM     70  C   UNL A   1      38.754  33.334  38.609  1.00  0.00     0.040 A 
ATOM     71  C   UNL A   1      40.454  34.868  37.862  1.00  0.00     0.040 A 
ATOM     72  F   UNL A   1      41.479  34.553  35.772  1.00  0.00    -0.206 F 
ATOM     73  C   UNL A   1      39.533  34.469  38.828  1.00  0.00     0.006 A 
ENDBRANCH  45  66
BRANCH  57  74
ATOM     74  C   UNL A   1      44.316  28.077  34.450  1.00  0.00     0.057 A 
ATOM     75  C   UNL A   1      45.602  28.625  34.360  1.00  0.00     0.134 A 
ATOM     76  C   UNL A   1      44.153  26.918  35.217  1.00  0.00     0.134 A 
ATOM     77  F   UNL A   1      45.821  29.727  33.627  1.00  0.00    -0.206 F 
ATOM     78  C   UNL A   1      46.691  28.028  34.995  1.00  0.00     0.040 A 
ATOM     79  C   UNL A   1      45.233  26.322  35.870  1.00  0.00     0.040 A 
ATOM     80  F   UNL A   1      42.945  26.348  35.344  1.00  0.00    -0.206 F 
ATOM     81  C   UNL A   1      46.507  26.874  35.755  1.00  0.00     0.006 A 
ENDBRANCH  57  74
ENDBRANCH  31  32
ENDBRANCH  24  26
ENDBRANCH  23  24
ENDBRANCH  22  23
ENDBRANCH  21  22
ENDBRANCH   1  21
TORSDOF 17
ENDMDL
MODEL 3
REMARK VINA RESULT:      -9.9      4.515      9.185
REMARK SMILES CCN(CC(C)(C)O)C(=O)[C@H]1CC=CC[C@H]1C(=O)OCCOC(=O)c1ccc(-c2c3nc(c(-c4c(F)cccc4F)c4ccc([nH]4)c(-c4c(F)cccc4F)c4nc(c(-c5c(F)cccc5F)c5ccc2[nH]5)C=C4)C=C3)cc1
REMARK SMILES IDX 19 1 17 2 18 3 16 4 11 5 12 6 13 7 15 8 14 9 9 10 10 11 3 12
REMARK SMILES IDX 2 13 1 14 4 15 5 16 6 17 7 18 8 19 20 21 21 22 22 23 23 24
REMARK SMILES IDX 24 25 25 26 26 27 78 28 27 29 77 30 28 31 29 32 30 33 71 34
REMARK SMILES IDX 31 35 76 36 70 37 72 38 32 39 75 40 69 41 68 42 33 44 59 45
REMARK SMILES IDX 42 46 58 47 43 48 46 49 57 50 73 51 44 52 45 53 56 55 74 56
REMARK SMILES IDX 47 57 34 58 35 59 40 60 36 61 37 62 39 63 41 64 38 65 60 66
REMARK SMILES IDX 61 67 66 68 62 69 63 70 65 71 67 72 64 73 48 74 49 75 54 76
REMARK SMILES IDX 50 77 51 78 53 79 55 80 52 81
REMARK H PARENT 8 20 72 43 46 54
REMARK Flexibility Score: inf
ROOT
ATOM      1  O   UNL A   1      37.285  21.718  24.483  1.00  0.00    -0.462 OA
ENDROOT
BRANCH   1   2
ATOM      2  C   UNL A   1      36.199  22.123  25.183  1.00  0.00     0.310 C 
ATOM      3  O   UNL A   1      35.824  21.619  26.237  1.00  0.00    -0.252 OA
BRANCH   2   4
ATOM      4  C   UNL A   1      35.464  23.289  24.554  1.00  0.00     0.115 C 
ATOM      5  C   UNL A   1      34.246  22.965  23.667  1.00  0.00     0.097 C 
ATOM      6  C   UNL A   1      33.688  24.264  23.041  1.00  0.00     0.041 C 
ATOM      7  C   UNL A   1      33.790  25.493  23.901  1.00  0.00    -0.030 C 
ATOM      8  C   UNL A   1      35.188  24.349  25.625  1.00  0.00     0.043 C 
ATOM      9  C   UNL A   1      34.439  25.526  25.073  1.00  0.00    -0.030 C 
BRANCH   5  10
ATOM     10  C   UNL A   1      33.109  22.255  24.410  1.00  0.00     0.226 C 
ATOM     11  O   UNL A   1      32.717  22.703  25.491  1.00  0.00    -0.275 OA
BRANCH  10  12
ATOM     12  N   UNL A   1      32.511  21.129  23.845  1.00  0.00    -0.340 N 
BRANCH  12  13
ATOM     13  C   UNL A   1      32.123  21.233  22.435  1.00  0.00     0.116 C 
ATOM     14  C   UNL A   1      32.009  19.859  21.782  1.00  0.00     0.027 C 
ENDBRANCH  12  13
BRANCH  12  15
ATOM     15  C   UNL A   1      32.041  19.917  24.549  1.00  0.00     0.154 C 
BRANCH  15  16
ATOM     16  C   UNL A   1      33.109  19.133  25.369  1.00  0.00     0.077 C 
ATOM     17  C   UNL A   1      32.641  17.733  25.759  1.00  0.00     0.043 C 
ATOM     18  C   UNL A   1      34.397  19.020  24.545  1.00  0.00     0.043 C 
BRANCH  16  19
ATOM     19  O   UNL A   1      33.441  19.851  26.564  1.00  0.00    -0.389 OA
ATOM     20  H   UNL A   1      32.627  20.090  27.035  1.00  0.00     0.211 HD
ENDBRANCH  16  19
ENDBRANCH  15  16
ENDBRANCH  12  15
ENDBRANCH  10  12
ENDBRANCH   5  10
ENDBRANCH   2   4
ENDBRANCH   1   2
BRANCH   1  21
ATOM     21  C   UNL A   1      37.935  20.524  24.960  1.00  0.00     0.274 C 
BRANCH  21  22
ATOM     22  C   UNL A   1      39.256  20.876  25.637  1.00  0.00     0.275 C 
BRANCH  22  23
ATOM     23  O   UNL A   1      39.912  19.677  26.087  1.00  0.00    -0.458 OA
BRANCH  23  24
ATOM     24  C   UNL A   1      41.261  19.688  26.018  1.00  0.00     0.338 C 
ATOM     25  O   UNL A   1      41.996  18.852  25.524  1.00  0.00    -0.246 OA
BRANCH  24  26
ATOM     26  C   UNL A   1      41.767  20.939  26.591  1.00  0.00     0.060 A 
ATOM     27  C   UNL A   1      41.582  21.184  27.953  1.00  0.00     0.016 A 
ATOM     28  C   UNL A   1      42.304  21.917  25.752  1.00  0.00     0.016 A 
ATOM     29  C   UNL A   1      41.915  22.430  28.482  1.00  0.00     0.010 A 
ATOM     30  C   UNL A   1      42.652  23.159  26.287  1.00  0.00     0.010 A 
ATOM     31  C   UNL A   1      42.437  23.430  27.649  1.00  0.00    -0.014 A 
BRANCH  31  32
ATOM     32  C   UNL A   1      42.709  24.780  28.197  1.00  0.00     0.031 A 
ATOM     33  C   UNL A   1      44.104  25.161  28.601  1.00  0.00     0.074 A 
ATOM     34  C   UNL A   1      41.704  25.665  28.318  1.00  0.00     0.049 A 
ATOM     35  N   UNL A   1      44.539  26.282  29.120  1.00  0.00    -0.248 NA
ATOM     36  C   UNL A   1      45.150  24.147  28.396  1.00  0.00     0.031 C 
ATOM     37  C   UNL A   1      40.312  25.416  27.947  1.00  0.00     0.029 A 
ATOM     38  N   UNL A   1      41.704  26.954  28.785  1.00  0.00    -0.354 N 
ATOM     39  C   UNL A   1      45.902  26.106  29.312  1.00  0.00     0.074 A 
ATOM     40  C   UNL A   1      46.223  24.765  28.871  1.00  0.00     0.031 C 
ATOM     41  C   UNL A   1      39.591  26.522  28.194  1.00  0.00     0.029 A 
ATOM     42  C   UNL A   1      40.466  27.545  28.761  1.00  0.00     0.049 A 
ATOM     43  H   UNL A   1      42.514  27.412  29.107  1.00  0.00     0.167 HD
ATOM     44  C   UNL A   1      46.806  26.985  29.808  1.00  0.00     0.037 A 
ATOM     45  C   UNL A   1      40.080  28.771  29.160  1.00  0.00     0.037 A 
ATOM     46  C   UNL A   1      46.490  28.321  30.244  1.00  0.00     0.049 A 
ATOM     47  C   UNL A   1      41.098  29.721  29.720  1.00  0.00     0.074 A 
ATOM     48  C   UNL A   1      47.339  29.286  30.759  1.00  0.00     0.029 A 
ATOM     49  N   UNL A   1      45.222  28.879  30.213  1.00  0.00    -0.354 N 
ATOM     50  N   UNL A   1      42.385  29.543  29.896  1.00  0.00    -0.248 NA
ATOM     51  C   UNL A   1      40.610  31.043  30.139  1.00  0.00     0.031 C 
ATOM     52  C   UNL A   1      46.579  30.423  31.062  1.00  0.00     0.029 A 
ATOM     53  C   UNL A   1      45.263  30.173  30.708  1.00  0.00     0.049 A 
ATOM     54  H   UNL A   1      44.412  28.425  29.889  1.00  0.00     0.167 HD
ATOM     55  C   UNL A   1      42.862  30.730  30.435  1.00  0.00     0.074 A 
ATOM     56  C   UNL A   1      41.730  31.627  30.541  1.00  0.00     0.031 C 
ATOM     57  C   UNL A   1      44.125  31.047  30.813  1.00  0.00     0.037 A 
BRANCH  44  58
ATOM     58  C   UNL A   1      48.225  26.519  29.923  1.00  0.00     0.057 A 
ATOM     59  C   UNL A   1      48.686  25.840  31.057  1.00  0.00     0.134 A 
ATOM     60  C   UNL A   1      49.133  26.727  28.877  1.00  0.00     0.134 A 
ATOM     61  F   UNL A   1      47.869  25.626  32.099  1.00  0.00    -0.206 F 
ATOM     62  C   UNL A   1      50.006  25.396  31.154  1.00  0.00     0.040 A 
ATOM     63  C   UNL A   1      50.451  26.272  28.955  1.00  0.00     0.040 A 
ATOM     64  F   UNL A   1      48.752  27.370  27.762  1.00  0.00    -0.206 F 
ATOM     65  C   UNL A   1      50.890  25.608  30.098  1.00  0.00     0.006 A 
ENDBRANCH  44  58
BRANCH  45  66
ATOM     66  C   UNL A   1      38.659  29.170  29.034  1.00  0.00     0.057 A 
ATOM     67  C   UNL A   1      38.142  29.622  27.816  1.00  0.00     0.134 A 
ATOM     68  C   UNL A   1      37.785  29.101  30.125  1.00  0.00     0.134 A 
ATOM     69  F   UNL A   1      38.939  29.728  26.743  1.00  0.00    -0.206 F 
ATOM     70  C   UNL A   1      36.804  29.997  27.686  1.00  0.00     0.040 A 
ATOM     71  C   UNL A   1      36.441  29.456  30.005  1.00  0.00     0.040 A 
ATOM     72  F   UNL A   1      38.225  28.675  31.319  1.00  0.00    -0.206 F 
ATOM     73  C   UNL A   1      35.948  29.909  28.782  1.00  0.00     0.006 A 
ENDBRANCH  45  66
BRANCH  57  74
ATOM     74  C   UNL A   1      44.339  32.423  31.365  1.00  0.00     0.057 A 
ATOM     75  C   UNL A   1      44.243  32.682  32.738  1.00  0.00     0.134 A 
ATOM     76  C   UNL A   1      44.652  33.494  30.520  1.00  0.00     0.134 A 
ATOM     77  F   UNL A   1      43.932  31.698  33.596  1.00  0.00    -0.206 F 
ATOM     78  C   UNL A   1      44.431  33.966  33.250  1.00  0.00     0.040 A 
ATOM     79  C   UNL A   1      44.859  34.779  31.023  1.00  0.00     0.040 A 
ATOM     80  F   UNL A   1      44.761  33.307  29.196  1.00  0.00    -0.206 F 
ATOM     81  C   UNL A   1      44.743  35.019  32.390  1.00  0.00     0.006 A 
ENDBRANCH  57  74
ENDBRANCH  31  32
ENDBRANCH  24  26
ENDBRANCH  23  24
ENDBRANCH  22  23
ENDBRANCH  21  22
ENDBRANCH   1  21
TORSDOF 17
ENDMDL
