MODEL 1
REMARK VINA RESULT:     -12.9      0.000      0.000
REMARK SMILES CC1(C)CC[C@@]2(C(=O)OCCOC(=O)c3ccc(-c4c5nc(c(-c6c(F)cccc6F)c6ccc([nH]6)c(-c6c(F)cccc6F)c6nc(c(-c7c(F)cccc7F)c7ccc4[nH]7)C=C6)C=C5)cc3)CC[C@@]3(C)C(=CC[C@H]4[C@@]5(C)CC[C@H](O)C(C)(C)[C@@H]5CC[C@]43C)[C@@H]2C1
REMARK SMILES IDX 11 1 10 2 9 3 7 4 8 5 6 6 1 7 2 8 3 9 4 10 92 11 5 12 91 13
REMARK SMILES IDX 73 14 69 15 71 16 74 17 70 18 72 19 89 20 75 21 76 22 88 23
REMARK SMILES IDX 90 24 77 25 87 26 78 27 79 28 86 29 80 30 83 31 81 32 84 33
REMARK SMILES IDX 85 34 82 35 12 37 13 38 14 39 15 40 16 41 68 42 17 43 67 44
REMARK SMILES IDX 18 45 19 46 20 47 61 48 21 49 66 50 60 51 62 52 22 53 65 54
REMARK SMILES IDX 59 55 58 56 23 58 49 59 32 60 48 61 33 62 36 63 47 64 63 65
REMARK SMILES IDX 34 66 35 67 46 69 64 70 37 71 24 72 25 73 30 74 26 75 27 76
REMARK SMILES IDX 29 77 31 78 28 79 50 80 51 81 56 82 52 83 53 84 55 85 57 86
REMARK SMILES IDX 54 87 38 88 39 89 44 90 40 91 41 92 43 93 45 94 42 95
REMARK H PARENT 82 36 62 57 36 68
REMARK Flexibility Score: inf
ROOT
ATOM      1  C   UNL A   1      34.362  31.014  27.285  1.00  0.00     0.275 C 
ENDROOT
BRANCH   1   2
ATOM      2  C   UNL A   1      34.638  29.522  27.309  1.00  0.00     0.274 C 
BRANCH   2   3
ATOM      3  O   UNL A   1      33.537  28.665  27.432  1.00  0.00    -0.462 OA
BRANCH   3   4
ATOM      4  C   UNL A   1      33.352  27.922  26.338  1.00  0.00     0.312 C 
ATOM      5  O   UNL A   1      34.194  27.084  26.022  1.00  0.00    -0.252 OA
BRANCH   4   6
ATOM      6  C   UNL A   1      31.956  27.981  25.707  1.00  0.00     0.075 C 
ATOM      7  C   UNL A   1      31.686  29.411  21.819  1.00  0.00     0.011 C 
ATOM      8  C   UNL A   1      32.600  28.545  22.707  1.00  0.00    -0.035 C 
ATOM      9  C   UNL A   1      33.769  28.057  21.810  1.00  0.00     0.011 C 
ATOM     10  C   UNL A   1      33.071  29.421  23.876  1.00  0.00     0.007 C 
ATOM     11  C   UNL A   1      31.889  27.270  23.169  1.00  0.00     0.015 C 
ATOM     12  C   UNL A   1      32.082  29.421  25.092  1.00  0.00     0.020 C 
ATOM     13  C   UNL A   1      31.274  27.147  24.583  1.00  0.00     0.033 C 
ATOM     14  C   UNL A   1      30.929  25.670  24.839  1.00  0.00    -0.063 C 
ATOM     15  C   UNL A   1      31.022  27.727  26.931  1.00  0.00     0.020 C 
ATOM     16  C   UNL A   1      30.627  25.102  26.224  1.00  0.00    -0.006 C 
ATOM     17  C   UNL A   1      30.566  24.899  23.792  1.00  0.00    -0.027 C 
ATOM     18  C   UNL A   1      30.897  26.193  27.362  1.00  0.00     0.013 C 
ATOM     19  C   UNL A   1      29.032  25.131  26.288  1.00  0.00     0.017 C 
ATOM     20  C   UNL A   1      31.187  23.437  26.265  1.00  0.00    -0.020 C 
ATOM     21  C   UNL A   1      30.711  23.426  23.707  1.00  0.00     0.032 C 
ATOM     22  C   UNL A   1      31.610  22.841  24.806  1.00  0.00     0.006 C 
ATOM     23  C   UNL A   1      32.246  22.991  27.328  1.00  0.00     0.008 C 
ATOM     24  C   UNL A   1      29.934  22.550  26.657  1.00  0.00     0.012 C 
ATOM     25  C   UNL A   1      33.175  22.528  24.363  1.00  0.00    -0.025 C 
ATOM     26  C   UNL A   1      33.479  22.142  26.857  1.00  0.00     0.005 C 
ATOM     27  C   UNL A   1      33.171  21.072  23.819  1.00  0.00     0.012 C 
ATOM     28  C   UNL A   1      33.742  23.418  23.209  1.00  0.00     0.010 C 
ATOM     29  C   UNL A   1      34.134  22.667  25.570  1.00  0.00     0.003 C 
ATOM     30  C   UNL A   1      35.249  23.258  22.916  1.00  0.00     0.033 C 
ATOM     31  C   UNL A   1      35.712  22.453  25.340  1.00  0.00    -0.006 C 
ATOM     32  C   UNL A   1      36.159  23.347  24.138  1.00  0.00     0.120 C 
ATOM     33  C   UNL A   1      36.166  21.002  25.098  1.00  0.00     0.014 C 
ATOM     34  C   UNL A   1      36.552  22.910  26.576  1.00  0.00     0.014 C 
BRANCH  32  35
ATOM     35  O   UNL A   1      37.524  23.125  23.776  1.00  0.00    -0.393 OA
ATOM     36  H   UNL A   1      38.086  23.225  24.559  1.00  0.00     0.210 HD
ENDBRANCH  32  35
ENDBRANCH   4   6
ENDBRANCH   3   4
ENDBRANCH   2   3
ENDBRANCH   1   2
BRANCH   1  37
ATOM     37  O   UNL A   1      33.099  31.504  27.674  1.00  0.00    -0.458 OA
BRANCH  37  38
ATOM     38  C   UNL A   1      33.300  32.820  28.027  1.00  0.00     0.338 C 
ATOM     39  O   UNL A   1      32.639  33.740  27.641  1.00  0.00    -0.246 OA
BRANCH  38  40
ATOM     40  C   UNL A   1      34.584  32.984  28.766  1.00  0.00     0.060 A 
ATOM     41  C   UNL A   1      35.689  33.544  28.126  1.00  0.00     0.016 A 
ATOM     42  C   UNL A   1      34.669  32.545  30.098  1.00  0.00     0.016 A 
ATOM     43  C   UNL A   1      36.922  33.526  28.759  1.00  0.00     0.010 A 
ATOM     44  C   UNL A   1      35.905  32.537  30.744  1.00  0.00     0.010 A 
ATOM     45  C   UNL A   1      37.040  32.918  30.018  1.00  0.00    -0.014 A 
BRANCH  45  46
ATOM     46  C   UNL A   1      38.344  32.281  30.298  1.00  0.00     0.031 A 
ATOM     47  C   UNL A   1      39.143  32.878  31.431  1.00  0.00     0.074 A 
ATOM     48  C   UNL A   1      38.699  31.137  29.697  1.00  0.00     0.049 A 
ATOM     49  N   UNL A   1      40.183  32.402  32.058  1.00  0.00    -0.248 NA
ATOM     50  C   UNL A   1      38.678  34.178  31.954  1.00  0.00     0.031 C 
ATOM     51  C   UNL A   1      37.949  30.472  28.632  1.00  0.00     0.029 A 
ATOM     52  N   UNL A   1      39.767  30.315  29.927  1.00  0.00    -0.354 N 
ATOM     53  C   UNL A   1      40.457  33.318  33.070  1.00  0.00     0.074 A 
ATOM     54  C   UNL A   1      39.518  34.402  32.947  1.00  0.00     0.031 C 
ATOM     55  C   UNL A   1      38.581  29.331  28.305  1.00  0.00     0.029 A 
ATOM     56  C   UNL A   1      39.776  29.194  29.135  1.00  0.00     0.049 A 
ATOM     57  H   UNL A   1      40.463  30.509  30.595  1.00  0.00     0.167 HD
ATOM     58  C   UNL A   1      41.405  33.254  34.030  1.00  0.00     0.037 A 
ATOM     59  C   UNL A   1      40.658  28.178  29.106  1.00  0.00     0.037 A 
ATOM     60  C   UNL A   1      42.372  32.198  34.094  1.00  0.00     0.049 A 
ATOM     61  C   UNL A   1      41.779  28.185  30.114  1.00  0.00     0.074 A 
ATOM     62  C   UNL A   1      43.431  32.042  34.966  1.00  0.00     0.029 A 
ATOM     63  N   UNL A   1      42.402  31.125  33.215  1.00  0.00    -0.354 N 
ATOM     64  N   UNL A   1      42.017  29.041  31.083  1.00  0.00    -0.248 NA
ATOM     65  C   UNL A   1      42.747  27.086  30.034  1.00  0.00     0.031 C 
ATOM     66  C   UNL A   1      44.136  30.898  34.577  1.00  0.00     0.029 A 
ATOM     67  C   UNL A   1      43.482  30.314  33.499  1.00  0.00     0.049 A 
ATOM     68  H   UNL A   1      41.750  30.965  32.495  1.00  0.00     0.167 HD
ATOM     69  C   UNL A   1      43.150  28.575  31.738  1.00  0.00     0.074 A 
ATOM     70  C   UNL A   1      43.533  27.347  31.068  1.00  0.00     0.031 C 
ATOM     71  C   UNL A   1      43.822  29.105  32.791  1.00  0.00     0.037 A 
BRANCH  58  72
ATOM     72  C   UNL A   1      41.451  34.382  35.019  1.00  0.00     0.057 A 
ATOM     73  C   UNL A   1      40.731  34.343  36.222  1.00  0.00     0.134 A 
ATOM     74  C   UNL A   1      42.180  35.544  34.742  1.00  0.00     0.134 A 
ATOM     75  F   UNL A   1      39.982  33.274  36.532  1.00  0.00    -0.206 F 
ATOM     76  C   UNL A   1      40.715  35.429  37.101  1.00  0.00     0.040 A 
ATOM     77  C   UNL A   1      42.191  36.627  35.622  1.00  0.00     0.040 A 
ATOM     78  F   UNL A   1      42.877  35.654  33.601  1.00  0.00    -0.206 F 
ATOM     79  C   UNL A   1      41.451  36.575  36.802  1.00  0.00     0.006 A 
ENDBRANCH  58  72
BRANCH  59  80
ATOM     80  C   UNL A   1      40.520  27.091  28.102  1.00  0.00     0.057 A 
ATOM     81  C   UNL A   1      41.166  27.142  26.862  1.00  0.00     0.134 A 
ATOM     82  C   UNL A   1      39.714  25.972  28.358  1.00  0.00     0.134 A 
ATOM     83  F   UNL A   1      41.938  28.192  26.546  1.00  0.00    -0.206 F 
ATOM     84  C   UNL A   1      41.003  26.134  25.908  1.00  0.00     0.040 A 
ATOM     85  C   UNL A   1      39.562  24.945  27.424  1.00  0.00     0.040 A 
ATOM     86  F   UNL A   1      39.067  25.857  29.527  1.00  0.00    -0.206 F 
ATOM     87  C   UNL A   1      40.202  25.029  26.190  1.00  0.00     0.006 A 
ENDBRANCH  59  80
BRANCH  71  88
ATOM     88  C   UNL A   1      45.024  28.351  33.271  1.00  0.00     0.057 A 
ATOM     89  C   UNL A   1      46.310  28.645  32.804  1.00  0.00     0.134 A 
ATOM     90  C   UNL A   1      44.895  27.354  34.246  1.00  0.00     0.134 A 
ATOM     91  F   UNL A   1      46.495  29.584  31.864  1.00  0.00    -0.206 F 
ATOM     92  C   UNL A   1      47.426  27.949  33.267  1.00  0.00     0.040 A 
ATOM     93  C   UNL A   1      46.006  26.674  34.739  1.00  0.00     0.040 A 
ATOM     94  F   UNL A   1      43.689  27.040  34.745  1.00  0.00    -0.206 F 
ATOM     95  C   UNL A   1      47.276  26.965  34.243  1.00  0.00     0.006 A 
ENDBRANCH  71  88
ENDBRANCH  45  46
ENDBRANCH  38  40
ENDBRANCH  37  38
ENDBRANCH   1  37
TORSDOF 12
ENDMDL
MODEL 2
REMARK VINA RESULT:     -12.8      3.791      8.912
REMARK SMILES CC1(C)CC[C@@]2(C(=O)OCCOC(=O)c3ccc(-c4c5nc(c(-c6c(F)cccc6F)c6ccc([nH]6)c(-c6c(F)cccc6F)c6nc(c(-c7c(F)cccc7F)c7ccc4[nH]7)C=C6)C=C5)cc3)CC[C@@]3(C)C(=CC[C@H]4[C@@]5(C)CC[C@H](O)C(C)(C)[C@@H]5CC[C@]43C)[C@@H]2C1
REMARK SMILES IDX 11 1 10 2 9 3 7 4 8 5 6 6 1 7 2 8 3 9 4 10 92 11 5 12 91 13
REMARK SMILES IDX 73 14 69 15 71 16 74 17 70 18 72 19 89 20 75 21 76 22 88 23
REMARK SMILES IDX 90 24 77 25 87 26 78 27 79 28 86 29 80 30 83 31 81 32 84 33
REMARK SMILES IDX 85 34 82 35 12 37 13 38 14 39 15 40 16 41 68 42 17 43 67 44
REMARK SMILES IDX 18 45 19 46 20 47 61 48 21 49 66 50 60 51 62 52 22 53 65 54
REMARK SMILES IDX 59 55 58 56 23 58 49 59 32 60 48 61 33 62 36 63 47 64 63 65
REMARK SMILES IDX 34 66 35 67 46 69 64 70 37 71 24 72 25 73 30 74 26 75 27 76
REMARK SMILES IDX 29 77 31 78 28 79 50 80 51 81 56 82 52 83 53 84 55 85 57 86
REMARK SMILES IDX 54 87 38 88 39 89 44 90 40 91 41 92 43 93 45 94 42 95
REMARK H PARENT 82 36 62 57 36 68
REMARK Flexibility Score: inf
ROOT
ATOM      1  C   UNL A   1      38.959  21.900  25.618  1.00  0.00     0.275 C 
ENDROOT
BRANCH   1   2
ATOM      2  C   UNL A   1      38.046  23.043  26.022  1.00  0.00     0.274 C 
BRANCH   2   3
ATOM      3  O   UNL A   1      37.293  23.654  25.012  1.00  0.00    -0.462 OA
BRANCH   3   4
ATOM      4  C   UNL A   1      35.986  23.645  25.284  1.00  0.00     0.312 C 
ATOM      5  O   UNL A   1      35.481  24.593  25.882  1.00  0.00    -0.252 OA
BRANCH   4   6
ATOM      6  C   UNL A   1      35.154  22.567  24.578  1.00  0.00     0.075 C 
ATOM      7  C   UNL A   1      32.914  20.021  26.973  1.00  0.00     0.011 C 
ATOM      8  C   UNL A   1      33.346  21.497  26.884  1.00  0.00    -0.035 C 
ATOM      9  C   UNL A   1      32.692  22.231  28.085  1.00  0.00     0.011 C 
ATOM     10  C   UNL A   1      34.879  21.533  26.928  1.00  0.00     0.007 C 
ATOM     11  C   UNL A   1      32.771  22.176  25.637  1.00  0.00     0.015 C 
ATOM     12  C   UNL A   1      35.547  21.372  25.519  1.00  0.00     0.020 C 
ATOM     13  C   UNL A   1      33.622  22.393  24.363  1.00  0.00     0.033 C 
ATOM     14  C   UNL A   1      32.871  23.363  23.435  1.00  0.00    -0.063 C 
ATOM     15  C   UNL A   1      35.695  22.628  23.115  1.00  0.00     0.020 C 
ATOM     16  C   UNL A   1      33.527  24.080  22.257  1.00  0.00    -0.006 C 
ATOM     17  C   UNL A   1      31.522  23.356  23.446  1.00  0.00    -0.027 C 
ATOM     18  C   UNL A   1      35.107  23.829  22.240  1.00  0.00     0.013 C 
ATOM     19  C   UNL A   1      33.160  23.147  21.015  1.00  0.00     0.017 C 
ATOM     20  C   UNL A   1      32.749  25.645  22.067  1.00  0.00    -0.020 C 
ATOM     21  C   UNL A   1      30.645  24.493  23.076  1.00  0.00     0.032 C 
ATOM     22  C   UNL A   1      31.397  25.827  22.963  1.00  0.00     0.006 C 
ATOM     23  C   UNL A   1      33.598  26.958  22.146  1.00  0.00     0.008 C 
ATOM     24  C   UNL A   1      32.198  25.697  20.583  1.00  0.00     0.012 C 
ATOM     25  C   UNL A   1      31.301  26.820  24.285  1.00  0.00    -0.025 C 
ATOM     26  C   UNL A   1      33.080  28.140  23.038  1.00  0.00     0.005 C 
ATOM     27  C   UNL A   1      30.040  27.700  24.054  1.00  0.00     0.012 C 
ATOM     28  C   UNL A   1      31.081  26.102  25.656  1.00  0.00     0.010 C 
ATOM     29  C   UNL A   1      32.571  27.696  24.418  1.00  0.00     0.003 C 
ATOM     30  C   UNL A   1      31.173  27.001  26.908  1.00  0.00     0.033 C 
ATOM     31  C   UNL A   1      32.699  28.698  25.670  1.00  0.00    -0.006 C 
ATOM     32  C   UNL A   1      32.412  27.889  26.977  1.00  0.00     0.120 C 
ATOM     33  C   UNL A   1      31.798  29.945  25.629  1.00  0.00     0.014 C 
ATOM     34  C   UNL A   1      34.142  29.279  25.810  1.00  0.00     0.014 C 
BRANCH  32  35
ATOM     35  O   UNL A   1      32.376  28.727  28.135  1.00  0.00    -0.393 OA
ATOM     36  H   UNL A   1      31.915  28.266  28.853  1.00  0.00     0.210 HD
ENDBRANCH  32  35
ENDBRANCH   4   6
ENDBRANCH   3   4
ENDBRANCH   2   3
ENDBRANCH   1   2
BRANCH   1  37
ATOM     37  O   UNL A   1      39.147  20.807  26.486  1.00  0.00    -0.458 OA
BRANCH  37  38
ATOM     38  C   UNL A   1      40.384  20.288  26.173  1.00  0.00     0.338 C 
ATOM     39  O   UNL A   1      40.576  19.183  25.756  1.00  0.00    -0.246 OA
BRANCH  38  40
ATOM     40  C   UNL A   1      41.475  21.193  26.636  1.00  0.00     0.060 A 
ATOM     41  C   UNL A   1      41.727  21.339  27.998  1.00  0.00     0.016 A 
ATOM     42  C   UNL A   1      42.220  21.910  25.684  1.00  0.00     0.016 A 
ATOM     43  C   UNL A   1      42.615  22.314  28.424  1.00  0.00     0.010 A 
ATOM     44  C   UNL A   1      43.125  22.884  26.107  1.00  0.00     0.010 A 
ATOM     45  C   UNL A   1      43.220  23.154  27.478  1.00  0.00    -0.014 A 
BRANCH  45  46
ATOM     46  C   UNL A   1      43.514  24.527  27.940  1.00  0.00     0.031 A 
ATOM     47  C   UNL A   1      44.957  24.961  27.848  1.00  0.00     0.074 A 
ATOM     48  C   UNL A   1      42.528  25.380  28.247  1.00  0.00     0.049 A 
ATOM     49  N   UNL A   1      45.476  26.155  27.945  1.00  0.00    -0.248 NA
ATOM     50  C   UNL A   1      45.950  23.904  27.570  1.00  0.00     0.031 C 
ATOM     51  C   UNL A   1      41.106  25.045  28.303  1.00  0.00     0.029 A 
ATOM     52  N   UNL A   1      42.576  26.716  28.536  1.00  0.00    -0.354 N 
ATOM     53  C   UNL A   1      46.834  25.990  27.692  1.00  0.00     0.074 A 
ATOM     54  C   UNL A   1      47.077  24.586  27.491  1.00  0.00     0.031 C 
ATOM     55  C   UNL A   1      40.410  26.158  28.601  1.00  0.00     0.029 A 
ATOM     56  C   UNL A   1      41.341  27.273  28.758  1.00  0.00     0.049 A 
ATOM     57  H   UNL A   1      43.415  27.228  28.581  1.00  0.00     0.167 HD
ATOM     58  C   UNL A   1      47.798  26.934  27.620  1.00  0.00     0.037 A 
ATOM     59  C   UNL A   1      41.021  28.548  29.048  1.00  0.00     0.037 A 
ATOM     60  C   UNL A   1      47.547  28.320  27.888  1.00  0.00     0.049 A 
ATOM     61  C   UNL A   1      42.132  29.567  29.077  1.00  0.00     0.074 A 
ATOM     62  C   UNL A   1      48.438  29.373  27.922  1.00  0.00     0.029 A 
ATOM     63  N   UNL A   1      46.294  28.830  28.200  1.00  0.00    -0.354 N 
ATOM     64  N   UNL A   1      43.409  29.409  28.812  1.00  0.00    -0.248 NA
ATOM     65  C   UNL A   1      41.758  30.941  29.433  1.00  0.00     0.031 C 
ATOM     66  C   UNL A   1      47.730  30.516  28.310  1.00  0.00     0.029 A 
ATOM     67  C   UNL A   1      46.390  30.183  28.461  1.00  0.00     0.049 A 
ATOM     68  H   UNL A   1      45.462  28.306  28.229  1.00  0.00     0.167 HD
ATOM     69  C   UNL A   1      43.989  30.663  28.953  1.00  0.00     0.074 A 
ATOM     70  C   UNL A   1      42.915  31.573  29.301  1.00  0.00     0.031 C 
ATOM     71  C   UNL A   1      45.286  31.039  28.814  1.00  0.00     0.037 A 
BRANCH  58  72
ATOM     72  C   UNL A   1      49.187  26.467  27.298  1.00  0.00     0.057 A 
ATOM     73  C   UNL A   1      50.089  26.078  28.300  1.00  0.00     0.134 A 
ATOM     74  C   UNL A   1      49.648  26.455  25.977  1.00  0.00     0.134 A 
ATOM     75  F   UNL A   1      49.723  26.101  29.590  1.00  0.00    -0.206 F 
ATOM     76  C   UNL A   1      51.406  25.719  28.000  1.00  0.00     0.040 A 
ATOM     77  C   UNL A   1      50.954  26.076  25.662  1.00  0.00     0.040 A 
ATOM     78  F   UNL A   1      48.843  26.831  24.972  1.00  0.00    -0.206 F 
ATOM     79  C   UNL A   1      51.840  25.714  26.675  1.00  0.00     0.006 A 
ENDBRANCH  58  72
BRANCH  59  80
ATOM     80  C   UNL A   1      39.612  28.922  29.333  1.00  0.00     0.057 A 
ATOM     81  C   UNL A   1      39.071  28.847  30.621  1.00  0.00     0.134 A 
ATOM     82  C   UNL A   1      38.759  29.352  28.306  1.00  0.00     0.134 A 
ATOM     83  F   UNL A   1      39.827  28.427  31.647  1.00  0.00    -0.206 F 
ATOM     84  C   UNL A   1      37.735  29.166  30.876  1.00  0.00     0.040 A 
ATOM     85  C   UNL A   1      37.428  29.699  28.550  1.00  0.00     0.040 A 
ATOM     86  F   UNL A   1      39.211  29.450  27.047  1.00  0.00    -0.206 F 
ATOM     87  C   UNL A   1      36.910  29.598  29.839  1.00  0.00     0.006 A 
ENDBRANCH  59  80
BRANCH  71  88
ATOM     88  C   UNL A   1      45.594  32.489  29.036  1.00  0.00     0.057 A 
ATOM     89  C   UNL A   1      45.979  32.974  30.291  1.00  0.00     0.134 A 
ATOM     90  C   UNL A   1      45.550  33.395  27.970  1.00  0.00     0.134 A 
ATOM     91  F   UNL A   1      46.031  32.154  31.351  1.00  0.00    -0.206 F 
ATOM     92  C   UNL A   1      46.279  34.321  30.485  1.00  0.00     0.040 A 
ATOM     93  C   UNL A   1      45.878  34.738  28.146  1.00  0.00     0.040 A 
ATOM     94  F   UNL A   1      45.204  32.986  26.739  1.00  0.00    -0.206 F 
ATOM     95  C   UNL A   1      46.236  35.206  29.409  1.00  0.00     0.006 A 
ENDBRANCH  71  88
ENDBRANCH  45  46
ENDBRANCH  38  40
ENDBRANCH  37  38
ENDBRANCH   1  37
TORSDOF 12
ENDMDL
MODEL 3
REMARK VINA RESULT:     -12.7      1.967      7.551
REMARK SMILES CC1(C)CC[C@@]2(C(=O)OCCOC(=O)c3ccc(-c4c5nc(c(-c6c(F)cccc6F)c6ccc([nH]6)c(-c6c(F)cccc6F)c6nc(c(-c7c(F)cccc7F)c7ccc4[nH]7)C=C6)C=C5)cc3)CC[C@@]3(C)C(=CC[C@H]4[C@@]5(C)CC[C@H](O)C(C)(C)[C@@H]5CC[C@]43C)[C@@H]2C1
REMARK SMILES IDX 11 1 10 2 9 3 7 4 8 5 6 6 1 7 2 8 3 9 4 10 92 11 5 12 91 13
REMARK SMILES IDX 73 14 69 15 71 16 74 17 70 18 72 19 89 20 75 21 76 22 88 23
REMARK SMILES IDX 90 24 77 25 87 26 78 27 79 28 86 29 80 30 83 31 81 32 84 33
REMARK SMILES IDX 85 34 82 35 12 37 13 38 14 39 15 40 16 41 68 42 17 43 67 44
REMARK SMILES IDX 18 45 19 46 20 47 61 48 21 49 66 50 60 51 62 52 22 53 65 54
REMARK SMILES IDX 59 55 58 56 23 58 49 59 32 60 48 61 33 62 36 63 47 64 63 65
REMARK SMILES IDX 34 66 35 67 46 69 64 70 37 71 24 72 25 73 30 74 26 75 27 76
REMARK SMILES IDX 29 77 31 78 28 79 50 80 51 81 56 82 52 83 53 84 55 85 57 86
REMARK SMILES IDX 54 87 38 88 39 89 44 90 40 91 41 92 43 93 45 94 42 95
REMARK H PARENT 82 36 62 57 36 68
REMARK Flexibility Score: inf
ROOT
ATOM      1  C   UNL A   1      39.350  23.041  26.446  1.00  0.00     0.275 C 
ENDROOT
BRANCH   1   2
ATOM      2  C   UNL A   1      38.044  23.784  26.231  1.00  0.00     0.274 C 
BRANCH   2   3
ATOM      3  O   UNL A   1      37.360  23.550  25.032  1.00  0.00    -0.462 OA
BRANCH   3   4
ATOM      4  C   UNL A   1      36.037  23.645  25.181  1.00  0.00     0.312 C 
ATOM      5  O   UNL A   1      35.548  24.673  25.645  1.00  0.00    -0.252 OA
BRANCH   4   6
ATOM      6  C   UNL A   1      35.198  22.559  24.496  1.00  0.00     0.075 C 
ATOM      7  C   UNL A   1      33.026  20.006  26.946  1.00  0.00     0.011 C 
ATOM      8  C   UNL A   1      33.446  21.485  26.843  1.00  0.00    -0.035 C 
ATOM      9  C   UNL A   1      32.812  22.219  28.055  1.00  0.00     0.011 C 
ATOM     10  C   UNL A   1      34.980  21.531  26.855  1.00  0.00     0.007 C 
ATOM     11  C   UNL A   1      32.840  22.155  25.606  1.00  0.00     0.015 C 
ATOM     12  C   UNL A   1      35.618  21.370  25.433  1.00  0.00     0.020 C 
ATOM     13  C   UNL A   1      33.663  22.373  24.314  1.00  0.00     0.033 C 
ATOM     14  C   UNL A   1      32.886  23.335  23.398  1.00  0.00    -0.063 C 
ATOM     15  C   UNL A   1      35.708  22.618  23.023  1.00  0.00     0.020 C 
ATOM     16  C   UNL A   1      33.513  24.052  22.205  1.00  0.00    -0.006 C 
ATOM     17  C   UNL A   1      31.537  23.319  23.437  1.00  0.00    -0.027 C 
ATOM     18  C   UNL A   1      35.094  23.812  22.156  1.00  0.00     0.013 C 
ATOM     19  C   UNL A   1      33.126  23.112  20.974  1.00  0.00     0.017 C 
ATOM     20  C   UNL A   1      32.720  25.611  22.026  1.00  0.00    -0.020 C 
ATOM     21  C   UNL A   1      30.645  24.448  23.083  1.00  0.00     0.032 C 
ATOM     22  C   UNL A   1      31.386  25.787  22.949  1.00  0.00     0.006 C 
ATOM     23  C   UNL A   1      33.561  26.930  22.082  1.00  0.00     0.008 C 
ATOM     24  C   UNL A   1      32.138  25.654  20.553  1.00  0.00     0.012 C 
ATOM     25  C   UNL A   1      31.310  26.785  24.269  1.00  0.00    -0.025 C 
ATOM     26  C   UNL A   1      33.054  28.112  22.980  1.00  0.00     0.005 C 
ATOM     27  C   UNL A   1      30.038  27.654  24.062  1.00  0.00     0.012 C 
ATOM     28  C   UNL A   1      31.124  26.070  25.647  1.00  0.00     0.010 C 
ATOM     29  C   UNL A   1      32.577  27.669  24.372  1.00  0.00     0.003 C 
ATOM     30  C   UNL A   1      31.235  26.973  26.893  1.00  0.00     0.033 C 
ATOM     31  C   UNL A   1      32.724  28.676  25.618  1.00  0.00    -0.006 C 
ATOM     32  C   UNL A   1      32.470  27.871  26.934  1.00  0.00     0.120 C 
ATOM     33  C   UNL A   1      31.813  29.918  25.592  1.00  0.00     0.014 C 
ATOM     34  C   UNL A   1      34.165  29.268  25.726  1.00  0.00     0.014 C 
BRANCH  32  35
ATOM     35  O   UNL A   1      32.452  28.712  28.090  1.00  0.00    -0.393 OA
ATOM     36  H   UNL A   1      32.501  28.164  28.888  1.00  0.00     0.210 HD
ENDBRANCH  32  35
ENDBRANCH   4   6
ENDBRANCH   3   4
ENDBRANCH   2   3
ENDBRANCH   1   2
BRANCH   1  37
ATOM     37  O   UNL A   1      40.076  23.221  27.640  1.00  0.00    -0.458 OA
BRANCH  37  38
ATOM     38  C   UNL A   1      41.024  24.181  27.360  1.00  0.00     0.338 C 
ATOM     39  O   UNL A   1      42.136  23.952  26.981  1.00  0.00    -0.246 OA
BRANCH  38  40
ATOM     40  C   UNL A   1      40.570  25.527  27.809  1.00  0.00     0.060 A 
ATOM     41  C   UNL A   1      41.259  26.667  27.399  1.00  0.00     0.016 A 
ATOM     42  C   UNL A   1      39.459  25.626  28.665  1.00  0.00     0.016 A 
ATOM     43  C   UNL A   1      40.943  27.893  27.964  1.00  0.00     0.010 A 
ATOM     44  C   UNL A   1      39.128  26.859  29.226  1.00  0.00     0.010 A 
ATOM     45  C   UNL A   1      39.955  27.957  28.957  1.00  0.00    -0.014 A 
BRANCH  45  46
ATOM     46  C   UNL A   1      40.152  29.001  29.985  1.00  0.00     0.031 A 
ATOM     47  C   UNL A   1      39.162  30.140  29.971  1.00  0.00     0.074 A 
ATOM     48  C   UNL A   1      41.045  28.840  30.972  1.00  0.00     0.049 A 
ATOM     49  N   UNL A   1      38.931  31.055  30.872  1.00  0.00    -0.248 NA
ATOM     50  C   UNL A   1      38.283  30.237  28.789  1.00  0.00     0.031 C 
ATOM     51  C   UNL A   1      41.997  27.736  31.081  1.00  0.00     0.029 A 
ATOM     52  N   UNL A   1      41.268  29.595  32.090  1.00  0.00    -0.354 N 
ATOM     53  C   UNL A   1      37.858  31.794  30.385  1.00  0.00     0.074 A 
ATOM     54  C   UNL A   1      37.512  31.265  29.091  1.00  0.00     0.031 C 
ATOM     55  C   UNL A   1      42.701  27.882  32.218  1.00  0.00     0.029 A 
ATOM     56  C   UNL A   1      42.249  29.089  32.906  1.00  0.00     0.049 A 
ATOM     57  H   UNL A   1      40.773  30.423  32.290  1.00  0.00     0.167 HD
ATOM     58  C   UNL A   1      37.204  32.819  30.973  1.00  0.00     0.037 A 
ATOM     59  C   UNL A   1      42.708  29.561  34.079  1.00  0.00     0.037 A 
ATOM     60  C   UNL A   1      37.606  33.373  32.232  1.00  0.00     0.049 A 
ATOM     61  C   UNL A   1      42.039  30.779  34.663  1.00  0.00     0.074 A 
ATOM     62  C   UNL A   1      37.083  34.454  32.912  1.00  0.00     0.029 A 
ATOM     63  N   UNL A   1      38.665  32.886  32.986  1.00  0.00    -0.354 N 
ATOM     64  N   UNL A   1      41.009  31.457  34.209  1.00  0.00    -0.248 NA
ATOM     65  C   UNL A   1      42.587  31.294  35.924  1.00  0.00     0.031 C 
ATOM     66  C   UNL A   1      37.865  34.656  34.055  1.00  0.00     0.029 A 
ATOM     67  C   UNL A   1      38.837  33.665  34.113  1.00  0.00     0.049 A 
ATOM     68  H   UNL A   1      39.212  32.102  32.753  1.00  0.00     0.167 HD
ATOM     69  C   UNL A   1      40.774  32.465  35.135  1.00  0.00     0.074 A 
ATOM     70  C   UNL A   1      41.756  32.291  36.188  1.00  0.00     0.031 C 
ATOM     71  C   UNL A   1      39.841  33.451  35.125  1.00  0.00     0.037 A 
BRANCH  58  72
ATOM     72  C   UNL A   1      36.050  33.413  30.220  1.00  0.00     0.057 A 
ATOM     73  C   UNL A   1      34.719  33.111  30.543  1.00  0.00     0.134 A 
ATOM     74  C   UNL A   1      36.271  34.256  29.125  1.00  0.00     0.134 A 
ATOM     75  F   UNL A   1      34.438  32.281  31.559  1.00  0.00    -0.206 F 
ATOM     76  C   UNL A   1      33.652  33.605  29.788  1.00  0.00     0.040 A 
ATOM     77  C   UNL A   1      35.213  34.775  28.376  1.00  0.00     0.040 A 
ATOM     78  F   UNL A   1      37.520  34.572  28.750  1.00  0.00    -0.206 F 
ATOM     79  C   UNL A   1      33.899  34.444  28.703  1.00  0.00     0.006 A 
ENDBRANCH  58  72
BRANCH  59  80
ATOM     80  C   UNL A   1      43.845  28.892  34.765  1.00  0.00     0.057 A 
ATOM     81  C   UNL A   1      45.175  29.241  34.504  1.00  0.00     0.134 A 
ATOM     82  C   UNL A   1      43.623  27.865  35.693  1.00  0.00     0.134 A 
ATOM     83  F   UNL A   1      45.459  30.203  33.614  1.00  0.00    -0.206 F 
ATOM     84  C   UNL A   1      46.241  28.583  35.125  1.00  0.00     0.040 A 
ATOM     85  C   UNL A   1      44.677  27.216  36.340  1.00  0.00     0.040 A 
ATOM     86  F   UNL A   1      42.373  27.481  35.993  1.00  0.00    -0.206 F 
ATOM     87  C   UNL A   1      45.992  27.570  36.050  1.00  0.00     0.006 A 
ENDBRANCH  59  80
BRANCH  71  88
ATOM     88  C   UNL A   1      39.848  34.396  36.287  1.00  0.00     0.057 A 
ATOM     89  C   UNL A   1      40.549  35.607  36.245  1.00  0.00     0.134 A 
ATOM     90  C   UNL A   1      39.105  34.111  37.439  1.00  0.00     0.134 A 
ATOM     91  F   UNL A   1      41.283  35.931  35.170  1.00  0.00    -0.206 F 
ATOM     92  C   UNL A   1      40.537  36.488  37.324  1.00  0.00     0.040 A 
ATOM     93  C   UNL A   1      39.061  34.999  38.512  1.00  0.00     0.040 A 
ATOM     94  F   UNL A   1      38.399  32.973  37.532  1.00  0.00    -0.206 F 
ATOM     95  C   UNL A   1      39.786  36.188  38.459  1.00  0.00     0.006 A 
ENDBRANCH  71  88
ENDBRANCH  45  46
ENDBRANCH  38  40
ENDBRANCH  37  38
ENDBRANCH   1  37
TORSDOF 12
ENDMDL
