MODEL 1
REMARK VINA RESULT:     -11.5      0.000      0.000
REMARK SMILES Cn1cc(-c2cc(C(F)(F)F)c3c(C4CC4)nn(CC(=O)OCCOC(=O)c4ccc(-c5c6nc(c(-c7c(F)cccc7F)c7ccc([nH]7)c(-c7c(F)cccc7F)c7nc(c(-c8c(F)cccc8F)c8ccc5[nH]8)C=C7)C=C6)cc4)c3n2)cn1
REMARK SMILES IDX 23 1 22 2 20 3 21 4 19 5 18 6 5 7 6 8 83 9 7 10 82 11 12 12
REMARK SMILES IDX 13 13 17 14 4 15 1 16 2 17 3 18 85 19 84 20 8 21 9 22 10 23
REMARK SMILES IDX 11 24 14 25 15 26 16 27 24 28 25 29 26 30 27 31 28 32 29 33
REMARK SMILES IDX 81 34 30 35 80 36 31 37 32 38 33 39 74 40 34 41 79 42 73 43
REMARK SMILES IDX 75 44 35 45 78 46 72 47 71 48 36 50 62 51 45 52 61 53 46 54
REMARK SMILES IDX 49 55 60 56 76 57 47 58 48 59 59 61 77 62 50 63 37 64 38 65
REMARK SMILES IDX 43 66 39 67 40 68 42 69 44 70 41 71 63 72 64 73 69 74 65 75
REMARK SMILES IDX 66 76 68 77 70 78 67 79 51 80 52 81 57 82 53 83 54 84 56 85
REMARK SMILES IDX 58 86 55 87
REMARK H PARENT 75 49 49 60
REMARK Flexibility Score: inf
ROOT
ATOM      1  C   UNL A   1      32.748  30.005  26.610  1.00  0.00     0.274 C 
ENDROOT
BRANCH   1   2
ATOM      2  O   UNL A   1      33.159  29.803  25.246  1.00  0.00    -0.461 OA
BRANCH   2   3
ATOM      3  C   UNL A   1      33.783  28.631  24.995  1.00  0.00     0.327 C 
ATOM      4  O   UNL A   1      34.122  28.262  23.869  1.00  0.00    -0.250 OA
BRANCH   3   5
ATOM      5  C   UNL A   1      33.955  27.744  26.176  1.00  0.00     0.269 C 
BRANCH   5   6
ATOM      6  N   UNL A   1      33.684  26.307  26.126  1.00  0.00    -0.236 N 
ATOM      7  C   UNL A   1      30.241  26.173  25.729  1.00  0.00     0.077 A 
ATOM      8  C   UNL A   1      30.000  24.806  25.751  1.00  0.00     0.043 A 
ATOM      9  N   UNL A   1      31.318  26.686  26.362  1.00  0.00    -0.228 NA
ATOM     10  C   UNL A   1      31.074  23.927  26.033  1.00  0.00     0.071 A 
ATOM     11  C   UNL A   1      32.384  25.877  26.215  1.00  0.00     0.159 A 
ATOM     12  C   UNL A   1      32.347  24.529  25.902  1.00  0.00     0.055 A 
ATOM     13  C   UNL A   1      33.636  24.326  25.328  1.00  0.00     0.076 A 
ATOM     14  N   UNL A   1      34.475  25.359  25.564  1.00  0.00    -0.174 NA
BRANCH   7  15
ATOM     15  C   UNL A   1      30.042  26.925  24.482  1.00  0.00     0.038 A 
ATOM     16  C   UNL A   1      31.847  26.708  21.461  1.00  0.00     0.173 C 
ATOM     17  N   UNL A   1      30.888  27.125  22.462  1.00  0.00    -0.275 N 
ATOM     18  C   UNL A   1      30.191  26.264  23.267  1.00  0.00     0.118 A 
ATOM     19  N   UNL A   1      30.885  28.388  22.924  1.00  0.00    -0.181 NA
ATOM     20  C   UNL A   1      30.462  28.248  24.187  1.00  0.00     0.145 A 
ENDBRANCH   7  15
BRANCH  10  21
ATOM     21  C   UNL A   1      30.808  22.578  26.640  1.00  0.00     0.417 C 
ATOM     22  F   UNL A   1      29.559  22.384  27.124  1.00  0.00    -0.166 F 
ATOM     23  F   UNL A   1      31.024  21.572  25.745  1.00  0.00    -0.166 F 
ATOM     24  F   UNL A   1      31.640  22.305  27.688  1.00  0.00    -0.166 F 
ENDBRANCH  10  21
BRANCH  13  25
ATOM     25  C   UNL A   1      34.059  23.302  24.256  1.00  0.00     0.041 C 
ATOM     26  C   UNL A   1      35.409  22.653  24.108  1.00  0.00     0.011 C 
ATOM     27  C   UNL A   1      34.311  21.870  24.732  1.00  0.00     0.011 C 
ENDBRANCH  13  25
ENDBRANCH   5   6
ENDBRANCH   3   5
ENDBRANCH   2   3
ENDBRANCH   1   2
BRANCH   1  28
ATOM     28  C   UNL A   1      33.278  31.346  27.095  1.00  0.00     0.275 C 
BRANCH  28  29
ATOM     29  O   UNL A   1      34.115  31.256  28.262  1.00  0.00    -0.458 OA
BRANCH  29  30
ATOM     30  C   UNL A   1      35.299  31.897  28.177  1.00  0.00     0.338 C 
ATOM     31  O   UNL A   1      35.543  32.952  27.625  1.00  0.00    -0.246 OA
BRANCH  30  32
ATOM     32  C   UNL A   1      36.385  31.053  28.683  1.00  0.00     0.060 A 
ATOM     33  C   UNL A   1      37.504  31.726  29.189  1.00  0.00     0.016 A 
ATOM     34  C   UNL A   1      36.400  29.670  28.464  1.00  0.00     0.016 A 
ATOM     35  C   UNL A   1      38.681  31.036  29.369  1.00  0.00     0.010 A 
ATOM     36  C   UNL A   1      37.577  28.977  28.658  1.00  0.00     0.010 A 
ATOM     37  C   UNL A   1      38.719  29.676  29.060  1.00  0.00    -0.014 A 
BRANCH  37  38
ATOM     38  C   UNL A   1      39.975  28.988  29.294  1.00  0.00     0.031 A 
ATOM     39  C   UNL A   1      40.307  28.778  30.728  1.00  0.00     0.074 A 
ATOM     40  C   UNL A   1      40.702  28.463  28.293  1.00  0.00     0.049 A 
ATOM     41  N   UNL A   1      41.388  29.089  31.365  1.00  0.00    -0.248 NA
ATOM     42  C   UNL A   1      39.242  28.223  31.584  1.00  0.00     0.031 C 
ATOM     43  C   UNL A   1      40.335  28.344  26.880  1.00  0.00     0.029 A 
ATOM     44  N   UNL A   1      41.885  27.797  28.369  1.00  0.00    -0.354 N 
ATOM     45  C   UNL A   1      41.209  28.616  32.664  1.00  0.00     0.074 A 
ATOM     46  C   UNL A   1      39.834  28.212  32.775  1.00  0.00     0.031 C 
ATOM     47  C   UNL A   1      41.158  27.450  26.289  1.00  0.00     0.029 A 
ATOM     48  C   UNL A   1      42.163  27.027  27.252  1.00  0.00     0.049 A 
ATOM     49  H   UNL A   1      42.488  27.857  29.145  1.00  0.00     0.167 HD
ATOM     50  C   UNL A   1      42.254  28.390  33.502  1.00  0.00     0.037 A 
ATOM     51  C   UNL A   1      43.087  26.041  27.168  1.00  0.00     0.037 A 
ATOM     52  C   UNL A   1      43.423  29.133  33.126  1.00  0.00     0.049 A 
ATOM     53  C   UNL A   1      44.034  26.196  28.300  1.00  0.00     0.074 A 
ATOM     54  C   UNL A   1      43.721  30.474  32.985  1.00  0.00     0.029 A 
ATOM     55  N   UNL A   1      44.459  28.461  32.529  1.00  0.00    -0.354 N 
ATOM     56  N   UNL A   1      44.912  27.153  28.402  1.00  0.00    -0.248 NA
ATOM     57  C   UNL A   1      43.736  25.491  29.539  1.00  0.00     0.031 C 
ATOM     58  C   UNL A   1      44.655  30.539  31.910  1.00  0.00     0.029 A 
ATOM     59  C   UNL A   1      44.874  29.231  31.475  1.00  0.00     0.049 A 
ATOM     60  H   UNL A   1      44.833  27.593  32.805  1.00  0.00     0.167 HD
ATOM     61  C   UNL A   1      44.966  27.443  29.758  1.00  0.00     0.074 A 
ATOM     62  C   UNL A   1      44.310  26.318  30.416  1.00  0.00     0.031 C 
ATOM     63  C   UNL A   1      45.288  28.693  30.202  1.00  0.00     0.037 A 
BRANCH  50  64
ATOM     64  C   UNL A   1      42.303  27.224  34.456  1.00  0.00     0.057 A 
ATOM     65  C   UNL A   1      42.998  26.025  34.191  1.00  0.00     0.134 A 
ATOM     66  C   UNL A   1      41.907  27.404  35.792  1.00  0.00     0.134 A 
ATOM     67  F   UNL A   1      43.522  25.750  32.989  1.00  0.00    -0.206 F 
ATOM     68  C   UNL A   1      43.287  25.083  35.179  1.00  0.00     0.040 A 
ATOM     69  C   UNL A   1      42.240  26.492  36.800  1.00  0.00     0.040 A 
ATOM     70  F   UNL A   1      41.259  28.515  36.174  1.00  0.00    -0.206 F 
ATOM     71  C   UNL A   1      42.938  25.330  36.496  1.00  0.00     0.006 A 
ENDBRANCH  50  64
BRANCH  51  72
ATOM     72  C   UNL A   1      43.041  24.824  26.331  1.00  0.00     0.057 A 
ATOM     73  C   UNL A   1      42.248  23.716  26.678  1.00  0.00     0.134 A 
ATOM     74  C   UNL A   1      43.955  24.626  25.289  1.00  0.00     0.134 A 
ATOM     75  F   UNL A   1      41.408  23.763  27.722  1.00  0.00    -0.206 F 
ATOM     76  C   UNL A   1      42.347  22.487  26.021  1.00  0.00     0.040 A 
ATOM     77  C   UNL A   1      44.076  23.395  24.631  1.00  0.00     0.040 A 
ATOM     78  F   UNL A   1      44.792  25.608  24.921  1.00  0.00    -0.206 F 
ATOM     79  C   UNL A   1      43.272  22.320  25.000  1.00  0.00     0.006 A 
ENDBRANCH  51  72
BRANCH  63  80
ATOM     80  C   UNL A   1      45.841  29.664  29.201  1.00  0.00     0.057 A 
ATOM     81  C   UNL A   1      44.957  30.411  28.416  1.00  0.00     0.134 A 
ATOM     82  C   UNL A   1      47.207  29.776  28.905  1.00  0.00     0.134 A 
ATOM     83  F   UNL A   1      43.631  30.303  28.599  1.00  0.00    -0.206 F 
ATOM     84  C   UNL A   1      45.410  31.253  27.398  1.00  0.00     0.040 A 
ATOM     85  C   UNL A   1      47.676  30.641  27.912  1.00  0.00     0.040 A 
ATOM     86  F   UNL A   1      48.116  29.015  29.527  1.00  0.00    -0.206 F 
ATOM     87  C   UNL A   1      46.775  31.381  27.153  1.00  0.00     0.006 A 
ENDBRANCH  63  80
ENDBRANCH  37  38
ENDBRANCH  30  32
ENDBRANCH  29  30
ENDBRANCH  28  29
ENDBRANCH   1  28
TORSDOF 15
ENDMDL
MODEL 2
REMARK VINA RESULT:     -11.5      1.549      2.725
REMARK SMILES Cn1cc(-c2cc(C(F)(F)F)c3c(C4CC4)nn(CC(=O)OCCOC(=O)c4ccc(-c5c6nc(c(-c7c(F)cccc7F)c7ccc([nH]7)c(-c7c(F)cccc7F)c7nc(c(-c8c(F)cccc8F)c8ccc5[nH]8)C=C7)C=C6)cc4)c3n2)cn1
REMARK SMILES IDX 23 1 22 2 20 3 21 4 19 5 18 6 5 7 6 8 83 9 7 10 82 11 12 12
REMARK SMILES IDX 13 13 17 14 4 15 1 16 2 17 3 18 85 19 84 20 8 21 9 22 10 23
REMARK SMILES IDX 11 24 14 25 15 26 16 27 24 28 25 29 26 30 27 31 28 32 29 33
REMARK SMILES IDX 81 34 30 35 80 36 31 37 32 38 33 39 74 40 34 41 79 42 73 43
REMARK SMILES IDX 75 44 35 45 78 46 72 47 71 48 36 50 62 51 45 52 61 53 46 54
REMARK SMILES IDX 49 55 60 56 76 57 47 58 48 59 59 61 77 62 50 63 37 64 38 65
REMARK SMILES IDX 43 66 39 67 40 68 42 69 44 70 41 71 63 72 64 73 69 74 65 75
REMARK SMILES IDX 66 76 68 77 70 78 67 79 51 80 52 81 57 82 53 83 54 84 56 85
REMARK SMILES IDX 58 86 55 87
REMARK H PARENT 75 49 49 60
REMARK Flexibility Score: inf
ROOT
ATOM      1  C   UNL A   1      31.752  28.807  26.754  1.00  0.00     0.274 C 
ENDROOT
BRANCH   1   2
ATOM      2  O   UNL A   1      31.549  27.386  26.655  1.00  0.00    -0.461 OA
BRANCH   2   3
ATOM      3  C   UNL A   1      30.747  26.984  25.643  1.00  0.00     0.327 C 
ATOM      4  O   UNL A   1      30.490  27.676  24.656  1.00  0.00    -0.250 OA
BRANCH   3   5
ATOM      5  C   UNL A   1      30.099  25.660  25.842  1.00  0.00     0.269 C 
BRANCH   5   6
ATOM      6  N   UNL A   1      30.866  24.422  25.981  1.00  0.00    -0.236 N 
ATOM      7  C   UNL A   1      31.741  23.671  22.710  1.00  0.00     0.077 A 
ATOM      8  C   UNL A   1      32.409  22.463  22.858  1.00  0.00     0.043 A 
ATOM      9  N   UNL A   1      30.801  24.046  23.603  1.00  0.00    -0.228 NA
ATOM     10  C   UNL A   1      32.439  21.852  24.136  1.00  0.00     0.071 A 
ATOM     11  C   UNL A   1      31.170  23.704  24.852  1.00  0.00     0.159 A 
ATOM     12  C   UNL A   1      32.092  22.728  25.190  1.00  0.00     0.055 A 
ATOM     13  C   UNL A   1      32.512  23.157  26.483  1.00  0.00     0.076 A 
ATOM     14  N   UNL A   1      31.700  24.104  27.003  1.00  0.00    -0.174 NA
BRANCH   7  15
ATOM     15  C   UNL A   1      32.491  24.870  22.305  1.00  0.00     0.038 A 
ATOM     16  C   UNL A   1      34.053  27.288  24.340  1.00  0.00     0.173 C 
ATOM     17  N   UNL A   1      33.566  26.579  23.176  1.00  0.00    -0.275 N 
ATOM     18  C   UNL A   1      33.633  25.220  23.018  1.00  0.00     0.118 A 
ATOM     19  N   UNL A   1      32.687  27.158  22.339  1.00  0.00    -0.181 NA
ATOM     20  C   UNL A   1      31.971  26.121  21.886  1.00  0.00     0.145 A 
ENDBRANCH   7  15
BRANCH  10  21
ATOM     21  C   UNL A   1      32.593  20.361  24.257  1.00  0.00     0.417 C 
ATOM     22  F   UNL A   1      33.863  19.905  24.353  1.00  0.00    -0.166 F 
ATOM     23  F   UNL A   1      31.935  19.875  25.348  1.00  0.00    -0.166 F 
ATOM     24  F   UNL A   1      32.056  19.694  23.193  1.00  0.00    -0.166 F 
ENDBRANCH  10  21
BRANCH  13  25
ATOM     25  C   UNL A   1      33.874  22.940  27.171  1.00  0.00     0.041 C 
ATOM     26  C   UNL A   1      34.847  21.819  26.917  1.00  0.00     0.011 C 
ATOM     27  C   UNL A   1      35.123  23.146  26.311  1.00  0.00     0.011 C 
ENDBRANCH  13  25
ENDBRANCH   5   6
ENDBRANCH   3   5
ENDBRANCH   2   3
ENDBRANCH   1   2
BRANCH   1  28
ATOM     28  C   UNL A   1      32.975  29.074  27.619  1.00  0.00     0.275 C 
BRANCH  28  29
ATOM     29  O   UNL A   1      33.931  29.966  27.020  1.00  0.00    -0.458 OA
BRANCH  29  30
ATOM     30  C   UNL A   1      34.513  30.844  27.863  1.00  0.00     0.338 C 
ATOM     31  O   UNL A   1      34.015  31.819  28.392  1.00  0.00    -0.246 OA
BRANCH  30  32
ATOM     32  C   UNL A   1      35.958  30.612  27.941  1.00  0.00     0.060 A 
ATOM     33  C   UNL A   1      36.396  29.329  27.592  1.00  0.00     0.016 A 
ATOM     34  C   UNL A   1      36.816  31.540  28.544  1.00  0.00     0.016 A 
ATOM     35  C   UNL A   1      37.664  28.930  27.949  1.00  0.00     0.010 A 
ATOM     36  C   UNL A   1      38.090  31.141  28.891  1.00  0.00     0.010 A 
ATOM     37  C   UNL A   1      38.484  29.825  28.635  1.00  0.00    -0.014 A 
BRANCH  37  38
ATOM     38  C   UNL A   1      39.820  29.365  28.965  1.00  0.00     0.031 A 
ATOM     39  C   UNL A   1      40.132  29.367  30.419  1.00  0.00     0.074 A 
ATOM     40  C   UNL A   1      40.649  28.848  28.043  1.00  0.00     0.049 A 
ATOM     41  N   UNL A   1      41.134  29.907  31.033  1.00  0.00    -0.248 NA
ATOM     42  C   UNL A   1      39.134  28.756  31.316  1.00  0.00     0.031 C 
ATOM     43  C   UNL A   1      40.350  28.519  26.647  1.00  0.00     0.029 A 
ATOM     44  N   UNL A   1      41.915  28.380  28.213  1.00  0.00    -0.354 N 
ATOM     45  C   UNL A   1      40.985  29.559  32.374  1.00  0.00     0.074 A 
ATOM     46  C   UNL A   1      39.682  28.966  32.510  1.00  0.00     0.031 C 
ATOM     47  C   UNL A   1      41.315  27.699  26.176  1.00  0.00     0.029 A 
ATOM     48  C   UNL A   1      42.339  27.542  27.196  1.00  0.00     0.049 A 
ATOM     49  H   UNL A   1      42.476  28.615  28.987  1.00  0.00     0.167 HD
ATOM     50  C   UNL A   1      42.024  29.587  33.250  1.00  0.00     0.037 A 
ATOM     51  C   UNL A   1      43.401  26.703  27.240  1.00  0.00     0.037 A 
ATOM     52  C   UNL A   1      43.082  30.451  32.809  1.00  0.00     0.049 A 
ATOM     53  C   UNL A   1      44.277  27.124  28.361  1.00  0.00     0.074 A 
ATOM     54  C   UNL A   1      43.183  31.798  32.520  1.00  0.00     0.029 A 
ATOM     55  N   UNL A   1      44.225  29.881  32.309  1.00  0.00    -0.354 N 
ATOM     56  N   UNL A   1      45.000  28.208  28.367  1.00  0.00    -0.248 NA
ATOM     57  C   UNL A   1      44.047  26.524  29.668  1.00  0.00     0.031 C 
ATOM     58  C   UNL A   1      44.131  31.883  31.459  1.00  0.00     0.029 A 
ATOM     59  C   UNL A   1      44.555  30.583  31.181  1.00  0.00     0.049 A 
ATOM     60  H   UNL A   1      44.714  29.116  32.689  1.00  0.00     0.167 HD
ATOM     61  C   UNL A   1      44.967  28.650  29.681  1.00  0.00     0.074 A 
ATOM     62  C   UNL A   1      44.463  27.519  30.453  1.00  0.00     0.031 C 
ATOM     63  C   UNL A   1      45.085  29.977  29.984  1.00  0.00     0.037 A 
BRANCH  50  64
ATOM     64  C   UNL A   1      42.214  28.554  34.332  1.00  0.00     0.057 A 
ATOM     65  C   UNL A   1      41.794  28.734  35.666  1.00  0.00     0.134 A 
ATOM     66  C   UNL A   1      42.545  27.236  33.980  1.00  0.00     0.134 A 
ATOM     67  F   UNL A   1      41.355  29.913  36.128  1.00  0.00    -0.206 F 
ATOM     68  C   UNL A   1      41.700  27.682  36.579  1.00  0.00     0.040 A 
ATOM     69  C   UNL A   1      42.403  26.166  34.871  1.00  0.00     0.040 A 
ATOM     70  F   UNL A   1      42.937  26.933  32.733  1.00  0.00    -0.206 F 
ATOM     71  C   UNL A   1      41.972  26.386  36.174  1.00  0.00     0.006 A 
ENDBRANCH  50  64
BRANCH  51  72
ATOM     72  C   UNL A   1      43.564  25.408  26.547  1.00  0.00     0.057 A 
ATOM     73  C   UNL A   1      44.377  25.275  25.407  1.00  0.00     0.134 A 
ATOM     74  C   UNL A   1      42.742  24.316  26.849  1.00  0.00     0.134 A 
ATOM     75  F   UNL A   1      45.131  26.294  24.969  1.00  0.00    -0.206 F 
ATOM     76  C   UNL A   1      44.382  24.121  24.620  1.00  0.00     0.040 A 
ATOM     77  C   UNL A   1      42.727  23.158  26.061  1.00  0.00     0.040 A 
ATOM     78  F   UNL A   1      41.894  24.367  27.887  1.00  0.00    -0.206 F 
ATOM     79  C   UNL A   1      43.546  23.060  24.940  1.00  0.00     0.006 A 
ENDBRANCH  51  72
BRANCH  63  80
ATOM     80  C   UNL A   1      45.521  30.902  28.887  1.00  0.00     0.057 A 
ATOM     81  C   UNL A   1      46.845  31.353  28.862  1.00  0.00     0.134 A 
ATOM     82  C   UNL A   1      44.642  31.456  27.947  1.00  0.00     0.134 A 
ATOM     83  F   UNL A   1      47.727  30.916  29.775  1.00  0.00    -0.206 F 
ATOM     84  C   UNL A   1      47.283  32.295  27.928  1.00  0.00     0.040 A 
ATOM     85  C   UNL A   1      45.075  32.373  26.984  1.00  0.00     0.040 A 
ATOM     86  F   UNL A   1      43.334  31.170  27.968  1.00  0.00    -0.206 F 
ATOM     87  C   UNL A   1      46.400  32.797  26.975  1.00  0.00     0.006 A 
ENDBRANCH  63  80
ENDBRANCH  37  38
ENDBRANCH  30  32
ENDBRANCH  29  30
ENDBRANCH  28  29
ENDBRANCH   1  28
TORSDOF 15
ENDMDL
MODEL 3
REMARK VINA RESULT:     -11.5      3.132      7.450
REMARK SMILES Cn1cc(-c2cc(C(F)(F)F)c3c(C4CC4)nn(CC(=O)OCCOC(=O)c4ccc(-c5c6nc(c(-c7c(F)cccc7F)c7ccc([nH]7)c(-c7c(F)cccc7F)c7nc(c(-c8c(F)cccc8F)c8ccc5[nH]8)C=C7)C=C6)cc4)c3n2)cn1
REMARK SMILES IDX 23 1 22 2 20 3 21 4 19 5 18 6 5 7 6 8 83 9 7 10 82 11 12 12
REMARK SMILES IDX 13 13 17 14 4 15 1 16 2 17 3 18 85 19 84 20 8 21 9 22 10 23
REMARK SMILES IDX 11 24 14 25 15 26 16 27 24 28 25 29 26 30 27 31 28 32 29 33
REMARK SMILES IDX 81 34 30 35 80 36 31 37 32 38 33 39 74 40 34 41 79 42 73 43
REMARK SMILES IDX 75 44 35 45 78 46 72 47 71 48 36 50 62 51 45 52 61 53 46 54
REMARK SMILES IDX 49 55 60 56 76 57 47 58 48 59 59 61 77 62 50 63 37 64 38 65
REMARK SMILES IDX 43 66 39 67 40 68 42 69 44 70 41 71 63 72 64 73 69 74 65 75
REMARK SMILES IDX 66 76 68 77 70 78 67 79 51 80 52 81 57 82 53 83 54 84 56 85
REMARK SMILES IDX 58 86 55 87
REMARK H PARENT 75 49 49 60
REMARK Flexibility Score: inf
ROOT
ATOM      1  C   UNL A   1      35.964  21.410  24.981  1.00  0.00     0.274 C 
ENDROOT
BRANCH   1   2
ATOM      2  O   UNL A   1      35.615  22.803  24.904  1.00  0.00    -0.461 OA
BRANCH   2   3
ATOM      3  C   UNL A   1      35.256  23.244  23.677  1.00  0.00     0.327 C 
ATOM      4  O   UNL A   1      36.049  23.404  22.747  1.00  0.00    -0.250 OA
BRANCH   3   5
ATOM      5  C   UNL A   1      33.826  23.630  23.540  1.00  0.00     0.269 C 
BRANCH   5   6
ATOM      6  N   UNL A   1      33.394  25.025  23.442  1.00  0.00    -0.236 N 
ATOM      7  C   UNL A   1      30.232  24.966  24.865  1.00  0.00     0.077 A 
ATOM      8  C   UNL A   1      29.816  26.280  24.702  1.00  0.00     0.043 A 
ATOM      9  N   UNL A   1      31.134  24.425  24.019  1.00  0.00    -0.228 NA
ATOM     10  C   UNL A   1      30.634  27.169  23.963  1.00  0.00     0.071 A 
ATOM     11  C   UNL A   1      32.079  25.327  23.695  1.00  0.00     0.159 A 
ATOM     12  C   UNL A   1      31.958  26.703  23.786  1.00  0.00     0.055 A 
ATOM     13  C   UNL A   1      33.320  27.111  23.889  1.00  0.00     0.076 A 
ATOM     14  N   UNL A   1      34.182  26.121  23.571  1.00  0.00    -0.174 NA
BRANCH   7  15
ATOM     15  C   UNL A   1      30.507  24.454  26.216  1.00  0.00     0.038 A 
ATOM     16  C   UNL A   1      33.276  22.587  27.345  1.00  0.00     0.173 C 
ATOM     17  N   UNL A   1      32.012  23.291  27.320  1.00  0.00    -0.275 N 
ATOM     18  C   UNL A   1      31.812  24.493  26.696  1.00  0.00     0.118 A 
ATOM     19  N   UNL A   1      30.863  22.645  27.587  1.00  0.00    -0.181 NA
ATOM     20  C   UNL A   1      29.966  23.297  26.835  1.00  0.00     0.145 A 
ENDBRANCH   7  15
BRANCH  10  21
ATOM     21  C   UNL A   1      30.026  28.351  23.262  1.00  0.00     0.417 C 
ATOM     22  F   UNL A   1      28.682  28.322  23.113  1.00  0.00    -0.166 F 
ATOM     23  F   UNL A   1      30.307  29.518  23.909  1.00  0.00    -0.166 F 
ATOM     24  F   UNL A   1      30.520  28.519  21.999  1.00  0.00    -0.166 F 
ENDBRANCH  10  21
BRANCH  13  25
ATOM     25  C   UNL A   1      33.898  28.352  24.598  1.00  0.00     0.041 C 
ATOM     26  C   UNL A   1      33.143  29.352  25.432  1.00  0.00     0.011 C 
ATOM     27  C   UNL A   1      33.945  28.314  26.127  1.00  0.00     0.011 C 
ENDBRANCH  13  25
ENDBRANCH   5   6
ENDBRANCH   3   5
ENDBRANCH   2   3
ENDBRANCH   1   2
BRANCH   1  28
ATOM     28  C   UNL A   1      37.470  21.285  25.160  1.00  0.00     0.275 C 
BRANCH  28  29
ATOM     29  O   UNL A   1      38.106  22.492  25.615  1.00  0.00    -0.458 OA
BRANCH  29  30
ATOM     30  C   UNL A   1      39.333  22.333  26.155  1.00  0.00     0.338 C 
ATOM     31  O   UNL A   1      40.070  21.370  26.072  1.00  0.00    -0.246 OA
BRANCH  30  32
ATOM     32  C   UNL A   1      39.643  23.429  27.076  1.00  0.00     0.060 A 
ATOM     33  C   UNL A   1      38.789  24.538  27.024  1.00  0.00     0.016 A 
ATOM     34  C   UNL A   1      40.844  23.463  27.795  1.00  0.00     0.016 A 
ATOM     35  C   UNL A   1      39.189  25.724  27.598  1.00  0.00     0.010 A 
ATOM     36  C   UNL A   1      41.237  24.650  28.379  1.00  0.00     0.010 A 
ATOM     37  C   UNL A   1      40.429  25.781  28.232  1.00  0.00    -0.014 A 
BRANCH  37  38
ATOM     38  C   UNL A   1      40.793  27.046  28.844  1.00  0.00     0.031 A 
ATOM     39  C   UNL A   1      42.066  27.630  28.344  1.00  0.00     0.074 A 
ATOM     40  C   UNL A   1      39.973  27.698  29.684  1.00  0.00     0.049 A 
ATOM     41  N   UNL A   1      43.094  28.031  29.019  1.00  0.00    -0.248 NA
ATOM     42  C   UNL A   1      42.245  27.688  26.882  1.00  0.00     0.031 C 
ATOM     43  C   UNL A   1      38.583  27.376  30.017  1.00  0.00     0.029 A 
ATOM     44  N   UNL A   1      40.183  28.880  30.321  1.00  0.00    -0.354 N 
ATOM     45  C   UNL A   1      43.982  28.550  28.078  1.00  0.00     0.074 A 
ATOM     46  C   UNL A   1      43.469  28.198  26.781  1.00  0.00     0.031 C 
ATOM     47  C   UNL A   1      38.011  28.455  30.595  1.00  0.00     0.029 A 
ATOM     48  C   UNL A   1      39.021  29.487  30.766  1.00  0.00     0.049 A 
ATOM     49  H   UNL A   1      41.078  29.269  30.453  1.00  0.00     0.167 HD
ATOM     50  C   UNL A   1      44.971  29.418  28.417  1.00  0.00     0.037 A 
ATOM     51  C   UNL A   1      38.887  30.779  31.149  1.00  0.00     0.037 A 
ATOM     52  C   UNL A   1      45.312  29.335  29.808  1.00  0.00     0.049 A 
ATOM     53  C   UNL A   1      40.240  31.324  31.421  1.00  0.00     0.074 A 
ATOM     54  C   UNL A   1      45.791  28.338  30.636  1.00  0.00     0.029 A 
ATOM     55  N   UNL A   1      44.889  30.336  30.645  1.00  0.00    -0.354 N 
ATOM     56  N   UNL A   1      40.979  30.989  32.441  1.00  0.00    -0.248 NA
ATOM     57  C   UNL A   1      40.949  31.966  30.324  1.00  0.00     0.031 C 
ATOM     58  C   UNL A   1      45.195  28.589  31.907  1.00  0.00     0.029 A 
ATOM     59  C   UNL A   1      44.403  29.729  31.773  1.00  0.00     0.049 A 
ATOM     60  H   UNL A   1      44.928  31.304  30.469  1.00  0.00     0.167 HD
ATOM     61  C   UNL A   1      42.278  30.997  31.956  1.00  0.00     0.074 A 
ATOM     62  C   UNL A   1      42.209  31.713  30.686  1.00  0.00     0.031 C 
ATOM     63  C   UNL A   1      43.238  30.185  32.490  1.00  0.00     0.037 A 
BRANCH  50  64
ATOM     64  C   UNL A   1      45.377  30.580  27.547  1.00  0.00     0.057 A 
ATOM     65  C   UNL A   1      44.526  31.665  27.245  1.00  0.00     0.134 A 
ATOM     66  C   UNL A   1      46.734  30.781  27.249  1.00  0.00     0.134 A 
ATOM     67  F   UNL A   1      43.224  31.663  27.556  1.00  0.00    -0.206 F 
ATOM     68  C   UNL A   1      44.992  32.862  26.698  1.00  0.00     0.040 A 
ATOM     69  C   UNL A   1      47.219  31.996  26.752  1.00  0.00     0.040 A 
ATOM     70  F   UNL A   1      47.645  29.831  27.511  1.00  0.00    -0.206 F 
ATOM     71  C   UNL A   1      46.347  33.044  26.481  1.00  0.00     0.006 A 
ENDBRANCH  50  64
BRANCH  51  72
ATOM     72  C   UNL A   1      37.692  31.641  31.032  1.00  0.00     0.057 A 
ATOM     73  C   UNL A   1      36.745  31.738  32.067  1.00  0.00     0.134 A 
ATOM     74  C   UNL A   1      37.328  32.213  29.807  1.00  0.00     0.134 A 
ATOM     75  F   UNL A   1      36.948  31.143  33.252  1.00  0.00    -0.206 F 
ATOM     76  C   UNL A   1      35.514  32.378  31.901  1.00  0.00     0.040 A 
ATOM     77  C   UNL A   1      36.091  32.844  29.621  1.00  0.00     0.040 A 
ATOM     78  F   UNL A   1      38.142  32.126  28.745  1.00  0.00    -0.206 F 
ATOM     79  C   UNL A   1      35.178  32.924  30.670  1.00  0.00     0.006 A 
ENDBRANCH  51  72
BRANCH  63  80
ATOM     80  C   UNL A   1      42.918  29.491  33.781  1.00  0.00     0.057 A 
ATOM     81  C   UNL A   1      43.452  29.990  34.973  1.00  0.00     0.134 A 
ATOM     82  C   UNL A   1      42.216  28.280  33.855  1.00  0.00     0.134 A 
ATOM     83  F   UNL A   1      44.192  31.110  34.968  1.00  0.00    -0.206 F 
ATOM     84  C   UNL A   1      43.275  29.328  36.191  1.00  0.00     0.040 A 
ATOM     85  C   UNL A   1      42.002  27.626  35.072  1.00  0.00     0.040 A 
ATOM     86  F   UNL A   1      41.767  27.670  32.750  1.00  0.00    -0.206 F 
ATOM     87  C   UNL A   1      42.535  28.150  36.245  1.00  0.00     0.006 A 
ENDBRANCH  63  80
ENDBRANCH  37  38
ENDBRANCH  30  32
ENDBRANCH  29  30
ENDBRANCH  28  29
ENDBRANCH   1  28
TORSDOF 15
ENDMDL
