MODEL 1
REMARK VINA RESULT:     -10.9      0.000      0.000
REMARK SMILES C[C@@H](C(=O)OCCOC(=O)c1ccc(-c2c3nc(c(-c4c(F)cccc4F)c4ccc([nH]4)c(-c4c(F)cccc4F)c4nc(c(-c5c(F)cccc5F)c5ccc2[nH]5)C=C4)C=C3)cc1)c1ccc(C[C@H]2CCC[C@@H]2O)cc1
REMARK SMILES IDX 6 1 5 2 3 3 4 4 2 5 1 6 65 7 66 8 77 9 67 10 76 11 68 12
REMARK SMILES IDX 69 13 70 14 71 15 74 16 72 17 73 18 75 19 7 21 8 22 9 23
REMARK SMILES IDX 10 24 11 25 12 26 64 27 13 28 63 29 14 30 15 31 16 32 57 33
REMARK SMILES IDX 17 34 62 35 56 36 58 37 18 38 61 39 55 40 54 41 19 43 45 44
REMARK SMILES IDX 28 45 44 46 29 47 32 48 43 49 59 50 30 51 31 52 42 54 60 55
REMARK SMILES IDX 33 56 20 57 21 58 26 59 22 60 23 61 25 62 27 63 24 64 46 65
REMARK SMILES IDX 47 66 52 67 48 68 49 69 51 70 53 71 50 72 34 73 35 74 40 75
REMARK SMILES IDX 36 76 37 77 39 78 41 79 38 80
REMARK H PARENT 75 20 58 42 32 53
REMARK Flexibility Score: inf
ROOT
ATOM      1  C   UNL A   1      44.080  21.851  24.815  1.00  0.00     0.274 C 
ENDROOT
BRANCH   1   2
ATOM      2  O   UNL A   1      42.689  22.131  25.076  1.00  0.00    -0.462 OA
BRANCH   2   3
ATOM      3  C   UNL A   1      42.033  21.267  25.900  1.00  0.00     0.313 C 
ATOM      4  O   UNL A   1      42.011  20.051  25.739  1.00  0.00    -0.252 OA
BRANCH   3   5
ATOM      5  C   UNL A   1      41.283  21.987  27.030  1.00  0.00     0.126 C 
ATOM      6  C   UNL A   1      41.331  21.238  28.367  1.00  0.00     0.025 C 
BRANCH   5   7
ATOM      7  C   UNL A   1      39.868  22.370  26.601  1.00  0.00    -0.034 A 
ATOM      8  C   UNL A   1      39.396  23.665  26.877  1.00  0.00     0.005 A 
ATOM      9  C   UNL A   1      39.028  21.503  25.889  1.00  0.00     0.005 A 
ATOM     10  C   UNL A   1      38.133  24.082  26.441  1.00  0.00     0.004 A 
ATOM     11  C   UNL A   1      37.762  21.918  25.462  1.00  0.00     0.004 A 
ATOM     12  C   UNL A   1      37.302  23.214  25.725  1.00  0.00    -0.048 A 
BRANCH  12  13
ATOM     13  C   UNL A   1      35.978  23.697  25.175  1.00  0.00     0.041 C 
BRANCH  13  14
ATOM     14  C   UNL A   1      34.782  23.707  26.133  1.00  0.00     0.022 C 
ATOM     15  C   UNL A   1      33.638  24.663  25.754  1.00  0.00     0.007 C 
ATOM     16  C   UNL A   1      34.119  22.341  26.349  1.00  0.00     0.117 C 
ATOM     17  C   UNL A   1      32.357  23.837  25.836  1.00  0.00     0.003 C 
ATOM     18  C   UNL A   1      32.702  22.696  26.777  1.00  0.00     0.032 C 
BRANCH  16  19
ATOM     19  O   UNL A   1      34.788  21.573  27.334  1.00  0.00    -0.393 OA
ATOM     20  H   UNL A   1      35.562  21.143  26.939  1.00  0.00     0.210 HD
ENDBRANCH  16  19
ENDBRANCH  13  14
ENDBRANCH  12  13
ENDBRANCH   5   7
ENDBRANCH   3   5
ENDBRANCH   2   3
ENDBRANCH   1   2
BRANCH   1  21
ATOM     21  C   UNL A   1      44.755  23.087  24.228  1.00  0.00     0.275 C 
BRANCH  21  22
ATOM     22  O   UNL A   1      43.959  24.245  24.531  1.00  0.00    -0.458 OA
BRANCH  22  23
ATOM     23  C   UNL A   1      44.624  25.325  25.002  1.00  0.00     0.338 C 
ATOM     24  O   UNL A   1      45.733  25.712  24.675  1.00  0.00    -0.246 OA
BRANCH  23  25
ATOM     25  C   UNL A   1      43.800  26.010  26.015  1.00  0.00     0.060 A 
ATOM     26  C   UNL A   1      43.936  27.379  26.225  1.00  0.00     0.016 A 
ATOM     27  C   UNL A   1      42.965  25.260  26.846  1.00  0.00     0.016 A 
ATOM     28  C   UNL A   1      43.316  27.975  27.324  1.00  0.00     0.010 A 
ATOM     29  C   UNL A   1      42.280  25.883  27.897  1.00  0.00     0.010 A 
ATOM     30  C   UNL A   1      42.487  27.242  28.187  1.00  0.00    -0.014 A 
BRANCH  30  31
ATOM     31  C   UNL A   1      41.918  27.866  29.424  1.00  0.00     0.031 A 
ATOM     32  C   UNL A   1      40.612  28.627  29.365  1.00  0.00     0.074 A 
ATOM     33  C   UNL A   1      42.513  27.721  30.625  1.00  0.00     0.049 A 
ATOM     34  N   UNL A   1      40.066  29.409  30.265  1.00  0.00    -0.248 NA
ATOM     35  C   UNL A   1      39.820  28.500  28.131  1.00  0.00     0.031 C 
ATOM     36  C   UNL A   1      43.736  26.961  30.886  1.00  0.00     0.029 A 
ATOM     37  N   UNL A   1      42.150  28.192  31.866  1.00  0.00    -0.354 N 
ATOM     38  C   UNL A   1      38.922  29.933  29.674  1.00  0.00     0.074 A 
ATOM     39  C   UNL A   1      38.835  29.360  28.348  1.00  0.00     0.031 C 
ATOM     40  C   UNL A   1      43.981  26.957  32.205  1.00  0.00     0.029 A 
ATOM     41  C   UNL A   1      42.999  27.803  32.873  1.00  0.00     0.049 A 
ATOM     42  H   UNL A   1      41.356  28.754  32.018  1.00  0.00     0.167 HD
ATOM     43  C   UNL A   1      38.032  30.818  30.185  1.00  0.00     0.037 A 
ATOM     44  C   UNL A   1      43.024  28.122  34.182  1.00  0.00     0.037 A 
ATOM     45  C   UNL A   1      38.057  31.324  31.532  1.00  0.00     0.049 A 
ATOM     46  C   UNL A   1      42.027  29.100  34.731  1.00  0.00     0.074 A 
ATOM     47  C   UNL A   1      37.196  32.228  32.132  1.00  0.00     0.029 A 
ATOM     48  N   UNL A   1      38.968  30.939  32.503  1.00  0.00    -0.354 N 
ATOM     49  N   UNL A   1      41.032  29.694  34.122  1.00  0.00    -0.248 NA
ATOM     50  C   UNL A   1      42.183  29.480  36.143  1.00  0.00     0.031 C 
ATOM     51  C   UNL A   1      37.594  32.401  33.463  1.00  0.00     0.029 A 
ATOM     52  C   UNL A   1      38.686  31.582  33.697  1.00  0.00     0.049 A 
ATOM     53  H   UNL A   1      39.707  30.303  32.364  1.00  0.00     0.167 HD
ATOM     54  C   UNL A   1      40.456  30.531  35.067  1.00  0.00     0.074 A 
ATOM     55  C   UNL A   1      41.188  30.341  36.302  1.00  0.00     0.031 C 
ATOM     56  C   UNL A   1      39.424  31.396  34.917  1.00  0.00     0.037 A 
BRANCH  43  57
ATOM     57  C   UNL A   1      36.962  31.336  29.269  1.00  0.00     0.057 A 
ATOM     58  C   UNL A   1      35.837  30.577  28.930  1.00  0.00     0.134 A 
ATOM     59  C   UNL A   1      37.040  32.642  28.764  1.00  0.00     0.134 A 
ATOM     60  F   UNL A   1      35.709  29.317  29.370  1.00  0.00    -0.206 F 
ATOM     61  C   UNL A   1      34.830  31.096  28.112  1.00  0.00     0.040 A 
ATOM     62  C   UNL A   1      36.032  33.177  27.963  1.00  0.00     0.040 A 
ATOM     63  F   UNL A   1      38.092  33.422  29.058  1.00  0.00    -0.206 F 
ATOM     64  C   UNL A   1      34.923  32.402  27.632  1.00  0.00     0.006 A 
ENDBRANCH  43  57
BRANCH  44  65
ATOM     65  C   UNL A   1      44.077  27.549  35.056  1.00  0.00     0.057 A 
ATOM     66  C   UNL A   1      45.298  28.208  35.241  1.00  0.00     0.134 A 
ATOM     67  C   UNL A   1      43.885  26.339  35.734  1.00  0.00     0.134 A 
ATOM     68  F   UNL A   1      45.551  29.354  34.591  1.00  0.00    -0.206 F 
ATOM     69  C   UNL A   1      46.287  27.686  36.074  1.00  0.00     0.040 A 
ATOM     70  C   UNL A   1      44.855  25.819  36.589  1.00  0.00     0.040 A 
ATOM     71  F   UNL A   1      42.736  25.659  35.592  1.00  0.00    -0.206 F 
ATOM     72  C   UNL A   1      46.062  26.493  36.759  1.00  0.00     0.006 A 
ENDBRANCH  44  65
BRANCH  56  73
ATOM     73  C   UNL A   1      39.026  32.198  36.118  1.00  0.00     0.057 A 
ATOM     74  C   UNL A   1      38.147  31.683  37.080  1.00  0.00     0.134 A 
ATOM     75  C   UNL A   1      39.538  33.483  36.326  1.00  0.00     0.134 A 
ATOM     76  F   UNL A   1      37.613  30.462  36.928  1.00  0.00    -0.206 F 
ATOM     77  C   UNL A   1      37.778  32.429  38.200  1.00  0.00     0.040 A 
ATOM     78  C   UNL A   1      39.190  34.232  37.451  1.00  0.00     0.040 A 
ATOM     79  F   UNL A   1      40.387  34.029  35.442  1.00  0.00    -0.206 F 
ATOM     80  C   UNL A   1      38.304  33.706  38.390  1.00  0.00     0.006 A 
ENDBRANCH  56  73
ENDBRANCH  30  31
ENDBRANCH  23  25
ENDBRANCH  22  23
ENDBRANCH  21  22
ENDBRANCH   1  21
TORSDOF 15
ENDMDL
MODEL 2
REMARK VINA RESULT:     -10.9      4.438      7.921
REMARK SMILES C[C@@H](C(=O)OCCOC(=O)c1ccc(-c2c3nc(c(-c4c(F)cccc4F)c4ccc([nH]4)c(-c4c(F)cccc4F)c4nc(c(-c5c(F)cccc5F)c5ccc2[nH]5)C=C4)C=C3)cc1)c1ccc(C[C@H]2CCC[C@@H]2O)cc1
REMARK SMILES IDX 6 1 5 2 3 3 4 4 2 5 1 6 65 7 66 8 77 9 67 10 76 11 68 12
REMARK SMILES IDX 69 13 70 14 71 15 74 16 72 17 73 18 75 19 7 21 8 22 9 23
REMARK SMILES IDX 10 24 11 25 12 26 64 27 13 28 63 29 14 30 15 31 16 32 57 33
REMARK SMILES IDX 17 34 62 35 56 36 58 37 18 38 61 39 55 40 54 41 19 43 45 44
REMARK SMILES IDX 28 45 44 46 29 47 32 48 43 49 59 50 30 51 31 52 42 54 60 55
REMARK SMILES IDX 33 56 20 57 21 58 26 59 22 60 23 61 25 62 27 63 24 64 46 65
REMARK SMILES IDX 47 66 52 67 48 68 49 69 51 70 53 71 50 72 34 73 35 74 40 75
REMARK SMILES IDX 36 76 37 77 39 78 41 79 38 80
REMARK H PARENT 75 20 58 42 32 53
REMARK Flexibility Score: inf
ROOT
ATOM      1  C   UNL A   1      34.781  21.908  24.384  1.00  0.00     0.274 C 
ENDROOT
BRANCH   1   2
ATOM      2  O   UNL A   1      35.154  23.284  24.600  1.00  0.00    -0.462 OA
BRANCH   2   3
ATOM      3  C   UNL A   1      34.487  24.222  23.872  1.00  0.00     0.313 C 
ATOM      4  O   UNL A   1      34.318  24.155  22.659  1.00  0.00    -0.252 OA
BRANCH   3   5
ATOM      5  C   UNL A   1      34.009  25.402  24.731  1.00  0.00     0.126 C 
ATOM      6  C   UNL A   1      33.562  24.990  26.138  1.00  0.00     0.025 C 
BRANCH   5   7
ATOM      7  C   UNL A   1      32.973  26.245  23.989  1.00  0.00    -0.034 A 
ATOM      8  C   UNL A   1      31.636  25.813  23.956  1.00  0.00     0.005 A 
ATOM      9  C   UNL A   1      33.282  27.469  23.381  1.00  0.00     0.005 A 
ATOM     10  C   UNL A   1      30.641  26.587  23.349  1.00  0.00     0.004 A 
ATOM     11  C   UNL A   1      32.288  28.238  22.766  1.00  0.00     0.004 A 
ATOM     12  C   UNL A   1      30.955  27.812  22.749  1.00  0.00    -0.048 A 
BRANCH  12  13
ATOM     13  C   UNL A   1      29.864  28.689  22.178  1.00  0.00     0.041 C 
BRANCH  13  14
ATOM     14  C   UNL A   1      29.021  29.497  23.172  1.00  0.00     0.022 C 
ATOM     15  C   UNL A   1      29.689  30.764  23.731  1.00  0.00     0.007 C 
ATOM     16  C   UNL A   1      27.658  29.955  22.636  1.00  0.00     0.117 C 
ATOM     17  C   UNL A   1      28.668  31.885  23.565  1.00  0.00     0.003 C 
ATOM     18  C   UNL A   1      27.330  31.170  23.492  1.00  0.00     0.032 C 
BRANCH  16  19
ATOM     19  O   UNL A   1      26.671  28.946  22.754  1.00  0.00    -0.393 OA
ATOM     20  H   UNL A   1      26.440  28.827  23.688  1.00  0.00     0.210 HD
ENDBRANCH  16  19
ENDBRANCH  13  14
ENDBRANCH  12  13
ENDBRANCH   5   7
ENDBRANCH   3   5
ENDBRANCH   2   3
ENDBRANCH   1   2
BRANCH   1  21
ATOM     21  C   UNL A   1      35.851  20.984  24.958  1.00  0.00     0.275 C 
BRANCH  21  22
ATOM     22  O   UNL A   1      37.148  21.506  24.626  1.00  0.00    -0.458 OA
BRANCH  22  23
ATOM     23  C   UNL A   1      38.183  21.065  25.378  1.00  0.00     0.338 C 
ATOM     24  O   UNL A   1      38.567  19.916  25.509  1.00  0.00    -0.246 OA
BRANCH  23  25
ATOM     25  C   UNL A   1      38.821  22.208  26.059  1.00  0.00     0.060 A 
ATOM     26  C   UNL A   1      38.251  23.475  25.994  1.00  0.00     0.016 A 
ATOM     27  C   UNL A   1      40.064  22.036  26.672  1.00  0.00     0.016 A 
ATOM     28  C   UNL A   1      38.968  24.581  26.453  1.00  0.00     0.010 A 
ATOM     29  C   UNL A   1      40.740  23.141  27.206  1.00  0.00     0.010 A 
ATOM     30  C   UNL A   1      40.228  24.441  27.055  1.00  0.00    -0.014 A 
BRANCH  30  31
ATOM     31  C   UNL A   1      41.035  25.642  27.442  1.00  0.00     0.031 A 
ATOM     32  C   UNL A   1      40.453  26.690  28.364  1.00  0.00     0.074 A 
ATOM     33  C   UNL A   1      42.311  25.795  27.034  1.00  0.00     0.049 A 
ATOM     34  N   UNL A   1      40.902  27.889  28.646  1.00  0.00    -0.248 NA
ATOM     35  C   UNL A   1      39.197  26.351  29.052  1.00  0.00     0.031 C 
ATOM     36  C   UNL A   1      43.061  24.852  26.205  1.00  0.00     0.029 A 
ATOM     37  N   UNL A   1      43.216  26.799  27.288  1.00  0.00    -0.354 N 
ATOM     38  C   UNL A   1      39.945  28.475  29.466  1.00  0.00     0.074 A 
ATOM     39  C   UNL A   1      38.901  27.491  29.661  1.00  0.00     0.031 C 
ATOM     40  C   UNL A   1      44.325  25.283  26.078  1.00  0.00     0.029 A 
ATOM     41  C   UNL A   1      44.450  26.586  26.722  1.00  0.00     0.049 A 
ATOM     42  H   UNL A   1      43.001  27.596  27.825  1.00  0.00     0.167 HD
ATOM     43  C   UNL A   1      39.931  29.721  29.999  1.00  0.00     0.037 A 
ATOM     44  C   UNL A   1      45.550  27.362  26.676  1.00  0.00     0.037 A 
ATOM     45  C   UNL A   1      41.004  30.674  29.888  1.00  0.00     0.049 A 
ATOM     46  C   UNL A   1      45.517  28.737  27.277  1.00  0.00     0.074 A 
ATOM     47  C   UNL A   1      41.071  31.962  30.394  1.00  0.00     0.029 A 
ATOM     48  N   UNL A   1      42.214  30.431  29.260  1.00  0.00    -0.354 N 
ATOM     49  N   UNL A   1      44.551  29.330  27.932  1.00  0.00    -0.248 NA
ATOM     50  C   UNL A   1      46.719  29.566  27.096  1.00  0.00     0.031 C 
ATOM     51  C   UNL A   1      42.318  32.503  30.060  1.00  0.00     0.029 A 
ATOM     52  C   UNL A   1      43.036  31.540  29.370  1.00  0.00     0.049 A 
ATOM     53  H   UNL A   1      42.454  29.593  28.802  1.00  0.00     0.167 HD
ATOM     54  C   UNL A   1      45.017  30.604  28.224  1.00  0.00     0.074 A 
ATOM     55  C   UNL A   1      46.368  30.688  27.710  1.00  0.00     0.031 C 
ATOM     56  C   UNL A   1      44.373  31.620  28.848  1.00  0.00     0.037 A 
BRANCH  43  57
ATOM     57  C   UNL A   1      38.692  30.151  30.729  1.00  0.00     0.057 A 
ATOM     58  C   UNL A   1      37.648  30.830  30.094  1.00  0.00     0.134 A 
ATOM     59  C   UNL A   1      38.527  29.825  32.083  1.00  0.00     0.134 A 
ATOM     60  F   UNL A   1      37.751  31.182  28.804  1.00  0.00    -0.206 F 
ATOM     61  C   UNL A   1      36.484  31.180  30.783  1.00  0.00     0.040 A 
ATOM     62  C   UNL A   1      37.361  30.152  32.776  1.00  0.00     0.040 A 
ATOM     63  F   UNL A   1      39.490  29.168  32.747  1.00  0.00    -0.206 F 
ATOM     64  C   UNL A   1      36.336  30.834  32.125  1.00  0.00     0.006 A 
ENDBRANCH  43  57
BRANCH  44  65
ATOM     65  C   UNL A   1      46.765  26.874  25.979  1.00  0.00     0.057 A 
ATOM     66  C   UNL A   1      46.980  27.151  24.625  1.00  0.00     0.134 A 
ATOM     67  C   UNL A   1      47.741  26.129  26.652  1.00  0.00     0.134 A 
ATOM     68  F   UNL A   1      46.062  27.832  23.922  1.00  0.00    -0.206 F 
ATOM     69  C   UNL A   1      48.127  26.711  23.966  1.00  0.00     0.040 A 
ATOM     70  C   UNL A   1      48.904  25.704  26.011  1.00  0.00     0.040 A 
ATOM     71  F   UNL A   1      47.588  25.827  27.950  1.00  0.00    -0.206 F 
ATOM     72  C   UNL A   1      49.098  25.993  24.662  1.00  0.00     0.006 A 
ENDBRANCH  44  65
BRANCH  56  73
ATOM     73  C   UNL A   1      45.123  32.906  29.007  1.00  0.00     0.057 A 
ATOM     74  C   UNL A   1      45.025  33.930  28.056  1.00  0.00     0.134 A 
ATOM     75  C   UNL A   1      45.932  33.134  30.126  1.00  0.00     0.134 A 
ATOM     76  F   UNL A   1      44.276  33.765  26.955  1.00  0.00    -0.206 F 
ATOM     77  C   UNL A   1      45.721  35.130  28.205  1.00  0.00     0.040 A 
ATOM     78  C   UNL A   1      46.620  34.337  30.294  1.00  0.00     0.040 A 
ATOM     79  F   UNL A   1      46.063  32.193  31.074  1.00  0.00    -0.206 F 
ATOM     80  C   UNL A   1      46.518  35.337  29.329  1.00  0.00     0.006 A 
ENDBRANCH  56  73
ENDBRANCH  30  31
ENDBRANCH  23  25
ENDBRANCH  22  23
ENDBRANCH  21  22
ENDBRANCH   1  21
TORSDOF 15
ENDMDL
MODEL 3
REMARK VINA RESULT:     -10.9      3.288      8.222
REMARK SMILES C[C@@H](C(=O)OCCOC(=O)c1ccc(-c2c3nc(c(-c4c(F)cccc4F)c4ccc([nH]4)c(-c4c(F)cccc4F)c4nc(c(-c5c(F)cccc5F)c5ccc2[nH]5)C=C4)C=C3)cc1)c1ccc(C[C@H]2CCC[C@@H]2O)cc1
REMARK SMILES IDX 6 1 5 2 3 3 4 4 2 5 1 6 65 7 66 8 77 9 67 10 76 11 68 12
REMARK SMILES IDX 69 13 70 14 71 15 74 16 72 17 73 18 75 19 7 21 8 22 9 23
REMARK SMILES IDX 10 24 11 25 12 26 64 27 13 28 63 29 14 30 15 31 16 32 57 33
REMARK SMILES IDX 17 34 62 35 56 36 58 37 18 38 61 39 55 40 54 41 19 43 45 44
REMARK SMILES IDX 28 45 44 46 29 47 32 48 43 49 59 50 30 51 31 52 42 54 60 55
REMARK SMILES IDX 33 56 20 57 21 58 26 59 22 60 23 61 25 62 27 63 24 64 46 65
REMARK SMILES IDX 47 66 52 67 48 68 49 69 51 70 53 71 50 72 34 73 35 74 40 75
REMARK SMILES IDX 36 76 37 77 39 78 41 79 38 80
REMARK H PARENT 75 20 58 42 32 53
REMARK Flexibility Score: inf
ROOT
ATOM      1  C   UNL A   1      32.840  29.026  24.246  1.00  0.00     0.274 C 
ENDROOT
BRANCH   1   2
ATOM      2  O   UNL A   1      32.413  27.729  23.783  1.00  0.00    -0.462 OA
BRANCH   2   3
ATOM      3  C   UNL A   1      33.166  26.661  24.167  1.00  0.00     0.313 C 
ATOM      4  O   UNL A   1      33.512  26.448  25.325  1.00  0.00    -0.252 OA
BRANCH   3   5
ATOM      5  C   UNL A   1      33.577  25.775  22.982  1.00  0.00     0.126 C 
ATOM      6  C   UNL A   1      33.028  26.264  21.637  1.00  0.00     0.025 C 
BRANCH   5   7
ATOM      7  C   UNL A   1      33.277  24.303  23.259  1.00  0.00    -0.034 A 
ATOM      8  C   UNL A   1      34.324  23.454  23.656  1.00  0.00     0.005 A 
ATOM      9  C   UNL A   1      31.985  23.764  23.191  1.00  0.00     0.005 A 
ATOM     10  C   UNL A   1      34.083  22.116  23.988  1.00  0.00     0.004 A 
ATOM     11  C   UNL A   1      31.748  22.423  23.513  1.00  0.00     0.004 A 
ATOM     12  C   UNL A   1      32.791  21.585  23.924  1.00  0.00    -0.048 A 
BRANCH  12  13
ATOM     13  C   UNL A   1      32.519  20.167  24.373  1.00  0.00     0.041 C 
BRANCH  13  14
ATOM     14  C   UNL A   1      33.380  19.059  23.756  1.00  0.00     0.022 C 
ATOM     15  C   UNL A   1      34.550  18.567  24.626  1.00  0.00     0.007 C 
ATOM     16  C   UNL A   1      32.610  17.794  23.354  1.00  0.00     0.117 C 
ATOM     17  C   UNL A   1      34.456  17.044  24.634  1.00  0.00     0.003 C 
ATOM     18  C   UNL A   1      33.675  16.707  23.376  1.00  0.00     0.032 C 
BRANCH  16  19
ATOM     19  O   UNL A   1      32.011  17.918  22.075  1.00  0.00    -0.393 OA
ATOM     20  H   UNL A   1      32.601  17.542  21.404  1.00  0.00     0.210 HD
ENDBRANCH  16  19
ENDBRANCH  13  14
ENDBRANCH  12  13
ENDBRANCH   5   7
ENDBRANCH   3   5
ENDBRANCH   2   3
ENDBRANCH   1   2
BRANCH   1  21
ATOM     21  C   UNL A   1      31.729  29.676  25.065  1.00  0.00     0.275 C 
BRANCH  21  22
ATOM     22  O   UNL A   1      32.130  29.727  26.444  1.00  0.00    -0.458 OA
BRANCH  22  23
ATOM     23  C   UNL A   1      32.617  30.909  26.884  1.00  0.00     0.338 C 
ATOM     24  O   UNL A   1      32.053  31.990  26.882  1.00  0.00    -0.246 OA
BRANCH  23  25
ATOM     25  C   UNL A   1      33.989  30.722  27.392  1.00  0.00     0.060 A 
ATOM     26  C   UNL A   1      34.544  29.448  27.467  1.00  0.00     0.016 A 
ATOM     27  C   UNL A   1      34.689  31.815  27.906  1.00  0.00     0.016 A 
ATOM     28  C   UNL A   1      35.750  29.258  28.145  1.00  0.00     0.010 A 
ATOM     29  C   UNL A   1      35.938  31.627  28.510  1.00  0.00     0.010 A 
ATOM     30  C   UNL A   1      36.465  30.336  28.689  1.00  0.00    -0.014 A 
BRANCH  30  31
ATOM     31  C   UNL A   1      37.697  30.108  29.508  1.00  0.00     0.031 A 
ATOM     32  C   UNL A   1      38.882  29.375  28.920  1.00  0.00     0.074 A 
ATOM     33  C   UNL A   1      37.812  30.595  30.761  1.00  0.00     0.049 A 
ATOM     34  N   UNL A   1      39.945  28.897  29.522  1.00  0.00    -0.248 NA
ATOM     35  C   UNL A   1      38.868  29.140  27.467  1.00  0.00     0.031 C 
ATOM     36  C   UNL A   1      36.803  31.388  31.464  1.00  0.00     0.029 A 
ATOM     37  N   UNL A   1      38.850  30.514  31.660  1.00  0.00    -0.354 N 
ATOM     38  C   UNL A   1      40.673  28.232  28.543  1.00  0.00     0.074 A 
ATOM     39  C   UNL A   1      39.948  28.390  27.300  1.00  0.00     0.031 C 
ATOM     40  C   UNL A   1      37.295  31.778  32.649  1.00  0.00     0.029 A 
ATOM     41  C   UNL A   1      38.609  31.175  32.840  1.00  0.00     0.049 A 
ATOM     42  H   UNL A   1      39.686  30.028  31.476  1.00  0.00     0.167 HD
ATOM     43  C   UNL A   1      41.835  27.544  28.668  1.00  0.00     0.037 A 
ATOM     44  C   UNL A   1      39.333  31.255  33.974  1.00  0.00     0.037 A 
ATOM     45  C   UNL A   1      42.611  27.457  29.877  1.00  0.00     0.049 A 
ATOM     46  C   UNL A   1      40.619  30.491  34.093  1.00  0.00     0.074 A 
ATOM     47  C   UNL A   1      43.798  26.777  30.095  1.00  0.00     0.029 A 
ATOM     48  N   UNL A   1      42.300  28.103  31.063  1.00  0.00    -0.354 N 
ATOM     49  N   UNL A   1      41.226  29.752  33.199  1.00  0.00    -0.248 NA
ATOM     50  C   UNL A   1      41.300  30.541  35.396  1.00  0.00     0.031 C 
ATOM     51  C   UNL A   1      44.199  27.000  31.417  1.00  0.00     0.029 A 
ATOM     52  C   UNL A   1      43.275  27.842  32.013  1.00  0.00     0.049 A 
ATOM     53  H   UNL A   1      41.504  28.663  31.209  1.00  0.00     0.167 HD
ATOM     54  C   UNL A   1      42.347  29.235  33.833  1.00  0.00     0.074 A 
ATOM     55  C   UNL A   1      42.358  29.774  35.177  1.00  0.00     0.031 C 
ATOM     56  C   UNL A   1      43.274  28.373  33.349  1.00  0.00     0.037 A 
BRANCH  43  57
ATOM     57  C   UNL A   1      42.329  26.789  27.469  1.00  0.00     0.057 A 
ATOM     58  C   UNL A   1      43.154  27.376  26.505  1.00  0.00     0.134 A 
ATOM     59  C   UNL A   1      42.013  25.431  27.315  1.00  0.00     0.134 A 
ATOM     60  F   UNL A   1      43.481  28.674  26.588  1.00  0.00    -0.206 F 
ATOM     61  C   UNL A   1      43.640  26.641  25.420  1.00  0.00     0.040 A 
ATOM     62  C   UNL A   1      42.509  24.683  26.247  1.00  0.00     0.040 A 
ATOM     63  F   UNL A   1      41.231  24.809  28.211  1.00  0.00    -0.206 F 
ATOM     64  C   UNL A   1      43.323  25.289  25.294  1.00  0.00     0.006 A 
ENDBRANCH  43  57
BRANCH  44  65
ATOM     65  C   UNL A   1      38.821  32.051  35.117  1.00  0.00     0.057 A 
ATOM     66  C   UNL A   1      38.200  31.430  36.206  1.00  0.00     0.134 A 
ATOM     67  C   UNL A   1      38.950  33.444  35.151  1.00  0.00     0.134 A 
ATOM     68  F   UNL A   1      38.019  30.101  36.212  1.00  0.00    -0.206 F 
ATOM     69  C   UNL A   1      37.731  32.168  37.293  1.00  0.00     0.040 A 
ATOM     70  C   UNL A   1      38.508  34.191  36.242  1.00  0.00     0.040 A 
ATOM     71  F   UNL A   1      39.533  34.096  34.132  1.00  0.00    -0.206 F 
ATOM     72  C   UNL A   1      37.894  33.552  37.317  1.00  0.00     0.006 A 
ENDBRANCH  44  65
BRANCH  56  73
ATOM     73  C   UNL A   1      44.375  27.963  34.277  1.00  0.00     0.057 A 
ATOM     74  C   UNL A   1      45.536  28.735  34.417  1.00  0.00     0.134 A 
ATOM     75  C   UNL A   1      44.269  26.804  35.052  1.00  0.00     0.134 A 
ATOM     76  F   UNL A   1      45.702  29.851  33.690  1.00  0.00    -0.206 F 
ATOM     77  C   UNL A   1      46.561  28.355  35.284  1.00  0.00     0.040 A 
ATOM     78  C   UNL A   1      45.280  26.422  35.935  1.00  0.00     0.040 A 
ATOM     79  F   UNL A   1      43.179  26.025  34.966  1.00  0.00    -0.206 F 
ATOM     80  C   UNL A   1      46.433  27.198  36.050  1.00  0.00     0.006 A 
ENDBRANCH  56  73
ENDBRANCH  30  31
ENDBRANCH  23  25
ENDBRANCH  22  23
ENDBRANCH  21  22
ENDBRANCH   1  21
TORSDOF 15
ENDMDL
