MODEL 1
REMARK VINA RESULT:     -10.9      0.000      0.000
REMARK SMILES CC(C)[C@@H](C)[N@@H+]1[C@@H](C(=O)OCCOC(=O)c2ccc(-c3c4nc(c(-c5c(F)cccc5F)c5ccc([nH]5)c(-c5c(F)cccc5F)c5nc(c(-c6c(F)cccc6F)c6ccc3[nH]6)C=C5)C=C4)cc2)C[C@H]2CCCC[C@H]21
REMARK SMILES IDX 11 1 10 2 8 3 9 4 7 5 6 6 76 7 70 9 71 10 75 11 72 12 74 13
REMARK SMILES IDX 73 14 4 15 5 16 2 17 1 18 3 19 12 20 13 21 14 22 15 23 16 24
REMARK SMILES IDX 17 25 69 26 18 27 68 28 19 29 20 30 21 31 62 32 22 33 67 34
REMARK SMILES IDX 61 35 63 36 23 37 66 38 60 39 59 40 24 42 50 43 33 44 49 45
REMARK SMILES IDX 34 46 37 47 48 48 64 49 35 50 36 51 47 53 65 54 38 55 25 56
REMARK SMILES IDX 26 57 31 58 27 59 28 60 30 61 32 62 29 63 51 64 52 65 57 66
REMARK SMILES IDX 53 67 54 68 56 69 58 70 55 71 39 72 40 73 45 74 41 75 42 76
REMARK SMILES IDX 44 77 46 78 43 79
REMARK H PARENT 6 8 63 41 37 52
REMARK Flexibility Score: inf
ROOT
ATOM      1  C   UNL A   1      36.562  22.573  23.497  1.00  0.00     0.274 C 
ENDROOT
BRANCH   1   2
ATOM      2  O   UNL A   1      35.985  23.568  24.364  1.00  0.00    -0.458 OA
BRANCH   2   3
ATOM      3  C   UNL A   1      34.749  24.010  24.003  1.00  0.00     0.365 C 
ATOM      4  O   UNL A   1      34.398  24.219  22.844  1.00  0.00    -0.245 OA
BRANCH   3   5
ATOM      5  C   UNL A   1      33.801  24.190  25.188  1.00  0.00     0.296 C 
ATOM      6  N   UNL A   1      32.565  23.395  25.022  1.00  0.00    -0.318 N 
ATOM      7  C   UNL A   1      31.415  24.290  25.238  1.00  0.00     0.188 C 
ATOM      8  H   UNL A   1      32.479  23.063  24.061  1.00  0.00     0.349 HD
ATOM      9  C   UNL A   1      33.355  25.627  25.461  1.00  0.00     0.087 C 
ATOM     10  C   UNL A   1      31.986  25.418  26.091  1.00  0.00     0.054 C 
ATOM     11  C   UNL A   1      30.912  24.810  23.870  1.00  0.00     0.065 C 
ATOM     12  C   UNL A   1      31.108  26.659  26.169  1.00  0.00     0.010 C 
ATOM     13  C   UNL A   1      29.996  26.028  24.000  1.00  0.00     0.006 C 
ATOM     14  C   UNL A   1      30.642  27.152  24.806  1.00  0.00     0.001 C 
BRANCH   6  15
ATOM     15  C   UNL A   1      32.567  22.017  25.570  1.00  0.00     0.184 C 
ATOM     16  C   UNL A   1      33.696  21.825  26.600  1.00  0.00     0.075 C 
BRANCH  15  17
ATOM     17  C   UNL A   1      32.461  20.825  24.539  1.00  0.00     0.041 C 
ATOM     18  C   UNL A   1      32.365  21.249  23.065  1.00  0.00     0.013 C 
ATOM     19  C   UNL A   1      33.673  19.873  24.626  1.00  0.00     0.013 C 
ENDBRANCH  15  17
ENDBRANCH   6  15
ENDBRANCH   3   5
ENDBRANCH   2   3
ENDBRANCH   1   2
BRANCH   1  20
ATOM     20  C   UNL A   1      36.988  21.347  24.300  1.00  0.00     0.275 C 
BRANCH  20  21
ATOM     21  O   UNL A   1      37.389  21.744  25.624  1.00  0.00    -0.458 OA
BRANCH  21  22
ATOM     22  C   UNL A   1      38.672  21.481  25.949  1.00  0.00     0.338 C 
ATOM     23  O   UNL A   1      39.280  20.429  25.803  1.00  0.00    -0.246 OA
BRANCH  22  24
ATOM     24  C   UNL A   1      39.305  22.679  26.526  1.00  0.00     0.060 A 
ATOM     25  C   UNL A   1      38.895  23.954  26.134  1.00  0.00     0.016 A 
ATOM     26  C   UNL A   1      40.411  22.528  27.361  1.00  0.00     0.016 A 
ATOM     27  C   UNL A   1      39.650  25.071  26.482  1.00  0.00     0.010 A 
ATOM     28  C   UNL A   1      41.101  23.660  27.801  1.00  0.00     0.010 A 
ATOM     29  C   UNL A   1      40.751  24.941  27.336  1.00  0.00    -0.014 A 
BRANCH  29  30
ATOM     30  C   UNL A   1      41.553  26.128  27.733  1.00  0.00     0.031 A 
ATOM     31  C   UNL A   1      40.930  27.211  28.569  1.00  0.00     0.074 A 
ATOM     32  C   UNL A   1      42.830  26.250  27.325  1.00  0.00     0.049 A 
ATOM     33  N   UNL A   1      41.367  28.418  28.820  1.00  0.00    -0.248 NA
ATOM     34  C   UNL A   1      39.632  26.901  29.190  1.00  0.00     0.031 C 
ATOM     35  C   UNL A   1      43.575  25.259  26.547  1.00  0.00     0.029 A 
ATOM     36  N   UNL A   1      43.726  27.275  27.499  1.00  0.00    -0.354 N 
ATOM     37  C   UNL A   1      40.375  29.032  29.571  1.00  0.00     0.074 A 
ATOM     38  C   UNL A   1      39.314  28.062  29.745  1.00  0.00     0.031 C 
ATOM     39  C   UNL A   1      44.816  25.715  26.325  1.00  0.00     0.029 A 
ATOM     40  C   UNL A   1      44.927  27.063  26.867  1.00  0.00     0.049 A 
ATOM     41  H   UNL A   1      43.528  28.083  28.024  1.00  0.00     0.167 HD
ATOM     42  C   UNL A   1      40.349  30.294  30.063  1.00  0.00     0.037 A 
ATOM     43  C   UNL A   1      45.982  27.880  26.692  1.00  0.00     0.037 A 
ATOM     44  C   UNL A   1      41.432  31.235  29.938  1.00  0.00     0.049 A 
ATOM     45  C   UNL A   1      45.927  29.278  27.232  1.00  0.00     0.074 A 
ATOM     46  C   UNL A   1      41.515  32.526  30.431  1.00  0.00     0.029 A 
ATOM     47  N   UNL A   1      42.627  30.977  29.285  1.00  0.00    -0.354 N 
ATOM     48  N   UNL A   1      44.962  29.867  27.895  1.00  0.00    -0.248 NA
ATOM     49  C   UNL A   1      47.097  30.130  26.982  1.00  0.00     0.031 C 
ATOM     50  C   UNL A   1      42.753  33.059  30.053  1.00  0.00     0.029 A 
ATOM     51  C   UNL A   1      43.450  32.089  29.351  1.00  0.00     0.049 A 
ATOM     52  H   UNL A   1      42.856  30.130  28.839  1.00  0.00     0.167 HD
ATOM     53  C   UNL A   1      45.407  31.158  28.144  1.00  0.00     0.074 A 
ATOM     54  C   UNL A   1      46.737  31.259  27.578  1.00  0.00     0.031 C 
ATOM     55  C   UNL A   1      44.769  32.170  28.779  1.00  0.00     0.037 A 
BRANCH  42  56
ATOM     56  C   UNL A   1      39.096  30.744  30.751  1.00  0.00     0.057 A 
ATOM     57  C   UNL A   1      38.042  31.354  30.061  1.00  0.00     0.134 A 
ATOM     58  C   UNL A   1      38.933  30.534  32.127  1.00  0.00     0.134 A 
ATOM     59  F   UNL A   1      38.142  31.597  28.745  1.00  0.00    -0.206 F 
ATOM     60  C   UNL A   1      36.876  31.754  30.718  1.00  0.00     0.040 A 
ATOM     61  C   UNL A   1      37.765  30.911  32.790  1.00  0.00     0.040 A 
ATOM     62  F   UNL A   1      39.905  29.951  32.847  1.00  0.00    -0.206 F 
ATOM     63  C   UNL A   1      36.733  31.528  32.085  1.00  0.00     0.006 A 
ENDBRANCH  42  56
BRANCH  43  64
ATOM     64  C   UNL A   1      47.158  27.403  25.925  1.00  0.00     0.057 A 
ATOM     65  C   UNL A   1      48.222  26.756  26.562  1.00  0.00     0.134 A 
ATOM     66  C   UNL A   1      47.233  27.559  24.536  1.00  0.00     0.134 A 
ATOM     67  F   UNL A   1      48.214  26.597  27.894  1.00  0.00    -0.206 F 
ATOM     68  C   UNL A   1      49.321  26.282  25.846  1.00  0.00     0.040 A 
ATOM     69  C   UNL A   1      48.314  27.070  23.803  1.00  0.00     0.040 A 
ATOM     70  F   UNL A   1      46.241  28.167  23.869  1.00  0.00    -0.206 F 
ATOM     71  C   UNL A   1      49.363  26.431  24.460  1.00  0.00     0.006 A 
ENDBRANCH  43  64
BRANCH  55  72
ATOM     72  C   UNL A   1      45.512  33.463  28.908  1.00  0.00     0.057 A 
ATOM     73  C   UNL A   1      46.368  33.711  29.988  1.00  0.00     0.134 A 
ATOM     74  C   UNL A   1      45.390  34.457  27.930  1.00  0.00     0.134 A 
ATOM     75  F   UNL A   1      46.513  32.802  30.963  1.00  0.00    -0.206 F 
ATOM     76  C   UNL A   1      47.068  34.913  30.097  1.00  0.00     0.040 A 
ATOM     77  C   UNL A   1      46.098  35.656  28.020  1.00  0.00     0.040 A 
ATOM     78  F   UNL A   1      44.587  34.276  26.870  1.00  0.00    -0.206 F 
ATOM     79  C   UNL A   1      46.937  35.888  29.109  1.00  0.00     0.006 A 
ENDBRANCH  55  72
ENDBRANCH  29  30
ENDBRANCH  22  24
ENDBRANCH  21  22
ENDBRANCH  20  21
ENDBRANCH   1  20
TORSDOF 13
ENDMDL
MODEL 2
REMARK VINA RESULT:     -10.7      4.065      8.835
REMARK SMILES CC(C)[C@@H](C)[N@@H+]1[C@@H](C(=O)OCCOC(=O)c2ccc(-c3c4nc(c(-c5c(F)cccc5F)c5ccc([nH]5)c(-c5c(F)cccc5F)c5nc(c(-c6c(F)cccc6F)c6ccc3[nH]6)C=C5)C=C4)cc2)C[C@H]2CCCC[C@H]21
REMARK SMILES IDX 11 1 10 2 8 3 9 4 7 5 6 6 76 7 70 9 71 10 75 11 72 12 74 13
REMARK SMILES IDX 73 14 4 15 5 16 2 17 1 18 3 19 12 20 13 21 14 22 15 23 16 24
REMARK SMILES IDX 17 25 69 26 18 27 68 28 19 29 20 30 21 31 62 32 22 33 67 34
REMARK SMILES IDX 61 35 63 36 23 37 66 38 60 39 59 40 24 42 50 43 33 44 49 45
REMARK SMILES IDX 34 46 37 47 48 48 64 49 35 50 36 51 47 53 65 54 38 55 25 56
REMARK SMILES IDX 26 57 31 58 27 59 28 60 30 61 32 62 29 63 51 64 52 65 57 66
REMARK SMILES IDX 53 67 54 68 56 69 58 70 55 71 39 72 40 73 45 74 41 75 42 76
REMARK SMILES IDX 44 77 46 78 43 79
REMARK H PARENT 6 8 63 41 37 52
REMARK Flexibility Score: inf
ROOT
ATOM      1  C   UNL A   1      31.788  28.285  26.730  1.00  0.00     0.274 C 
ENDROOT
BRANCH   1   2
ATOM      2  O   UNL A   1      32.940  27.657  26.136  1.00  0.00    -0.458 OA
BRANCH   2   3
ATOM      3  C   UNL A   1      32.813  26.324  25.887  1.00  0.00     0.365 C 
ATOM      4  O   UNL A   1      32.060  25.572  26.501  1.00  0.00    -0.245 OA
BRANCH   3   5
ATOM      5  C   UNL A   1      33.680  25.841  24.725  1.00  0.00     0.296 C 
ATOM      6  N   UNL A   1      32.859  25.274  23.633  1.00  0.00    -0.318 N 
ATOM      7  C   UNL A   1      33.404  23.948  23.294  1.00  0.00     0.188 C 
ATOM      8  H   UNL A   1      31.905  25.106  23.952  1.00  0.00     0.349 HD
ATOM      9  C   UNL A   1      34.720  24.776  25.078  1.00  0.00     0.087 C 
ATOM     10  C   UNL A   1      34.853  24.019  23.766  1.00  0.00     0.054 C 
ATOM     11  C   UNL A   1      32.609  22.861  24.056  1.00  0.00     0.065 C 
ATOM     12  C   UNL A   1      35.553  22.670  23.860  1.00  0.00     0.010 C 
ATOM     13  C   UNL A   1      33.328  21.513  24.085  1.00  0.00     0.006 C 
ATOM     14  C   UNL A   1      34.750  21.629  24.628  1.00  0.00     0.001 C 
BRANCH   6  15
ATOM     15  C   UNL A   1      32.411  26.206  22.569  1.00  0.00     0.184 C 
ATOM     16  C   UNL A   1      33.432  27.337  22.348  1.00  0.00     0.075 C 
BRANCH  15  17
ATOM     17  C   UNL A   1      30.920  26.721  22.635  1.00  0.00     0.041 C 
ATOM     18  C   UNL A   1      30.014  25.963  23.618  1.00  0.00     0.013 C 
ATOM     19  C   UNL A   1      30.839  28.207  23.047  1.00  0.00     0.013 C 
ENDBRANCH  15  17
ENDBRANCH   6  15
ENDBRANCH   3   5
ENDBRANCH   2   3
ENDBRANCH   1   2
BRANCH   1  20
ATOM     20  C   UNL A   1      31.697  29.746  26.301  1.00  0.00     0.275 C 
BRANCH  20  21
ATOM     21  O   UNL A   1      33.018  30.298  26.155  1.00  0.00    -0.458 OA
BRANCH  21  22
ATOM     22  C   UNL A   1      33.363  31.236  27.062  1.00  0.00     0.338 C 
ATOM     23  O   UNL A   1      32.712  32.210  27.414  1.00  0.00    -0.246 OA
BRANCH  22  24
ATOM     24  C   UNL A   1      34.689  30.934  27.627  1.00  0.00     0.060 A 
ATOM     25  C   UNL A   1      35.034  29.624  27.960  1.00  0.00     0.016 A 
ATOM     26  C   UNL A   1      35.544  31.985  27.953  1.00  0.00     0.016 A 
ATOM     27  C   UNL A   1      36.175  29.370  28.716  1.00  0.00     0.010 A 
ATOM     28  C   UNL A   1      36.745  31.715  28.615  1.00  0.00     0.010 A 
ATOM     29  C   UNL A   1      37.055  30.410  29.037  1.00  0.00    -0.014 A 
BRANCH  29  30
ATOM     30  C   UNL A   1      38.288  30.150  29.825  1.00  0.00     0.031 A 
ATOM     31  C   UNL A   1      39.370  29.270  29.262  1.00  0.00     0.074 A 
ATOM     32  C   UNL A   1      38.430  30.679  31.055  1.00  0.00     0.049 A 
ATOM     33  N   UNL A   1      40.396  28.730  29.867  1.00  0.00    -0.248 NA
ATOM     34  C   UNL A   1      39.273  28.938  27.832  1.00  0.00     0.031 C 
ATOM     35  C   UNL A   1      37.482  31.583  31.709  1.00  0.00     0.029 A 
ATOM     36  N   UNL A   1      39.428  30.517  31.985  1.00  0.00    -0.354 N 
ATOM     37  C   UNL A   1      41.030  27.947  28.912  1.00  0.00     0.074 A 
ATOM     38  C   UNL A   1      40.278  28.087  27.682  1.00  0.00     0.031 C 
ATOM     39  C   UNL A   1      37.949  31.909  32.923  1.00  0.00     0.029 A 
ATOM     40  C   UNL A   1      39.182  31.170  33.168  1.00  0.00     0.049 A 
ATOM     41  H   UNL A   1      40.239  29.986  31.820  1.00  0.00     0.167 HD
ATOM     42  C   UNL A   1      42.133  27.174  29.053  1.00  0.00     0.037 A 
ATOM     43  C   UNL A   1      39.841  31.138  34.339  1.00  0.00     0.037 A 
ATOM     44  C   UNL A   1      42.911  27.084  30.261  1.00  0.00     0.049 A 
ATOM     45  C   UNL A   1      41.053  30.265  34.478  1.00  0.00     0.074 A 
ATOM     46  C   UNL A   1      44.065  26.355  30.493  1.00  0.00     0.029 A 
ATOM     47  N   UNL A   1      42.622  27.760  31.436  1.00  0.00    -0.354 N 
ATOM     48  N   UNL A   1      41.613  29.486  33.585  1.00  0.00    -0.248 NA
ATOM     49  C   UNL A   1      41.710  30.249  35.792  1.00  0.00     0.031 C 
ATOM     50  C   UNL A   1      44.458  26.570  31.819  1.00  0.00     0.029 A 
ATOM     51  C   UNL A   1      43.567  27.456  32.401  1.00  0.00     0.049 A 
ATOM     52  H   UNL A   1      41.856  28.366  31.566  1.00  0.00     0.167 HD
ATOM     53  C   UNL A   1      42.689  28.889  34.225  1.00  0.00     0.074 A 
ATOM     54  C   UNL A   1      42.715  29.411  35.577  1.00  0.00     0.031 C 
ATOM     55  C   UNL A   1      43.573  27.985  33.740  1.00  0.00     0.037 A 
BRANCH  42  56
ATOM     56  C   UNL A   1      42.545  26.335  27.881  1.00  0.00     0.057 A 
ATOM     57  C   UNL A   1      42.069  25.033  27.690  1.00  0.00     0.134 A 
ATOM     58  C   UNL A   1      43.414  26.856  26.912  1.00  0.00     0.134 A 
ATOM     59  F   UNL A   1      41.247  24.472  28.589  1.00  0.00    -0.206 F 
ATOM     60  C   UNL A   1      42.455  24.271  26.585  1.00  0.00     0.040 A 
ATOM     61  C   UNL A   1      43.789  26.112  25.793  1.00  0.00     0.040 A 
ATOM     62  F   UNL A   1      43.904  28.099  27.034  1.00  0.00    -0.206 F 
ATOM     63  C   UNL A   1      43.313  24.813  25.629  1.00  0.00     0.006 A 
ENDBRANCH  42  56
BRANCH  43  64
ATOM     64  C   UNL A   1      39.331  31.925  35.489  1.00  0.00     0.057 A 
ATOM     65  C   UNL A   1      39.727  33.251  35.689  1.00  0.00     0.134 A 
ATOM     66  C   UNL A   1      38.416  31.377  36.396  1.00  0.00     0.134 A 
ATOM     67  F   UNL A   1      40.617  33.821  34.863  1.00  0.00    -0.206 F 
ATOM     68  C   UNL A   1      39.233  34.007  36.753  1.00  0.00     0.040 A 
ATOM     69  C   UNL A   1      37.896  32.127  37.450  1.00  0.00     0.040 A 
ATOM     70  F   UNL A   1      37.995  30.112  36.253  1.00  0.00    -0.206 F 
ATOM     71  C   UNL A   1      38.307  33.446  37.632  1.00  0.00     0.006 A 
ENDBRANCH  43  64
BRANCH  55  72
ATOM     72  C   UNL A   1      44.649  27.522  34.672  1.00  0.00     0.057 A 
ATOM     73  C   UNL A   1      44.490  26.377  35.462  1.00  0.00     0.134 A 
ATOM     74  C   UNL A   1      45.864  28.211  34.759  1.00  0.00     0.134 A 
ATOM     75  F   UNL A   1      43.342  25.684  35.432  1.00  0.00    -0.206 F 
ATOM     76  C   UNL A   1      45.501  25.942  36.320  1.00  0.00     0.040 A 
ATOM     77  C   UNL A   1      46.888  27.776  35.601  1.00  0.00     0.040 A 
ATOM     78  F   UNL A   1      46.077  29.313  34.024  1.00  0.00    -0.206 F 
ATOM     79  C   UNL A   1      46.706  26.640  36.387  1.00  0.00     0.006 A 
ENDBRANCH  55  72
ENDBRANCH  29  30
ENDBRANCH  22  24
ENDBRANCH  21  22
ENDBRANCH  20  21
ENDBRANCH   1  20
TORSDOF 13
ENDMDL
MODEL 3
REMARK VINA RESULT:     -10.7      4.086      8.827
REMARK SMILES CC(C)[C@@H](C)[N@@H+]1[C@@H](C(=O)OCCOC(=O)c2ccc(-c3c4nc(c(-c5c(F)cccc5F)c5ccc([nH]5)c(-c5c(F)cccc5F)c5nc(c(-c6c(F)cccc6F)c6ccc3[nH]6)C=C5)C=C4)cc2)C[C@H]2CCCC[C@H]21
REMARK SMILES IDX 11 1 10 2 8 3 9 4 7 5 6 6 76 7 70 9 71 10 75 11 72 12 74 13
REMARK SMILES IDX 73 14 4 15 5 16 2 17 1 18 3 19 12 20 13 21 14 22 15 23 16 24
REMARK SMILES IDX 17 25 69 26 18 27 68 28 19 29 20 30 21 31 62 32 22 33 67 34
REMARK SMILES IDX 61 35 63 36 23 37 66 38 60 39 59 40 24 42 50 43 33 44 49 45
REMARK SMILES IDX 34 46 37 47 48 48 64 49 35 50 36 51 47 53 65 54 38 55 25 56
REMARK SMILES IDX 26 57 31 58 27 59 28 60 30 61 32 62 29 63 51 64 52 65 57 66
REMARK SMILES IDX 53 67 54 68 56 69 58 70 55 71 39 72 40 73 45 74 41 75 42 76
REMARK SMILES IDX 44 77 46 78 43 79
REMARK H PARENT 6 8 63 41 37 52
REMARK Flexibility Score: inf
ROOT
ATOM      1  C   UNL A   1      31.632  28.546  26.184  1.00  0.00     0.274 C 
ENDROOT
BRANCH   1   2
ATOM      2  O   UNL A   1      32.786  27.713  26.399  1.00  0.00    -0.458 OA
BRANCH   2   3
ATOM      3  C   UNL A   1      32.646  26.413  26.017  1.00  0.00     0.365 C 
ATOM      4  O   UNL A   1      31.840  25.628  26.511  1.00  0.00    -0.245 OA
BRANCH   3   5
ATOM      5  C   UNL A   1      33.573  26.017  24.869  1.00  0.00     0.296 C 
ATOM      6  N   UNL A   1      32.811  25.686  23.644  1.00  0.00    -0.318 N 
ATOM      7  C   UNL A   1      33.275  24.375  23.159  1.00  0.00     0.188 C 
ATOM      8  H   UNL A   1      31.821  25.565  23.861  1.00  0.00     0.349 HD
ATOM      9  C   UNL A   1      34.486  24.822  25.142  1.00  0.00     0.087 C 
ATOM     10  C   UNL A   1      34.676  24.244  23.748  1.00  0.00     0.054 C 
ATOM     11  C   UNL A   1      32.329  23.272  23.690  1.00  0.00     0.065 C 
ATOM     12  C   UNL A   1      35.253  22.836  23.699  1.00  0.00     0.010 C 
ATOM     13  C   UNL A   1      32.931  21.871  23.578  1.00  0.00     0.006 C 
ATOM     14  C   UNL A   1      34.302  21.778  24.242  1.00  0.00     0.001 C 
BRANCH   6  15
ATOM     15  C   UNL A   1      32.539  26.794  22.696  1.00  0.00     0.184 C 
ATOM     16  C   UNL A   1      33.485  27.984  22.938  1.00  0.00     0.075 C 
BRANCH  15  17
ATOM     17  C   UNL A   1      31.033  27.229  22.501  1.00  0.00     0.041 C 
ATOM     18  C   UNL A   1      30.041  26.598  23.491  1.00  0.00     0.013 C 
ATOM     19  C   UNL A   1      30.850  28.756  22.635  1.00  0.00     0.013 C 
ENDBRANCH  15  17
ENDBRANCH   6  15
ENDBRANCH   3   5
ENDBRANCH   2   3
ENDBRANCH   1   2
BRANCH   1  20
ATOM     20  C   UNL A   1      31.758  29.846  26.974  1.00  0.00     0.275 C 
BRANCH  20  21
ATOM     21  O   UNL A   1      32.729  30.707  26.352  1.00  0.00    -0.458 OA
BRANCH  21  22
ATOM     22  C   UNL A   1      33.207  31.704  27.126  1.00  0.00     0.338 C 
ATOM     23  O   UNL A   1      32.661  32.764  27.399  1.00  0.00    -0.246 OA
BRANCH  22  24
ATOM     24  C   UNL A   1      34.537  31.349  27.647  1.00  0.00     0.060 A 
ATOM     25  C   UNL A   1      34.839  30.027  27.975  1.00  0.00     0.016 A 
ATOM     26  C   UNL A   1      35.445  32.365  27.941  1.00  0.00     0.016 A 
ATOM     27  C   UNL A   1      35.993  29.729  28.694  1.00  0.00     0.010 A 
ATOM     28  C   UNL A   1      36.655  32.048  28.563  1.00  0.00     0.010 A 
ATOM     29  C   UNL A   1      36.925  30.732  28.981  1.00  0.00    -0.014 A 
BRANCH  29  30
ATOM     30  C   UNL A   1      38.172  30.424  29.729  1.00  0.00     0.031 A 
ATOM     31  C   UNL A   1      39.216  29.531  29.117  1.00  0.00     0.074 A 
ATOM     32  C   UNL A   1      38.360  30.922  30.966  1.00  0.00     0.049 A 
ATOM     33  N   UNL A   1      40.244  28.953  29.682  1.00  0.00    -0.248 NA
ATOM     34  C   UNL A   1      39.072  29.235  27.683  1.00  0.00     0.031 C 
ATOM     35  C   UNL A   1      37.453  31.834  31.665  1.00  0.00     0.029 A 
ATOM     36  N   UNL A   1      39.378  30.715  31.864  1.00  0.00    -0.354 N 
ATOM     37  C   UNL A   1      40.832  28.176  28.692  1.00  0.00     0.074 A 
ATOM     38  C   UNL A   1      40.051  28.363  27.487  1.00  0.00     0.031 C 
ATOM     39  C   UNL A   1      37.961  32.120  32.873  1.00  0.00     0.029 A 
ATOM     40  C   UNL A   1      39.181  31.346  33.067  1.00  0.00     0.049 A 
ATOM     41  H   UNL A   1      40.171  30.167  31.665  1.00  0.00     0.167 HD
ATOM     42  C   UNL A   1      41.919  27.373  28.785  1.00  0.00     0.037 A 
ATOM     43  C   UNL A   1      39.870  31.271  34.220  1.00  0.00     0.037 A 
ATOM     44  C   UNL A   1      42.726  27.237  29.970  1.00  0.00     0.049 A 
ATOM     45  C   UNL A   1      41.063  30.365  34.306  1.00  0.00     0.074 A 
ATOM     46  C   UNL A   1      43.867  26.475  30.154  1.00  0.00     0.029 A 
ATOM     47  N   UNL A   1      42.486  27.893  31.167  1.00  0.00    -0.354 N 
ATOM     48  N   UNL A   1      41.579  29.594  33.380  1.00  0.00    -0.248 NA
ATOM     49  C   UNL A   1      41.754  30.303  35.600  1.00  0.00     0.031 C 
ATOM     50  C   UNL A   1      44.302  26.650  31.473  1.00  0.00     0.029 A 
ATOM     51  C   UNL A   1      43.449  27.544  32.098  1.00  0.00     0.049 A 
ATOM     52  H   UNL A   1      41.739  28.514  31.331  1.00  0.00     0.167 HD
ATOM     53  C   UNL A   1      42.657  28.956  33.978  1.00  0.00     0.074 A 
ATOM     54  C   UNL A   1      42.732  29.446  35.340  1.00  0.00     0.031 C 
ATOM     55  C   UNL A   1      43.504  28.041  33.449  1.00  0.00     0.037 A 
BRANCH  42  56
ATOM     56  C   UNL A   1      42.278  26.551  27.585  1.00  0.00     0.057 A 
ATOM     57  C   UNL A   1      43.151  27.016  26.596  1.00  0.00     0.134 A 
ATOM     58  C   UNL A   1      41.757  25.259  27.434  1.00  0.00     0.134 A 
ATOM     59  F   UNL A   1      43.671  28.250  26.674  1.00  0.00    -0.206 F 
ATOM     60  C   UNL A   1      43.484  26.230  25.490  1.00  0.00     0.040 A 
ATOM     61  C   UNL A   1      42.098  24.457  26.344  1.00  0.00     0.040 A 
ATOM     62  F   UNL A   1      40.916  24.753  28.349  1.00  0.00    -0.206 F 
ATOM     63  C   UNL A   1      42.961  24.945  25.365  1.00  0.00     0.006 A 
ENDBRANCH  42  56
BRANCH  43  64
ATOM     64  C   UNL A   1      39.411  32.044  35.400  1.00  0.00     0.057 A 
ATOM     65  C   UNL A   1      38.513  31.493  36.319  1.00  0.00     0.134 A 
ATOM     66  C   UNL A   1      39.881  33.340  35.648  1.00  0.00     0.134 A 
ATOM     67  F   UNL A   1      38.015  30.264  36.121  1.00  0.00    -0.206 F 
ATOM     68  C   UNL A   1      38.096  32.204  37.445  1.00  0.00     0.040 A 
ATOM     69  C   UNL A   1      39.491  34.053  36.781  1.00  0.00     0.040 A 
ATOM     70  F   UNL A   1      40.748  33.919  34.804  1.00  0.00    -0.206 F 
ATOM     71  C   UNL A   1      38.592  33.484  37.682  1.00  0.00     0.006 A 
ENDBRANCH  43  64
BRANCH  55  72
ATOM     72  C   UNL A   1      44.593  27.531  34.340  1.00  0.00     0.057 A 
ATOM     73  C   UNL A   1      45.819  28.197  34.454  1.00  0.00     0.134 A 
ATOM     74  C   UNL A   1      44.402  26.379  35.113  1.00  0.00     0.134 A 
ATOM     75  F   UNL A   1      46.065  29.296  33.726  1.00  0.00    -0.206 F 
ATOM     76  C   UNL A   1      46.826  27.724  35.296  1.00  0.00     0.040 A 
ATOM     77  C   UNL A   1      45.395  25.907  35.971  1.00  0.00     0.040 A 
ATOM     78  F   UNL A   1      43.246  25.700  35.050  1.00  0.00    -0.206 F 
ATOM     79  C   UNL A   1      46.613  26.578  36.061  1.00  0.00     0.006 A 
ENDBRANCH  55  72
ENDBRANCH  29  30
ENDBRANCH  22  24
ENDBRANCH  21  22
ENDBRANCH  20  21
ENDBRANCH   1  20
TORSDOF 13
ENDMDL
