MODEL 1
REMARK VINA RESULT:     -11.8      0.000      0.000
REMARK SMILES CCOc1cc(C[NH+]2CCC3(CC2)[C@H](C(=O)OCCOC(=O)c2ccc(-c4c5nc(c(-c6c(F)cccc6F)c6ccc([nH]6)c(-c6c(F)cccc6F)c6nc(c(-c7c(F)cccc7F)c7ccc4[nH]7)C=C6)C=C5)cc2)CC(=O)N3C)ccc1OC
REMARK SMILES IDX 18 1 17 2 15 3 16 4 14 5 8 6 9 7 13 8 10 10 12 11 11 12
REMARK SMILES IDX 80 13 77 14 78 15 81 16 79 17 7 18 6 19 4 20 5 21 84 22
REMARK SMILES IDX 83 23 82 24 3 25 2 26 1 27 85 28 86 29 19 30 20 31 21 32
REMARK SMILES IDX 22 33 23 34 24 35 76 36 25 37 75 38 26 39 27 40 28 41 69 42
REMARK SMILES IDX 29 43 74 44 68 45 70 46 30 47 73 48 67 49 66 50 31 52 57 53
REMARK SMILES IDX 40 54 56 55 41 56 44 57 55 58 71 59 42 60 43 61 54 63 72 64
REMARK SMILES IDX 45 65 32 66 33 67 38 68 34 69 35 70 37 71 39 72 36 73 58 74
REMARK SMILES IDX 59 75 64 76 60 77 61 78 63 79 65 80 62 81 46 82 47 83 52 84
REMARK SMILES IDX 48 85 49 86 51 87 53 88 50 89
REMARK H PARENT 8 9 70 51 44 62
REMARK Flexibility Score: inf
ROOT
ATOM      1  C   UNL A   1      32.165  30.125  26.631  1.00  0.00     0.274 C 
ENDROOT
BRANCH   1   2
ATOM      2  O   UNL A   1      31.365  29.006  26.147  1.00  0.00    -0.462 OA
BRANCH   2   3
ATOM      3  C   UNL A   1      31.522  28.696  24.814  1.00  0.00     0.311 C 
ATOM      4  O   UNL A   1      31.014  29.367  23.921  1.00  0.00    -0.252 OA
BRANCH   3   5
ATOM      5  C   UNL A   1      32.562  27.576  24.546  1.00  0.00     0.134 C 
ATOM      6  N   UNL A   1      31.285  23.473  24.096  1.00  0.00    -0.331 N 
ATOM      7  C   UNL A   1      30.386  24.482  23.549  1.00  0.00     0.265 C 
ATOM      8  C   UNL A   1      32.674  23.729  23.761  1.00  0.00     0.265 C 
ATOM      9  H   UNL A   1      31.006  22.639  23.579  1.00  0.00     0.348 HD
ATOM     10  C   UNL A   1      30.769  25.945  23.790  1.00  0.00     0.091 C 
ATOM     11  C   UNL A   1      33.186  25.140  24.073  1.00  0.00     0.091 C 
ATOM     12  C   UNL A   1      32.255  26.324  23.671  1.00  0.00     0.067 C 
ATOM     13  N   UNL A   1      32.700  26.798  22.353  1.00  0.00    -0.339 N 
ATOM     14  C   UNL A   1      33.829  28.163  23.914  1.00  0.00     0.118 C 
ATOM     15  C   UNL A   1      33.669  27.805  22.466  1.00  0.00     0.223 C 
ATOM     16  C   UNL A   1      32.739  25.959  21.175  1.00  0.00     0.147 C 
ATOM     17  O   UNL A   1      34.382  28.231  21.565  1.00  0.00    -0.275 OA
BRANCH   6  18
ATOM     18  C   UNL A   1      31.018  22.890  25.426  1.00  0.00     0.299 C 
BRANCH  18  19
ATOM     19  C   UNL A   1      32.153  22.076  26.010  1.00  0.00     0.010 A 
ATOM     20  C   UNL A   1      33.949  20.497  25.478  1.00  0.00     0.161 A 
ATOM     21  C   UNL A   1      32.583  20.850  25.452  1.00  0.00     0.060 A 
ATOM     22  C   UNL A   1      34.832  21.350  26.120  1.00  0.00     0.160 A 
ATOM     23  C   UNL A   1      34.298  22.368  26.923  1.00  0.00     0.051 A 
ATOM     24  C   UNL A   1      32.968  22.725  26.914  1.00  0.00     0.013 A 
BRANCH  20  25
ATOM     25  O   UNL A   1      34.408  19.611  24.540  1.00  0.00    -0.490 OA
BRANCH  25  26
ATOM     26  C   UNL A   1      33.572  18.476  24.318  1.00  0.00     0.226 C 
ATOM     27  C   UNL A   1      34.426  17.316  23.826  1.00  0.00     0.049 C 
ENDBRANCH  25  26
ENDBRANCH  20  25
BRANCH  22  28
ATOM     28  O   UNL A   1      36.188  21.452  26.011  1.00  0.00    -0.493 OA
ATOM     29  C   UNL A   1      36.883  22.035  24.922  1.00  0.00     0.278 C 
ENDBRANCH  22  28
ENDBRANCH  18  19
ENDBRANCH   6  18
ENDBRANCH   3   5
ENDBRANCH   2   3
ENDBRANCH   1   2
BRANCH   1  30
ATOM     30  C   UNL A   1      33.517  29.720  27.289  1.00  0.00     0.275 C 
BRANCH  30  31
ATOM     31  O   UNL A   1      34.556  30.735  27.425  1.00  0.00    -0.458 OA
BRANCH  31  32
ATOM     32  C   UNL A   1      35.003  31.071  28.659  1.00  0.00     0.338 C 
ATOM     33  O   UNL A   1      34.524  31.952  29.362  1.00  0.00    -0.246 OA
BRANCH  32  34
ATOM     34  C   UNL A   1      36.350  30.456  28.919  1.00  0.00     0.060 A 
ATOM     35  C   UNL A   1      37.221  30.566  27.854  1.00  0.00     0.016 A 
ATOM     36  C   UNL A   1      36.778  29.693  30.012  1.00  0.00     0.016 A 
ATOM     37  C   UNL A   1      38.357  29.768  27.777  1.00  0.00     0.010 A 
ATOM     38  C   UNL A   1      38.099  29.130  30.033  1.00  0.00     0.010 A 
ATOM     39  C   UNL A   1      38.932  29.190  28.902  1.00  0.00    -0.014 A 
BRANCH  39  40
ATOM     40  C   UNL A   1      40.407  28.856  28.798  1.00  0.00     0.031 A 
ATOM     41  C   UNL A   1      41.517  29.830  29.110  1.00  0.00     0.074 A 
ATOM     42  C   UNL A   1      40.778  27.572  28.532  1.00  0.00     0.049 A 
ATOM     43  N   UNL A   1      42.799  29.724  28.846  1.00  0.00    -0.248 NA
ATOM     44  C   UNL A   1      41.162  31.053  29.841  1.00  0.00     0.031 C 
ATOM     45  C   UNL A   1      39.861  26.437  28.349  1.00  0.00     0.029 A 
ATOM     46  N   UNL A   1      42.016  26.972  28.423  1.00  0.00    -0.354 N 
ATOM     47  C   UNL A   1      43.397  30.888  29.317  1.00  0.00     0.074 A 
ATOM     48  C   UNL A   1      42.339  31.667  29.932  1.00  0.00     0.031 C 
ATOM     49  C   UNL A   1      40.546  25.293  28.305  1.00  0.00     0.029 A 
ATOM     50  C   UNL A   1      41.949  25.618  28.166  1.00  0.00     0.049 A 
ATOM     51  H   UNL A   1      42.864  27.462  28.517  1.00  0.00     0.167 HD
ATOM     52  C   UNL A   1      44.697  31.272  29.213  1.00  0.00     0.037 A 
ATOM     53  C   UNL A   1      42.863  24.731  27.726  1.00  0.00     0.037 A 
ATOM     54  C   UNL A   1      45.744  30.465  28.622  1.00  0.00     0.049 A 
ATOM     55  C   UNL A   1      44.237  25.231  27.423  1.00  0.00     0.074 A 
ATOM     56  C   UNL A   1      47.064  30.802  28.367  1.00  0.00     0.029 A 
ATOM     57  N   UNL A   1      45.590  29.149  28.209  1.00  0.00    -0.354 N 
ATOM     58  N   UNL A   1      44.755  26.407  27.672  1.00  0.00    -0.248 NA
ATOM     59  C   UNL A   1      45.138  24.305  26.724  1.00  0.00     0.031 C 
ATOM     60  C   UNL A   1      47.690  29.712  27.749  1.00  0.00     0.029 A 
ATOM     61  C   UNL A   1      46.780  28.672  27.676  1.00  0.00     0.049 A 
ATOM     62  H   UNL A   1      44.758  28.628  28.283  1.00  0.00     0.167 HD
ATOM     63  C   UNL A   1      46.045  26.362  27.168  1.00  0.00     0.074 A 
ATOM     64  C   UNL A   1      46.240  25.034  26.626  1.00  0.00     0.031 C 
ATOM     65  C   UNL A   1      46.976  27.345  27.151  1.00  0.00     0.037 A 
BRANCH  52  66
ATOM     66  C   UNL A   1      45.054  32.671  29.640  1.00  0.00     0.057 A 
ATOM     67  C   UNL A   1      45.565  32.978  30.906  1.00  0.00     0.134 A 
ATOM     68  C   UNL A   1      44.916  33.733  28.732  1.00  0.00     0.134 A 
ATOM     69  F   UNL A   1      45.725  32.015  31.827  1.00  0.00    -0.206 F 
ATOM     70  C   UNL A   1      45.899  34.289  31.262  1.00  0.00     0.040 A 
ATOM     71  C   UNL A   1      45.269  35.042  29.067  1.00  0.00     0.040 A 
ATOM     72  F   UNL A   1      44.450  33.511  27.493  1.00  0.00    -0.206 F 
ATOM     73  C   UNL A   1      45.754  35.325  30.340  1.00  0.00     0.006 A 
ENDBRANCH  52  66
BRANCH  53  74
ATOM     74  C   UNL A   1      42.461  23.337  27.375  1.00  0.00     0.057 A 
ATOM     75  C   UNL A   1      42.348  22.340  28.347  1.00  0.00     0.134 A 
ATOM     76  C   UNL A   1      42.207  22.960  26.044  1.00  0.00     0.134 A 
ATOM     77  F   UNL A   1      42.609  22.618  29.633  1.00  0.00    -0.206 F 
ATOM     78  C   UNL A   1      42.006  21.026  28.014  1.00  0.00     0.040 A 
ATOM     79  C   UNL A   1      41.817  21.665  25.703  1.00  0.00     0.040 A 
ATOM     80  F   UNL A   1      42.309  23.857  25.052  1.00  0.00    -0.206 F 
ATOM     81  C   UNL A   1      41.728  20.689  26.690  1.00  0.00     0.006 A 
ENDBRANCH  53  74
BRANCH  65  82
ATOM     82  C   UNL A   1      48.315  26.994  26.573  1.00  0.00     0.057 A 
ATOM     83  C   UNL A   1      49.359  26.498  27.363  1.00  0.00     0.134 A 
ATOM     84  C   UNL A   1      48.557  27.151  25.202  1.00  0.00     0.134 A 
ATOM     85  F   UNL A   1      49.199  26.352  28.687  1.00  0.00    -0.206 F 
ATOM     86  C   UNL A   1      50.602  26.184  26.814  1.00  0.00     0.040 A 
ATOM     87  C   UNL A   1      49.786  26.814  24.637  1.00  0.00     0.040 A 
ATOM     88  F   UNL A   1      47.600  27.628  24.391  1.00  0.00    -0.206 F 
ATOM     89  C   UNL A   1      50.816  26.334  25.445  1.00  0.00     0.006 A 
ENDBRANCH  65  82
ENDBRANCH  39  40
ENDBRANCH  32  34
ENDBRANCH  31  32
ENDBRANCH  30  31
ENDBRANCH   1  30
TORSDOF 16
ENDMDL
MODEL 2
REMARK VINA RESULT:     -11.8      4.119      9.470
REMARK SMILES CCOc1cc(C[NH+]2CCC3(CC2)[C@H](C(=O)OCCOC(=O)c2ccc(-c4c5nc(c(-c6c(F)cccc6F)c6ccc([nH]6)c(-c6c(F)cccc6F)c6nc(c(-c7c(F)cccc7F)c7ccc4[nH]7)C=C6)C=C5)cc2)CC(=O)N3C)ccc1OC
REMARK SMILES IDX 18 1 17 2 15 3 16 4 14 5 8 6 9 7 13 8 10 10 12 11 11 12
REMARK SMILES IDX 80 13 77 14 78 15 81 16 79 17 7 18 6 19 4 20 5 21 84 22
REMARK SMILES IDX 83 23 82 24 3 25 2 26 1 27 85 28 86 29 19 30 20 31 21 32
REMARK SMILES IDX 22 33 23 34 24 35 76 36 25 37 75 38 26 39 27 40 28 41 69 42
REMARK SMILES IDX 29 43 74 44 68 45 70 46 30 47 73 48 67 49 66 50 31 52 57 53
REMARK SMILES IDX 40 54 56 55 41 56 44 57 55 58 71 59 42 60 43 61 54 63 72 64
REMARK SMILES IDX 45 65 32 66 33 67 38 68 34 69 35 70 37 71 39 72 36 73 58 74
REMARK SMILES IDX 59 75 64 76 60 77 61 78 63 79 65 80 62 81 46 82 47 83 52 84
REMARK SMILES IDX 48 85 49 86 51 87 53 88 50 89
REMARK H PARENT 8 9 70 51 44 62
REMARK Flexibility Score: inf
ROOT
ATOM      1  C   UNL A   1      37.893  21.523  25.119  1.00  0.00     0.274 C 
ENDROOT
BRANCH   1   2
ATOM      2  O   UNL A   1      36.698  21.166  25.874  1.00  0.00    -0.462 OA
BRANCH   2   3
ATOM      3  C   UNL A   1      35.775  20.399  25.197  1.00  0.00     0.311 C 
ATOM      4  O   UNL A   1      36.080  19.355  24.630  1.00  0.00    -0.252 OA
BRANCH   3   5
ATOM      5  C   UNL A   1      34.305  20.854  25.406  1.00  0.00     0.134 C 
ATOM      6  N   UNL A   1      33.084  24.856  24.329  1.00  0.00    -0.331 N 
ATOM      7  C   UNL A   1      34.075  24.237  23.456  1.00  0.00     0.265 C 
ATOM      8  C   UNL A   1      32.003  23.949  24.668  1.00  0.00     0.265 C 
ATOM      9  H   UNL A   1      32.688  25.574  23.721  1.00  0.00     0.348 HD
ATOM     10  C   UNL A   1      34.599  22.862  23.879  1.00  0.00     0.091 C 
ATOM     11  C   UNL A   1      32.427  22.579  25.211  1.00  0.00     0.091 C 
ATOM     12  C   UNL A   1      33.585  21.859  24.458  1.00  0.00     0.067 C 
ATOM     13  N   UNL A   1      32.969  20.932  23.497  1.00  0.00    -0.339 N 
ATOM     14  C   UNL A   1      33.370  19.641  25.432  1.00  0.00     0.118 C 
ATOM     15  C   UNL A   1      32.760  19.667  24.062  1.00  0.00     0.223 C 
ATOM     16  C   UNL A   1      32.069  21.356  22.446  1.00  0.00     0.147 C 
ATOM     17  O   UNL A   1      32.071  18.767  23.594  1.00  0.00    -0.275 OA
BRANCH   6  18
ATOM     18  C   UNL A   1      33.513  25.803  25.378  1.00  0.00     0.299 C 
BRANCH  18  19
ATOM     19  C   UNL A   1      33.434  27.265  24.992  1.00  0.00     0.010 A 
ATOM     20  C   UNL A   1      32.127  28.932  23.762  1.00  0.00     0.161 A 
ATOM     21  C   UNL A   1      32.833  27.710  23.793  1.00  0.00     0.060 A 
ATOM     22  C   UNL A   1      32.102  29.701  24.914  1.00  0.00     0.160 A 
ATOM     23  C   UNL A   1      32.981  29.361  25.952  1.00  0.00     0.051 A 
ATOM     24  C   UNL A   1      33.680  28.176  25.998  1.00  0.00     0.013 A 
BRANCH  20  25
ATOM     25  O   UNL A   1      31.168  29.101  22.800  1.00  0.00    -0.490 OA
BRANCH  25  26
ATOM     26  C   UNL A   1      29.984  28.326  22.980  1.00  0.00     0.226 C 
ATOM     27  C   UNL A   1      28.787  29.261  23.094  1.00  0.00     0.049 C 
ENDBRANCH  25  26
ENDBRANCH  20  25
BRANCH  22  28
ATOM     28  O   UNL A   1      31.253  30.704  25.278  1.00  0.00    -0.493 OA
ATOM     29  C   UNL A   1      31.305  31.420  26.501  1.00  0.00     0.278 C 
ENDBRANCH  22  28
ENDBRANCH  18  19
ENDBRANCH   6  18
ENDBRANCH   3   5
ENDBRANCH   2   3
ENDBRANCH   1   2
BRANCH   1  30
ATOM     30  C   UNL A   1      39.219  20.936  25.686  1.00  0.00     0.275 C 
BRANCH  30  31
ATOM     31  O   UNL A   1      40.017  21.761  26.585  1.00  0.00    -0.458 OA
BRANCH  31  32
ATOM     32  C   UNL A   1      41.090  22.432  26.101  1.00  0.00     0.338 C 
ATOM     33  O   UNL A   1      41.974  21.937  25.413  1.00  0.00    -0.246 OA
BRANCH  32  34
ATOM     34  C   UNL A   1      41.229  23.767  26.779  1.00  0.00     0.060 A 
ATOM     35  C   UNL A   1      40.438  23.899  27.903  1.00  0.00     0.016 A 
ATOM     36  C   UNL A   1      41.929  24.905  26.358  1.00  0.00     0.016 A 
ATOM     37  C   UNL A   1      40.170  25.153  28.441  1.00  0.00     0.010 A 
ATOM     38  C   UNL A   1      41.873  26.117  27.126  1.00  0.00     0.010 A 
ATOM     39  C   UNL A   1      40.997  26.246  28.217  1.00  0.00    -0.014 A 
BRANCH  39  40
ATOM     40  C   UNL A   1      40.949  27.342  29.263  1.00  0.00     0.031 A 
ATOM     41  C   UNL A   1      41.955  27.488  30.379  1.00  0.00     0.074 A 
ATOM     42  C   UNL A   1      40.028  28.338  29.137  1.00  0.00     0.049 A 
ATOM     43  N   UNL A   1      41.888  28.246  31.450  1.00  0.00    -0.248 NA
ATOM     44  C   UNL A   1      43.206  26.727  30.270  1.00  0.00     0.031 C 
ATOM     45  C   UNL A   1      39.058  28.472  28.040  1.00  0.00     0.029 A 
ATOM     46  N   UNL A   1      39.779  29.467  29.891  1.00  0.00    -0.354 N 
ATOM     47  C   UNL A   1      43.051  28.011  32.175  1.00  0.00     0.074 A 
ATOM     48  C   UNL A   1      43.833  27.072  31.393  1.00  0.00     0.031 C 
ATOM     49  C   UNL A   1      38.445  29.656  28.108  1.00  0.00     0.029 A 
ATOM     50  C   UNL A   1      38.754  30.245  29.393  1.00  0.00     0.049 A 
ATOM     51  H   UNL A   1      40.282  29.694  30.706  1.00  0.00     0.167 HD
ATOM     52  C   UNL A   1      43.407  28.510  33.388  1.00  0.00     0.037 A 
ATOM     53  C   UNL A   1      38.022  31.237  29.935  1.00  0.00     0.037 A 
ATOM     54  C   UNL A   1      42.625  29.471  34.138  1.00  0.00     0.049 A 
ATOM     55  C   UNL A   1      38.302  31.625  31.350  1.00  0.00     0.074 A 
ATOM     56  C   UNL A   1      42.837  29.955  35.420  1.00  0.00     0.029 A 
ATOM     57  N   UNL A   1      41.486  30.107  33.664  1.00  0.00    -0.354 N 
ATOM     58  N   UNL A   1      39.286  31.244  32.125  1.00  0.00    -0.248 NA
ATOM     59  C   UNL A   1      37.342  32.534  31.989  1.00  0.00     0.031 C 
ATOM     60  C   UNL A   1      41.797  30.838  35.740  1.00  0.00     0.029 A 
ATOM     61  C   UNL A   1      40.971  30.954  34.636  1.00  0.00     0.049 A 
ATOM     62  H   UNL A   1      41.100  29.977  32.768  1.00  0.00     0.167 HD
ATOM     63  C   UNL A   1      39.069  31.870  33.341  1.00  0.00     0.074 A 
ATOM     64  C   UNL A   1      37.877  32.679  33.192  1.00  0.00     0.031 C 
ATOM     65  C   UNL A   1      39.794  31.770  34.480  1.00  0.00     0.037 A 
BRANCH  52  66
ATOM     66  C   UNL A   1      44.638  27.948  34.047  1.00  0.00     0.057 A 
ATOM     67  C   UNL A   1      45.896  28.556  33.965  1.00  0.00     0.134 A 
ATOM     68  C   UNL A   1      44.543  26.781  34.822  1.00  0.00     0.134 A 
ATOM     69  F   UNL A   1      46.065  29.674  33.242  1.00  0.00    -0.206 F 
ATOM     70  C   UNL A   1      47.015  28.012  34.603  1.00  0.00     0.040 A 
ATOM     71  C   UNL A   1      45.647  26.241  35.485  1.00  0.00     0.040 A 
ATOM     72  F   UNL A   1      43.364  26.154  34.963  1.00  0.00    -0.206 F 
ATOM     73  C   UNL A   1      46.892  26.852  35.368  1.00  0.00     0.006 A 
ENDBRANCH  52  66
BRANCH  53  74
ATOM     74  C   UNL A   1      36.845  31.798  29.207  1.00  0.00     0.057 A 
ATOM     75  C   UNL A   1      36.870  33.080  28.652  1.00  0.00     0.134 A 
ATOM     76  C   UNL A   1      35.649  31.070  29.074  1.00  0.00     0.134 A 
ATOM     77  F   UNL A   1      37.965  33.846  28.770  1.00  0.00    -0.206 F 
ATOM     78  C   UNL A   1      35.756  33.619  28.001  1.00  0.00     0.040 A 
ATOM     79  C   UNL A   1      34.547  31.576  28.385  1.00  0.00     0.040 A 
ATOM     80  F   UNL A   1      35.542  29.838  29.594  1.00  0.00    -0.206 F 
ATOM     81  C   UNL A   1      34.595  32.861  27.856  1.00  0.00     0.006 A 
ENDBRANCH  53  74
BRANCH  65  82
ATOM     82  C   UNL A   1      39.343  32.605  35.642  1.00  0.00     0.057 A 
ATOM     83  C   UNL A   1      38.424  32.130  36.586  1.00  0.00     0.134 A 
ATOM     84  C   UNL A   1      39.843  33.901  35.817  1.00  0.00     0.134 A 
ATOM     85  F   UNL A   1      37.887  30.907  36.457  1.00  0.00    -0.206 F 
ATOM     86  C   UNL A   1      38.006  32.921  37.657  1.00  0.00     0.040 A 
ATOM     87  C   UNL A   1      39.454  34.690  36.900  1.00  0.00     0.040 A 
ATOM     88  F   UNL A   1      40.721  34.417  34.945  1.00  0.00    -0.206 F 
ATOM     89  C   UNL A   1      38.529  34.202  37.821  1.00  0.00     0.006 A 
ENDBRANCH  65  82
ENDBRANCH  39  40
ENDBRANCH  32  34
ENDBRANCH  31  32
ENDBRANCH  30  31
ENDBRANCH   1  30
TORSDOF 16
ENDMDL
MODEL 3
REMARK VINA RESULT:     -11.8      2.305      7.994
REMARK SMILES CCOc1cc(C[NH+]2CCC3(CC2)[C@H](C(=O)OCCOC(=O)c2ccc(-c4c5nc(c(-c6c(F)cccc6F)c6ccc([nH]6)c(-c6c(F)cccc6F)c6nc(c(-c7c(F)cccc7F)c7ccc4[nH]7)C=C6)C=C5)cc2)CC(=O)N3C)ccc1OC
REMARK SMILES IDX 18 1 17 2 15 3 16 4 14 5 8 6 9 7 13 8 10 10 12 11 11 12
REMARK SMILES IDX 80 13 77 14 78 15 81 16 79 17 7 18 6 19 4 20 5 21 84 22
REMARK SMILES IDX 83 23 82 24 3 25 2 26 1 27 85 28 86 29 19 30 20 31 21 32
REMARK SMILES IDX 22 33 23 34 24 35 76 36 25 37 75 38 26 39 27 40 28 41 69 42
REMARK SMILES IDX 29 43 74 44 68 45 70 46 30 47 73 48 67 49 66 50 31 52 57 53
REMARK SMILES IDX 40 54 56 55 41 56 44 57 55 58 71 59 42 60 43 61 54 63 72 64
REMARK SMILES IDX 45 65 32 66 33 67 38 68 34 69 35 70 37 71 39 72 36 73 58 74
REMARK SMILES IDX 59 75 64 76 60 77 61 78 63 79 65 80 62 81 46 82 47 83 52 84
REMARK SMILES IDX 48 85 49 86 51 87 53 88 50 89
REMARK H PARENT 8 9 70 51 44 62
REMARK Flexibility Score: inf
ROOT
ATOM      1  C   UNL A   1      33.826  22.649  26.114  1.00  0.00     0.274 C 
ENDROOT
BRANCH   1   2
ATOM      2  O   UNL A   1      33.979  24.050  26.484  1.00  0.00    -0.462 OA
BRANCH   2   3
ATOM      3  C   UNL A   1      33.451  24.960  25.595  1.00  0.00     0.311 C 
ATOM      4  O   UNL A   1      33.597  24.852  24.381  1.00  0.00    -0.252 OA
BRANCH   3   5
ATOM      5  C   UNL A   1      32.487  25.989  26.245  1.00  0.00     0.134 C 
ATOM      6  N   UNL A   1      33.628  30.143  26.579  1.00  0.00    -0.331 N 
ATOM      7  C   UNL A   1      34.073  29.456  25.372  1.00  0.00     0.265 C 
ATOM      8  C   UNL A   1      32.243  29.854  26.901  1.00  0.00     0.265 C 
ATOM      9  H   UNL A   1      33.667  31.121  26.291  1.00  0.00     0.348 HD
ATOM     10  C   UNL A   1      33.769  27.958  25.283  1.00  0.00     0.091 C 
ATOM     11  C   UNL A   1      31.865  28.369  26.949  1.00  0.00     0.091 C 
ATOM     12  C   UNL A   1      32.399  27.476  25.788  1.00  0.00     0.067 C 
ATOM     13  N   UNL A   1      31.330  27.388  24.782  1.00  0.00    -0.339 N 
ATOM     14  C   UNL A   1      31.040  25.493  26.160  1.00  0.00     0.118 C 
ATOM     15  C   UNL A   1      30.484  26.296  25.022  1.00  0.00     0.223 C 
ATOM     16  C   UNL A   1      30.766  28.541  24.115  1.00  0.00     0.147 C 
ATOM     17  O   UNL A   1      29.393  26.096  24.500  1.00  0.00    -0.275 OA
BRANCH   6  18
ATOM     18  C   UNL A   1      34.555  30.311  27.716  1.00  0.00     0.299 C 
BRANCH  18  19
ATOM     19  C   UNL A   1      34.843  31.746  28.102  1.00  0.00     0.010 A 
ATOM     20  C   UNL A   1      34.639  33.405  29.893  1.00  0.00     0.161 A 
ATOM     21  C   UNL A   1      34.046  32.468  29.021  1.00  0.00     0.060 A 
ATOM     22  C   UNL A   1      35.999  33.641  29.772  1.00  0.00     0.160 A 
ATOM     23  C   UNL A   1      36.656  33.141  28.639  1.00  0.00     0.051 A 
ATOM     24  C   UNL A   1      36.093  32.228  27.775  1.00  0.00     0.013 A 
BRANCH  20  25
ATOM     25  O   UNL A   1      33.990  33.705  31.060  1.00  0.00    -0.490 OA
BRANCH  25  26
ATOM     26  C   UNL A   1      33.878  35.098  31.352  1.00  0.00     0.226 C 
ATOM     27  C   UNL A   1      32.856  35.724  30.413  1.00  0.00     0.049 C 
ENDBRANCH  25  26
ENDBRANCH  20  25
BRANCH  22  28
ATOM     28  O   UNL A   1      36.873  34.198  30.658  1.00  0.00    -0.493 OA
ATOM     29  C   UNL A   1      38.135  33.659  31.017  1.00  0.00     0.278 C 
ENDBRANCH  22  28
ENDBRANCH  18  19
ENDBRANCH   6  18
ENDBRANCH   3   5
ENDBRANCH   2   3
ENDBRANCH   1   2
BRANCH   1  30
ATOM     30  C   UNL A   1      35.135  21.809  26.194  1.00  0.00     0.275 C 
BRANCH  30  31
ATOM     31  O   UNL A   1      36.260  22.192  25.349  1.00  0.00    -0.458 OA
BRANCH  31  32
ATOM     32  C   UNL A   1      37.430  21.516  25.446  1.00  0.00     0.338 C 
ATOM     33  O   UNL A   1      37.553  20.305  25.313  1.00  0.00    -0.246 OA
BRANCH  32  34
ATOM     34  C   UNL A   1      38.495  22.386  26.053  1.00  0.00     0.060 A 
ATOM     35  C   UNL A   1      38.291  23.735  25.842  1.00  0.00     0.016 A 
ATOM     36  C   UNL A   1      39.698  22.015  26.667  1.00  0.00     0.016 A 
ATOM     37  C   UNL A   1      39.325  24.648  26.014  1.00  0.00     0.010 A 
ATOM     38  C   UNL A   1      40.621  23.018  27.120  1.00  0.00     0.010 A 
ATOM     39  C   UNL A   1      40.425  24.376  26.819  1.00  0.00    -0.014 A 
BRANCH  39  40
ATOM     40  C   UNL A   1      41.153  25.582  27.380  1.00  0.00     0.031 A 
ATOM     41  C   UNL A   1      40.553  26.537  28.383  1.00  0.00     0.074 A 
ATOM     42  C   UNL A   1      42.468  25.763  27.073  1.00  0.00     0.049 A 
ATOM     43  N   UNL A   1      40.997  27.715  28.761  1.00  0.00    -0.248 NA
ATOM     44  C   UNL A   1      39.332  26.114  29.079  1.00  0.00     0.031 C 
ATOM     45  C   UNL A   1      43.284  24.866  26.242  1.00  0.00     0.029 A 
ATOM     46  N   UNL A   1      43.383  26.721  27.460  1.00  0.00    -0.354 N 
ATOM     47  C   UNL A   1      40.083  28.203  29.688  1.00  0.00     0.074 A 
ATOM     48  C   UNL A   1      39.082  27.167  29.854  1.00  0.00     0.031 C 
ATOM     49  C   UNL A   1      44.569  25.221  26.305  1.00  0.00     0.029 A 
ATOM     50  C   UNL A   1      44.643  26.521  26.935  1.00  0.00     0.049 A 
ATOM     51  H   UNL A   1      43.158  27.475  28.053  1.00  0.00     0.167 HD
ATOM     52  C   UNL A   1      40.075  29.412  30.310  1.00  0.00     0.037 A 
ATOM     53  C   UNL A   1      45.719  27.324  26.825  1.00  0.00     0.037 A 
ATOM     54  C   UNL A   1      41.102  30.420  30.152  1.00  0.00     0.049 A 
ATOM     55  C   UNL A   1      45.606  28.723  27.337  1.00  0.00     0.074 A 
ATOM     56  C   UNL A   1      41.133  31.716  30.647  1.00  0.00     0.029 A 
ATOM     57  N   UNL A   1      42.290  30.238  29.460  1.00  0.00    -0.354 N 
ATOM     58  N   UNL A   1      44.643  29.263  28.040  1.00  0.00    -0.248 NA
ATOM     59  C   UNL A   1      46.698  29.642  26.994  1.00  0.00     0.031 C 
ATOM     60  C   UNL A   1      42.310  32.332  30.204  1.00  0.00     0.029 A 
ATOM     61  C   UNL A   1      43.045  31.403  29.488  1.00  0.00     0.049 A 
ATOM     62  H   UNL A   1      42.559  29.404  29.012  1.00  0.00     0.167 HD
ATOM     63  C   UNL A   1      45.015  30.584  28.230  1.00  0.00     0.074 A 
ATOM     64  C   UNL A   1      46.305  30.756  27.594  1.00  0.00     0.031 C 
ATOM     65  C   UNL A   1      44.335  31.566  28.868  1.00  0.00     0.037 A 
BRANCH  52  66
ATOM     66  C   UNL A   1      38.865  29.772  31.131  1.00  0.00     0.057 A 
ATOM     67  C   UNL A   1      38.893  29.893  32.524  1.00  0.00     0.134 A 
ATOM     68  C   UNL A   1      37.645  30.046  30.490  1.00  0.00     0.134 A 
ATOM     69  F   UNL A   1      40.023  29.647  33.205  1.00  0.00    -0.206 F 
ATOM     70  C   UNL A   1      37.751  30.244  33.252  1.00  0.00     0.040 A 
ATOM     71  C   UNL A   1      36.504  30.421  31.203  1.00  0.00     0.040 A 
ATOM     72  F   UNL A   1      37.547  29.969  29.154  1.00  0.00    -0.206 F 
ATOM     73  C   UNL A   1      36.553  30.511  32.591  1.00  0.00     0.006 A 
ENDBRANCH  52  66
BRANCH  53  74
ATOM     74  C   UNL A   1      46.916  26.888  26.048  1.00  0.00     0.057 A 
ATOM     75  C   UNL A   1      47.959  26.175  26.646  1.00  0.00     0.134 A 
ATOM     76  C   UNL A   1      47.060  27.202  24.685  1.00  0.00     0.134 A 
ATOM     77  F   UNL A   1      47.906  25.870  27.951  1.00  0.00    -0.206 F 
ATOM     78  C   UNL A   1      49.097  25.798  25.927  1.00  0.00     0.040 A 
ATOM     79  C   UNL A   1      48.167  26.789  23.943  1.00  0.00     0.040 A 
ATOM     80  F   UNL A   1      46.109  27.897  24.043  1.00  0.00    -0.206 F 
ATOM     81  C   UNL A   1      49.197  26.095  24.568  1.00  0.00     0.006 A 
ENDBRANCH  53  74
BRANCH  65  82
ATOM     82  C   UNL A   1      45.008  32.904  28.956  1.00  0.00     0.057 A 
ATOM     83  C   UNL A   1      45.890  33.225  29.995  1.00  0.00     0.134 A 
ATOM     84  C   UNL A   1      44.771  33.880  27.981  1.00  0.00     0.134 A 
ATOM     85  F   UNL A   1      46.135  32.342  30.976  1.00  0.00    -0.206 F 
ATOM     86  C   UNL A   1      46.502  34.476  30.071  1.00  0.00     0.040 A 
ATOM     87  C   UNL A   1      45.399  35.125  28.029  1.00  0.00     0.040 A 
ATOM     88  F   UNL A   1      43.932  33.638  26.963  1.00  0.00    -0.206 F 
ATOM     89  C   UNL A   1      46.264  35.427  29.080  1.00  0.00     0.006 A 
ENDBRANCH  65  82
ENDBRANCH  39  40
ENDBRANCH  32  34
ENDBRANCH  31  32
ENDBRANCH  30  31
ENDBRANCH   1  30
TORSDOF 16
ENDMDL
