MODEL 1
REMARK VINA RESULT:     -11.7      0.000      0.000
REMARK SMILES C[C@@H](C(=O)OCCOC(=O)c1ccc(-c2c3nc(c(-c4c(F)cccc4F)c4ccc([nH]4)c(-c4c(F)cccc4F)c4nc(c(-c5c(F)cccc5F)c5ccc2[nH]5)C=C4)C=C3)cc1)c1ccc(C[C@H]2CCCC2=O)c(Br)c1
REMARK SMILES IDX 6 1 5 2 3 3 4 4 2 5 1 6 65 7 66 8 78 9 67 10 76 11 68 12
REMARK SMILES IDX 77 13 69 14 70 15 71 16 74 17 72 18 73 19 75 20 7 21 8 22
REMARK SMILES IDX 9 23 10 24 11 25 12 26 64 27 13 28 63 29 14 30 15 31 16 32
REMARK SMILES IDX 57 33 17 34 62 35 56 36 58 37 18 38 61 39 55 40 54 41 19 43
REMARK SMILES IDX 45 44 28 45 44 46 29 47 32 48 43 49 59 50 30 51 31 52 42 54
REMARK SMILES IDX 60 55 33 56 20 57 21 58 26 59 22 60 23 61 25 62 27 63 24 64
REMARK SMILES IDX 46 65 47 66 52 67 48 68 49 69 51 70 53 71 50 72 34 73 35 74
REMARK SMILES IDX 40 75 36 76 37 77 39 78 41 79 38 80
REMARK H PARENT 58 42 32 53
REMARK Flexibility Score: inf
ROOT
ATOM      1  C   UNL A   1      42.612  21.413  26.151  1.00  0.00     0.274 C 
ENDROOT
BRANCH   1   2
ATOM      2  O   UNL A   1      41.295  21.590  25.594  1.00  0.00    -0.462 OA
BRANCH   2   3
ATOM      3  C   UNL A   1      40.264  21.783  26.465  1.00  0.00     0.313 C 
ATOM      4  O   UNL A   1      40.273  21.353  27.613  1.00  0.00    -0.252 OA
BRANCH   3   5
ATOM      5  C   UNL A   1      39.068  22.513  25.809  1.00  0.00     0.126 C 
ATOM      6  C   UNL A   1      38.738  23.809  26.575  1.00  0.00     0.025 C 
BRANCH   5   7
ATOM      7  C   UNL A   1      37.834  21.621  25.574  1.00  0.00    -0.033 A 
ATOM      8  C   UNL A   1      37.936  20.347  25.004  1.00  0.00     0.005 A 
ATOM      9  C   UNL A   1      36.549  22.009  25.992  1.00  0.00     0.020 A 
ATOM     10  C   UNL A   1      36.807  19.556  24.764  1.00  0.00     0.005 A 
ATOM     11  C   UNL A   1      35.403  21.241  25.696  1.00  0.00     0.021 A 
ATOM     12  C   UNL A   1      35.511  20.024  25.008  1.00  0.00    -0.033 A 
ATOM     13  Br  UNL A   1      33.739  21.951  26.290  1.00  0.00    -0.051 Br
BRANCH  12  14
ATOM     14  C   UNL A   1      34.332  19.176  24.563  1.00  0.00     0.048 C 
BRANCH  14  15
ATOM     15  C   UNL A   1      34.599  17.715  24.145  1.00  0.00     0.060 C 
ATOM     16  C   UNL A   1      34.906  16.748  25.282  1.00  0.00     0.012 C 
ATOM     17  C   UNL A   1      33.447  17.014  23.463  1.00  0.00     0.136 C 
ATOM     18  C   UNL A   1      33.617  15.998  25.582  1.00  0.00     0.009 C 
ATOM     19  C   UNL A   1      32.985  15.790  24.216  1.00  0.00     0.076 C 
ATOM     20  O   UNL A   1      32.943  17.390  22.411  1.00  0.00    -0.299 OA
ENDBRANCH  14  15
ENDBRANCH  12  14
ENDBRANCH   5   7
ENDBRANCH   3   5
ENDBRANCH   2   3
ENDBRANCH   1   2
BRANCH   1  21
ATOM     21  C   UNL A   1      43.666  22.043  25.245  1.00  0.00     0.275 C 
BRANCH  21  22
ATOM     22  O   UNL A   1      43.210  23.330  24.790  1.00  0.00    -0.458 OA
BRANCH  22  23
ATOM     23  C   UNL A   1      44.024  24.377  25.050  1.00  0.00     0.338 C 
ATOM     24  O   UNL A   1      45.136  24.594  24.602  1.00  0.00    -0.246 OA
BRANCH  23  25
ATOM     25  C   UNL A   1      43.329  25.307  25.953  1.00  0.00     0.060 A 
ATOM     26  C   UNL A   1      43.839  26.588  26.092  1.00  0.00     0.016 A 
ATOM     27  C   UNL A   1      42.261  24.887  26.749  1.00  0.00     0.016 A 
ATOM     28  C   UNL A   1      43.334  27.422  27.085  1.00  0.00     0.010 A 
ATOM     29  C   UNL A   1      41.716  25.760  27.708  1.00  0.00     0.010 A 
ATOM     30  C   UNL A   1      42.284  27.025  27.936  1.00  0.00    -0.014 A 
BRANCH  30  31
ATOM     31  C   UNL A   1      41.912  27.901  29.104  1.00  0.00     0.031 A 
ATOM     32  C   UNL A   1      40.711  28.830  29.031  1.00  0.00     0.074 A 
ATOM     33  C   UNL A   1      42.486  27.715  30.313  1.00  0.00     0.049 A 
ATOM     34  N   UNL A   1      40.137  29.516  29.995  1.00  0.00    -0.248 NA
ATOM     35  C   UNL A   1      40.023  28.955  27.735  1.00  0.00     0.031 C 
ATOM     36  C   UNL A   1      43.585  26.789  30.592  1.00  0.00     0.029 A 
ATOM     37  N   UNL A   1      42.182  28.242  31.550  1.00  0.00    -0.354 N 
ATOM     38  C   UNL A   1      39.008  30.103  29.435  1.00  0.00     0.074 A 
ATOM     39  C   UNL A   1      38.997  29.740  28.035  1.00  0.00     0.031 C 
ATOM     40  C   UNL A   1      43.799  26.744  31.916  1.00  0.00     0.029 A 
ATOM     41  C   UNL A   1      42.932  27.714  32.577  1.00  0.00     0.049 A 
ATOM     42  H   UNL A   1      41.493  28.931  31.686  1.00  0.00     0.167 HD
ATOM     43  C   UNL A   1      38.041  30.851  30.021  1.00  0.00     0.037 A 
ATOM     44  C   UNL A   1      42.957  27.993  33.897  1.00  0.00     0.037 A 
ATOM     45  C   UNL A   1      38.033  31.275  31.395  1.00  0.00     0.049 A 
ATOM     46  C   UNL A   1      42.051  29.052  34.455  1.00  0.00     0.074 A 
ATOM     47  C   UNL A   1      37.134  32.116  32.032  1.00  0.00     0.029 A 
ATOM     48  N   UNL A   1      38.972  30.908  32.342  1.00  0.00    -0.354 N 
ATOM     49  N   UNL A   1      41.031  29.649  33.893  1.00  0.00    -0.248 NA
ATOM     50  C   UNL A   1      42.332  29.510  35.827  1.00  0.00     0.031 C 
ATOM     51  C   UNL A   1      37.565  32.307  33.349  1.00  0.00     0.029 A 
ATOM     52  C   UNL A   1      38.708  31.550  33.542  1.00  0.00     0.049 A 
ATOM     53  H   UNL A   1      39.716  30.284  32.187  1.00  0.00     0.167 HD
ATOM     54  C   UNL A   1      40.550  30.549  34.836  1.00  0.00     0.074 A 
ATOM     55  C   UNL A   1      41.369  30.400  36.020  1.00  0.00     0.031 C 
ATOM     56  C   UNL A   1      39.525  31.428  34.719  1.00  0.00     0.037 A 
BRANCH  43  57
ATOM     57  C   UNL A   1      36.904  31.301  29.155  1.00  0.00     0.057 A 
ATOM     58  C   UNL A   1      35.849  30.440  28.829  1.00  0.00     0.134 A 
ATOM     59  C   UNL A   1      36.840  32.619  28.689  1.00  0.00     0.134 A 
ATOM     60  F   UNL A   1      35.865  29.160  29.234  1.00  0.00    -0.206 F 
ATOM     61  C   UNL A   1      34.766  30.878  28.064  1.00  0.00     0.040 A 
ATOM     62  C   UNL A   1      35.759  33.070  27.933  1.00  0.00     0.040 A 
ATOM     63  F   UNL A   1      37.823  33.487  28.972  1.00  0.00    -0.206 F 
ATOM     64  C   UNL A   1      34.717  32.199  27.620  1.00  0.00     0.006 A 
ENDBRANCH  43  57
BRANCH  44  65
ATOM     65  C   UNL A   1      43.945  27.322  34.785  1.00  0.00     0.057 A 
ATOM     66  C   UNL A   1      45.247  27.813  34.937  1.00  0.00     0.134 A 
ATOM     67  C   UNL A   1      43.621  26.139  35.464  1.00  0.00     0.134 A 
ATOM     68  F   UNL A   1      45.636  28.916  34.282  1.00  0.00    -0.206 F 
ATOM     69  C   UNL A   1      46.189  27.152  35.731  1.00  0.00     0.040 A 
ATOM     70  C   UNL A   1      44.540  25.488  36.286  1.00  0.00     0.040 A 
ATOM     71  F   UNL A   1      42.398  25.602  35.341  1.00  0.00    -0.206 F 
ATOM     72  C   UNL A   1      45.831  25.992  36.416  1.00  0.00     0.006 A 
ENDBRANCH  44  65
BRANCH  56  73
ATOM     73  C   UNL A   1      39.236  32.318  35.891  1.00  0.00     0.057 A 
ATOM     74  C   UNL A   1      39.785  33.603  35.983  1.00  0.00     0.134 A 
ATOM     75  C   UNL A   1      38.375  31.910  36.917  1.00  0.00     0.134 A 
ATOM     76  F   UNL A   1      40.628  34.050  35.039  1.00  0.00    -0.206 F 
ATOM     77  C   UNL A   1      39.504  34.443  37.062  1.00  0.00     0.040 A 
ATOM     78  C   UNL A   1      38.068  32.750  37.990  1.00  0.00     0.040 A 
ATOM     79  F   UNL A   1      37.807  30.694  36.889  1.00  0.00    -0.206 F 
ATOM     80  C   UNL A   1      38.637  34.018  38.066  1.00  0.00     0.006 A 
ENDBRANCH  56  73
ENDBRANCH  30  31
ENDBRANCH  23  25
ENDBRANCH  22  23
ENDBRANCH  21  22
ENDBRANCH   1  21
TORSDOF 14
ENDMDL
MODEL 2
REMARK VINA RESULT:     -11.5      4.020      8.654
REMARK SMILES C[C@@H](C(=O)OCCOC(=O)c1ccc(-c2c3nc(c(-c4c(F)cccc4F)c4ccc([nH]4)c(-c4c(F)cccc4F)c4nc(c(-c5c(F)cccc5F)c5ccc2[nH]5)C=C4)C=C3)cc1)c1ccc(C[C@H]2CCCC2=O)c(Br)c1
REMARK SMILES IDX 6 1 5 2 3 3 4 4 2 5 1 6 65 7 66 8 78 9 67 10 76 11 68 12
REMARK SMILES IDX 77 13 69 14 70 15 71 16 74 17 72 18 73 19 75 20 7 21 8 22
REMARK SMILES IDX 9 23 10 24 11 25 12 26 64 27 13 28 63 29 14 30 15 31 16 32
REMARK SMILES IDX 57 33 17 34 62 35 56 36 58 37 18 38 61 39 55 40 54 41 19 43
REMARK SMILES IDX 45 44 28 45 44 46 29 47 32 48 43 49 59 50 30 51 31 52 42 54
REMARK SMILES IDX 60 55 33 56 20 57 21 58 26 59 22 60 23 61 25 62 27 63 24 64
REMARK SMILES IDX 46 65 47 66 52 67 48 68 49 69 51 70 53 71 50 72 34 73 35 74
REMARK SMILES IDX 40 75 36 76 37 77 39 78 41 79 38 80
REMARK H PARENT 58 42 32 53
REMARK Flexibility Score: inf
ROOT
ATOM      1  C   UNL A   1      31.357  32.106  26.654  1.00  0.00     0.274 C 
ENDROOT
BRANCH   1   2
ATOM      2  O   UNL A   1      31.987  30.950  27.240  1.00  0.00    -0.462 OA
BRANCH   2   3
ATOM      3  C   UNL A   1      32.526  30.029  26.391  1.00  0.00     0.313 C 
ATOM      4  O   UNL A   1      32.362  30.066  25.177  1.00  0.00    -0.252 OA
BRANCH   3   5
ATOM      5  C   UNL A   1      33.274  28.902  27.143  1.00  0.00     0.126 C 
ATOM      6  C   UNL A   1      34.789  29.181  27.167  1.00  0.00     0.025 C 
BRANCH   5   7
ATOM      7  C   UNL A   1      32.930  27.481  26.658  1.00  0.00    -0.033 A 
ATOM      8  C   UNL A   1      31.614  27.006  26.622  1.00  0.00     0.005 A 
ATOM      9  C   UNL A   1      33.913  26.613  26.150  1.00  0.00     0.020 A 
ATOM     10  C   UNL A   1      31.313  25.703  26.212  1.00  0.00     0.005 A 
ATOM     11  C   UNL A   1      33.620  25.280  25.793  1.00  0.00     0.021 A 
ATOM     12  C   UNL A   1      32.313  24.781  25.886  1.00  0.00    -0.033 A 
ATOM     13  Br  UNL A   1      35.088  24.233  25.180  1.00  0.00    -0.051 Br
BRANCH  12  14
ATOM     14  C   UNL A   1      31.919  23.339  25.616  1.00  0.00     0.048 C 
BRANCH  14  15
ATOM     15  C   UNL A   1      31.532  22.945  24.175  1.00  0.00     0.060 C 
ATOM     16  C   UNL A   1      31.288  24.104  23.216  1.00  0.00     0.012 C 
ATOM     17  C   UNL A   1      32.570  22.149  23.419  1.00  0.00     0.136 C 
ATOM     18  C   UNL A   1      32.558  24.272  22.395  1.00  0.00     0.009 C 
ATOM     19  C   UNL A   1      33.038  22.849  22.165  1.00  0.00     0.076 C 
ATOM     20  O   UNL A   1      32.987  21.054  23.776  1.00  0.00    -0.299 OA
ENDBRANCH  14  15
ENDBRANCH  12  14
ENDBRANCH   5   7
ENDBRANCH   3   5
ENDBRANCH   2   3
ENDBRANCH   1   2
BRANCH   1  21
ATOM     21  C   UNL A   1      32.202  33.354  26.892  1.00  0.00     0.275 C 
BRANCH  21  22
ATOM     22  O   UNL A   1      32.157  33.714  28.285  1.00  0.00    -0.458 OA
BRANCH  22  23
ATOM     23  C   UNL A   1      33.112  34.572  28.709  1.00  0.00     0.338 C 
ATOM     24  O   UNL A   1      33.002  35.761  28.947  1.00  0.00    -0.246 OA
BRANCH  23  25
ATOM     25  C   UNL A   1      34.362  33.826  28.915  1.00  0.00     0.060 A 
ATOM     26  C   UNL A   1      34.290  32.584  29.528  1.00  0.00     0.016 A 
ATOM     27  C   UNL A   1      35.605  34.392  28.622  1.00  0.00     0.016 A 
ATOM     28  C   UNL A   1      35.462  31.946  29.923  1.00  0.00     0.010 A 
ATOM     29  C   UNL A   1      36.786  33.709  28.969  1.00  0.00     0.010 A 
ATOM     30  C   UNL A   1      36.735  32.500  29.683  1.00  0.00    -0.014 A 
BRANCH  30  31
ATOM     31  C   UNL A   1      37.948  31.850  30.296  1.00  0.00     0.031 A 
ATOM     32  C   UNL A   1      38.319  32.105  31.748  1.00  0.00     0.074 A 
ATOM     33  C   UNL A   1      38.595  30.856  29.650  1.00  0.00     0.049 A 
ATOM     34  N   UNL A   1      39.216  31.494  32.490  1.00  0.00    -0.248 NA
ATOM     35  C   UNL A   1      37.546  33.120  32.482  1.00  0.00     0.031 C 
ATOM     36  C   UNL A   1      38.307  30.406  28.287  1.00  0.00     0.029 A 
ATOM     37  N   UNL A   1      39.584  29.994  30.075  1.00  0.00    -0.354 N 
ATOM     38  C   UNL A   1      39.077  32.013  33.773  1.00  0.00     0.074 A 
ATOM     39  C   UNL A   1      38.046  33.025  33.707  1.00  0.00     0.031 C 
ATOM     40  C   UNL A   1      39.026  29.305  28.023  1.00  0.00     0.029 A 
ATOM     41  C   UNL A   1      39.910  29.026  29.151  1.00  0.00     0.049 A 
ATOM     42  H   UNL A   1      40.016  30.063  30.956  1.00  0.00     0.167 HD
ATOM     43  C   UNL A   1      39.714  31.669  34.919  1.00  0.00     0.037 A 
ATOM     44  C   UNL A   1      40.835  28.044  29.178  1.00  0.00     0.037 A 
ATOM     45  C   UNL A   1      40.775  30.704  35.026  1.00  0.00     0.049 A 
ATOM     46  C   UNL A   1      41.726  27.888  30.377  1.00  0.00     0.074 A 
ATOM     47  C   UNL A   1      41.533  30.376  36.139  1.00  0.00     0.029 A 
ATOM     48  N   UNL A   1      41.241  29.922  33.985  1.00  0.00    -0.354 N 
ATOM     49  N   UNL A   1      41.624  28.436  31.561  1.00  0.00    -0.248 NA
ATOM     50  C   UNL A   1      42.893  27.002  30.225  1.00  0.00     0.031 C 
ATOM     51  C   UNL A   1      42.500  29.442  35.755  1.00  0.00     0.029 A 
ATOM     52  C   UNL A   1      42.314  29.156  34.413  1.00  0.00     0.049 A 
ATOM     53  H   UNL A   1      40.867  29.912  33.075  1.00  0.00     0.167 HD
ATOM     54  C   UNL A   1      42.708  27.966  32.292  1.00  0.00     0.074 A 
ATOM     55  C   UNL A   1      43.440  27.062  31.431  1.00  0.00     0.031 C 
ATOM     56  C   UNL A   1      43.064  28.270  33.563  1.00  0.00     0.037 A 
BRANCH  43  57
ATOM     57  C   UNL A   1      39.302  32.380  36.172  1.00  0.00     0.057 A 
ATOM     58  C   UNL A   1      39.852  33.619  36.524  1.00  0.00     0.134 A 
ATOM     59  C   UNL A   1      38.310  31.846  37.003  1.00  0.00     0.134 A 
ATOM     60  F   UNL A   1      40.819  34.171  35.775  1.00  0.00    -0.206 F 
ATOM     61  C   UNL A   1      39.428  34.302  37.665  1.00  0.00     0.040 A 
ATOM     62  C   UNL A   1      37.872  32.524  38.140  1.00  0.00     0.040 A 
ATOM     63  F   UNL A   1      37.748  30.663  36.714  1.00  0.00    -0.206 F 
ATOM     64  C   UNL A   1      38.431  33.757  38.472  1.00  0.00     0.006 A 
ENDBRANCH  43  57
BRANCH  44  65
ATOM     65  C   UNL A   1      41.040  27.176  27.986  1.00  0.00     0.057 A 
ATOM     66  C   UNL A   1      41.872  27.565  26.930  1.00  0.00     0.134 A 
ATOM     67  C   UNL A   1      40.364  25.956  27.855  1.00  0.00     0.134 A 
ATOM     68  F   UNL A   1      42.515  28.741  26.971  1.00  0.00    -0.206 F 
ATOM     69  C   UNL A   1      42.022  26.772  25.789  1.00  0.00     0.040 A 
ATOM     70  C   UNL A   1      40.531  25.139  26.738  1.00  0.00     0.040 A 
ATOM     71  F   UNL A   1      39.532  25.536  28.821  1.00  0.00    -0.206 F 
ATOM     72  C   UNL A   1      41.358  25.550  25.697  1.00  0.00     0.006 A 
ENDBRANCH  44  65
BRANCH  56  73
ATOM     73  C   UNL A   1      44.314  27.642  34.104  1.00  0.00     0.057 A 
ATOM     74  C   UNL A   1      45.546  28.305  34.046  1.00  0.00     0.134 A 
ATOM     75  C   UNL A   1      44.286  26.385  34.720  1.00  0.00     0.134 A 
ATOM     76  F   UNL A   1      45.644  29.507  33.456  1.00  0.00    -0.206 F 
ATOM     77  C   UNL A   1      46.710  27.733  34.565  1.00  0.00     0.040 A 
ATOM     78  C   UNL A   1      45.438  25.813  35.264  1.00  0.00     0.040 A 
ATOM     79  F   UNL A   1      43.138  25.698  34.819  1.00  0.00    -0.206 F 
ATOM     80  C   UNL A   1      46.655  26.485  35.182  1.00  0.00     0.006 A 
ENDBRANCH  56  73
ENDBRANCH  30  31
ENDBRANCH  23  25
ENDBRANCH  22  23
ENDBRANCH  21  22
ENDBRANCH   1  21
TORSDOF 14
ENDMDL
MODEL 3
REMARK VINA RESULT:     -11.3      5.379     10.503
REMARK SMILES C[C@@H](C(=O)OCCOC(=O)c1ccc(-c2c3nc(c(-c4c(F)cccc4F)c4ccc([nH]4)c(-c4c(F)cccc4F)c4nc(c(-c5c(F)cccc5F)c5ccc2[nH]5)C=C4)C=C3)cc1)c1ccc(C[C@H]2CCCC2=O)c(Br)c1
REMARK SMILES IDX 6 1 5 2 3 3 4 4 2 5 1 6 65 7 66 8 78 9 67 10 76 11 68 12
REMARK SMILES IDX 77 13 69 14 70 15 71 16 74 17 72 18 73 19 75 20 7 21 8 22
REMARK SMILES IDX 9 23 10 24 11 25 12 26 64 27 13 28 63 29 14 30 15 31 16 32
REMARK SMILES IDX 57 33 17 34 62 35 56 36 58 37 18 38 61 39 55 40 54 41 19 43
REMARK SMILES IDX 45 44 28 45 44 46 29 47 32 48 43 49 59 50 30 51 31 52 42 54
REMARK SMILES IDX 60 55 33 56 20 57 21 58 26 59 22 60 23 61 25 62 27 63 24 64
REMARK SMILES IDX 46 65 47 66 52 67 48 68 49 69 51 70 53 71 50 72 34 73 35 74
REMARK SMILES IDX 40 75 36 76 37 77 39 78 41 79 38 80
REMARK H PARENT 58 42 32 53
REMARK Flexibility Score: inf
ROOT
ATOM      1  C   UNL A   1      34.483  33.474  29.905  1.00  0.00     0.274 C 
ENDROOT
BRANCH   1   2
ATOM      2  O   UNL A   1      34.382  32.104  29.465  1.00  0.00    -0.462 OA
BRANCH   2   3
ATOM      3  C   UNL A   1      34.825  31.813  28.209  1.00  0.00     0.313 C 
ATOM      4  O   UNL A   1      34.865  32.643  27.308  1.00  0.00    -0.252 OA
BRANCH   3   5
ATOM      5  C   UNL A   1      35.174  30.315  28.041  1.00  0.00     0.126 C 
ATOM      6  C   UNL A   1      36.552  30.152  27.371  1.00  0.00     0.025 C 
BRANCH   5   7
ATOM      7  C   UNL A   1      34.071  29.481  27.362  1.00  0.00    -0.033 A 
ATOM      8  C   UNL A   1      32.745  29.922  27.289  1.00  0.00     0.005 A 
ATOM      9  C   UNL A   1      34.355  28.269  26.709  1.00  0.00     0.020 A 
ATOM     10  C   UNL A   1      31.743  29.144  26.699  1.00  0.00     0.005 A 
ATOM     11  C   UNL A   1      33.337  27.455  26.167  1.00  0.00     0.021 A 
ATOM     12  C   UNL A   1      31.994  27.854  26.218  1.00  0.00    -0.033 A 
ATOM     13  Br  UNL A   1      33.902  25.820  25.372  1.00  0.00    -0.051 Br
BRANCH  12  14
ATOM     14  C   UNL A   1      30.824  27.007  25.749  1.00  0.00     0.048 C 
BRANCH  14  15
ATOM     15  C   UNL A   1      30.330  27.183  24.298  1.00  0.00     0.060 C 
ATOM     16  C   UNL A   1      30.906  28.376  23.543  1.00  0.00     0.012 C 
ATOM     17  C   UNL A   1      30.664  26.049  23.357  1.00  0.00     0.136 C 
ATOM     18  C   UNL A   1      32.028  27.841  22.666  1.00  0.00     0.009 C 
ATOM     19  C   UNL A   1      31.514  26.492  22.191  1.00  0.00     0.076 C 
ATOM     20  O   UNL A   1      30.284  24.894  23.514  1.00  0.00    -0.299 OA
ENDBRANCH  14  15
ENDBRANCH  12  14
ENDBRANCH   5   7
ENDBRANCH   3   5
ENDBRANCH   2   3
ENDBRANCH   1   2
BRANCH   1  21
ATOM     21  C   UNL A   1      35.045  33.541  31.321  1.00  0.00     0.275 C 
BRANCH  21  22
ATOM     22  O   UNL A   1      35.143  32.215  31.870  1.00  0.00    -0.458 OA
BRANCH  22  23
ATOM     23  C   UNL A   1      36.091  32.029  32.815  1.00  0.00     0.338 C 
ATOM     24  O   UNL A   1      36.072  32.385  33.979  1.00  0.00    -0.246 OA
BRANCH  23  25
ATOM     25  C   UNL A   1      37.191  31.243  32.235  1.00  0.00     0.060 A 
ATOM     26  C   UNL A   1      38.444  31.341  32.819  1.00  0.00     0.016 A 
ATOM     27  C   UNL A   1      37.022  30.514  31.056  1.00  0.00     0.016 A 
ATOM     28  C   UNL A   1      39.544  30.778  32.179  1.00  0.00     0.010 A 
ATOM     29  C   UNL A   1      38.131  29.895  30.450  1.00  0.00     0.010 A 
ATOM     30  C   UNL A   1      39.425  30.068  30.968  1.00  0.00    -0.014 A 
BRANCH  30  31
ATOM     31  C   UNL A   1      40.672  29.646  30.237  1.00  0.00     0.031 A 
ATOM     32  C   UNL A   1      40.805  28.243  29.667  1.00  0.00     0.074 A 
ATOM     33  C   UNL A   1      41.596  30.561  29.870  1.00  0.00     0.049 A 
ATOM     34  N   UNL A   1      41.723  27.765  28.856  1.00  0.00    -0.248 NA
ATOM     35  C   UNL A   1      39.745  27.274  29.985  1.00  0.00     0.031 C 
ATOM     36  C   UNL A   1      41.576  31.977  30.240  1.00  0.00     0.029 A 
ATOM     37  N   UNL A   1      42.696  30.456  29.045  1.00  0.00    -0.354 N 
ATOM     38  C   UNL A   1      41.324  26.472  28.535  1.00  0.00     0.074 A 
ATOM     39  C   UNL A   1      40.108  26.215  29.274  1.00  0.00     0.031 C 
ATOM     40  C   UNL A   1      42.549  32.621  29.578  1.00  0.00     0.029 A 
ATOM     41  C   UNL A   1      43.336  31.653  28.818  1.00  0.00     0.049 A 
ATOM     42  H   UNL A   1      42.996  29.603  28.654  1.00  0.00     0.167 HD
ATOM     43  C   UNL A   1      41.883  25.580  27.682  1.00  0.00     0.037 A 
ATOM     44  C   UNL A   1      44.447  31.951  28.114  1.00  0.00     0.037 A 
ATOM     45  C   UNL A   1      43.113  25.773  26.963  1.00  0.00     0.049 A 
ATOM     46  C   UNL A   1      45.204  30.860  27.414  1.00  0.00     0.074 A 
ATOM     47  C   UNL A   1      43.790  24.872  26.156  1.00  0.00     0.029 A 
ATOM     48  N   UNL A   1      43.860  26.937  26.971  1.00  0.00    -0.354 N 
ATOM     49  N   UNL A   1      44.845  29.624  27.178  1.00  0.00    -0.248 NA
ATOM     50  C   UNL A   1      46.549  31.197  26.918  1.00  0.00     0.031 C 
ATOM     51  C   UNL A   1      44.980  25.470  25.728  1.00  0.00     0.029 A 
ATOM     52  C   UNL A   1      45.020  26.758  26.232  1.00  0.00     0.049 A 
ATOM     53  H   UNL A   1      43.607  27.767  27.433  1.00  0.00     0.167 HD
ATOM     54  C   UNL A   1      45.914  29.038  26.510  1.00  0.00     0.074 A 
ATOM     55  C   UNL A   1      46.924  30.060  26.349  1.00  0.00     0.031 C 
ATOM     56  C   UNL A   1      46.043  27.759  26.082  1.00  0.00     0.037 A 
BRANCH  43  57
ATOM     57  C   UNL A   1      41.180  24.269  27.503  1.00  0.00     0.057 A 
ATOM     58  C   UNL A   1      40.077  24.143  26.648  1.00  0.00     0.134 A 
ATOM     59  C   UNL A   1      41.640  23.117  28.149  1.00  0.00     0.134 A 
ATOM     60  F   UNL A   1      39.580  25.218  26.015  1.00  0.00    -0.206 F 
ATOM     61  C   UNL A   1      39.456  22.910  26.444  1.00  0.00     0.040 A 
ATOM     62  C   UNL A   1      41.034  21.878  27.946  1.00  0.00     0.040 A 
ATOM     63  F   UNL A   1      42.693  23.179  28.978  1.00  0.00    -0.206 F 
ATOM     64  C   UNL A   1      39.939  21.772  27.090  1.00  0.00     0.006 A 
ENDBRANCH  43  57
BRANCH  44  65
ATOM     65  C   UNL A   1      44.979  33.342  28.105  1.00  0.00     0.057 A 
ATOM     66  C   UNL A   1      44.616  34.260  27.113  1.00  0.00     0.134 A 
ATOM     67  C   UNL A   1      45.906  33.767  29.067  1.00  0.00     0.134 A 
ATOM     68  F   UNL A   1      43.767  33.904  26.138  1.00  0.00    -0.206 F 
ATOM     69  C   UNL A   1      45.157  35.549  27.078  1.00  0.00     0.040 A 
ATOM     70  C   UNL A   1      46.427  35.061  29.063  1.00  0.00     0.040 A 
ATOM     71  F   UNL A   1      46.314  32.929  30.031  1.00  0.00    -0.206 F 
ATOM     72  C   UNL A   1      46.057  35.954  28.062  1.00  0.00     0.006 A 
ENDBRANCH  44  65
BRANCH  56  73
ATOM     73  C   UNL A   1      47.329  27.376  25.413  1.00  0.00     0.057 A 
ATOM     74  C   UNL A   1      47.538  27.610  24.047  1.00  0.00     0.134 A 
ATOM     75  C   UNL A   1      48.383  26.807  26.138  1.00  0.00     0.134 A 
ATOM     76  F   UNL A   1      46.564  28.141  23.292  1.00  0.00    -0.206 F 
ATOM     77  C   UNL A   1      48.741  27.273  23.423  1.00  0.00     0.040 A 
ATOM     78  C   UNL A   1      49.599  26.487  25.530  1.00  0.00     0.040 A 
ATOM     79  F   UNL A   1      48.254  26.564  27.451  1.00  0.00    -0.206 F 
ATOM     80  C   UNL A   1      49.778  26.716  24.168  1.00  0.00     0.006 A 
ENDBRANCH  56  73
ENDBRANCH  30  31
ENDBRANCH  23  25
ENDBRANCH  22  23
ENDBRANCH  21  22
ENDBRANCH   1  21
TORSDOF 14
ENDMDL
