MODEL 1
REMARK VINA RESULT:     -12.7      0.000      0.000
REMARK SMILES Cc1cccc(N2CCN(C(=O)[C@@H]3CC=CC[C@@H]3C(=O)OCCOC(=O)c3ccc(-c4c5nc(c(-c6c(F)cccc6F)c6ccc([nH]6)c(-c6c(F)cccc6F)c6nc(c(-c7c(F)cccc7F)c7ccc4[nH]7)C=C6)C=C5)cc3)CC2)c1C
REMARK SMILES IDX 22 1 21 2 19 3 20 4 18 5 13 6 14 7 15 8 17 9 16 10 11 11
REMARK SMILES IDX 7 12 8 13 82 14 9 15 81 16 10 17 12 18 6 19 1 20 2 21 3 22
REMARK SMILES IDX 83 23 4 24 84 25 5 26 23 27 24 28 25 29 26 30 27 31 28 32
REMARK SMILES IDX 80 33 29 34 79 35 30 36 31 37 32 38 73 39 33 40 78 41 72 42
REMARK SMILES IDX 74 43 34 44 77 45 71 46 70 47 35 49 61 50 44 51 60 52 45 53
REMARK SMILES IDX 48 54 59 55 75 56 46 57 47 58 58 60 76 61 49 62 36 63 37 64
REMARK SMILES IDX 42 65 38 66 39 67 41 68 43 69 40 70 62 71 63 72 68 73 64 74
REMARK SMILES IDX 65 75 67 76 69 77 66 78 50 79 51 80 56 81 52 82 53 83 55 84
REMARK SMILES IDX 57 85 54 86
REMARK H PARENT 74 48 48 59
REMARK Flexibility Score: inf
ROOT
ATOM      1  C   UNL A   1      31.914  28.040  26.415  1.00  0.00     0.274 C 
ENDROOT
BRANCH   1   2
ATOM      2  O   UNL A   1      32.106  26.859  25.596  1.00  0.00    -0.462 OA
BRANCH   2   3
ATOM      3  C   UNL A   1      31.148  25.908  25.743  1.00  0.00     0.310 C 
ATOM      4  O   UNL A   1      30.850  25.412  26.825  1.00  0.00    -0.252 OA
BRANCH   3   5
ATOM      5  C   UNL A   1      30.426  25.538  24.455  1.00  0.00     0.115 C 
ATOM      6  C   UNL A   1      31.257  24.792  23.391  1.00  0.00     0.097 C 
ATOM      7  C   UNL A   1      32.045  25.700  22.448  1.00  0.00     0.041 C 
ATOM      8  C   UNL A   1      31.358  26.990  22.115  1.00  0.00    -0.030 C 
ATOM      9  C   UNL A   1      29.613  26.704  23.877  1.00  0.00     0.043 C 
ATOM     10  C   UNL A   1      30.281  27.449  22.763  1.00  0.00    -0.030 C 
BRANCH   6  11
ATOM     11  C   UNL A   1      31.913  23.561  24.038  1.00  0.00     0.227 C 
ATOM     12  N   UNL A   1      35.919  23.040  25.312  1.00  0.00    -0.368 N 
ATOM     13  C   UNL A   1      34.839  22.196  25.832  1.00  0.00     0.138 C 
ATOM     14  C   UNL A   1      35.729  23.492  23.933  1.00  0.00     0.138 C 
ATOM     15  C   UNL A   1      33.515  22.959  25.767  1.00  0.00     0.141 C 
ATOM     16  C   UNL A   1      34.364  24.189  23.760  1.00  0.00     0.141 C 
ATOM     17  N   UNL A   1      33.230  23.553  24.447  1.00  0.00    -0.339 N 
ATOM     18  O   UNL A   1      31.159  22.641  24.384  1.00  0.00    -0.275 OA
BRANCH  12  19
ATOM     19  C   UNL A   1      37.232  22.843  25.728  1.00  0.00     0.040 A 
ATOM     20  C   UNL A   1      40.040  20.238  26.061  1.00  0.00     0.044 C 
ATOM     21  C   UNL A   1      39.257  21.523  26.126  1.00  0.00    -0.046 A 
ATOM     22  C   UNL A   1      39.849  22.630  26.754  1.00  0.00     0.004 A 
ATOM     23  C   UNL A   1      37.960  21.640  25.563  1.00  0.00    -0.025 A 
ATOM     24  C   UNL A   1      39.163  23.834  26.854  1.00  0.00     0.002 A 
ATOM     25  C   UNL A   1      37.376  20.479  24.799  1.00  0.00     0.047 C 
ATOM     26  C   UNL A   1      37.868  23.931  26.354  1.00  0.00     0.026 A 
ENDBRANCH  12  19
ENDBRANCH   6  11
ENDBRANCH   3   5
ENDBRANCH   2   3
ENDBRANCH   1   2
BRANCH   1  27
ATOM     27  C   UNL A   1      32.110  29.316  25.589  1.00  0.00     0.275 C 
BRANCH  27  28
ATOM     28  O   UNL A   1      33.391  29.867  25.916  1.00  0.00    -0.458 OA
BRANCH  28  29
ATOM     29  C   UNL A   1      33.359  30.830  26.863  1.00  0.00     0.338 C 
ATOM     30  O   UNL A   1      32.410  31.481  27.251  1.00  0.00    -0.246 OA
BRANCH  29  31
ATOM     31  C   UNL A   1      34.654  30.744  27.543  1.00  0.00     0.060 A 
ATOM     32  C   UNL A   1      35.081  29.480  27.955  1.00  0.00     0.016 A 
ATOM     33  C   UNL A   1      35.440  31.871  27.741  1.00  0.00     0.016 A 
ATOM     34  C   UNL A   1      36.282  29.328  28.632  1.00  0.00     0.010 A 
ATOM     35  C   UNL A   1      36.670  31.713  28.377  1.00  0.00     0.010 A 
ATOM     36  C   UNL A   1      37.086  30.447  28.845  1.00  0.00    -0.014 A 
BRANCH  36  37
ATOM     37  C   UNL A   1      38.328  30.356  29.639  1.00  0.00     0.031 A 
ATOM     38  C   UNL A   1      39.460  29.556  29.075  1.00  0.00     0.074 A 
ATOM     39  C   UNL A   1      38.418  30.914  30.859  1.00  0.00     0.049 A 
ATOM     40  N   UNL A   1      40.468  28.998  29.685  1.00  0.00    -0.248 NA
ATOM     41  C   UNL A   1      39.424  29.328  27.620  1.00  0.00     0.031 C 
ATOM     42  C   UNL A   1      37.426  31.800  31.468  1.00  0.00     0.029 A 
ATOM     43  N   UNL A   1      39.387  30.782  31.818  1.00  0.00    -0.354 N 
ATOM     44  C   UNL A   1      41.135  28.275  28.708  1.00  0.00     0.074 A 
ATOM     45  C   UNL A   1      40.434  28.486  27.460  1.00  0.00     0.031 C 
ATOM     46  C   UNL A   1      37.833  32.123  32.707  1.00  0.00     0.029 A 
ATOM     47  C   UNL A   1      39.060  31.392  33.005  1.00  0.00     0.049 A 
ATOM     48  H   UNL A   1      40.232  30.299  31.673  1.00  0.00     0.167 HD
ATOM     49  C   UNL A   1      42.223  27.485  28.859  1.00  0.00     0.037 A 
ATOM     50  C   UNL A   1      39.651  31.310  34.211  1.00  0.00     0.037 A 
ATOM     51  C   UNL A   1      42.927  27.344  30.105  1.00  0.00     0.049 A 
ATOM     52  C   UNL A   1      40.841  30.405  34.370  1.00  0.00     0.074 A 
ATOM     53  C   UNL A   1      44.052  26.592  30.385  1.00  0.00     0.029 A 
ATOM     54  N   UNL A   1      42.572  27.992  31.280  1.00  0.00    -0.354 N 
ATOM     55  N   UNL A   1      41.433  29.654  33.472  1.00  0.00    -0.248 NA
ATOM     56  C   UNL A   1      41.430  30.313  35.712  1.00  0.00     0.031 C 
ATOM     57  C   UNL A   1      44.361  26.764  31.739  1.00  0.00     0.029 A 
ATOM     58  C   UNL A   1      43.452  27.654  32.291  1.00  0.00     0.049 A 
ATOM     59  H   UNL A   1      41.805  28.603  31.380  1.00  0.00     0.167 HD
ATOM     60  C   UNL A   1      42.481  29.026  34.129  1.00  0.00     0.074 A 
ATOM     61  C   UNL A   1      42.442  29.480  35.505  1.00  0.00     0.031 C 
ATOM     62  C   UNL A   1      43.397  28.153  33.642  1.00  0.00     0.037 A 
BRANCH  49  63
ATOM     63  C   UNL A   1      42.666  26.682  27.674  1.00  0.00     0.057 A 
ATOM     64  C   UNL A   1      42.401  25.312  27.552  1.00  0.00     0.134 A 
ATOM     65  C   UNL A   1      43.382  27.295  26.638  1.00  0.00     0.134 A 
ATOM     66  F   UNL A   1      41.741  24.659  28.519  1.00  0.00    -0.206 F 
ATOM     67  C   UNL A   1      42.858  24.577  26.455  1.00  0.00     0.040 A 
ATOM     68  C   UNL A   1      43.820  26.577  25.524  1.00  0.00     0.040 A 
ATOM     69  F   UNL A   1      43.673  28.604  26.691  1.00  0.00    -0.206 F 
ATOM     70  C   UNL A   1      43.564  25.210  25.435  1.00  0.00     0.006 A 
ENDBRANCH  49  63
BRANCH  50  71
ATOM     71  C   UNL A   1      39.102  32.073  35.359  1.00  0.00     0.057 A 
ATOM     72  C   UNL A   1      38.282  31.449  36.305  1.00  0.00     0.134 A 
ATOM     73  C   UNL A   1      39.398  33.427  35.556  1.00  0.00     0.134 A 
ATOM     74  F   UNL A   1      37.945  30.159  36.159  1.00  0.00    -0.206 F 
ATOM     75  C   UNL A   1      37.776  32.142  37.406  1.00  0.00     0.040 A 
ATOM     76  C   UNL A   1      38.918  34.128  36.664  1.00  0.00     0.040 A 
ATOM     77  F   UNL A   1      40.180  34.084  34.687  1.00  0.00    -0.206 F 
ATOM     78  C   UNL A   1      38.102  33.485  37.593  1.00  0.00     0.006 A 
ENDBRANCH  50  71
BRANCH  62  79
ATOM     79  C   UNL A   1      44.469  27.693  34.580  1.00  0.00     0.057 A 
ATOM     80  C   UNL A   1      45.653  28.415  34.763  1.00  0.00     0.134 A 
ATOM     81  C   UNL A   1      44.273  26.549  35.364  1.00  0.00     0.134 A 
ATOM     82  F   UNL A   1      45.901  29.512  34.033  1.00  0.00    -0.206 F 
ATOM     83  C   UNL A   1      46.611  28.009  35.693  1.00  0.00     0.040 A 
ATOM     84  C   UNL A   1      45.214  26.145  36.310  1.00  0.00     0.040 A 
ATOM     85  F   UNL A   1      43.152  25.821  35.237  1.00  0.00    -0.206 F 
ATOM     86  C   UNL A   1      46.387  26.877  36.475  1.00  0.00     0.006 A 
ENDBRANCH  62  79
ENDBRANCH  36  37
ENDBRANCH  29  31
ENDBRANCH  28  29
ENDBRANCH  27  28
ENDBRANCH   1  27
TORSDOF 13
ENDMDL
MODEL 2
REMARK VINA RESULT:     -12.5      3.996      7.433
REMARK SMILES Cc1cccc(N2CCN(C(=O)[C@@H]3CC=CC[C@@H]3C(=O)OCCOC(=O)c3ccc(-c4c5nc(c(-c6c(F)cccc6F)c6ccc([nH]6)c(-c6c(F)cccc6F)c6nc(c(-c7c(F)cccc7F)c7ccc4[nH]7)C=C6)C=C5)cc3)CC2)c1C
REMARK SMILES IDX 22 1 21 2 19 3 20 4 18 5 13 6 14 7 15 8 17 9 16 10 11 11
REMARK SMILES IDX 7 12 8 13 82 14 9 15 81 16 10 17 12 18 6 19 1 20 2 21 3 22
REMARK SMILES IDX 83 23 4 24 84 25 5 26 23 27 24 28 25 29 26 30 27 31 28 32
REMARK SMILES IDX 80 33 29 34 79 35 30 36 31 37 32 38 73 39 33 40 78 41 72 42
REMARK SMILES IDX 74 43 34 44 77 45 71 46 70 47 35 49 61 50 44 51 60 52 45 53
REMARK SMILES IDX 48 54 59 55 75 56 46 57 47 58 58 60 76 61 49 62 36 63 37 64
REMARK SMILES IDX 42 65 38 66 39 67 41 68 43 69 40 70 62 71 63 72 68 73 64 74
REMARK SMILES IDX 65 75 67 76 69 77 66 78 50 79 51 80 56 81 52 82 53 83 55 84
REMARK SMILES IDX 57 85 54 86
REMARK H PARENT 74 48 48 59
REMARK Flexibility Score: inf
ROOT
ATOM      1  C   UNL A   1      32.483  28.864  27.577  1.00  0.00     0.274 C 
ENDROOT
BRANCH   1   2
ATOM      2  O   UNL A   1      32.884  27.743  26.749  1.00  0.00    -0.462 OA
BRANCH   2   3
ATOM      3  C   UNL A   1      32.575  27.874  25.433  1.00  0.00     0.310 C 
ATOM      4  O   UNL A   1      33.412  27.836  24.537  1.00  0.00    -0.252 OA
BRANCH   3   5
ATOM      5  C   UNL A   1      31.087  28.019  25.147  1.00  0.00     0.115 C 
ATOM      6  C   UNL A   1      30.381  26.791  24.535  1.00  0.00     0.097 C 
ATOM      7  C   UNL A   1      30.457  26.707  23.012  1.00  0.00     0.041 C 
ATOM      8  C   UNL A   1      30.420  28.035  22.317  1.00  0.00    -0.030 C 
ATOM      9  C   UNL A   1      30.749  29.331  24.425  1.00  0.00     0.043 C 
ATOM     10  C   UNL A   1      30.568  29.208  22.944  1.00  0.00    -0.030 C 
BRANCH   6  11
ATOM     11  C   UNL A   1      30.664  25.561  25.412  1.00  0.00     0.227 C 
ATOM     12  N   UNL A   1      33.970  22.915  25.299  1.00  0.00    -0.368 N 
ATOM     13  C   UNL A   1      33.128  23.031  26.494  1.00  0.00     0.138 C 
ATOM     14  C   UNL A   1      33.265  23.130  24.034  1.00  0.00     0.138 C 
ATOM     15  C   UNL A   1      32.493  24.422  26.541  1.00  0.00     0.141 C 
ATOM     16  C   UNL A   1      32.513  24.476  24.039  1.00  0.00     0.141 C 
ATOM     17  N   UNL A   1      31.817  24.814  25.291  1.00  0.00    -0.339 N 
ATOM     18  O   UNL A   1      29.922  25.385  26.388  1.00  0.00    -0.275 OA
BRANCH  12  19
ATOM     19  C   UNL A   1      35.041  22.027  25.274  1.00  0.00     0.040 A 
ATOM     20  C   UNL A   1      38.848  21.721  25.715  1.00  0.00     0.044 C 
ATOM     21  C   UNL A   1      37.401  21.395  25.451  1.00  0.00    -0.046 A 
ATOM     22  C   UNL A   1      37.078  20.094  25.038  1.00  0.00     0.004 A 
ATOM     23  C   UNL A   1      36.373  22.359  25.620  1.00  0.00    -0.025 A 
ATOM     24  C   UNL A   1      35.761  19.747  24.765  1.00  0.00     0.002 A 
ATOM     25  C   UNL A   1      36.716  23.722  26.165  1.00  0.00     0.047 C 
ATOM     26  C   UNL A   1      34.760  20.708  24.874  1.00  0.00     0.026 A 
ENDBRANCH  12  19
ENDBRANCH   6  11
ENDBRANCH   3   5
ENDBRANCH   2   3
ENDBRANCH   1   2
BRANCH   1  27
ATOM     27  C   UNL A   1      33.389  30.075  27.331  1.00  0.00     0.275 C 
BRANCH  27  28
ATOM     28  O   UNL A   1      34.748  29.662  27.521  1.00  0.00    -0.458 OA
BRANCH  28  29
ATOM     29  C   UNL A   1      35.475  30.483  28.311  1.00  0.00     0.338 C 
ATOM     30  O   UNL A   1      35.089  31.387  29.024  1.00  0.00    -0.246 OA
BRANCH  29  31
ATOM     31  C   UNL A   1      36.810  29.882  28.363  1.00  0.00     0.060 A 
ATOM     32  C   UNL A   1      37.178  29.231  29.543  1.00  0.00     0.016 A 
ATOM     33  C   UNL A   1      37.665  29.932  27.272  1.00  0.00     0.016 A 
ATOM     34  C   UNL A   1      38.438  28.668  29.675  1.00  0.00     0.010 A 
ATOM     35  C   UNL A   1      38.913  29.322  27.384  1.00  0.00     0.010 A 
ATOM     36  C   UNL A   1      39.314  28.709  28.591  1.00  0.00    -0.014 A 
BRANCH  36  37
ATOM     37  C   UNL A   1      40.698  28.206  28.707  1.00  0.00     0.031 A 
ATOM     38  C   UNL A   1      41.774  29.194  29.033  1.00  0.00     0.074 A 
ATOM     39  C   UNL A   1      40.994  26.918  28.461  1.00  0.00     0.049 A 
ATOM     40  N   UNL A   1      43.059  29.124  28.818  1.00  0.00    -0.248 NA
ATOM     41  C   UNL A   1      41.327  30.451  29.657  1.00  0.00     0.031 C 
ATOM     42  C   UNL A   1      40.025  25.846  28.239  1.00  0.00     0.029 A 
ATOM     43  N   UNL A   1      42.213  26.306  28.325  1.00  0.00    -0.354 N 
ATOM     44  C   UNL A   1      43.562  30.361  29.193  1.00  0.00     0.074 A 
ATOM     45  C   UNL A   1      42.450  31.152  29.673  1.00  0.00     0.031 C 
ATOM     46  C   UNL A   1      40.687  24.706  27.979  1.00  0.00     0.029 A 
ATOM     47  C   UNL A   1      42.116  24.994  27.927  1.00  0.00     0.049 A 
ATOM     48  H   UNL A   1      43.070  26.759  28.494  1.00  0.00     0.167 HD
ATOM     49  C   UNL A   1      44.841  30.793  29.112  1.00  0.00     0.037 A 
ATOM     50  C   UNL A   1      43.072  24.147  27.503  1.00  0.00     0.037 A 
ATOM     51  C   UNL A   1      45.929  29.958  28.681  1.00  0.00     0.049 A 
ATOM     52  C   UNL A   1      44.484  24.652  27.390  1.00  0.00     0.074 A 
ATOM     53  C   UNL A   1      47.272  30.270  28.574  1.00  0.00     0.029 A 
ATOM     54  N   UNL A   1      45.792  28.630  28.301  1.00  0.00    -0.354 N 
ATOM     55  N   UNL A   1      44.959  25.844  27.665  1.00  0.00    -0.248 NA
ATOM     56  C   UNL A   1      45.487  23.707  26.883  1.00  0.00     0.031 C 
ATOM     57  C   UNL A   1      47.942  29.136  28.101  1.00  0.00     0.029 A 
ATOM     58  C   UNL A   1      47.024  28.107  27.953  1.00  0.00     0.049 A 
ATOM     59  H   UNL A   1      44.942  28.132  28.282  1.00  0.00     0.167 HD
ATOM     60  C   UNL A   1      46.319  25.785  27.396  1.00  0.00     0.074 A 
ATOM     61  C   UNL A   1      46.594  24.439  26.931  1.00  0.00     0.031 C 
ATOM     62  C   UNL A   1      47.260  26.752  27.524  1.00  0.00     0.037 A 
BRANCH  49  63
ATOM     63  C   UNL A   1      45.107  32.233  29.435  1.00  0.00     0.057 A 
ATOM     64  C   UNL A   1      44.953  33.256  28.492  1.00  0.00     0.134 A 
ATOM     65  C   UNL A   1      45.537  32.596  30.718  1.00  0.00     0.134 A 
ATOM     66  F   UNL A   1      44.568  32.974  27.239  1.00  0.00    -0.206 F 
ATOM     67  C   UNL A   1      45.244  34.586  28.807  1.00  0.00     0.040 A 
ATOM     68  C   UNL A   1      45.805  33.924  31.052  1.00  0.00     0.040 A 
ATOM     69  F   UNL A   1      45.708  31.665  31.669  1.00  0.00    -0.206 F 
ATOM     70  C   UNL A   1      45.666  34.923  30.091  1.00  0.00     0.006 A 
ENDBRANCH  49  63
BRANCH  50  71
ATOM     71  C   UNL A   1      42.715  22.759  27.120  1.00  0.00     0.057 A 
ATOM     72  C   UNL A   1      42.739  22.359  25.779  1.00  0.00     0.134 A 
ATOM     73  C   UNL A   1      42.369  21.795  28.075  1.00  0.00     0.134 A 
ATOM     74  F   UNL A   1      43.042  23.242  24.817  1.00  0.00    -0.206 F 
ATOM     75  C   UNL A   1      42.432  21.051  25.401  1.00  0.00     0.040 A 
ATOM     76  C   UNL A   1      42.082  20.477  27.713  1.00  0.00     0.040 A 
ATOM     77  F   UNL A   1      42.330  22.113  29.377  1.00  0.00    -0.206 F 
ATOM     78  C   UNL A   1      42.110  20.102  26.371  1.00  0.00     0.006 A 
ENDBRANCH  50  71
BRANCH  62  79
ATOM     79  C   UNL A   1      48.677  26.371  27.227  1.00  0.00     0.057 A 
ATOM     80  C   UNL A   1      49.502  25.780  28.190  1.00  0.00     0.134 A 
ATOM     81  C   UNL A   1      49.192  26.533  25.935  1.00  0.00     0.134 A 
ATOM     82  F   UNL A   1      49.067  25.609  29.447  1.00  0.00    -0.206 F 
ATOM     83  C   UNL A   1      50.797  25.367  27.877  1.00  0.00     0.040 A 
ATOM     84  C   UNL A   1      50.477  26.106  25.606  1.00  0.00     0.040 A 
ATOM     85  F   UNL A   1      48.443  27.087  24.968  1.00  0.00    -0.206 F 
ATOM     86  C   UNL A   1      51.284  25.521  26.580  1.00  0.00     0.006 A 
ENDBRANCH  62  79
ENDBRANCH  36  37
ENDBRANCH  29  31
ENDBRANCH  28  29
ENDBRANCH  27  28
ENDBRANCH   1  27
TORSDOF 13
ENDMDL
MODEL 3
REMARK VINA RESULT:     -12.4      2.483      7.314
REMARK SMILES Cc1cccc(N2CCN(C(=O)[C@@H]3CC=CC[C@@H]3C(=O)OCCOC(=O)c3ccc(-c4c5nc(c(-c6c(F)cccc6F)c6ccc([nH]6)c(-c6c(F)cccc6F)c6nc(c(-c7c(F)cccc7F)c7ccc4[nH]7)C=C6)C=C5)cc3)CC2)c1C
REMARK SMILES IDX 22 1 21 2 19 3 20 4 18 5 13 6 14 7 15 8 17 9 16 10 11 11
REMARK SMILES IDX 7 12 8 13 82 14 9 15 81 16 10 17 12 18 6 19 1 20 2 21 3 22
REMARK SMILES IDX 83 23 4 24 84 25 5 26 23 27 24 28 25 29 26 30 27 31 28 32
REMARK SMILES IDX 80 33 29 34 79 35 30 36 31 37 32 38 73 39 33 40 78 41 72 42
REMARK SMILES IDX 74 43 34 44 77 45 71 46 70 47 35 49 61 50 44 51 60 52 45 53
REMARK SMILES IDX 48 54 59 55 75 56 46 57 47 58 58 60 76 61 49 62 36 63 37 64
REMARK SMILES IDX 42 65 38 66 39 67 41 68 43 69 40 70 62 71 63 72 68 73 64 74
REMARK SMILES IDX 65 75 67 76 69 77 66 78 50 79 51 80 56 81 52 82 53 83 55 84
REMARK SMILES IDX 57 85 54 86
REMARK H PARENT 74 48 48 59
REMARK Flexibility Score: inf
ROOT
ATOM      1  C   UNL A   1      37.416  22.514  24.638  1.00  0.00     0.274 C 
ENDROOT
BRANCH   1   2
ATOM      2  O   UNL A   1      36.262  23.383  24.755  1.00  0.00    -0.462 OA
BRANCH   2   3
ATOM      3  C   UNL A   1      35.148  22.779  25.243  1.00  0.00     0.310 C 
ATOM      4  O   UNL A   1      34.640  23.069  26.321  1.00  0.00    -0.252 OA
BRANCH   3   5
ATOM      5  C   UNL A   1      34.538  21.738  24.314  1.00  0.00     0.115 C 
ATOM      6  C   UNL A   1      33.167  22.085  23.697  1.00  0.00     0.097 C 
ATOM      7  C   UNL A   1      31.966  21.716  24.566  1.00  0.00     0.041 C 
ATOM      8  C   UNL A   1      32.147  20.463  25.369  1.00  0.00    -0.030 C 
ATOM      9  C   UNL A   1      34.594  20.320  24.896  1.00  0.00     0.043 C 
ATOM     10  C   UNL A   1      33.324  19.847  25.533  1.00  0.00    -0.030 C 
BRANCH   6  11
ATOM     11  C   UNL A   1      33.258  23.460  23.013  1.00  0.00     0.227 C 
ATOM     12  N   UNL A   1      32.653  27.306  24.681  1.00  0.00    -0.368 N 
ATOM     13  C   UNL A   1      33.415  27.125  23.441  1.00  0.00     0.138 C 
ATOM     14  C   UNL A   1      31.578  26.333  24.884  1.00  0.00     0.138 C 
ATOM     15  C   UNL A   1      34.037  25.728  23.421  1.00  0.00     0.141 C 
ATOM     16  C   UNL A   1      32.110  24.890  24.779  1.00  0.00     0.141 C 
ATOM     17  N   UNL A   1      33.079  24.642  23.701  1.00  0.00    -0.339 N 
ATOM     18  O   UNL A   1      33.716  23.485  21.863  1.00  0.00    -0.275 OA
BRANCH  12  19
ATOM     19  C   UNL A   1      32.449  28.579  25.205  1.00  0.00     0.040 A 
ATOM     20  C   UNL A   1      33.764  31.158  27.735  1.00  0.00     0.044 C 
ATOM     21  C   UNL A   1      32.937  30.475  26.677  1.00  0.00    -0.046 A 
ATOM     22  C   UNL A   1      31.777  31.121  26.222  1.00  0.00     0.004 A 
ATOM     23  C   UNL A   1      33.307  29.218  26.132  1.00  0.00    -0.025 A 
ATOM     24  C   UNL A   1      30.971  30.526  25.260  1.00  0.00     0.002 A 
ATOM     25  C   UNL A   1      34.609  28.583  26.550  1.00  0.00     0.047 C 
ATOM     26  C   UNL A   1      31.302  29.267  24.768  1.00  0.00     0.026 A 
ENDBRANCH  12  19
ENDBRANCH   6  11
ENDBRANCH   3   5
ENDBRANCH   2   3
ENDBRANCH   1   2
BRANCH   1  27
ATOM     27  C   UNL A   1      38.205  22.474  25.951  1.00  0.00     0.275 C 
BRANCH  27  28
ATOM     28  O   UNL A   1      38.526  23.821  26.321  1.00  0.00    -0.458 OA
BRANCH  28  29
ATOM     29  C   UNL A   1      39.810  24.005  26.699  1.00  0.00     0.338 C 
ATOM     30  O   UNL A   1      40.809  23.456  26.281  1.00  0.00    -0.246 OA
BRANCH  29  31
ATOM     31  C   UNL A   1      39.797  25.214  27.527  1.00  0.00     0.060 A 
ATOM     32  C   UNL A   1      40.478  26.332  27.041  1.00  0.00     0.016 A 
ATOM     33  C   UNL A   1      39.109  25.256  28.731  1.00  0.00     0.016 A 
ATOM     34  C   UNL A   1      40.536  27.501  27.785  1.00  0.00     0.010 A 
ATOM     35  C   UNL A   1      39.123  26.445  29.457  1.00  0.00     0.010 A 
ATOM     36  C   UNL A   1      39.854  27.564  29.000  1.00  0.00    -0.014 A 
BRANCH  36  37
ATOM     37  C   UNL A   1      39.956  28.751  29.874  1.00  0.00     0.031 A 
ATOM     38  C   UNL A   1      40.995  28.735  30.951  1.00  0.00     0.074 A 
ATOM     39  C   UNL A   1      39.102  29.781  29.753  1.00  0.00     0.049 A 
ATOM     40  N   UNL A   1      41.052  29.421  32.059  1.00  0.00    -0.248 NA
ATOM     41  C   UNL A   1      42.104  27.784  30.764  1.00  0.00     0.031 C 
ATOM     42  C   UNL A   1      38.122  29.957  28.682  1.00  0.00     0.029 A 
ATOM     43  N   UNL A   1      38.906  30.863  30.571  1.00  0.00    -0.354 N 
ATOM     44  C   UNL A   1      42.150  28.921  32.745  1.00  0.00     0.074 A 
ATOM     45  C   UNL A   1      42.743  27.894  31.918  1.00  0.00     0.031 C 
ATOM     46  C   UNL A   1      37.416  31.076  28.916  1.00  0.00     0.029 A 
ATOM     47  C   UNL A   1      37.835  31.636  30.196  1.00  0.00     0.049 A 
ATOM     48  H   UNL A   1      39.475  31.065  31.348  1.00  0.00     0.167 HD
ATOM     49  C   UNL A   1      42.595  29.280  33.971  1.00  0.00     0.037 A 
ATOM     50  C   UNL A   1      37.221  32.640  30.850  1.00  0.00     0.037 A 
ATOM     51  C   UNL A   1      42.010  30.346  34.739  1.00  0.00     0.049 A 
ATOM     52  C   UNL A   1      37.708  33.007  32.224  1.00  0.00     0.074 A 
ATOM     53  C   UNL A   1      42.380  30.820  35.984  1.00  0.00     0.029 A 
ATOM     54  N   UNL A   1      40.935  31.116  34.316  1.00  0.00    -0.354 N 
ATOM     55  N   UNL A   1      38.694  32.488  32.917  1.00  0.00    -0.248 NA
ATOM     56  C   UNL A   1      36.985  34.079  32.920  1.00  0.00     0.031 C 
ATOM     57  C   UNL A   1      41.508  31.860  36.326  1.00  0.00     0.029 A 
ATOM     58  C   UNL A   1      40.622  32.060  35.277  1.00  0.00     0.049 A 
ATOM     59  H   UNL A   1      40.464  31.006  33.458  1.00  0.00     0.167 HD
ATOM     60  C   UNL A   1      38.731  33.188  34.115  1.00  0.00     0.074 A 
ATOM     61  C   UNL A   1      37.664  34.168  34.057  1.00  0.00     0.031 C 
ATOM     62  C   UNL A   1      39.571  33.039  35.168  1.00  0.00     0.037 A 
BRANCH  49  63
ATOM     63  C   UNL A   1      43.713  28.478  34.564  1.00  0.00     0.057 A 
ATOM     64  C   UNL A   1      45.057  28.848  34.432  1.00  0.00     0.134 A 
ATOM     65  C   UNL A   1      43.434  27.304  35.275  1.00  0.00     0.134 A 
ATOM     66  F   UNL A   1      45.395  29.949  33.744  1.00  0.00    -0.206 F 
ATOM     67  C   UNL A   1      46.084  28.063  34.962  1.00  0.00     0.040 A 
ATOM     68  C   UNL A   1      44.450  26.525  35.832  1.00  0.00     0.040 A 
ATOM     69  F   UNL A   1      42.168  26.889  35.437  1.00  0.00    -0.206 F 
ATOM     70  C   UNL A   1      45.781  26.902  35.669  1.00  0.00     0.006 A 
ENDBRANCH  49  63
BRANCH  50  71
ATOM     71  C   UNL A   1      36.064  33.331  30.231  1.00  0.00     0.057 A 
ATOM     72  C   UNL A   1      36.247  34.209  29.157  1.00  0.00     0.134 A 
ATOM     73  C   UNL A   1      34.753  33.117  30.673  1.00  0.00     0.134 A 
ATOM     74  F   UNL A   1      37.481  34.471  28.702  1.00  0.00    -0.206 F 
ATOM     75  C   UNL A   1      35.169  34.849  28.544  1.00  0.00     0.040 A 
ATOM     76  C   UNL A   1      33.662  33.733  30.055  1.00  0.00     0.040 A 
ATOM     77  F   UNL A   1      34.509  32.286  31.697  1.00  0.00    -0.206 F 
ATOM     78  C   UNL A   1      33.870  34.604  28.987  1.00  0.00     0.006 A 
ENDBRANCH  50  71
BRANCH  62  79
ATOM     79  C   UNL A   1      39.417  34.000  36.306  1.00  0.00     0.057 A 
ATOM     80  C   UNL A   1      38.661  33.688  37.441  1.00  0.00     0.134 A 
ATOM     81  C   UNL A   1      40.101  35.222  36.291  1.00  0.00     0.134 A 
ATOM     82  F   UNL A   1      37.976  32.537  37.507  1.00  0.00    -0.206 F 
ATOM     83  C   UNL A   1      38.585  34.566  38.522  1.00  0.00     0.040 A 
ATOM     84  C   UNL A   1      40.049  36.098  37.374  1.00  0.00     0.040 A 
ATOM     85  F   UNL A   1      40.849  35.571  35.232  1.00  0.00    -0.206 F 
ATOM     86  C   UNL A   1      39.288  35.770  38.494  1.00  0.00     0.006 A 
ENDBRANCH  62  79
ENDBRANCH  36  37
ENDBRANCH  29  31
ENDBRANCH  28  29
ENDBRANCH  27  28
ENDBRANCH   1  27
TORSDOF 13
ENDMDL
