MODEL 1
REMARK VINA RESULT:     -12.5      0.000      0.000
REMARK SMILES CC(C)[C@H](NC(=O)c1cc2cc(Cl)ccc2n1C)C(=O)N[C@@H](C(=O)OCCOC(=O)c1ccc(-c2c3nc(c(-c4c(F)cccc4F)c4ccc([nH]4)c(-c4c(F)cccc4F)c4nc(c(-c5c(F)cccc5F)c5ccc2[nH]5)C=C4)C=C3)cc1)c1ccccc1
REMARK SMILES IDX 26 1 25 2 23 3 24 4 22 5 21 6 19 7 20 8 4 10 2 11 1 12 3 13
REMARK SMILES IDX 5 14 6 15 7 17 8 18 9 19 17 20 10 21 16 22 18 23 11 24 15 25
REMARK SMILES IDX 12 26 14 27 13 28 85 29 86 30 90 31 87 32 89 33 88 34 27 35
REMARK SMILES IDX 28 36 29 37 30 38 31 39 32 40 84 41 33 42 83 43 34 44 35 45
REMARK SMILES IDX 36 46 77 47 37 48 82 49 76 50 78 51 38 52 81 53 75 54 74 55
REMARK SMILES IDX 39 57 65 58 48 59 64 60 49 61 52 62 63 63 79 64 50 65 51 66
REMARK SMILES IDX 62 68 80 69 53 70 40 71 41 72 46 73 42 74 43 75 45 76 47 77
REMARK SMILES IDX 44 78 66 79 67 80 72 81 68 82 69 83 71 84 73 85 70 86 54 87
REMARK SMILES IDX 55 88 60 89 56 90 57 91 59 92 61 93 58 94
REMARK H PARENT 21 9 5 16 78 56 52 67
REMARK Flexibility Score: inf
ROOT
ATOM      1  C   UNL A   1      34.404  21.462  27.158  1.00  0.00     0.274 C 
ENDROOT
BRANCH   1   2
ATOM      2  O   UNL A   1      34.339  22.915  27.219  1.00  0.00    -0.460 OA
BRANCH   2   3
ATOM      3  C   UNL A   1      33.127  23.475  26.924  1.00  0.00     0.333 C 
ATOM      4  O   UNL A   1      32.112  23.298  27.591  1.00  0.00    -0.249 OA
BRANCH   3   5
ATOM      5  C   UNL A   1      33.153  24.429  25.715  1.00  0.00     0.223 C 
BRANCH   5   6
ATOM      6  N   UNL A   1      34.342  24.235  24.911  1.00  0.00    -0.337 N 
ATOM      7  C   UNL A   1      34.400  23.679  23.668  1.00  0.00     0.243 C 
ATOM      8  O   UNL A   1      35.504  23.565  23.132  1.00  0.00    -0.273 OA
ATOM      9  H   UNL A   1      35.194  24.535  25.301  1.00  0.00     0.164 HD
BRANCH   7  10
ATOM     10  C   UNL A   1      33.108  23.225  22.930  1.00  0.00     0.174 C 
BRANCH  10  11
ATOM     11  C   UNL A   1      32.811  21.705  23.052  1.00  0.00     0.015 C 
ATOM     12  C   UNL A   1      32.079  21.229  24.314  1.00  0.00     0.010 C 
ATOM     13  C   UNL A   1      31.984  21.213  21.858  1.00  0.00     0.010 C 
ENDBRANCH  10  11
BRANCH  10  14
ATOM     14  N   UNL A   1      33.088  23.895  21.591  1.00  0.00    -0.339 N 
ATOM     15  C   UNL A   1      32.688  25.098  21.054  1.00  0.00     0.268 C 
ATOM     16  H   UNL A   1      33.471  23.309  20.898  1.00  0.00     0.164 HD
ATOM     17  O   UNL A   1      32.892  25.301  19.868  1.00  0.00    -0.268 OA
BRANCH  15  18
ATOM     18  C   UNL A   1      32.056  26.054  21.916  1.00  0.00     0.107 A 
ATOM     19  C   UNL A   1      32.477  27.322  22.253  1.00  0.00     0.042 A 
ATOM     20  N   UNL A   1      30.909  25.849  22.643  1.00  0.00    -0.340 N 
ATOM     21  C   UNL A   1      31.368  28.011  22.817  1.00  0.00     0.002 A 
ATOM     22  C   UNL A   1      30.352  27.069  22.979  1.00  0.00     0.048 A 
ATOM     23  C   UNL A   1      30.395  24.535  22.953  1.00  0.00     0.150 C 
ATOM     24  C   UNL A   1      31.121  29.358  23.151  1.00  0.00     0.030 A 
ATOM     25  C   UNL A   1      29.073  27.437  23.423  1.00  0.00     0.028 A 
ATOM     26  C   UNL A   1      29.860  29.726  23.610  1.00  0.00     0.041 A 
ATOM     27  C   UNL A   1      28.844  28.784  23.730  1.00  0.00     0.023 A 
ATOM     28  Cl  UNL A   1      29.559  31.373  24.012  1.00  0.00    -0.084 Cl
ENDBRANCH  15  18
ENDBRANCH  10  14
ENDBRANCH   7  10
ENDBRANCH   5   6
BRANCH   5  29
ATOM     29  C   UNL A   1      32.844  25.919  25.881  1.00  0.00    -0.014 A 
ATOM     30  C   UNL A   1      33.880  26.854  25.674  1.00  0.00     0.006 A 
ATOM     31  C   UNL A   1      31.636  26.425  26.367  1.00  0.00     0.006 A 
ATOM     32  C   UNL A   1      33.760  28.211  25.967  1.00  0.00     0.000 A 
ATOM     33  C   UNL A   1      31.503  27.797  26.656  1.00  0.00     0.000 A 
ATOM     34  C   UNL A   1      32.564  28.684  26.466  1.00  0.00     0.000 A 
ENDBRANCH   5  29
ENDBRANCH   3   5
ENDBRANCH   2   3
ENDBRANCH   1   2
BRANCH   1  35
ATOM     35  C   UNL A   1      35.168  20.975  25.913  1.00  0.00     0.275 C 
BRANCH  35  36
ATOM     36  O   UNL A   1      36.319  21.823  25.702  1.00  0.00    -0.458 OA
BRANCH  36  37
ATOM     37  C   UNL A   1      37.454  21.224  25.259  1.00  0.00     0.338 C 
ATOM     38  O   UNL A   1      37.613  20.618  24.214  1.00  0.00    -0.246 OA
BRANCH  37  39
ATOM     39  C   UNL A   1      38.535  21.918  25.979  1.00  0.00     0.060 A 
ATOM     40  C   UNL A   1      39.765  21.424  26.387  1.00  0.00     0.016 A 
ATOM     41  C   UNL A   1      38.181  23.216  26.298  1.00  0.00     0.016 A 
ATOM     42  C   UNL A   1      40.590  22.250  27.184  1.00  0.00     0.010 A 
ATOM     43  C   UNL A   1      38.969  24.020  27.088  1.00  0.00     0.010 A 
ATOM     44  C   UNL A   1      40.168  23.540  27.572  1.00  0.00    -0.014 A 
BRANCH  44  45
ATOM     45  C   UNL A   1      41.028  24.556  28.198  1.00  0.00     0.031 A 
ATOM     46  C   UNL A   1      40.324  25.841  28.393  1.00  0.00     0.074 A 
ATOM     47  C   UNL A   1      42.221  24.369  28.817  1.00  0.00     0.049 A 
ATOM     48  N   UNL A   1      40.493  26.901  27.682  1.00  0.00    -0.248 NA
ATOM     49  C   UNL A   1      39.232  25.946  29.371  1.00  0.00     0.031 C 
ATOM     50  C   UNL A   1      42.970  23.120  28.971  1.00  0.00     0.029 A 
ATOM     51  N   UNL A   1      43.007  25.270  29.508  1.00  0.00    -0.354 N 
ATOM     52  C   UNL A   1      39.717  27.880  28.279  1.00  0.00     0.074 A 
ATOM     53  C   UNL A   1      38.814  27.199  29.167  1.00  0.00     0.031 C 
ATOM     54  C   UNL A   1      44.020  23.308  29.810  1.00  0.00     0.029 A 
ATOM     55  C   UNL A   1      44.112  24.712  30.179  1.00  0.00     0.049 A 
ATOM     56  H   UNL A   1      42.808  26.234  29.531  1.00  0.00     0.167 HD
ATOM     57  C   UNL A   1      40.090  29.183  28.189  1.00  0.00     0.037 A 
ATOM     58  C   UNL A   1      45.019  25.376  30.957  1.00  0.00     0.037 A 
ATOM     59  C   UNL A   1      41.204  29.329  27.277  1.00  0.00     0.049 A 
ATOM     60  C   UNL A   1      45.106  26.719  30.345  1.00  0.00     0.074 A 
ATOM     61  C   UNL A   1      41.395  29.249  25.914  1.00  0.00     0.029 A 
ATOM     62  N   UNL A   1      42.432  29.168  27.864  1.00  0.00    -0.354 N 
ATOM     63  N   UNL A   1      45.643  26.919  29.174  1.00  0.00    -0.248 NA
ATOM     64  C   UNL A   1      44.417  27.870  30.925  1.00  0.00     0.031 C 
ATOM     65  C   UNL A   1      42.753  28.850  25.716  1.00  0.00     0.029 A 
ATOM     66  C   UNL A   1      43.363  28.724  26.959  1.00  0.00     0.049 A 
ATOM     67  H   UNL A   1      42.621  29.349  28.814  1.00  0.00     0.167 HD
ATOM     68  C   UNL A   1      44.963  28.013  28.697  1.00  0.00     0.074 A 
ATOM     69  C   UNL A   1      44.445  28.693  29.874  1.00  0.00     0.031 C 
ATOM     70  C   UNL A   1      44.563  28.052  27.396  1.00  0.00     0.037 A 
BRANCH  57  71
ATOM     71  C   UNL A   1      39.777  30.251  29.205  1.00  0.00     0.057 A 
ATOM     72  C   UNL A   1      40.660  30.692  30.210  1.00  0.00     0.134 A 
ATOM     73  C   UNL A   1      38.649  31.063  28.999  1.00  0.00     0.134 A 
ATOM     74  F   UNL A   1      41.828  30.084  30.454  1.00  0.00    -0.206 F 
ATOM     75  C   UNL A   1      40.435  31.850  30.960  1.00  0.00     0.040 A 
ATOM     76  C   UNL A   1      38.440  32.253  29.706  1.00  0.00     0.040 A 
ATOM     77  F   UNL A   1      37.744  30.758  28.056  1.00  0.00    -0.206 F 
ATOM     78  C   UNL A   1      39.336  32.650  30.691  1.00  0.00     0.006 A 
ENDBRANCH  57  71
BRANCH  58  79
ATOM     79  C   UNL A   1      45.922  25.054  32.110  1.00  0.00     0.057 A 
ATOM     80  C   UNL A   1      45.491  24.575  33.348  1.00  0.00     0.134 A 
ATOM     81  C   UNL A   1      47.272  25.481  32.093  1.00  0.00     0.134 A 
ATOM     82  F   UNL A   1      44.288  24.009  33.486  1.00  0.00    -0.206 F 
ATOM     83  C   UNL A   1      46.274  24.681  34.516  1.00  0.00     0.040 A 
ATOM     84  C   UNL A   1      48.065  25.591  33.244  1.00  0.00     0.040 A 
ATOM     85  F   UNL A   1      47.868  25.865  30.955  1.00  0.00    -0.206 F 
ATOM     86  C   UNL A   1      47.546  25.236  34.477  1.00  0.00     0.006 A 
ENDBRANCH  58  79
BRANCH  70  87
ATOM     87  C   UNL A   1      45.320  27.164  26.452  1.00  0.00     0.057 A 
ATOM     88  C   UNL A   1      46.553  27.585  25.957  1.00  0.00     0.134 A 
ATOM     89  C   UNL A   1      44.881  25.899  26.039  1.00  0.00     0.134 A 
ATOM     90  F   UNL A   1      47.027  28.800  26.273  1.00  0.00    -0.206 F 
ATOM     91  C   UNL A   1      47.325  26.775  25.119  1.00  0.00     0.040 A 
ATOM     92  C   UNL A   1      45.654  25.060  25.233  1.00  0.00     0.040 A 
ATOM     93  F   UNL A   1      43.675  25.450  26.381  1.00  0.00    -0.206 F 
ATOM     94  C   UNL A   1      46.886  25.498  24.770  1.00  0.00     0.006 A 
ENDBRANCH  70  87
ENDBRANCH  44  45
ENDBRANCH  37  39
ENDBRANCH  36  37
ENDBRANCH  35  36
ENDBRANCH   1  35
TORSDOF 17
ENDMDL
MODEL 2
REMARK VINA RESULT:     -12.4      3.321      6.956
REMARK SMILES CC(C)[C@H](NC(=O)c1cc2cc(Cl)ccc2n1C)C(=O)N[C@@H](C(=O)OCCOC(=O)c1ccc(-c2c3nc(c(-c4c(F)cccc4F)c4ccc([nH]4)c(-c4c(F)cccc4F)c4nc(c(-c5c(F)cccc5F)c5ccc2[nH]5)C=C4)C=C3)cc1)c1ccccc1
REMARK SMILES IDX 26 1 25 2 23 3 24 4 22 5 21 6 19 7 20 8 4 10 2 11 1 12 3 13
REMARK SMILES IDX 5 14 6 15 7 17 8 18 9 19 17 20 10 21 16 22 18 23 11 24 15 25
REMARK SMILES IDX 12 26 14 27 13 28 85 29 86 30 90 31 87 32 89 33 88 34 27 35
REMARK SMILES IDX 28 36 29 37 30 38 31 39 32 40 84 41 33 42 83 43 34 44 35 45
REMARK SMILES IDX 36 46 77 47 37 48 82 49 76 50 78 51 38 52 81 53 75 54 74 55
REMARK SMILES IDX 39 57 65 58 48 59 64 60 49 61 52 62 63 63 79 64 50 65 51 66
REMARK SMILES IDX 62 68 80 69 53 70 40 71 41 72 46 73 42 74 43 75 45 76 47 77
REMARK SMILES IDX 44 78 66 79 67 80 72 81 68 82 69 83 71 84 73 85 70 86 54 87
REMARK SMILES IDX 55 88 60 89 56 90 57 91 59 92 61 93 58 94
REMARK H PARENT 21 9 5 16 78 56 52 67
REMARK Flexibility Score: inf
ROOT
ATOM      1  C   UNL A   1      33.286  30.736  27.245  1.00  0.00     0.274 C 
ENDROOT
BRANCH   1   2
ATOM      2  O   UNL A   1      32.317  30.652  26.162  1.00  0.00    -0.460 OA
BRANCH   2   3
ATOM      3  C   UNL A   1      31.730  29.431  25.975  1.00  0.00     0.333 C 
ATOM      4  O   UNL A   1      31.397  28.686  26.892  1.00  0.00    -0.249 OA
BRANCH   3   5
ATOM      5  C   UNL A   1      31.440  29.092  24.502  1.00  0.00     0.223 C 
BRANCH   5   6
ATOM      6  N   UNL A   1      32.597  29.327  23.664  1.00  0.00    -0.337 N 
ATOM      7  C   UNL A   1      33.358  28.381  23.046  1.00  0.00     0.243 C 
ATOM      8  O   UNL A   1      34.330  28.755  22.386  1.00  0.00    -0.273 OA
ATOM      9  H   UNL A   1      32.861  30.266  23.528  1.00  0.00     0.164 HD
BRANCH   7  10
ATOM     10  C   UNL A   1      32.997  26.871  23.142  1.00  0.00     0.174 C 
BRANCH  10  11
ATOM     11  C   UNL A   1      32.074  26.367  21.998  1.00  0.00     0.015 C 
ATOM     12  C   UNL A   1      32.719  25.514  20.897  1.00  0.00     0.010 C 
ATOM     13  C   UNL A   1      30.909  25.545  22.560  1.00  0.00     0.010 C 
ENDBRANCH  10  11
BRANCH  10  14
ATOM     14  N   UNL A   1      32.662  26.573  24.571  1.00  0.00    -0.339 N 
ATOM     15  C   UNL A   1      32.895  25.575  25.491  1.00  0.00     0.268 C 
ATOM     16  H   UNL A   1      32.122  27.297  24.965  1.00  0.00     0.164 HD
ATOM     17  O   UNL A   1      32.477  25.723  26.627  1.00  0.00    -0.268 OA
BRANCH  15  18
ATOM     18  C   UNL A   1      33.624  24.414  25.068  1.00  0.00     0.107 A 
ATOM     19  C   UNL A   1      34.959  24.302  24.749  1.00  0.00     0.042 A 
ATOM     20  N   UNL A   1      33.090  23.171  24.830  1.00  0.00    -0.340 N 
ATOM     21  C   UNL A   1      35.292  22.919  24.754  1.00  0.00     0.002 A 
ATOM     22  C   UNL A   1      34.093  22.220  24.890  1.00  0.00     0.048 A 
ATOM     23  C   UNL A   1      31.684  22.948  24.590  1.00  0.00     0.150 C 
ATOM     24  C   UNL A   1      36.507  22.206  24.708  1.00  0.00     0.030 A 
ATOM     25  C   UNL A   1      34.068  20.824  25.032  1.00  0.00     0.028 A 
ATOM     26  C   UNL A   1      36.488  20.820  24.830  1.00  0.00     0.041 A 
ATOM     27  C   UNL A   1      35.289  20.138  25.005  1.00  0.00     0.023 A 
ATOM     28  Cl  UNL A   1      37.974  19.952  24.781  1.00  0.00    -0.084 Cl
ENDBRANCH  15  18
ENDBRANCH  10  14
ENDBRANCH   7  10
ENDBRANCH   5   6
BRANCH   5  29
ATOM     29  C   UNL A   1      30.162  29.586  23.818  1.00  0.00    -0.014 A 
ATOM     30  C   UNL A   1      29.731  30.908  24.058  1.00  0.00     0.006 A 
ATOM     31  C   UNL A   1      29.299  28.775  23.076  1.00  0.00     0.006 A 
ATOM     32  C   UNL A   1      28.501  31.404  23.634  1.00  0.00     0.000 A 
ATOM     33  C   UNL A   1      28.058  29.272  22.635  1.00  0.00     0.000 A 
ATOM     34  C   UNL A   1      27.656  30.577  22.921  1.00  0.00     0.000 A 
ENDBRANCH   5  29
ENDBRANCH   3   5
ENDBRANCH   2   3
ENDBRANCH   1   2
BRANCH   1  35
ATOM     35  C   UNL A   1      33.541  32.193  27.674  1.00  0.00     0.275 C 
BRANCH  35  36
ATOM     36  O   UNL A   1      34.923  32.335  28.069  1.00  0.00    -0.458 OA
BRANCH  36  37
ATOM     37  C   UNL A   1      35.178  32.421  29.399  1.00  0.00     0.338 C 
ATOM     38  O   UNL A   1      34.370  32.549  30.303  1.00  0.00    -0.246 OA
BRANCH  37  39
ATOM     39  C   UNL A   1      36.492  31.776  29.558  1.00  0.00     0.060 A 
ATOM     40  C   UNL A   1      37.700  32.345  29.934  1.00  0.00     0.016 A 
ATOM     41  C   UNL A   1      36.446  30.436  29.221  1.00  0.00     0.016 A 
ATOM     42  C   UNL A   1      38.864  31.544  29.890  1.00  0.00     0.010 A 
ATOM     43  C   UNL A   1      37.575  29.654  29.157  1.00  0.00     0.010 A 
ATOM     44  C   UNL A   1      38.805  30.201  29.456  1.00  0.00    -0.014 A 
BRANCH  44  45
ATOM     45  C   UNL A   1      39.897  29.224  29.585  1.00  0.00     0.031 A 
ATOM     46  C   UNL A   1      40.173  28.877  30.995  1.00  0.00     0.074 A 
ATOM     47  C   UNL A   1      40.450  28.461  28.608  1.00  0.00     0.049 A 
ATOM     48  N   UNL A   1      41.176  29.294  31.685  1.00  0.00    -0.248 NA
ATOM     49  C   UNL A   1      39.192  28.108  31.773  1.00  0.00     0.031 C 
ATOM     50  C   UNL A   1      40.132  28.459  27.179  1.00  0.00     0.029 A 
ATOM     51  N   UNL A   1      41.397  27.461  28.701  1.00  0.00    -0.354 N 
ATOM     52  C   UNL A   1      41.090  28.642  32.903  1.00  0.00     0.074 A 
ATOM     53  C   UNL A   1      39.761  28.100  32.982  1.00  0.00     0.031 C 
ATOM     54  C   UNL A   1      40.765  27.426  26.564  1.00  0.00     0.029 A 
ATOM     55  C   UNL A   1      41.634  26.746  27.510  1.00  0.00     0.049 A 
ATOM     56  H   UNL A   1      41.872  27.261  29.540  1.00  0.00     0.167 HD
ATOM     57  C   UNL A   1      42.223  28.374  33.605  1.00  0.00     0.037 A 
ATOM     58  C   UNL A   1      42.489  25.693  27.344  1.00  0.00     0.037 A 
ATOM     59  C   UNL A   1      43.363  29.020  32.991  1.00  0.00     0.049 A 
ATOM     60  C   UNL A   1      43.590  25.967  28.292  1.00  0.00     0.074 A 
ATOM     61  C   UNL A   1      43.828  30.312  32.861  1.00  0.00     0.029 A 
ATOM     62  N   UNL A   1      43.967  28.276  32.011  1.00  0.00    -0.354 N 
ATOM     63  N   UNL A   1      44.428  26.951  28.123  1.00  0.00    -0.248 NA
ATOM     64  C   UNL A   1      43.682  25.278  29.578  1.00  0.00     0.031 C 
ATOM     65  C   UNL A   1      44.590  30.350  31.653  1.00  0.00     0.029 A 
ATOM     66  C   UNL A   1      44.594  29.079  31.091  1.00  0.00     0.049 A 
ATOM     67  H   UNL A   1      43.953  27.292  31.973  1.00  0.00     0.167 HD
ATOM     68  C   UNL A   1      44.785  27.287  29.406  1.00  0.00     0.074 A 
ATOM     69  C   UNL A   1      44.528  26.099  30.205  1.00  0.00     0.031 C 
ATOM     70  C   UNL A   1      44.891  28.597  29.763  1.00  0.00     0.037 A 
BRANCH  57  71
ATOM     71  C   UNL A   1      42.406  27.219  34.553  1.00  0.00     0.057 A 
ATOM     72  C   UNL A   1      43.122  26.041  34.262  1.00  0.00     0.134 A 
ATOM     73  C   UNL A   1      42.087  27.407  35.909  1.00  0.00     0.134 A 
ATOM     74  F   UNL A   1      43.588  25.771  33.036  1.00  0.00    -0.206 F 
ATOM     75  C   UNL A   1      43.487  25.115  35.244  1.00  0.00     0.040 A 
ATOM     76  C   UNL A   1      42.493  26.513  36.908  1.00  0.00     0.040 A 
ATOM     77  F   UNL A   1      41.422  28.500  36.314  1.00  0.00    -0.206 F 
ATOM     78  C   UNL A   1      43.196  25.363  36.576  1.00  0.00     0.006 A 
ENDBRANCH  57  71
BRANCH  58  79
ATOM     79  C   UNL A   1      42.600  24.499  26.443  1.00  0.00     0.057 A 
ATOM     80  C   UNL A   1      42.159  23.215  26.768  1.00  0.00     0.134 A 
ATOM     81  C   UNL A   1      43.419  24.555  25.290  1.00  0.00     0.134 A 
ATOM     82  F   UNL A   1      41.269  23.019  27.745  1.00  0.00    -0.206 F 
ATOM     83  C   UNL A   1      42.639  22.061  26.114  1.00  0.00     0.040 A 
ATOM     84  C   UNL A   1      43.903  23.419  24.626  1.00  0.00     0.040 A 
ATOM     85  F   UNL A   1      43.833  25.726  24.785  1.00  0.00    -0.206 F 
ATOM     86  C   UNL A   1      43.551  22.157  25.071  1.00  0.00     0.006 A 
ENDBRANCH  58  79
BRANCH  70  87
ATOM     87  C   UNL A   1      45.118  29.565  28.640  1.00  0.00     0.057 A 
ATOM     88  C   UNL A   1      44.067  30.374  28.211  1.00  0.00     0.134 A 
ATOM     89  C   UNL A   1      46.346  29.741  27.988  1.00  0.00     0.134 A 
ATOM     90  F   UNL A   1      42.848  30.241  28.756  1.00  0.00    -0.206 F 
ATOM     91  C   UNL A   1      44.238  31.331  27.206  1.00  0.00     0.040 A 
ATOM     92  C   UNL A   1      46.547  30.717  27.010  1.00  0.00     0.040 A 
ATOM     93  F   UNL A   1      47.383  28.950  28.262  1.00  0.00    -0.206 F 
ATOM     94  C   UNL A   1      45.487  31.520  26.615  1.00  0.00     0.006 A 
ENDBRANCH  70  87
ENDBRANCH  44  45
ENDBRANCH  37  39
ENDBRANCH  36  37
ENDBRANCH  35  36
ENDBRANCH   1  35
TORSDOF 17
ENDMDL
MODEL 3
REMARK VINA RESULT:     -12.3      2.854      6.575
REMARK SMILES CC(C)[C@H](NC(=O)c1cc2cc(Cl)ccc2n1C)C(=O)N[C@@H](C(=O)OCCOC(=O)c1ccc(-c2c3nc(c(-c4c(F)cccc4F)c4ccc([nH]4)c(-c4c(F)cccc4F)c4nc(c(-c5c(F)cccc5F)c5ccc2[nH]5)C=C4)C=C3)cc1)c1ccccc1
REMARK SMILES IDX 26 1 25 2 23 3 24 4 22 5 21 6 19 7 20 8 4 10 2 11 1 12 3 13
REMARK SMILES IDX 5 14 6 15 7 17 8 18 9 19 17 20 10 21 16 22 18 23 11 24 15 25
REMARK SMILES IDX 12 26 14 27 13 28 85 29 86 30 90 31 87 32 89 33 88 34 27 35
REMARK SMILES IDX 28 36 29 37 30 38 31 39 32 40 84 41 33 42 83 43 34 44 35 45
REMARK SMILES IDX 36 46 77 47 37 48 82 49 76 50 78 51 38 52 81 53 75 54 74 55
REMARK SMILES IDX 39 57 65 58 48 59 64 60 49 61 52 62 63 63 79 64 50 65 51 66
REMARK SMILES IDX 62 68 80 69 53 70 40 71 41 72 46 73 42 74 43 75 45 76 47 77
REMARK SMILES IDX 44 78 66 79 67 80 72 81 68 82 69 83 71 84 73 85 70 86 54 87
REMARK SMILES IDX 55 88 60 89 56 90 57 91 59 92 61 93 58 94
REMARK H PARENT 21 9 5 16 78 56 52 67
REMARK Flexibility Score: inf
ROOT
ATOM      1  C   UNL A   1      36.557  21.977  25.224  1.00  0.00     0.274 C 
ENDROOT
BRANCH   1   2
ATOM      2  O   UNL A   1      36.183  23.366  24.997  1.00  0.00    -0.460 OA
BRANCH   2   3
ATOM      3  C   UNL A   1      35.400  23.605  23.902  1.00  0.00     0.333 C 
ATOM      4  O   UNL A   1      35.672  23.218  22.769  1.00  0.00    -0.249 OA
BRANCH   3   5
ATOM      5  C   UNL A   1      34.085  24.341  24.219  1.00  0.00     0.223 C 
BRANCH   5   6
ATOM      6  N   UNL A   1      32.931  23.531  23.890  1.00  0.00    -0.337 N 
ATOM      7  C   UNL A   1      32.037  22.995  24.769  1.00  0.00     0.243 C 
ATOM      8  O   UNL A   1      31.121  22.305  24.318  1.00  0.00    -0.273 OA
ATOM      9  H   UNL A   1      32.776  23.349  22.935  1.00  0.00     0.164 HD
BRANCH   7  10
ATOM     10  C   UNL A   1      32.150  23.269  26.295  1.00  0.00     0.174 C 
BRANCH  10  11
ATOM     11  C   UNL A   1      32.986  22.211  27.068  1.00  0.00     0.015 C 
ATOM     12  C   UNL A   1      33.465  20.983  26.283  1.00  0.00     0.010 C 
ATOM     13  C   UNL A   1      34.236  22.849  27.685  1.00  0.00     0.010 C 
ENDBRANCH  10  11
BRANCH  10  14
ATOM     14  N   UNL A   1      30.793  23.669  26.788  1.00  0.00    -0.339 N 
ATOM     15  C   UNL A   1      29.881  24.677  26.570  1.00  0.00     0.268 C 
ATOM     16  H   UNL A   1      30.459  23.029  27.458  1.00  0.00     0.164 HD
ATOM     17  O   UNL A   1      28.812  24.629  27.157  1.00  0.00    -0.268 OA
BRANCH  15  18
ATOM     18  C   UNL A   1      30.230  25.728  25.659  1.00  0.00     0.107 A 
ATOM     19  C   UNL A   1      29.955  25.831  24.314  1.00  0.00     0.042 A 
ATOM     20  N   UNL A   1      30.987  26.834  25.959  1.00  0.00    -0.340 N 
ATOM     21  C   UNL A   1      30.164  27.184  23.930  1.00  0.00     0.002 A 
ATOM     22  C   UNL A   1      30.747  27.824  25.024  1.00  0.00     0.048 A 
ATOM     23  C   UNL A   1      31.862  26.906  27.106  1.00  0.00     0.150 C 
ATOM     24  C   UNL A   1      29.860  27.930  22.774  1.00  0.00     0.030 A 
ATOM     25  C   UNL A   1      30.995  29.205  25.020  1.00  0.00     0.028 A 
ATOM     26  C   UNL A   1      30.122  29.297  22.757  1.00  0.00     0.041 A 
ATOM     27  C   UNL A   1      30.666  29.930  23.868  1.00  0.00     0.023 A 
ATOM     28  Cl  UNL A   1      29.744  30.208  21.345  1.00  0.00    -0.084 Cl
ENDBRANCH  15  18
ENDBRANCH  10  14
ENDBRANCH   7  10
ENDBRANCH   5   6
BRANCH   5  29
ATOM     29  C   UNL A   1      33.872  25.795  23.787  1.00  0.00    -0.014 A 
ATOM     30  C   UNL A   1      33.467  26.056  22.461  1.00  0.00     0.006 A 
ATOM     31  C   UNL A   1      34.190  26.906  24.572  1.00  0.00     0.006 A 
ATOM     32  C   UNL A   1      33.414  27.335  21.912  1.00  0.00     0.000 A 
ATOM     33  C   UNL A   1      34.130  28.203  24.027  1.00  0.00     0.000 A 
ATOM     34  C   UNL A   1      33.753  28.416  22.700  1.00  0.00     0.000 A 
ENDBRANCH   5  29
ENDBRANCH   3   5
ENDBRANCH   2   3
ENDBRANCH   1   2
BRANCH   1  35
ATOM     35  C   UNL A   1      38.085  21.788  25.221  1.00  0.00     0.275 C 
BRANCH  35  36
ATOM     36  O   UNL A   1      38.682  22.745  26.125  1.00  0.00    -0.458 OA
BRANCH  36  37
ATOM     37  C   UNL A   1      39.945  22.487  26.549  1.00  0.00     0.338 C 
ATOM     38  O   UNL A   1      40.724  21.663  26.103  1.00  0.00    -0.246 OA
BRANCH  37  39
ATOM     39  C   UNL A   1      40.361  23.729  27.223  1.00  0.00     0.060 A 
ATOM     40  C   UNL A   1      41.585  24.038  27.797  1.00  0.00     0.016 A 
ATOM     41  C   UNL A   1      39.324  24.640  27.297  1.00  0.00     0.016 A 
ATOM     42  C   UNL A   1      41.707  25.255  28.507  1.00  0.00     0.010 A 
ATOM     43  C   UNL A   1      39.427  25.817  28.000  1.00  0.00     0.010 A 
ATOM     44  C   UNL A   1      40.606  26.128  28.644  1.00  0.00    -0.014 A 
BRANCH  44  45
ATOM     45  C   UNL A   1      40.680  27.505  29.157  1.00  0.00     0.031 A 
ATOM     46  C   UNL A   1      41.672  28.321  28.427  1.00  0.00     0.074 A 
ATOM     47  C   UNL A   1      39.806  28.132  29.986  1.00  0.00     0.049 A 
ATOM     48  N   UNL A   1      42.833  28.659  28.868  1.00  0.00    -0.248 NA
ATOM     49  C   UNL A   1      41.434  28.697  27.026  1.00  0.00     0.031 C 
ATOM     50  C   UNL A   1      38.604  27.578  30.612  1.00  0.00     0.029 A 
ATOM     51  N   UNL A   1      39.778  29.447  30.406  1.00  0.00    -0.354 N 
ATOM     52  C   UNL A   1      43.370  29.497  27.907  1.00  0.00     0.074 A 
ATOM     53  C   UNL A   1      42.576  29.320  26.721  1.00  0.00     0.031 C 
ATOM     54  C   UNL A   1      37.898  28.569  31.216  1.00  0.00     0.029 A 
ATOM     55  C   UNL A   1      38.633  29.820  31.135  1.00  0.00     0.049 A 
ATOM     56  H   UNL A   1      40.507  30.079  30.208  1.00  0.00     0.167 HD
ATOM     57  C   UNL A   1      44.248  30.468  28.274  1.00  0.00     0.037 A 
ATOM     58  C   UNL A   1      38.346  31.061  31.631  1.00  0.00     0.037 A 
ATOM     59  C   UNL A   1      44.616  30.318  29.665  1.00  0.00     0.049 A 
ATOM     60  C   UNL A   1      39.669  31.636  31.955  1.00  0.00     0.074 A 
ATOM     61  C   UNL A   1      45.377  29.440  30.408  1.00  0.00     0.029 A 
ATOM     62  N   UNL A   1      43.772  30.953  30.538  1.00  0.00    -0.354 N 
ATOM     63  N   UNL A   1      40.407  31.184  32.929  1.00  0.00    -0.248 NA
ATOM     64  C   UNL A   1      40.315  32.612  31.078  1.00  0.00     0.031 C 
ATOM     65  C   UNL A   1      44.830  29.441  31.727  1.00  0.00     0.029 A 
ATOM     66  C   UNL A   1      43.768  30.337  31.765  1.00  0.00     0.049 A 
ATOM     67  H   UNL A   1      43.237  31.749  30.314  1.00  0.00     0.167 HD
ATOM     68  C   UNL A   1      41.688  31.440  32.501  1.00  0.00     0.074 A 
ATOM     69  C   UNL A   1      41.566  32.521  31.535  1.00  0.00     0.031 C 
ATOM     70  C   UNL A   1      42.665  30.508  32.680  1.00  0.00     0.037 A 
BRANCH  57  71
ATOM     71  C   UNL A   1      44.446  31.778  27.559  1.00  0.00     0.057 A 
ATOM     72  C   UNL A   1      43.815  32.989  27.903  1.00  0.00     0.134 A 
ATOM     73  C   UNL A   1      45.520  31.896  26.660  1.00  0.00     0.134 A 
ATOM     74  F   UNL A   1      42.845  33.055  28.824  1.00  0.00    -0.206 F 
ATOM     75  C   UNL A   1      44.216  34.225  27.387  1.00  0.00     0.040 A 
ATOM     76  C   UNL A   1      45.965  33.134  26.178  1.00  0.00     0.040 A 
ATOM     77  F   UNL A   1      46.213  30.815  26.270  1.00  0.00    -0.206 F 
ATOM     78  C   UNL A   1      45.313  34.304  26.543  1.00  0.00     0.006 A 
ENDBRANCH  57  71
BRANCH  58  79
ATOM     79  C   UNL A   1      37.118  31.850  31.974  1.00  0.00     0.057 A 
ATOM     80  C   UNL A   1      36.405  32.642  31.073  1.00  0.00     0.134 A 
ATOM     81  C   UNL A   1      36.760  32.050  33.329  1.00  0.00     0.134 A 
ATOM     82  F   UNL A   1      36.531  32.469  29.754  1.00  0.00    -0.206 F 
ATOM     83  C   UNL A   1      35.541  33.676  31.492  1.00  0.00     0.040 A 
ATOM     84  C   UNL A   1      35.902  33.070  33.762  1.00  0.00     0.040 A 
ATOM     85  F   UNL A   1      37.275  31.289  34.306  1.00  0.00    -0.206 F 
ATOM     86  C   UNL A   1      35.325  33.925  32.841  1.00  0.00     0.006 A 
ENDBRANCH  58  79
BRANCH  70  87
ATOM     87  C   UNL A   1      42.420  29.504  33.767  1.00  0.00     0.057 A 
ATOM     88  C   UNL A   1      42.608  29.876  35.097  1.00  0.00     0.134 A 
ATOM     89  C   UNL A   1      41.981  28.192  33.543  1.00  0.00     0.134 A 
ATOM     90  F   UNL A   1      43.064  31.102  35.396  1.00  0.00    -0.206 F 
ATOM     91  C   UNL A   1      42.342  28.997  36.152  1.00  0.00     0.040 A 
ATOM     92  C   UNL A   1      41.673  27.312  34.583  1.00  0.00     0.040 A 
ATOM     93  F   UNL A   1      41.864  27.714  32.305  1.00  0.00    -0.206 F 
ATOM     94  C   UNL A   1      41.854  27.717  35.898  1.00  0.00     0.006 A 
ENDBRANCH  70  87
ENDBRANCH  44  45
ENDBRANCH  37  39
ENDBRANCH  36  37
ENDBRANCH  35  36
ENDBRANCH   1  35
TORSDOF 17
ENDMDL
