MODEL 1
REMARK VINA RESULT:     -11.8      0.000      0.000
REMARK SMILES O=C(OCCOC(=O)c1cc(-c2ccn(C(F)F)c(=O)c2)ccc1O)c1ccc(-c2c3nc(c(-c4c(F)cccc4F)c4ccc([nH]4)c(-c4c(F)cccc4F)c4nc(c(-c5c(F)cccc5F)c5ccc2[nH]5)C=C4)C=C3)cc1
REMARK SMILES IDX 4 1 3 2 2 3 1 4 26 5 27 6 79 7 28 8 78 9 29 10 30 11 31 12
REMARK SMILES IDX 72 13 32 14 77 15 71 16 73 17 33 18 76 19 70 20 69 21 34 23
REMARK SMILES IDX 60 24 43 25 59 26 44 27 47 28 58 29 74 30 45 31 46 32 57 34
REMARK SMILES IDX 75 35 48 36 35 37 36 38 41 39 37 40 38 41 40 42 42 43 39 44
REMARK SMILES IDX 61 45 62 46 67 47 63 48 64 49 66 50 68 51 65 52 49 53 50 54
REMARK SMILES IDX 55 55 51 56 52 57 54 58 56 59 53 60 5 61 6 62 7 63 8 64 9 65
REMARK SMILES IDX 10 66 24 67 11 68 23 69 22 70 25 71 12 73 13 74 21 75 14 76
REMARK SMILES IDX 19 77 15 78 20 79 16 80 17 81 18 82
REMARK H PARENT 73 22 47 33 25 72
REMARK Flexibility Score: inf
ROOT
ATOM      1  C   UNL A   1      38.737  19.935  25.009  1.00  0.00     0.275 C 
ENDROOT
BRANCH   1   2
ATOM      2  O   UNL A   1      39.663  19.173  25.796  1.00  0.00    -0.458 OA
BRANCH   2   3
ATOM      3  C   UNL A   1      40.990  19.412  25.944  1.00  0.00     0.338 C 
ATOM      4  O   UNL A   1      41.800  18.499  25.805  1.00  0.00    -0.246 OA
BRANCH   3   5
ATOM      5  C   UNL A   1      41.468  20.695  26.531  1.00  0.00     0.060 A 
ATOM      6  C   UNL A   1      41.953  21.638  25.618  1.00  0.00     0.016 A 
ATOM      7  C   UNL A   1      41.448  21.035  27.886  1.00  0.00     0.016 A 
ATOM      8  C   UNL A   1      42.521  22.834  26.058  1.00  0.00     0.010 A 
ATOM      9  C   UNL A   1      42.009  22.240  28.332  1.00  0.00     0.010 A 
ATOM     10  C   UNL A   1      42.569  23.140  27.423  1.00  0.00    -0.014 A 
BRANCH  10  11
ATOM     11  C   UNL A   1      43.007  24.488  27.848  1.00  0.00     0.031 A 
ATOM     12  C   UNL A   1      44.447  24.895  27.915  1.00  0.00     0.074 A 
ATOM     13  C   UNL A   1      42.045  25.368  28.174  1.00  0.00     0.049 A 
ATOM     14  N   UNL A   1      44.959  26.096  28.005  1.00  0.00    -0.248 NA
ATOM     15  C   UNL A   1      45.445  23.824  27.864  1.00  0.00     0.031 C 
ATOM     16  C   UNL A   1      40.611  25.071  28.192  1.00  0.00     0.029 A 
ATOM     17  N   UNL A   1      42.124  26.681  28.543  1.00  0.00    -0.354 N 
ATOM     18  C   UNL A   1      46.336  25.931  27.932  1.00  0.00     0.074 A 
ATOM     19  C   UNL A   1      46.582  24.507  27.851  1.00  0.00     0.031 C 
ATOM     20  C   UNL A   1      39.941  26.180  28.533  1.00  0.00     0.029 A 
ATOM     21  C   UNL A   1      40.899  27.250  28.781  1.00  0.00     0.049 A 
ATOM     22  H   UNL A   1      42.974  27.170  28.631  1.00  0.00     0.167 HD
ATOM     23  C   UNL A   1      47.301  26.883  27.933  1.00  0.00     0.037 A 
ATOM     24  C   UNL A   1      40.584  28.500  29.157  1.00  0.00     0.037 A 
ATOM     25  C   UNL A   1      47.049  28.279  28.194  1.00  0.00     0.049 A 
ATOM     26  C   UNL A   1      41.684  29.503  29.314  1.00  0.00     0.074 A 
ATOM     27  C   UNL A   1      47.947  29.333  28.243  1.00  0.00     0.029 A 
ATOM     28  N   UNL A   1      45.807  28.802  28.528  1.00  0.00    -0.354 N 
ATOM     29  N   UNL A   1      42.968  29.367  29.084  1.00  0.00    -0.248 NA
ATOM     30  C   UNL A   1      41.287  30.836  29.778  1.00  0.00     0.031 C 
ATOM     31  C   UNL A   1      47.262  30.469  28.696  1.00  0.00     0.029 A 
ATOM     32  C   UNL A   1      45.926  30.142  28.862  1.00  0.00     0.049 A 
ATOM     33  H   UNL A   1      44.964  28.294  28.529  1.00  0.00     0.167 HD
ATOM     34  C   UNL A   1      43.534  30.602  29.359  1.00  0.00     0.074 A 
ATOM     35  C   UNL A   1      42.445  31.478  29.748  1.00  0.00     0.031 C 
ATOM     36  C   UNL A   1      44.836  30.983  29.293  1.00  0.00     0.037 A 
BRANCH  23  37
ATOM     37  C   UNL A   1      48.714  26.433  27.690  1.00  0.00     0.057 A 
ATOM     38  C   UNL A   1      49.559  26.085  28.751  1.00  0.00     0.134 A 
ATOM     39  C   UNL A   1      49.252  26.379  26.396  1.00  0.00     0.134 A 
ATOM     40  F   UNL A   1      49.110  26.115  30.015  1.00  0.00    -0.206 F 
ATOM     41  C   UNL A   1      50.884  25.700  28.536  1.00  0.00     0.040 A 
ATOM     42  C   UNL A   1      50.572  25.979  26.166  1.00  0.00     0.040 A 
ATOM     43  F   UNL A   1      48.497  26.690  25.330  1.00  0.00    -0.206 F 
ATOM     44  C   UNL A   1      51.394  25.642  27.240  1.00  0.00     0.006 A 
ENDBRANCH  23  37
BRANCH  24  45
ATOM     45  C   UNL A   1      39.163  28.852  29.372  1.00  0.00     0.057 A 
ATOM     46  C   UNL A   1      38.393  29.430  28.353  1.00  0.00     0.134 A 
ATOM     47  C   UNL A   1      38.557  28.673  30.619  1.00  0.00     0.134 A 
ATOM     48  F   UNL A   1      38.925  29.638  27.140  1.00  0.00    -0.206 F 
ATOM     49  C   UNL A   1      37.081  29.841  28.575  1.00  0.00     0.040 A 
ATOM     50  C   UNL A   1      37.236  29.056  30.848  1.00  0.00     0.040 A 
ATOM     51  F   UNL A   1      39.240  28.112  31.628  1.00  0.00    -0.206 F 
ATOM     52  C   UNL A   1      36.497  29.651  29.826  1.00  0.00     0.006 A 
ENDBRANCH  24  45
BRANCH  36  53
ATOM     53  C   UNL A   1      45.126  32.406  29.666  1.00  0.00     0.057 A 
ATOM     54  C   UNL A   1      45.024  33.431  28.718  1.00  0.00     0.134 A 
ATOM     55  C   UNL A   1      45.457  32.772  30.979  1.00  0.00     0.134 A 
ATOM     56  F   UNL A   1      44.720  33.151  27.441  1.00  0.00    -0.206 F 
ATOM     57  C   UNL A   1      45.220  34.768  29.065  1.00  0.00     0.040 A 
ATOM     58  C   UNL A   1      45.623  34.107  31.346  1.00  0.00     0.040 A 
ATOM     59  F   UNL A   1      45.554  31.839  31.941  1.00  0.00    -0.206 F 
ATOM     60  C   UNL A   1      45.503  35.110  30.386  1.00  0.00     0.006 A 
ENDBRANCH  36  53
ENDBRANCH  10  11
ENDBRANCH   3   5
ENDBRANCH   2   3
ENDBRANCH   1   2
BRANCH   1  61
ATOM     61  C   UNL A   1      38.367  21.304  25.589  1.00  0.00     0.275 C 
BRANCH  61  62
ATOM     62  O   UNL A   1      37.655  22.170  24.688  1.00  0.00    -0.458 OA
BRANCH  62  63
ATOM     63  C   UNL A   1      36.699  22.953  25.265  1.00  0.00     0.342 C 
ATOM     64  O   UNL A   1      36.887  23.902  26.003  1.00  0.00    -0.246 OA
BRANCH  63  65
ATOM     65  C   UNL A   1      35.363  22.510  24.807  1.00  0.00     0.102 A 
ATOM     66  C   UNL A   1      35.071  21.134  24.849  1.00  0.00     0.028 A 
ATOM     67  C   UNL A   1      34.397  23.414  24.352  1.00  0.00     0.130 A 
ATOM     68  C   UNL A   1      33.792  20.674  24.505  1.00  0.00    -0.017 A 
ATOM     69  C   UNL A   1      33.141  22.955  23.964  1.00  0.00     0.048 A 
ATOM     70  C   UNL A   1      32.832  21.598  24.063  1.00  0.00     0.012 A 
BRANCH  67  71
ATOM     71  O   UNL A   1      34.601  24.764  24.261  1.00  0.00    -0.507 OA
ATOM     72  H   UNL A   1      34.311  25.329  24.950  1.00  0.00     0.293 HD
ENDBRANCH  67  71
BRANCH  68  73
ATOM     73  C   UNL A   1      33.410  19.250  24.580  1.00  0.00    -0.011 A 
ATOM     74  C   UNL A   1      32.682  18.716  25.715  1.00  0.00     0.027 A 
ATOM     75  C   UNL A   1      33.831  18.397  23.629  1.00  0.00     0.080 A 
ATOM     76  C   UNL A   1      32.474  17.401  25.837  1.00  0.00     0.095 A 
ATOM     77  C   UNL A   1      33.594  16.929  23.740  1.00  0.00     0.255 A 
ATOM     78  N   UNL A   1      32.926  16.513  24.878  1.00  0.00    -0.258 N 
ATOM     79  O   UNL A   1      34.018  16.199  22.850  1.00  0.00    -0.269 OA
BRANCH  78  80
ATOM     80  C   UNL A   1      32.738  15.095  25.044  1.00  0.00     0.451 C 
ATOM     81  F   UNL A   1      33.714  14.556  25.813  1.00  0.00    -0.185 F 
ATOM     82  F   UNL A   1      31.546  14.830  25.633  1.00  0.00    -0.185 F 
ENDBRANCH  78  80
ENDBRANCH  68  73
ENDBRANCH  63  65
ENDBRANCH  62  63
ENDBRANCH  61  62
ENDBRANCH   1  61
TORSDOF 14
ENDMDL
MODEL 2
REMARK VINA RESULT:     -11.8      3.239      7.970
REMARK SMILES O=C(OCCOC(=O)c1cc(-c2ccn(C(F)F)c(=O)c2)ccc1O)c1ccc(-c2c3nc(c(-c4c(F)cccc4F)c4ccc([nH]4)c(-c4c(F)cccc4F)c4nc(c(-c5c(F)cccc5F)c5ccc2[nH]5)C=C4)C=C3)cc1
REMARK SMILES IDX 4 1 3 2 2 3 1 4 26 5 27 6 79 7 28 8 78 9 29 10 30 11 31 12
REMARK SMILES IDX 72 13 32 14 77 15 71 16 73 17 33 18 76 19 70 20 69 21 34 23
REMARK SMILES IDX 60 24 43 25 59 26 44 27 47 28 58 29 74 30 45 31 46 32 57 34
REMARK SMILES IDX 75 35 48 36 35 37 36 38 41 39 37 40 38 41 40 42 42 43 39 44
REMARK SMILES IDX 61 45 62 46 67 47 63 48 64 49 66 50 68 51 65 52 49 53 50 54
REMARK SMILES IDX 55 55 51 56 52 57 54 58 56 59 53 60 5 61 6 62 7 63 8 64 9 65
REMARK SMILES IDX 10 66 24 67 11 68 23 69 22 70 25 71 12 73 13 74 21 75 14 76
REMARK SMILES IDX 19 77 15 78 20 79 16 80 17 81 18 82
REMARK H PARENT 73 22 47 33 25 72
REMARK Flexibility Score: inf
ROOT
ATOM      1  C   UNL A   1      33.219  28.427  27.258  1.00  0.00     0.275 C 
ENDROOT
BRANCH   1   2
ATOM      2  O   UNL A   1      33.839  29.710  27.089  1.00  0.00    -0.458 OA
BRANCH   2   3
ATOM      3  C   UNL A   1      34.527  30.408  28.025  1.00  0.00     0.338 C 
ATOM      4  O   UNL A   1      34.118  31.503  28.402  1.00  0.00    -0.246 OA
BRANCH   3   5
ATOM      5  C   UNL A   1      35.906  29.999  28.414  1.00  0.00     0.060 A 
ATOM      6  C   UNL A   1      36.875  30.098  27.410  1.00  0.00     0.016 A 
ATOM      7  C   UNL A   1      36.305  29.557  29.678  1.00  0.00     0.016 A 
ATOM      8  C   UNL A   1      38.178  29.647  27.626  1.00  0.00     0.010 A 
ATOM      9  C   UNL A   1      37.615  29.112  29.903  1.00  0.00     0.010 A 
ATOM     10  C   UNL A   1      38.557  29.134  28.873  1.00  0.00    -0.014 A 
BRANCH  10  11
ATOM     11  C   UNL A   1      39.983  28.836  29.129  1.00  0.00     0.031 A 
ATOM     12  C   UNL A   1      40.895  29.773  29.862  1.00  0.00     0.074 A 
ATOM     13  C   UNL A   1      40.451  27.660  28.678  1.00  0.00     0.049 A 
ATOM     14  N   UNL A   1      42.070  29.534  30.386  1.00  0.00    -0.248 NA
ATOM     15  C   UNL A   1      40.429  31.150  30.041  1.00  0.00     0.031 C 
ATOM     16  C   UNL A   1      39.670  26.687  27.911  1.00  0.00     0.029 A 
ATOM     17  N   UNL A   1      41.684  27.082  28.804  1.00  0.00    -0.354 N 
ATOM     18  C   UNL A   1      42.444  30.705  31.033  1.00  0.00     0.074 A 
ATOM     19  C   UNL A   1      41.397  31.673  30.784  1.00  0.00     0.031 C 
ATOM     20  C   UNL A   1      40.437  25.619  27.653  1.00  0.00     0.029 A 
ATOM     21  C   UNL A   1      41.763  25.848  28.212  1.00  0.00     0.049 A 
ATOM     22  H   UNL A   1      42.438  27.508  29.271  1.00  0.00     0.167 HD
ATOM     23  C   UNL A   1      43.558  30.945  31.766  1.00  0.00     0.037 A 
ATOM     24  C   UNL A   1      42.795  24.993  28.131  1.00  0.00     0.037 A 
ATOM     25  C   UNL A   1      44.671  30.032  31.854  1.00  0.00     0.049 A 
ATOM     26  C   UNL A   1      44.081  25.349  28.811  1.00  0.00     0.074 A 
ATOM     27  C   UNL A   1      45.862  30.173  32.547  1.00  0.00     0.029 A 
ATOM     28  N   UNL A   1      44.758  28.833  31.159  1.00  0.00    -0.354 N 
ATOM     29  N   UNL A   1      44.362  26.391  29.555  1.00  0.00    -0.248 NA
ATOM     30  C   UNL A   1      45.188  24.404  28.643  1.00  0.00     0.031 C 
ATOM     31  C   UNL A   1      46.700  29.106  32.196  1.00  0.00     0.029 A 
ATOM     32  C   UNL A   1      46.007  28.263  31.341  1.00  0.00     0.049 A 
ATOM     33  H   UNL A   1      44.035  28.443  30.615  1.00  0.00     0.167 HD
ATOM     34  C   UNL A   1      45.677  26.222  29.961  1.00  0.00     0.074 A 
ATOM     35  C   UNL A   1      46.124  24.962  29.397  1.00  0.00     0.031 C 
ATOM     36  C   UNL A   1      46.447  27.031  30.732  1.00  0.00     0.037 A 
BRANCH  23  37
ATOM     37  C   UNL A   1      43.641  32.262  32.486  1.00  0.00     0.057 A 
ATOM     38  C   UNL A   1      44.204  33.389  31.876  1.00  0.00     0.134 A 
ATOM     39  C   UNL A   1      43.190  32.404  33.806  1.00  0.00     0.134 A 
ATOM     40  F   UNL A   1      44.657  33.325  30.614  1.00  0.00    -0.206 F 
ATOM     41  C   UNL A   1      44.317  34.607  32.550  1.00  0.00     0.040 A 
ATOM     42  C   UNL A   1      43.282  33.621  34.487  1.00  0.00     0.040 A 
ATOM     43  F   UNL A   1      42.631  31.367  34.450  1.00  0.00    -0.206 F 
ATOM     44  C   UNL A   1      43.852  34.727  33.858  1.00  0.00     0.006 A 
ENDBRANCH  23  37
BRANCH  24  45
ATOM     45  C   UNL A   1      42.620  23.717  27.401  1.00  0.00     0.057 A 
ATOM     46  C   UNL A   1      42.322  22.526  28.077  1.00  0.00     0.134 A 
ATOM     47  C   UNL A   1      42.805  23.648  26.017  1.00  0.00     0.134 A 
ATOM     48  F   UNL A   1      42.147  22.530  29.407  1.00  0.00    -0.206 F 
ATOM     49  C   UNL A   1      42.239  21.308  27.406  1.00  0.00     0.040 A 
ATOM     50  C   UNL A   1      42.699  22.439  25.329  1.00  0.00     0.040 A 
ATOM     51  F   UNL A   1      43.079  24.757  25.316  1.00  0.00    -0.206 F 
ATOM     52  C   UNL A   1      42.425  21.263  26.026  1.00  0.00     0.006 A 
ENDBRANCH  24  45
BRANCH  36  53
ATOM     53  C   UNL A   1      47.849  26.561  30.985  1.00  0.00     0.057 A 
ATOM     54  C   UNL A   1      48.139  25.721  32.067  1.00  0.00     0.134 A 
ATOM     55  C   UNL A   1      48.906  26.898  30.127  1.00  0.00     0.134 A 
ATOM     56  F   UNL A   1      47.177  25.366  32.932  1.00  0.00    -0.206 F 
ATOM     57  C   UNL A   1      49.423  25.216  32.275  1.00  0.00     0.040 A 
ATOM     58  C   UNL A   1      50.187  26.374  30.306  1.00  0.00     0.040 A 
ATOM     59  F   UNL A   1      48.692  27.686  29.061  1.00  0.00    -0.206 F 
ATOM     60  C   UNL A   1      50.447  25.530  31.382  1.00  0.00     0.006 A 
ENDBRANCH  36  53
ENDBRANCH  10  11
ENDBRANCH   3   5
ENDBRANCH   2   3
ENDBRANCH   1   2
BRANCH   1  61
ATOM     61  C   UNL A   1      31.690  28.453  27.354  1.00  0.00     0.275 C 
BRANCH  61  62
ATOM     62  O   UNL A   1      31.055  27.169  27.238  1.00  0.00    -0.458 OA
BRANCH  62  63
ATOM     63  C   UNL A   1      31.095  26.609  25.996  1.00  0.00     0.342 C 
ATOM     64  O   UNL A   1      30.933  27.183  24.935  1.00  0.00    -0.246 OA
BRANCH  63  65
ATOM     65  C   UNL A   1      31.433  25.173  26.117  1.00  0.00     0.102 A 
ATOM     66  C   UNL A   1      32.750  24.775  25.819  1.00  0.00     0.028 A 
ATOM     67  C   UNL A   1      30.493  24.221  26.525  1.00  0.00     0.130 A 
ATOM     68  C   UNL A   1      33.140  23.440  25.998  1.00  0.00    -0.017 A 
ATOM     69  C   UNL A   1      30.866  22.886  26.657  1.00  0.00     0.048 A 
ATOM     70  C   UNL A   1      32.186  22.502  26.420  1.00  0.00     0.012 A 
BRANCH  67  71
ATOM     71  O   UNL A   1      29.189  24.515  26.817  1.00  0.00    -0.507 OA
ATOM     72  H   UNL A   1      28.540  23.840  26.798  1.00  0.00     0.293 HD
ENDBRANCH  67  71
BRANCH  68  73
ATOM     73  C   UNL A   1      34.520  22.973  25.753  1.00  0.00    -0.011 A 
ATOM     74  C   UNL A   1      34.817  21.577  25.503  1.00  0.00     0.027 A 
ATOM     75  C   UNL A   1      35.545  23.838  25.865  1.00  0.00     0.080 A 
ATOM     76  C   UNL A   1      36.082  21.148  25.431  1.00  0.00     0.095 A 
ATOM     77  C   UNL A   1      36.961  23.381  25.770  1.00  0.00     0.255 A 
ATOM     78  N   UNL A   1      37.142  22.024  25.570  1.00  0.00    -0.258 N 
ATOM     79  O   UNL A   1      37.853  24.213  25.898  1.00  0.00    -0.269 OA
BRANCH  78  80
ATOM     80  C   UNL A   1      38.499  21.544  25.538  1.00  0.00     0.451 C 
ATOM     81  F   UNL A   1      39.123  21.750  26.723  1.00  0.00    -0.185 F 
ATOM     82  F   UNL A   1      38.538  20.216  25.269  1.00  0.00    -0.185 F 
ENDBRANCH  78  80
ENDBRANCH  68  73
ENDBRANCH  63  65
ENDBRANCH  62  63
ENDBRANCH  61  62
ENDBRANCH   1  61
TORSDOF 14
ENDMDL
MODEL 3
REMARK VINA RESULT:     -11.8      5.614     10.329
REMARK SMILES O=C(OCCOC(=O)c1cc(-c2ccn(C(F)F)c(=O)c2)ccc1O)c1ccc(-c2c3nc(c(-c4c(F)cccc4F)c4ccc([nH]4)c(-c4c(F)cccc4F)c4nc(c(-c5c(F)cccc5F)c5ccc2[nH]5)C=C4)C=C3)cc1
REMARK SMILES IDX 4 1 3 2 2 3 1 4 26 5 27 6 79 7 28 8 78 9 29 10 30 11 31 12
REMARK SMILES IDX 72 13 32 14 77 15 71 16 73 17 33 18 76 19 70 20 69 21 34 23
REMARK SMILES IDX 60 24 43 25 59 26 44 27 47 28 58 29 74 30 45 31 46 32 57 34
REMARK SMILES IDX 75 35 48 36 35 37 36 38 41 39 37 40 38 41 40 42 42 43 39 44
REMARK SMILES IDX 61 45 62 46 67 47 63 48 64 49 66 50 68 51 65 52 49 53 50 54
REMARK SMILES IDX 55 55 51 56 52 57 54 58 56 59 53 60 5 61 6 62 7 63 8 64 9 65
REMARK SMILES IDX 10 66 24 67 11 68 23 69 22 70 25 71 12 73 13 74 21 75 14 76
REMARK SMILES IDX 19 77 15 78 20 79 16 80 17 81 18 82
REMARK H PARENT 73 22 47 33 25 72
REMARK Flexibility Score: inf
ROOT
ATOM      1  C   UNL A   1      34.758  33.152  28.012  1.00  0.00     0.275 C 
ENDROOT
BRANCH   1   2
ATOM      2  O   UNL A   1      34.155  31.876  28.268  1.00  0.00    -0.458 OA
BRANCH   2   3
ATOM      3  C   UNL A   1      34.622  30.665  27.878  1.00  0.00     0.338 C 
ATOM      4  O   UNL A   1      33.874  29.864  27.324  1.00  0.00    -0.246 OA
BRANCH   3   5
ATOM      5  C   UNL A   1      35.953  30.181  28.343  1.00  0.00     0.060 A 
ATOM      6  C   UNL A   1      36.982  30.232  27.398  1.00  0.00     0.016 A 
ATOM      7  C   UNL A   1      36.254  29.714  29.625  1.00  0.00     0.016 A 
ATOM      8  C   UNL A   1      38.245  29.712  27.685  1.00  0.00     0.010 A 
ATOM      9  C   UNL A   1      37.523  29.200  29.922  1.00  0.00     0.010 A 
ATOM     10  C   UNL A   1      38.523  29.175  28.948  1.00  0.00    -0.014 A 
BRANCH  10  11
ATOM     11  C   UNL A   1      39.915  28.801  29.284  1.00  0.00     0.031 A 
ATOM     12  C   UNL A   1      40.509  27.471  28.936  1.00  0.00     0.074 A 
ATOM     13  C   UNL A   1      40.656  29.721  29.925  1.00  0.00     0.049 A 
ATOM     14  N   UNL A   1      41.767  27.110  28.925  1.00  0.00    -0.248 NA
ATOM     15  C   UNL A   1      39.580  26.410  28.538  1.00  0.00     0.031 C 
ATOM     16  C   UNL A   1      40.171  31.033  30.358  1.00  0.00     0.029 A 
ATOM     17  N   UNL A   1      41.966  29.697  30.315  1.00  0.00    -0.354 N 
ATOM     18  C   UNL A   1      41.787  25.810  28.435  1.00  0.00     0.074 A 
ATOM     19  C   UNL A   1      40.410  25.424  28.217  1.00  0.00     0.031 C 
ATOM     20  C   UNL A   1      41.179  31.700  30.936  1.00  0.00     0.029 A 
ATOM     21  C   UNL A   1      42.365  30.854  30.935  1.00  0.00     0.049 A 
ATOM     22  H   UNL A   1      42.563  28.929  30.167  1.00  0.00     0.167 HD
ATOM     23  C   UNL A   1      42.860  25.018  28.191  1.00  0.00     0.037 A 
ATOM     24  C   UNL A   1      43.559  31.193  31.447  1.00  0.00     0.037 A 
ATOM     25  C   UNL A   1      44.207  25.350  28.581  1.00  0.00     0.049 A 
ATOM     26  C   UNL A   1      44.699  30.231  31.314  1.00  0.00     0.074 A 
ATOM     27  C   UNL A   1      45.371  24.619  28.408  1.00  0.00     0.029 A 
ATOM     28  N   UNL A   1      44.558  26.487  29.296  1.00  0.00    -0.354 N 
ATOM     29  N   UNL A   1      44.736  29.072  30.704  1.00  0.00    -0.248 NA
ATOM     30  C   UNL A   1      45.963  30.632  31.938  1.00  0.00     0.031 C 
ATOM     31  C   UNL A   1      46.402  25.270  29.098  1.00  0.00     0.029 A 
ATOM     32  C   UNL A   1      45.900  26.441  29.641  1.00  0.00     0.049 A 
ATOM     33  H   UNL A   1      43.942  27.220  29.526  1.00  0.00     0.167 HD
ATOM     34  C   UNL A   1      46.034  28.607  30.854  1.00  0.00     0.074 A 
ATOM     35  C   UNL A   1      46.754  29.628  31.593  1.00  0.00     0.031 C 
ATOM     36  C   UNL A   1      46.585  27.445  30.418  1.00  0.00     0.037 A 
BRANCH  23  37
ATOM     37  C   UNL A   1      42.604  23.700  27.514  1.00  0.00     0.057 A 
ATOM     38  C   UNL A   1      42.335  22.543  28.256  1.00  0.00     0.134 A 
ATOM     39  C   UNL A   1      42.658  23.571  26.119  1.00  0.00     0.134 A 
ATOM     40  F   UNL A   1      42.268  22.593  29.595  1.00  0.00    -0.206 F 
ATOM     41  C   UNL A   1      42.131  21.308  27.636  1.00  0.00     0.040 A 
ATOM     42  C   UNL A   1      42.440  22.344  25.486  1.00  0.00     0.040 A 
ATOM     43  F   UNL A   1      42.902  24.640  25.345  1.00  0.00    -0.206 F 
ATOM     44  C   UNL A   1      42.179  21.206  26.247  1.00  0.00     0.006 A 
ENDBRANCH  23  37
BRANCH  24  45
ATOM     45  C   UNL A   1      43.717  32.515  32.094  1.00  0.00     0.057 A 
ATOM     46  C   UNL A   1      43.610  32.661  33.484  1.00  0.00     0.134 A 
ATOM     47  C   UNL A   1      43.919  33.670  31.335  1.00  0.00     0.134 A 
ATOM     48  F   UNL A   1      43.402  31.590  34.263  1.00  0.00    -0.206 F 
ATOM     49  C   UNL A   1      43.673  33.914  34.092  1.00  0.00     0.040 A 
ATOM     50  C   UNL A   1      44.011  34.927  31.932  1.00  0.00     0.040 A 
ATOM     51  F   UNL A   1      44.043  33.589  30.002  1.00  0.00    -0.206 F 
ATOM     52  C   UNL A   1      43.877  35.052  33.315  1.00  0.00     0.006 A 
ENDBRANCH  24  45
BRANCH  36  53
ATOM     53  C   UNL A   1      48.032  27.236  30.754  1.00  0.00     0.057 A 
ATOM     54  C   UNL A   1      48.406  26.526  31.902  1.00  0.00     0.134 A 
ATOM     55  C   UNL A   1      49.058  27.693  29.914  1.00  0.00     0.134 A 
ATOM     56  F   UNL A   1      47.476  26.068  32.754  1.00  0.00    -0.206 F 
ATOM     57  C   UNL A   1      49.744  26.260  32.191  1.00  0.00     0.040 A 
ATOM     58  C   UNL A   1      50.397  27.406  30.175  1.00  0.00     0.040 A 
ATOM     59  F   UNL A   1      48.766  28.365  28.789  1.00  0.00    -0.206 F 
ATOM     60  C   UNL A   1      50.743  26.686  31.317  1.00  0.00     0.006 A 
ENDBRANCH  36  53
ENDBRANCH  10  11
ENDBRANCH   3   5
ENDBRANCH   2   3
ENDBRANCH   1   2
BRANCH   1  61
ATOM     61  C   UNL A   1      35.303  33.872  29.250  1.00  0.00     0.275 C 
BRANCH  61  62
ATOM     62  O   UNL A   1      35.410  33.053  30.427  1.00  0.00    -0.458 OA
BRANCH  62  63
ATOM     63  C   UNL A   1      34.724  33.505  31.516  1.00  0.00     0.342 C 
ATOM     64  O   UNL A   1      33.611  33.998  31.520  1.00  0.00    -0.246 OA
BRANCH  63  65
ATOM     65  C   UNL A   1      35.521  33.251  32.736  1.00  0.00     0.102 A 
ATOM     66  C   UNL A   1      36.448  32.191  32.713  1.00  0.00     0.028 A 
ATOM     67  C   UNL A   1      35.385  34.032  33.889  1.00  0.00     0.130 A 
ATOM     68  C   UNL A   1      37.284  31.963  33.816  1.00  0.00    -0.017 A 
ATOM     69  C   UNL A   1      36.181  33.777  35.002  1.00  0.00     0.048 A 
ATOM     70  C   UNL A   1      37.142  32.765  34.957  1.00  0.00     0.012 A 
BRANCH  67  71
ATOM     71  O   UNL A   1      34.499  35.068  34.005  1.00  0.00    -0.507 OA
ATOM     72  H   UNL A   1      34.518  35.619  34.763  1.00  0.00     0.293 HD
ENDBRANCH  67  71
BRANCH  68  73
ATOM     73  C   UNL A   1      38.311  30.902  33.830  1.00  0.00    -0.011 A 
ATOM     74  C   UNL A   1      39.654  31.149  34.318  1.00  0.00     0.027 A 
ATOM     75  C   UNL A   1      38.037  29.703  33.284  1.00  0.00     0.080 A 
ATOM     76  C   UNL A   1      40.611  30.224  34.188  1.00  0.00     0.095 A 
ATOM     77  C   UNL A   1      39.087  28.653  33.145  1.00  0.00     0.255 A 
ATOM     78  N   UNL A   1      40.346  28.999  33.605  1.00  0.00    -0.258 N 
ATOM     79  O   UNL A   1      38.781  27.586  32.624  1.00  0.00    -0.269 OA
BRANCH  78  80
ATOM     80  C   UNL A   1      41.395  28.029  33.427  1.00  0.00     0.451 C 
ATOM     81  F   UNL A   1      42.609  28.625  33.352  1.00  0.00    -0.185 F 
ATOM     82  F   UNL A   1      41.424  27.150  34.458  1.00  0.00    -0.185 F 
ENDBRANCH  78  80
ENDBRANCH  68  73
ENDBRANCH  63  65
ENDBRANCH  62  63
ENDBRANCH  61  62
ENDBRANCH   1  61
TORSDOF 14
ENDMDL
