MODEL 1
REMARK VINA RESULT:     -12.7      0.000      0.000
REMARK SMILES CCc1ccc(-c2cc(Cl)cc3c2O[C@H](C(F)(F)F)C(C(=O)OCCOC(=O)c2ccc(-c4c5nc(c(-c6c(F)cccc6F)c6ccc([nH]6)c(-c6c(F)cccc6F)c6nc(c(-c7c(F)cccc7F)c7ccc4[nH]7)C=C6)C=C5)cc2)=C3)cc1
REMARK SMILES IDX 24 1 23 2 21 3 22 4 20 5 7 6 8 7 13 8 9 9 12 10 14 11 10 12
REMARK SMILES IDX 11 13 83 14 15 15 6 16 3 17 4 18 85 19 5 20 84 21 2 22 1 23
REMARK SMILES IDX 16 24 17 25 18 26 19 27 25 28 26 29 27 30 28 31 29 32 30 33
REMARK SMILES IDX 82 34 31 35 81 36 32 37 33 38 34 39 75 40 35 41 80 42 74 43
REMARK SMILES IDX 76 44 36 45 79 46 73 47 72 48 37 50 63 51 46 52 62 53 47 54
REMARK SMILES IDX 50 55 61 56 77 57 48 58 49 59 60 61 78 62 51 63 38 64 39 65
REMARK SMILES IDX 44 66 40 67 41 68 43 69 45 70 42 71 64 72 65 73 70 74 66 75
REMARK SMILES IDX 67 76 69 77 71 78 68 79 52 80 53 81 58 82 54 83 55 84 57 85
REMARK SMILES IDX 59 86 56 87
REMARK H PARENT 76 49 50 60
REMARK Flexibility Score: inf
ROOT
ATOM      1  C   UNL A   1      31.021  28.878  24.399  1.00  0.00     0.275 C 
ENDROOT
BRANCH   1   2
ATOM      2  O   UNL A   1      30.699  27.681  25.155  1.00  0.00    -0.459 OA
BRANCH   2   3
ATOM      3  C   UNL A   1      30.572  26.570  24.383  1.00  0.00     0.338 C 
ATOM      4  O   UNL A   1      29.497  26.063  24.078  1.00  0.00    -0.246 OA
BRANCH   3   5
ATOM      5  C   UNL A   1      31.862  25.990  23.914  1.00  0.00     0.087 C 
ATOM      6  C   UNL A   1      32.161  21.983  24.311  1.00  0.00     0.026 A 
ATOM      7  C   UNL A   1      31.210  21.790  25.344  1.00  0.00     0.033 A 
ATOM      8  C   UNL A   1      32.501  23.321  24.099  1.00  0.00     0.135 A 
ATOM      9  C   UNL A   1      30.815  22.795  26.230  1.00  0.00     0.042 A 
ATOM     10  C   UNL A   1      32.310  24.254  25.150  1.00  0.00     0.019 A 
ATOM     11  O   UNL A   1      32.770  23.875  22.848  1.00  0.00    -0.475 OA
ATOM     12  Cl  UNL A   1      29.492  22.659  27.312  1.00  0.00    -0.084 Cl
ATOM     13  C   UNL A   1      31.480  23.991  26.224  1.00  0.00     0.032 A 
ATOM     14  C   UNL A   1      32.690  25.659  24.920  1.00  0.00     0.027 C 
ATOM     15  C   UNL A   1      32.038  25.190  22.634  1.00  0.00     0.316 C 
BRANCH   6  16
ATOM     16  C   UNL A   1      32.803  20.712  23.832  1.00  0.00    -0.015 A 
ATOM     17  C   UNL A   1      33.445  17.893  23.971  1.00  0.00    -0.048 A 
ATOM     18  C   UNL A   1      32.478  18.393  23.082  1.00  0.00     0.004 A 
ATOM     19  C   UNL A   1      34.182  18.833  24.689  1.00  0.00     0.004 A 
ATOM     20  C   UNL A   1      32.191  19.780  22.985  1.00  0.00     0.009 A 
ATOM     21  C   UNL A   1      33.868  20.206  24.616  1.00  0.00     0.009 A 
BRANCH  17  22
ATOM     22  C   UNL A   1      33.583  16.389  24.154  1.00  0.00     0.032 C 
ATOM     23  C   UNL A   1      32.780  15.723  25.271  1.00  0.00     0.009 C 
ENDBRANCH  17  22
ENDBRANCH   6  16
BRANCH  15  24
ATOM     24  C   UNL A   1      32.821  26.108  21.685  1.00  0.00     0.430 C 
ATOM     25  F   UNL A   1      34.123  26.211  22.049  1.00  0.00    -0.167 F 
ATOM     26  F   UNL A   1      32.785  25.678  20.406  1.00  0.00    -0.167 F 
ATOM     27  F   UNL A   1      32.313  27.367  21.695  1.00  0.00    -0.167 F 
ENDBRANCH  15  24
ENDBRANCH   3   5
ENDBRANCH   2   3
ENDBRANCH   1   2
BRANCH   1  28
ATOM     28  C   UNL A   1      32.384  29.483  24.750  1.00  0.00     0.275 C 
BRANCH  28  29
ATOM     29  O   UNL A   1      32.673  29.393  26.157  1.00  0.00    -0.458 OA
BRANCH  29  30
ATOM     30  C   UNL A   1      32.833  30.594  26.762  1.00  0.00     0.338 C 
ATOM     31  O   UNL A   1      31.977  31.467  26.860  1.00  0.00    -0.246 OA
BRANCH  30  32
ATOM     32  C   UNL A   1      34.153  30.705  27.428  1.00  0.00     0.060 A 
ATOM     33  C   UNL A   1      34.713  29.515  27.879  1.00  0.00     0.016 A 
ATOM     34  C   UNL A   1      34.845  31.906  27.645  1.00  0.00     0.016 A 
ATOM     35  C   UNL A   1      35.967  29.527  28.488  1.00  0.00     0.010 A 
ATOM     36  C   UNL A   1      36.121  31.901  28.262  1.00  0.00     0.010 A 
ATOM     37  C   UNL A   1      36.719  30.701  28.664  1.00  0.00    -0.014 A 
BRANCH  37  38
ATOM     38  C   UNL A   1      38.084  30.561  29.295  1.00  0.00     0.031 A 
ATOM     39  C   UNL A   1      38.273  30.995  30.719  1.00  0.00     0.074 A 
ATOM     40  C   UNL A   1      39.094  29.865  28.726  1.00  0.00     0.049 A 
ATOM     41  N   UNL A   1      39.292  30.793  31.515  1.00  0.00    -0.248 NA
ATOM     42  C   UNL A   1      37.170  31.755  31.327  1.00  0.00     0.031 C 
ATOM     43  C   UNL A   1      39.073  29.336  27.378  1.00  0.00     0.029 A 
ATOM     44  N   UNL A   1      40.291  29.389  29.224  1.00  0.00    -0.354 N 
ATOM     45  C   UNL A   1      38.954  31.395  32.714  1.00  0.00     0.074 A 
ATOM     46  C   UNL A   1      37.623  31.944  32.555  1.00  0.00     0.031 C 
ATOM     47  C   UNL A   1      40.062  28.445  27.215  1.00  0.00     0.029 A 
ATOM     48  C   UNL A   1      40.930  28.494  28.384  1.00  0.00     0.049 A 
ATOM     49  H   UNL A   1      40.656  29.660  30.098  1.00  0.00     0.167 HD
ATOM     50  C   UNL A   1      39.699  31.520  33.835  1.00  0.00     0.037 A 
ATOM     51  C   UNL A   1      42.101  27.827  28.503  1.00  0.00     0.037 A 
ATOM     52  C   UNL A   1      41.053  31.062  33.984  1.00  0.00     0.049 A 
ATOM     53  C   UNL A   1      42.976  28.132  29.690  1.00  0.00     0.074 A 
ATOM     54  C   UNL A   1      41.898  31.229  35.067  1.00  0.00     0.029 A 
ATOM     55  N   UNL A   1      41.771  30.376  33.019  1.00  0.00    -0.354 N 
ATOM     56  N   UNL A   1      42.685  28.799  30.780  1.00  0.00    -0.248 NA
ATOM     57  C   UNL A   1      44.365  27.647  29.639  1.00  0.00     0.031 C 
ATOM     58  C   UNL A   1      43.142  30.681  34.741  1.00  0.00     0.029 A 
ATOM     59  C   UNL A   1      43.052  30.114  33.481  1.00  0.00     0.049 A 
ATOM     60  H   UNL A   1      41.425  30.113  32.136  1.00  0.00     0.167 HD
ATOM     61  C   UNL A   1      43.845  28.806  31.543  1.00  0.00     0.074 A 
ATOM     62  C   UNL A   1      44.840  28.056  30.808  1.00  0.00     0.031 C 
ATOM     63  C   UNL A   1      44.057  29.387  32.747  1.00  0.00     0.037 A 
BRANCH  50  64
ATOM     64  C   UNL A   1      39.070  32.276  34.960  1.00  0.00     0.057 A 
ATOM     65  C   UNL A   1      39.163  33.668  35.054  1.00  0.00     0.134 A 
ATOM     66  C   UNL A   1      38.395  31.592  35.979  1.00  0.00     0.134 A 
ATOM     67  F   UNL A   1      39.829  34.370  34.124  1.00  0.00    -0.206 F 
ATOM     68  C   UNL A   1      38.622  34.357  36.140  1.00  0.00     0.040 A 
ATOM     69  C   UNL A   1      37.832  32.271  37.056  1.00  0.00     0.040 A 
ATOM     70  F   UNL A   1      38.287  30.255  35.945  1.00  0.00    -0.206 F 
ATOM     71  C   UNL A   1      37.950  33.657  37.142  1.00  0.00     0.006 A 
ENDBRANCH  50  64
BRANCH  51  72
ATOM     72  C   UNL A   1      42.599  26.893  27.445  1.00  0.00     0.057 A 
ATOM     73  C   UNL A   1      43.334  27.362  26.345  1.00  0.00     0.134 A 
ATOM     74  C   UNL A   1      42.277  25.530  27.447  1.00  0.00     0.134 A 
ATOM     75  F   UNL A   1      43.644  28.663  26.240  1.00  0.00    -0.206 F 
ATOM     76  C   UNL A   1      43.712  26.519  25.293  1.00  0.00     0.040 A 
ATOM     77  C   UNL A   1      42.686  24.668  26.427  1.00  0.00     0.040 A 
ATOM     78  F   UNL A   1      41.543  25.008  28.442  1.00  0.00    -0.206 F 
ATOM     79  C   UNL A   1      43.397  25.164  25.338  1.00  0.00     0.006 A 
ENDBRANCH  51  72
BRANCH  63  80
ATOM     80  C   UNL A   1      45.410  29.215  33.373  1.00  0.00     0.057 A 
ATOM     81  C   UNL A   1      46.449  30.132  33.171  1.00  0.00     0.134 A 
ATOM     82  C   UNL A   1      45.661  28.133  34.229  1.00  0.00     0.134 A 
ATOM     83  F   UNL A   1      46.283  31.179  32.349  1.00  0.00    -0.206 F 
ATOM     84  C   UNL A   1      47.694  29.972  33.785  1.00  0.00     0.040 A 
ATOM     85  C   UNL A   1      46.891  27.979  34.871  1.00  0.00     0.040 A 
ATOM     86  F   UNL A   1      44.710  27.219  34.467  1.00  0.00    -0.206 F 
ATOM     87  C   UNL A   1      47.913  28.897  34.646  1.00  0.00     0.006 A 
ENDBRANCH  63  80
ENDBRANCH  37  38
ENDBRANCH  30  32
ENDBRANCH  29  30
ENDBRANCH  28  29
ENDBRANCH   1  28
TORSDOF 14
ENDMDL
MODEL 2
REMARK VINA RESULT:     -12.7      1.604      2.038
REMARK SMILES CCc1ccc(-c2cc(Cl)cc3c2O[C@H](C(F)(F)F)C(C(=O)OCCOC(=O)c2ccc(-c4c5nc(c(-c6c(F)cccc6F)c6ccc([nH]6)c(-c6c(F)cccc6F)c6nc(c(-c7c(F)cccc7F)c7ccc4[nH]7)C=C6)C=C5)cc2)=C3)cc1
REMARK SMILES IDX 24 1 23 2 21 3 22 4 20 5 7 6 8 7 13 8 9 9 12 10 14 11 10 12
REMARK SMILES IDX 11 13 83 14 15 15 6 16 3 17 4 18 85 19 5 20 84 21 2 22 1 23
REMARK SMILES IDX 16 24 17 25 18 26 19 27 25 28 26 29 27 30 28 31 29 32 30 33
REMARK SMILES IDX 82 34 31 35 81 36 32 37 33 38 34 39 75 40 35 41 80 42 74 43
REMARK SMILES IDX 76 44 36 45 79 46 73 47 72 48 37 50 63 51 46 52 62 53 47 54
REMARK SMILES IDX 50 55 61 56 77 57 48 58 49 59 60 61 78 62 51 63 38 64 39 65
REMARK SMILES IDX 44 66 40 67 41 68 43 69 45 70 42 71 64 72 65 73 70 74 66 75
REMARK SMILES IDX 67 76 69 77 71 78 68 79 52 80 53 81 58 82 54 83 55 84 57 85
REMARK SMILES IDX 59 86 56 87
REMARK H PARENT 76 49 50 60
REMARK Flexibility Score: inf
ROOT
ATOM      1  C   UNL A   1      33.581  28.910  24.403  1.00  0.00     0.275 C 
ENDROOT
BRANCH   1   2
ATOM      2  O   UNL A   1      33.558  27.580  23.821  1.00  0.00    -0.459 OA
BRANCH   2   3
ATOM      3  C   UNL A   1      33.389  26.591  24.737  1.00  0.00     0.338 C 
ATOM      4  O   UNL A   1      34.120  26.418  25.707  1.00  0.00    -0.246 OA
BRANCH   3   5
ATOM      5  C   UNL A   1      32.220  25.703  24.481  1.00  0.00     0.087 C 
ATOM      6  C   UNL A   1      33.081  21.759  24.371  1.00  0.00     0.026 A 
ATOM      7  C   UNL A   1      34.458  21.841  24.046  1.00  0.00     0.033 A 
ATOM      8  C   UNL A   1      32.395  22.969  24.234  1.00  0.00     0.135 A 
ATOM      9  C   UNL A   1      35.043  22.948  23.426  1.00  0.00     0.042 A 
ATOM     10  C   UNL A   1      32.923  23.965  23.373  1.00  0.00     0.019 A 
ATOM     11  O   UNL A   1      31.368  23.389  25.078  1.00  0.00    -0.475 OA
ATOM     12  Cl  UNL A   1      36.733  23.175  23.257  1.00  0.00    -0.084 Cl
ATOM     13  C   UNL A   1      34.240  23.951  22.954  1.00  0.00     0.032 A 
ATOM     14  C   UNL A   1      32.181  25.228  23.223  1.00  0.00     0.027 C 
ATOM     15  C   UNL A   1      31.550  24.829  25.529  1.00  0.00     0.316 C 
BRANCH   6  16
ATOM     16  C   UNL A   1      32.580  20.353  24.542  1.00  0.00    -0.015 A 
ATOM     17  C   UNL A   1      32.805  17.469  24.453  1.00  0.00    -0.048 A 
ATOM     18  C   UNL A   1      32.871  18.183  25.662  1.00  0.00     0.004 A 
ATOM     19  C   UNL A   1      32.489  18.199  23.309  1.00  0.00     0.004 A 
ATOM     20  C   UNL A   1      32.721  19.594  25.710  1.00  0.00     0.009 A 
ATOM     21  C   UNL A   1      32.377  19.605  23.357  1.00  0.00     0.009 A 
BRANCH  17  22
ATOM     22  C   UNL A   1      33.145  15.986  24.443  1.00  0.00     0.032 C 
ATOM     23  C   UNL A   1      32.591  15.113  25.569  1.00  0.00     0.009 C 
ENDBRANCH  17  22
ENDBRANCH   6  16
BRANCH  15  24
ATOM     24  C   UNL A   1      30.194  25.494  25.806  1.00  0.00     0.430 C 
ATOM     25  F   UNL A   1      30.340  26.693  26.422  1.00  0.00    -0.167 F 
ATOM     26  F   UNL A   1      29.479  25.696  24.679  1.00  0.00    -0.167 F 
ATOM     27  F   UNL A   1      29.432  24.725  26.627  1.00  0.00    -0.167 F 
ENDBRANCH  15  24
ENDBRANCH   3   5
ENDBRANCH   2   3
ENDBRANCH   1   2
BRANCH   1  28
ATOM     28  C   UNL A   1      32.279  29.298  25.110  1.00  0.00     0.275 C 
BRANCH  28  29
ATOM     29  O   UNL A   1      32.458  29.460  26.529  1.00  0.00    -0.458 OA
BRANCH  29  30
ATOM     30  C   UNL A   1      32.754  30.727  26.903  1.00  0.00     0.338 C 
ATOM     31  O   UNL A   1      31.999  31.691  26.831  1.00  0.00    -0.246 OA
BRANCH  30  32
ATOM     32  C   UNL A   1      34.086  30.815  27.548  1.00  0.00     0.060 A 
ATOM     33  C   UNL A   1      34.626  29.618  28.003  1.00  0.00     0.016 A 
ATOM     34  C   UNL A   1      34.808  32.002  27.741  1.00  0.00     0.016 A 
ATOM     35  C   UNL A   1      35.890  29.608  28.594  1.00  0.00     0.010 A 
ATOM     36  C   UNL A   1      36.093  31.976  28.338  1.00  0.00     0.010 A 
ATOM     37  C   UNL A   1      36.671  30.767  28.746  1.00  0.00    -0.014 A 
BRANCH  37  38
ATOM     38  C   UNL A   1      38.041  30.603  29.357  1.00  0.00     0.031 A 
ATOM     39  C   UNL A   1      38.257  31.032  30.779  1.00  0.00     0.074 A 
ATOM     40  C   UNL A   1      39.031  29.890  28.774  1.00  0.00     0.049 A 
ATOM     41  N   UNL A   1      39.283  30.812  31.560  1.00  0.00    -0.248 NA
ATOM     42  C   UNL A   1      37.176  31.811  31.403  1.00  0.00     0.031 C 
ATOM     43  C   UNL A   1      38.983  29.362  27.426  1.00  0.00     0.029 A 
ATOM     44  N   UNL A   1      40.226  29.393  29.255  1.00  0.00    -0.354 N 
ATOM     45  C   UNL A   1      38.973  31.419  32.764  1.00  0.00     0.074 A 
ATOM     46  C   UNL A   1      37.650  31.991  32.624  1.00  0.00     0.031 C 
ATOM     47  C   UNL A   1      39.954  28.455  27.249  1.00  0.00     0.029 A 
ATOM     48  C   UNL A   1      40.838  28.488  28.406  1.00  0.00     0.049 A 
ATOM     49  H   UNL A   1      40.608  29.657  30.124  1.00  0.00     0.167 HD
ATOM     50  C   UNL A   1      39.735  31.530  33.875  1.00  0.00     0.037 A 
ATOM     51  C   UNL A   1      41.999  27.801  28.509  1.00  0.00     0.037 A 
ATOM     52  C   UNL A   1      41.082  31.049  34.005  1.00  0.00     0.049 A 
ATOM     53  C   UNL A   1      42.895  28.090  29.684  1.00  0.00     0.074 A 
ATOM     54  C   UNL A   1      41.945  31.201  35.077  1.00  0.00     0.029 A 
ATOM     55  N   UNL A   1      41.776  30.352  33.030  1.00  0.00    -0.354 N 
ATOM     56  N   UNL A   1      42.631  28.761  30.778  1.00  0.00    -0.248 NA
ATOM     57  C   UNL A   1      44.275  27.581  29.614  1.00  0.00     0.031 C 
ATOM     58  C   UNL A   1      43.175  30.631  34.733  1.00  0.00     0.029 A 
ATOM     59  C   UNL A   1      43.058  30.067  33.475  1.00  0.00     0.049 A 
ATOM     60  H   UNL A   1      41.412  30.095  32.152  1.00  0.00     0.167 HD
ATOM     61  C   UNL A   1      43.802  28.747  31.525  1.00  0.00     0.074 A 
ATOM     62  C   UNL A   1      44.773  27.980  30.775  1.00  0.00     0.031 C 
ATOM     63  C   UNL A   1      44.040  29.324  32.726  1.00  0.00     0.037 A 
BRANCH  50  64
ATOM     64  C   UNL A   1      39.134  32.296  35.009  1.00  0.00     0.057 A 
ATOM     65  C   UNL A   1      39.251  33.687  35.101  1.00  0.00     0.134 A 
ATOM     66  C   UNL A   1      38.464  31.623  36.038  1.00  0.00     0.134 A 
ATOM     67  F   UNL A   1      39.914  34.378  34.161  1.00  0.00    -0.206 F 
ATOM     68  C   UNL A   1      38.737  34.384  36.195  1.00  0.00     0.040 A 
ATOM     69  C   UNL A   1      37.928  32.311  37.124  1.00  0.00     0.040 A 
ATOM     70  F   UNL A   1      38.335  30.288  36.006  1.00  0.00    -0.206 F 
ATOM     71  C   UNL A   1      38.069  33.695  37.207  1.00  0.00     0.006 A 
ENDBRANCH  50  64
BRANCH  51  72
ATOM     72  C   UNL A   1      42.466  26.859  27.443  1.00  0.00     0.057 A 
ATOM     73  C   UNL A   1      43.151  27.322  26.309  1.00  0.00     0.134 A 
ATOM     74  C   UNL A   1      42.161  25.492  27.475  1.00  0.00     0.134 A 
ATOM     75  F   UNL A   1      43.441  28.625  26.176  1.00  0.00    -0.206 F 
ATOM     76  C   UNL A   1      43.498  26.471  25.254  1.00  0.00     0.040 A 
ATOM     77  C   UNL A   1      42.540  24.622  26.450  1.00  0.00     0.040 A 
ATOM     78  F   UNL A   1      41.474  24.974  28.505  1.00  0.00    -0.206 F 
ATOM     79  C   UNL A   1      43.201  25.113  25.328  1.00  0.00     0.006 A 
ENDBRANCH  51  72
BRANCH  63  80
ATOM     80  C   UNL A   1      45.398  29.127  33.334  1.00  0.00     0.057 A 
ATOM     81  C   UNL A   1      46.443  30.040  33.139  1.00  0.00     0.134 A 
ATOM     82  C   UNL A   1      45.650  28.026  34.163  1.00  0.00     0.134 A 
ATOM     83  F   UNL A   1      46.276  31.106  32.342  1.00  0.00    -0.206 F 
ATOM     84  C   UNL A   1      47.693  29.857  33.736  1.00  0.00     0.040 A 
ATOM     85  C   UNL A   1      46.885  27.848  34.789  1.00  0.00     0.040 A 
ATOM     86  F   UNL A   1      44.694  27.114  34.392  1.00  0.00    -0.206 F 
ATOM     87  C   UNL A   1      47.913  28.763  34.571  1.00  0.00     0.006 A 
ENDBRANCH  63  80
ENDBRANCH  37  38
ENDBRANCH  30  32
ENDBRANCH  29  30
ENDBRANCH  28  29
ENDBRANCH   1  28
TORSDOF 14
ENDMDL
MODEL 3
REMARK VINA RESULT:     -12.6      2.381      3.583
REMARK SMILES CCc1ccc(-c2cc(Cl)cc3c2O[C@H](C(F)(F)F)C(C(=O)OCCOC(=O)c2ccc(-c4c5nc(c(-c6c(F)cccc6F)c6ccc([nH]6)c(-c6c(F)cccc6F)c6nc(c(-c7c(F)cccc7F)c7ccc4[nH]7)C=C6)C=C5)cc2)=C3)cc1
REMARK SMILES IDX 24 1 23 2 21 3 22 4 20 5 7 6 8 7 13 8 9 9 12 10 14 11 10 12
REMARK SMILES IDX 11 13 83 14 15 15 6 16 3 17 4 18 85 19 5 20 84 21 2 22 1 23
REMARK SMILES IDX 16 24 17 25 18 26 19 27 25 28 26 29 27 30 28 31 29 32 30 33
REMARK SMILES IDX 82 34 31 35 81 36 32 37 33 38 34 39 75 40 35 41 80 42 74 43
REMARK SMILES IDX 76 44 36 45 79 46 73 47 72 48 37 50 63 51 46 52 62 53 47 54
REMARK SMILES IDX 50 55 61 56 77 57 48 58 49 59 60 61 78 62 51 63 38 64 39 65
REMARK SMILES IDX 44 66 40 67 41 68 43 69 45 70 42 71 64 72 65 73 70 74 66 75
REMARK SMILES IDX 67 76 69 77 71 78 68 79 52 80 53 81 58 82 54 83 55 84 57 85
REMARK SMILES IDX 59 86 56 87
REMARK H PARENT 76 49 50 60
REMARK Flexibility Score: inf
ROOT
ATOM      1  C   UNL A   1      31.481  32.554  26.516  1.00  0.00     0.275 C 
ENDROOT
BRANCH   1   2
ATOM      2  O   UNL A   1      31.198  31.206  26.975  1.00  0.00    -0.459 OA
BRANCH   2   3
ATOM      3  C   UNL A   1      31.749  30.240  26.194  1.00  0.00     0.338 C 
ATOM      4  O   UNL A   1      31.494  30.089  25.003  1.00  0.00    -0.246 OA
BRANCH   3   5
ATOM      5  C   UNL A   1      32.715  29.350  26.898  1.00  0.00     0.087 C 
ATOM      6  C   UNL A   1      33.206  25.714  25.211  1.00  0.00     0.026 A 
ATOM      7  C   UNL A   1      31.975  25.624  24.515  1.00  0.00     0.033 A 
ATOM      8  C   UNL A   1      33.260  26.766  26.130  1.00  0.00     0.135 A 
ATOM      9  C   UNL A   1      30.835  26.354  24.860  1.00  0.00     0.042 A 
ATOM     10  C   UNL A   1      32.047  27.293  26.643  1.00  0.00     0.019 A 
ATOM     11  O   UNL A   1      34.400  27.523  26.391  1.00  0.00    -0.475 OA
ATOM     12  Cl  UNL A   1      29.427  26.455  23.888  1.00  0.00    -0.084 Cl
ATOM     13  C   UNL A   1      30.831  27.079  26.020  1.00  0.00     0.032 A 
ATOM     14  C   UNL A   1      32.117  28.389  27.624  1.00  0.00     0.027 C 
ATOM     15  C   UNL A   1      34.110  29.015  26.394  1.00  0.00     0.316 C 
BRANCH   6  16
ATOM     16  C   UNL A   1      34.101  24.522  25.020  1.00  0.00    -0.015 A 
ATOM     17  C   UNL A   1      34.711  21.694  24.968  1.00  0.00    -0.048 A 
ATOM     18  C   UNL A   1      34.519  22.436  23.789  1.00  0.00     0.004 A 
ATOM     19  C   UNL A   1      34.730  22.409  26.163  1.00  0.00     0.004 A 
ATOM     20  C   UNL A   1      34.258  23.831  23.813  1.00  0.00     0.009 A 
ATOM     21  C   UNL A   1      34.436  23.789  26.184  1.00  0.00     0.009 A 
BRANCH  17  22
ATOM     22  C   UNL A   1      34.812  20.178  24.887  1.00  0.00     0.032 C 
ATOM     23  C   UNL A   1      33.562  19.394  24.490  1.00  0.00     0.009 C 
ENDBRANCH  17  22
ENDBRANCH   6  16
BRANCH  15  24
ATOM     24  C   UNL A   1      35.071  29.761  27.331  1.00  0.00     0.430 C 
ATOM     25  F   UNL A   1      36.237  30.068  26.711  1.00  0.00    -0.167 F 
ATOM     26  F   UNL A   1      34.542  30.909  27.804  1.00  0.00    -0.167 F 
ATOM     27  F   UNL A   1      35.391  28.998  28.409  1.00  0.00    -0.167 F 
ENDBRANCH  15  24
ENDBRANCH   3   5
ENDBRANCH   2   3
ENDBRANCH   1   2
BRANCH   1  28
ATOM     28  C   UNL A   1      32.670  33.211  27.224  1.00  0.00     0.275 C 
BRANCH  28  29
ATOM     29  O   UNL A   1      32.254  34.214  28.169  1.00  0.00    -0.458 OA
BRANCH  29  30
ATOM     30  C   UNL A   1      33.267  34.981  28.635  1.00  0.00     0.338 C 
ATOM     31  O   UNL A   1      33.276  36.207  28.680  1.00  0.00    -0.246 OA
BRANCH  30  32
ATOM     32  C   UNL A   1      34.353  34.162  29.226  1.00  0.00     0.060 A 
ATOM     33  C   UNL A   1      35.645  34.473  28.818  1.00  0.00     0.016 A 
ATOM     34  C   UNL A   1      34.162  33.107  30.132  1.00  0.00     0.016 A 
ATOM     35  C   UNL A   1      36.727  33.771  29.350  1.00  0.00     0.010 A 
ATOM     36  C   UNL A   1      35.271  32.407  30.667  1.00  0.00     0.010 A 
ATOM     37  C   UNL A   1      36.580  32.753  30.307  1.00  0.00    -0.014 A 
BRANCH  37  38
ATOM     38  C   UNL A   1      37.840  32.111  30.834  1.00  0.00     0.031 A 
ATOM     39  C   UNL A   1      38.222  32.332  32.269  1.00  0.00     0.074 A 
ATOM     40  C   UNL A   1      38.532  31.169  30.154  1.00  0.00     0.049 A 
ATOM     41  N   UNL A   1      39.144  31.733  32.979  1.00  0.00    -0.248 NA
ATOM     42  C   UNL A   1      37.467  33.362  32.999  1.00  0.00     0.031 C 
ATOM     43  C   UNL A   1      38.278  30.795  28.778  1.00  0.00     0.029 A 
ATOM     44  N   UNL A   1      39.515  30.278  30.537  1.00  0.00    -0.354 N 
ATOM     45  C   UNL A   1      39.078  32.308  34.236  1.00  0.00     0.074 A 
ATOM     46  C   UNL A   1      38.007  33.282  34.204  1.00  0.00     0.031 C 
ATOM     47  C   UNL A   1      38.900  29.642  28.489  1.00  0.00     0.029 A 
ATOM     48  C   UNL A   1      39.779  29.297  29.598  1.00  0.00     0.049 A 
ATOM     49  H   UNL A   1      39.985  30.336  31.401  1.00  0.00     0.167 HD
ATOM     50  C   UNL A   1      39.866  32.080  35.311  1.00  0.00     0.037 A 
ATOM     51  C   UNL A   1      40.658  28.270  29.594  1.00  0.00     0.037 A 
ATOM     52  C   UNL A   1      40.989  31.185  35.338  1.00  0.00     0.049 A 
ATOM     53  C   UNL A   1      41.632  28.161  30.737  1.00  0.00     0.074 A 
ATOM     54  C   UNL A   1      41.884  30.965  36.371  1.00  0.00     0.029 A 
ATOM     55  N   UNL A   1      41.394  30.383  34.282  1.00  0.00    -0.354 N 
ATOM     56  N   UNL A   1      41.628  28.790  31.886  1.00  0.00    -0.248 NA
ATOM     57  C   UNL A   1      42.771  27.245  30.561  1.00  0.00     0.031 C 
ATOM     58  C   UNL A   1      42.855  30.062  35.926  1.00  0.00     0.029 A 
ATOM     59  C   UNL A   1      42.527  29.669  34.640  1.00  0.00     0.049 A 
ATOM     60  H   UNL A   1      40.943  30.328  33.410  1.00  0.00     0.167 HD
ATOM     61  C   UNL A   1      42.752  28.343  32.569  1.00  0.00     0.074 A 
ATOM     62  C   UNL A   1      43.403  27.370  31.720  1.00  0.00     0.031 C 
ATOM     63  C   UNL A   1      43.197  28.714  33.793  1.00  0.00     0.037 A 
BRANCH  50  64
ATOM     64  C   UNL A   1      39.576  32.903  36.524  1.00  0.00     0.057 A 
ATOM     65  C   UNL A   1      40.247  34.104  36.776  1.00  0.00     0.134 A 
ATOM     66  C   UNL A   1      38.638  32.463  37.466  1.00  0.00     0.134 A 
ATOM     67  F   UNL A   1      41.180  34.554  35.923  1.00  0.00    -0.206 F 
ATOM     68  C   UNL A   1      40.009  34.833  37.941  1.00  0.00     0.040 A 
ATOM     69  C   UNL A   1      38.377  33.195  38.623  1.00  0.00     0.040 A 
ATOM     70  F   UNL A   1      37.976  31.311  37.281  1.00  0.00    -0.206 F 
ATOM     71  C   UNL A   1      39.068  34.380  38.866  1.00  0.00     0.006 A 
ENDBRANCH  50  64
BRANCH  51  72
ATOM     72  C   UNL A   1      40.767  27.318  28.443  1.00  0.00     0.057 A 
ATOM     73  C   UNL A   1      41.577  27.604  27.333  1.00  0.00     0.134 A 
ATOM     74  C   UNL A   1      40.000  26.148  28.374  1.00  0.00     0.134 A 
ATOM     75  F   UNL A   1      42.307  28.729  27.297  1.00  0.00    -0.206 F 
ATOM     76  C   UNL A   1      41.605  26.778  26.204  1.00  0.00     0.040 A 
ATOM     77  C   UNL A   1      40.052  25.289  27.272  1.00  0.00     0.040 A 
ATOM     78  F   UNL A   1      39.171  25.819  29.376  1.00  0.00    -0.206 F 
ATOM     79  C   UNL A   1      40.847  25.610  26.176  1.00  0.00     0.006 A 
ENDBRANCH  51  72
BRANCH  63  80
ATOM     80  C   UNL A   1      44.435  28.046  34.314  1.00  0.00     0.057 A 
ATOM     81  C   UNL A   1      44.392  26.826  35.001  1.00  0.00     0.134 A 
ATOM     82  C   UNL A   1      45.695  28.614  34.086  1.00  0.00     0.134 A 
ATOM     83  F   UNL A   1      43.218  26.236  35.270  1.00  0.00    -0.206 F 
ATOM     84  C   UNL A   1      45.558  26.202  35.454  1.00  0.00     0.040 A 
ATOM     85  C   UNL A   1      46.869  27.986  34.507  1.00  0.00     0.040 A 
ATOM     86  F   UNL A   1      45.808  29.780  33.434  1.00  0.00    -0.206 F 
ATOM     87  C   UNL A   1      46.801  26.778  35.198  1.00  0.00     0.006 A 
ENDBRANCH  63  80
ENDBRANCH  37  38
ENDBRANCH  30  32
ENDBRANCH  29  30
ENDBRANCH  28  29
ENDBRANCH   1  28
TORSDOF 14
ENDMDL
