MODEL 1
REMARK VINA RESULT:     -13.3      0.000      0.000
REMARK SMILES Cc1ccc(NC(=O)Cn2c(CCC(=O)OCCOC(=O)c3ccc(-c4c5nc(c(-c6c(F)cccc6F)c6ccc([nH]6)c(-c6c(F)cccc6F)c6nc(c(-c7c(F)cccc7F)c7ccc4[nH]7)C=C6)C=C5)cc3)ccc2-c2ccccc2)cc1
REMARK SMILES IDX 16 1 14 2 15 3 13 4 12 5 11 6 10 7 78 8 76 9 77 10 9 11 7 12
REMARK SMILES IDX 6 13 8 15 5 16 1 17 2 18 3 19 86 20 4 21 85 22 79 23 80 24
REMARK SMILES IDX 84 25 81 26 83 27 82 28 17 29 18 30 19 31 20 32 21 33 22 34
REMARK SMILES IDX 23 35 75 36 24 37 74 38 25 39 26 40 27 41 68 42 28 43 73 44
REMARK SMILES IDX 67 45 69 46 29 47 72 48 66 49 65 50 30 52 56 53 39 54 55 55
REMARK SMILES IDX 40 56 43 57 54 58 70 59 41 60 42 61 53 63 71 64 44 65 31 66
REMARK SMILES IDX 32 67 37 68 33 69 34 70 36 71 38 72 35 73 57 74 58 75 63 76
REMARK SMILES IDX 59 77 60 78 62 79 64 80 61 81 45 82 46 83 51 84 47 85 48 86
REMARK SMILES IDX 50 87 52 88 49 89
REMARK H PARENT 6 14 69 51 43 62
REMARK Flexibility Score: inf
ROOT
ATOM      1  O   UNL A   1      35.169  30.268  27.841  1.00  0.00    -0.462 OA
ENDROOT
BRANCH   1   2
ATOM      2  C   UNL A   1      33.948  30.730  27.180  1.00  0.00     0.306 C 
ATOM      3  O   UNL A   1      33.771  31.818  27.810  1.00  0.00    -0.252 OA
BRANCH   2   4
ATOM      4  C   UNL A   1      32.850  29.838  25.532  1.00  0.00     0.129 C 
BRANCH   4   5
ATOM      5  C   UNL A   1      33.183  28.464  24.366  1.00  0.00     0.066 C 
BRANCH   5   6
ATOM      6  C   UNL A   1      33.391  27.017  24.867  1.00  0.00     0.019 A 
ATOM      7  N   UNL A   1      33.801  25.868  24.175  1.00  0.00    -0.335 N 
ATOM      8  C   UNL A   1      34.179  24.897  25.121  1.00  0.00     0.049 A 
ATOM      9  C   UNL A   1      32.997  26.526  26.111  1.00  0.00     0.024 A 
ATOM     10  C   UNL A   1      33.454  25.194  26.254  1.00  0.00     0.029 A 
BRANCH   7  11
ATOM     11  C   UNL A   1      33.599  25.374  22.800  1.00  0.00     0.222 C 
BRANCH  11  12
ATOM     12  C   UNL A   1      32.231  25.182  22.250  1.00  0.00     0.244 C 
ATOM     13  N   UNL A   1      31.440  24.130  22.601  1.00  0.00    -0.325 N 
ATOM     14  H   UNL A   1      30.494  24.223  22.344  1.00  0.00     0.169 HD
ATOM     15  O   UNL A   1      31.796  26.033  21.466  1.00  0.00    -0.273 OA
BRANCH  13  16
ATOM     16  C   UNL A   1      31.750  22.939  23.265  1.00  0.00     0.041 A 
ATOM     17  C   UNL A   1      32.791  19.418  25.512  1.00  0.00     0.044 C 
ATOM     18  C   UNL A   1      32.378  20.630  24.732  1.00  0.00    -0.051 A 
ATOM     19  C   UNL A   1      32.677  20.707  23.369  1.00  0.00     0.005 A 
ATOM     20  C   UNL A   1      31.711  21.696  25.344  1.00  0.00     0.005 A 
ATOM     21  C   UNL A   1      32.347  21.848  22.638  1.00  0.00     0.026 A 
ATOM     22  C   UNL A   1      31.381  22.836  24.607  1.00  0.00     0.026 A 
ENDBRANCH  13  16
ENDBRANCH  11  12
ENDBRANCH   7  11
BRANCH   8  23
ATOM     23  C   UNL A   1      35.045  23.756  24.799  1.00  0.00    -0.002 A 
ATOM     24  C   UNL A   1      35.804  23.689  23.625  1.00  0.00     0.010 A 
ATOM     25  C   UNL A   1      35.167  22.727  25.745  1.00  0.00     0.010 A 
ATOM     26  C   UNL A   1      36.679  22.615  23.414  1.00  0.00     0.001 A 
ATOM     27  C   UNL A   1      36.037  21.657  25.532  1.00  0.00     0.001 A 
ATOM     28  C   UNL A   1      36.797  21.602  24.367  1.00  0.00     0.000 A 
ENDBRANCH   8  23
ENDBRANCH   5   6
ENDBRANCH   4   5
ENDBRANCH   2   4
ENDBRANCH   1   2
BRANCH   1  29
ATOM     29  C   UNL A   1      36.379  30.626  28.636  1.00  0.00     0.274 C 
BRANCH  29  30
ATOM     30  C   UNL A   1      36.097  30.776  30.115  1.00  0.00     0.275 C 
BRANCH  30  31
ATOM     31  O   UNL A   1      36.180  29.622  30.970  1.00  0.00    -0.458 OA
BRANCH  31  32
ATOM     32  C   UNL A   1      37.249  29.185  31.655  1.00  0.00     0.338 C 
ATOM     33  O   UNL A   1      37.192  28.910  32.851  1.00  0.00    -0.246 OA
BRANCH  32  34
ATOM     34  C   UNL A   1      38.575  29.339  31.047  1.00  0.00     0.060 A 
ATOM     35  C   UNL A   1      39.224  27.802  30.385  1.00  0.00     0.016 A 
ATOM     36  C   UNL A   1      39.672  30.812  31.096  1.00  0.00     0.016 A 
ATOM     37  C   UNL A   1      40.920  27.688  29.785  1.00  0.00     0.010 A 
ATOM     38  C   UNL A   1      41.409  30.626  30.618  1.00  0.00     0.010 A 
ATOM     39  C   UNL A   1      42.042  29.061  29.929  1.00  0.00    -0.014 A 
BRANCH  39  40
ATOM     40  C   UNL A   1      43.548  29.016  29.614  1.00  0.00     0.031 A 
ATOM     41  C   UNL A   1      44.259  28.429  30.729  1.00  0.00     0.074 A 
ATOM     42  C   UNL A   1      44.437  29.026  28.560  1.00  0.00     0.049 A 
ATOM     43  N   UNL A   1      44.417  27.158  30.718  1.00  0.00    -0.248 NA
ATOM     44  C   UNL A   1      44.753  29.124  31.892  1.00  0.00     0.031 C 
ATOM     45  C   UNL A   1      44.208  29.385  27.172  1.00  0.00     0.029 A 
ATOM     46  N   UNL A   1      45.793  28.494  28.529  1.00  0.00    -0.354 N 
ATOM     47  C   UNL A   1      45.063  26.816  31.854  1.00  0.00     0.074 A 
ATOM     48  C   UNL A   1      45.300  28.084  32.541  1.00  0.00     0.031 C 
ATOM     49  C   UNL A   1      45.280  29.025  26.427  1.00  0.00     0.029 A 
ATOM     50  C   UNL A   1      46.306  28.292  27.227  1.00  0.00     0.049 A 
ATOM     51  H   UNL A   1      46.308  28.293  29.343  1.00  0.00     0.167 HD
ATOM     52  C   UNL A   1      45.339  25.498  32.027  1.00  0.00     0.037 A 
ATOM     53  C   UNL A   1      46.913  27.164  26.690  1.00  0.00     0.037 A 
ATOM     54  C   UNL A   1      44.664  24.569  31.078  1.00  0.00     0.049 A 
ATOM     55  C   UNL A   1      45.728  26.315  26.436  1.00  0.00     0.074 A 
ATOM     56  C   UNL A   1      44.046  23.335  31.183  1.00  0.00     0.029 A 
ATOM     57  N   UNL A   1      44.467  24.920  29.741  1.00  0.00    -0.354 N 
ATOM     58  N   UNL A   1      45.145  25.693  27.405  1.00  0.00    -0.248 NA
ATOM     59  C   UNL A   1      45.095  26.222  25.135  1.00  0.00     0.031 C 
ATOM     60  C   UNL A   1      43.386  23.040  29.938  1.00  0.00     0.029 A 
ATOM     61  C   UNL A   1      43.616  24.071  29.044  1.00  0.00     0.049 A 
ATOM     62  H   UNL A   1      44.896  25.704  29.327  1.00  0.00     0.167 HD
ATOM     63  C   UNL A   1      44.014  25.142  26.888  1.00  0.00     0.074 A 
ATOM     64  C   UNL A   1      43.971  25.597  25.500  1.00  0.00     0.031 C 
ATOM     65  C   UNL A   1      43.184  24.396  27.665  1.00  0.00     0.037 A 
BRANCH  52  66
ATOM     66  C   UNL A   1      46.377  25.099  33.027  1.00  0.00     0.057 A 
ATOM     67  C   UNL A   1      45.986  24.307  34.117  1.00  0.00     0.134 A 
ATOM     68  C   UNL A   1      47.758  25.320  32.898  1.00  0.00     0.134 A 
ATOM     69  F   UNL A   1      44.692  24.047  34.353  1.00  0.00    -0.206 F 
ATOM     70  C   UNL A   1      46.913  23.711  34.976  1.00  0.00     0.040 A 
ATOM     71  C   UNL A   1      48.699  24.672  33.706  1.00  0.00     0.040 A 
ATOM     72  F   UNL A   1      48.247  26.171  31.984  1.00  0.00    -0.206 F 
ATOM     73  C   UNL A   1      48.276  23.860  34.749  1.00  0.00     0.006 A 
ENDBRANCH  52  66
BRANCH  53  74
ATOM     74  C   UNL A   1      48.156  26.291  26.926  1.00  0.00     0.057 A 
ATOM     75  C   UNL A   1      48.507  25.904  28.229  1.00  0.00     0.134 A 
ATOM     76  C   UNL A   1      49.215  26.118  25.985  1.00  0.00     0.134 A 
ATOM     77  F   UNL A   1      47.643  26.084  29.239  1.00  0.00    -0.206 F 
ATOM     78  C   UNL A   1      49.795  25.414  28.567  1.00  0.00     0.040 A 
ATOM     79  C   UNL A   1      50.496  25.636  26.309  1.00  0.00     0.040 A 
ATOM     80  F   UNL A   1      49.106  26.471  24.701  1.00  0.00    -0.206 F 
ATOM     81  C   UNL A   1      50.799  25.291  27.610  1.00  0.00     0.006 A 
ENDBRANCH  53  74
BRANCH  65  82
ATOM     82  C   UNL A   1      41.814  24.122  27.118  1.00  0.00     0.057 A 
ATOM     83  C   UNL A   1      40.806  25.086  26.946  1.00  0.00     0.134 A 
ATOM     84  C   UNL A   1      41.423  22.800  26.907  1.00  0.00     0.134 A 
ATOM     85  F   UNL A   1      41.089  26.396  27.006  1.00  0.00    -0.206 F 
ATOM     86  C   UNL A   1      39.461  24.748  26.749  1.00  0.00     0.040 A 
ATOM     87  C   UNL A   1      40.088  22.457  26.649  1.00  0.00     0.040 A 
ATOM     88  F   UNL A   1      42.326  21.810  26.964  1.00  0.00    -0.206 F 
ATOM     89  C   UNL A   1      39.095  23.421  26.613  1.00  0.00     0.006 A 
ENDBRANCH  65  82
ENDBRANCH  39  40
ENDBRANCH  32  34
ENDBRANCH  31  32
ENDBRANCH  30  31
ENDBRANCH  29  30
ENDBRANCH   1  29
TORSDOF 17
ENDMDL
MODEL 2
REMARK VINA RESULT:     -13.1      1.257      2.436
REMARK SMILES Cc1ccc(NC(=O)Cn2c(CCC(=O)OCCOC(=O)c3ccc(-c4c5nc(c(-c6c(F)cccc6F)c6ccc([nH]6)c(-c6c(F)cccc6F)c6nc(c(-c7c(F)cccc7F)c7ccc4[nH]7)C=C6)C=C5)cc3)ccc2-c2ccccc2)cc1
REMARK SMILES IDX 16 1 14 2 15 3 13 4 12 5 11 6 10 7 78 8 76 9 77 10 9 11 7 12
REMARK SMILES IDX 6 13 8 15 5 16 1 17 2 18 3 19 86 20 4 21 85 22 79 23 80 24
REMARK SMILES IDX 84 25 81 26 83 27 82 28 17 29 18 30 19 31 20 32 21 33 22 34
REMARK SMILES IDX 23 35 75 36 24 37 74 38 25 39 26 40 27 41 68 42 28 43 73 44
REMARK SMILES IDX 67 45 69 46 29 47 72 48 66 49 65 50 30 52 56 53 39 54 55 55
REMARK SMILES IDX 40 56 43 57 54 58 70 59 41 60 42 61 53 63 71 64 44 65 31 66
REMARK SMILES IDX 32 67 37 68 33 69 34 70 36 71 38 72 35 73 57 74 58 75 63 76
REMARK SMILES IDX 59 77 60 78 62 79 64 80 61 81 45 82 46 83 51 84 47 85 48 86
REMARK SMILES IDX 50 87 52 88 49 89
REMARK H PARENT 6 14 69 51 43 62
REMARK Flexibility Score: inf
ROOT
ATOM      1  O   UNL A   1      33.836  30.526  27.692  1.00  0.00    -0.462 OA
ENDROOT
BRANCH   1   2
ATOM      2  C   UNL A   1      32.957  29.618  26.954  1.00  0.00     0.306 C 
ATOM      3  O   UNL A   1      32.063  30.443  26.592  1.00  0.00    -0.252 OA
BRANCH   2   4
ATOM      4  C   UNL A   1      33.201  27.500  26.535  1.00  0.00     0.129 C 
BRANCH   4   5
ATOM      5  C   UNL A   1      33.797  26.541  25.092  1.00  0.00     0.066 C 
BRANCH   5   6
ATOM      6  C   UNL A   1      34.180  25.049  25.220  1.00  0.00     0.019 A 
ATOM      7  N   UNL A   1      33.375  23.923  25.449  1.00  0.00    -0.335 N 
ATOM      8  C   UNL A   1      34.126  22.776  25.130  1.00  0.00     0.049 A 
ATOM      9  C   UNL A   1      35.477  24.554  25.338  1.00  0.00     0.024 A 
ATOM     10  C   UNL A   1      35.440  23.139  25.320  1.00  0.00     0.029 A 
BRANCH   7  11
ATOM     11  C   UNL A   1      32.144  23.684  26.225  1.00  0.00     0.222 C 
BRANCH  11  12
ATOM     12  C   UNL A   1      30.914  23.171  25.565  1.00  0.00     0.244 C 
ATOM     13  N   UNL A   1      30.342  23.791  24.495  1.00  0.00    -0.325 N 
ATOM     14  H   UNL A   1      29.669  23.252  24.020  1.00  0.00     0.169 HD
ATOM     15  O   UNL A   1      30.416  22.127  25.999  1.00  0.00    -0.273 OA
BRANCH  13  16
ATOM     16  C   UNL A   1      30.553  25.066  23.961  1.00  0.00     0.041 A 
ATOM     17  C   UNL A   1      30.953  29.048  22.377  1.00  0.00     0.044 C 
ATOM     18  C   UNL A   1      30.848  27.674  22.966  1.00  0.00    -0.051 A 
ATOM     19  C   UNL A   1      31.407  26.589  22.287  1.00  0.00     0.005 A 
ATOM     20  C   UNL A   1      30.188  27.451  24.179  1.00  0.00     0.005 A 
ATOM     21  C   UNL A   1      31.275  25.295  22.793  1.00  0.00     0.026 A 
ATOM     22  C   UNL A   1      30.060  26.155  24.683  1.00  0.00     0.026 A 
ENDBRANCH  13  16
ENDBRANCH  11  12
ENDBRANCH   7  11
BRANCH   8  23
ATOM     23  C   UNL A   1      33.515  21.474  24.832  1.00  0.00    -0.002 A 
ATOM     24  C   UNL A   1      32.886  21.193  23.613  1.00  0.00     0.010 A 
ATOM     25  C   UNL A   1      33.633  20.452  25.786  1.00  0.00     0.010 A 
ATOM     26  C   UNL A   1      32.399  19.905  23.355  1.00  0.00     0.001 A 
ATOM     27  C   UNL A   1      33.145  19.170  25.528  1.00  0.00     0.001 A 
ATOM     28  C   UNL A   1      32.530  18.895  24.310  1.00  0.00     0.000 A 
ENDBRANCH   8  23
ENDBRANCH   5   6
ENDBRANCH   4   5
ENDBRANCH   2   4
ENDBRANCH   1   2
BRANCH   1  29
ATOM     29  C   UNL A   1      35.230  30.871  28.095  1.00  0.00     0.274 C 
BRANCH  29  30
ATOM     30  C   UNL A   1      35.971  29.714  28.728  1.00  0.00     0.275 C 
BRANCH  30  31
ATOM     31  O   UNL A   1      35.973  29.576  30.160  1.00  0.00    -0.458 OA
BRANCH  31  32
ATOM     32  C   UNL A   1      37.020  29.306  30.957  1.00  0.00     0.338 C 
ATOM     33  O   UNL A   1      36.918  29.268  32.180  1.00  0.00    -0.246 OA
BRANCH  32  34
ATOM     34  C   UNL A   1      38.367  29.371  30.380  1.00  0.00     0.060 A 
ATOM     35  C   UNL A   1      39.068  27.752  30.054  1.00  0.00     0.016 A 
ATOM     36  C   UNL A   1      39.437  30.852  30.182  1.00  0.00     0.016 A 
ATOM     37  C   UNL A   1      40.789  27.565  29.552  1.00  0.00     0.010 A 
ATOM     38  C   UNL A   1      41.194  30.620  29.813  1.00  0.00     0.010 A 
ATOM     39  C   UNL A   1      41.881  28.967  29.467  1.00  0.00    -0.014 A 
BRANCH  39  40
ATOM     40  C   UNL A   1      43.399  28.898  29.223  1.00  0.00     0.031 A 
ATOM     41  C   UNL A   1      44.058  28.382  30.404  1.00  0.00     0.074 A 
ATOM     42  C   UNL A   1      44.334  28.838  28.211  1.00  0.00     0.049 A 
ATOM     43  N   UNL A   1      44.210  27.114  30.482  1.00  0.00    -0.248 NA
ATOM     44  C   UNL A   1      44.503  29.150  31.541  1.00  0.00     0.031 C 
ATOM     45  C   UNL A   1      44.169  29.107  26.794  1.00  0.00     0.029 A 
ATOM     46  N   UNL A   1      45.687  28.302  28.275  1.00  0.00    -0.354 N 
ATOM     47  C   UNL A   1      44.802  26.844  31.665  1.00  0.00     0.074 A 
ATOM     48  C   UNL A   1      45.016  28.153  32.279  1.00  0.00     0.031 C 
ATOM     49  C   UNL A   1      45.270  28.697  26.122  1.00  0.00     0.029 A 
ATOM     50  C   UNL A   1      46.256  28.015  27.012  1.00  0.00     0.049 A 
ATOM     51  H   UNL A   1      46.165  28.153  29.123  1.00  0.00     0.167 HD
ATOM     52  C   UNL A   1      45.064  25.539  31.935  1.00  0.00     0.037 A 
ATOM     53  C   UNL A   1      46.881  26.854  26.578  1.00  0.00     0.037 A 
ATOM     54  C   UNL A   1      44.427  24.553  31.019  1.00  0.00     0.049 A 
ATOM     55  C   UNL A   1      45.704  25.992  26.326  1.00  0.00     0.074 A 
ATOM     56  C   UNL A   1      43.799  23.330  31.176  1.00  0.00     0.029 A 
ATOM     57  N   UNL A   1      44.292  24.817  29.654  1.00  0.00    -0.354 N 
ATOM     58  N   UNL A   1      45.076  25.435  27.307  1.00  0.00    -0.248 NA
ATOM     59  C   UNL A   1      45.129  25.817  25.007  1.00  0.00     0.031 C 
ATOM     60  C   UNL A   1      43.193  22.956  29.924  1.00  0.00     0.029 A 
ATOM     61  C   UNL A   1      43.468  23.927  28.977  1.00  0.00     0.049 A 
ATOM     62  H   UNL A   1      44.742  25.571  29.210  1.00  0.00     0.167 HD
ATOM     63  C   UNL A   1      43.966  24.854  26.776  1.00  0.00     0.074 A 
ATOM     64  C   UNL A   1      43.987  25.219  25.361  1.00  0.00     0.031 C 
ATOM     65  C   UNL A   1      43.099  24.162  27.562  1.00  0.00     0.037 A 
BRANCH  52  66
ATOM     66  C   UNL A   1      46.054  25.204  33.004  1.00  0.00     0.057 A 
ATOM     67  C   UNL A   1      45.603  24.523  34.144  1.00  0.00     0.134 A 
ATOM     68  C   UNL A   1      47.445  25.375  32.907  1.00  0.00     0.134 A 
ATOM     69  F   UNL A   1      44.294  24.320  34.355  1.00  0.00    -0.206 F 
ATOM     70  C   UNL A   1      46.481  23.982  35.087  1.00  0.00     0.040 A 
ATOM     71  C   UNL A   1      48.338  24.778  33.804  1.00  0.00     0.040 A 
ATOM     72  F   UNL A   1      47.991  26.128  31.940  1.00  0.00    -0.206 F 
ATOM     73  C   UNL A   1      47.856  24.073  34.897  1.00  0.00     0.006 A 
ENDBRANCH  52  66
BRANCH  53  74
ATOM     74  C   UNL A   1      48.108  25.994  26.925  1.00  0.00     0.057 A 
ATOM     75  C   UNL A   1      48.376  25.658  28.260  1.00  0.00     0.134 A 
ATOM     76  C   UNL A   1      49.226  25.791  26.060  1.00  0.00     0.134 A 
ATOM     77  F   UNL A   1      47.449  25.871  29.206  1.00  0.00    -0.206 F 
ATOM     78  C   UNL A   1      49.640  25.185  28.697  1.00  0.00     0.040 A 
ATOM     79  C   UNL A   1      50.483  25.328  26.483  1.00  0.00     0.040 A 
ATOM     80  F   UNL A   1      49.198  26.096  24.760  1.00  0.00    -0.206 F 
ATOM     81  C   UNL A   1      50.703  25.032  27.812  1.00  0.00     0.006 A 
ENDBRANCH  53  74
BRANCH  65  82
ATOM     82  C   UNL A   1      41.753  23.856  26.973  1.00  0.00     0.057 A 
ATOM     83  C   UNL A   1      40.740  24.803  26.738  1.00  0.00     0.134 A 
ATOM     84  C   UNL A   1      41.385  22.525  26.784  1.00  0.00     0.134 A 
ATOM     85  F   UNL A   1      41.006  26.118  26.772  1.00  0.00    -0.206 F 
ATOM     86  C   UNL A   1      39.408  24.443  26.502  1.00  0.00     0.040 A 
ATOM     87  C   UNL A   1      40.065  22.158  26.488  1.00  0.00     0.040 A 
ATOM     88  F   UNL A   1      42.296  21.548  26.902  1.00  0.00    -0.206 F 
ATOM     89  C   UNL A   1      39.062  23.109  26.389  1.00  0.00     0.006 A 
ENDBRANCH  65  82
ENDBRANCH  39  40
ENDBRANCH  32  34
ENDBRANCH  31  32
ENDBRANCH  30  31
ENDBRANCH  29  30
ENDBRANCH   1  29
TORSDOF 17
ENDMDL
MODEL 3
REMARK VINA RESULT:     -13.0      3.440      7.960
REMARK SMILES Cc1ccc(NC(=O)Cn2c(CCC(=O)OCCOC(=O)c3ccc(-c4c5nc(c(-c6c(F)cccc6F)c6ccc([nH]6)c(-c6c(F)cccc6F)c6nc(c(-c7c(F)cccc7F)c7ccc4[nH]7)C=C6)C=C5)cc3)ccc2-c2ccccc2)cc1
REMARK SMILES IDX 16 1 14 2 15 3 13 4 12 5 11 6 10 7 78 8 76 9 77 10 9 11 7 12
REMARK SMILES IDX 6 13 8 15 5 16 1 17 2 18 3 19 86 20 4 21 85 22 79 23 80 24
REMARK SMILES IDX 84 25 81 26 83 27 82 28 17 29 18 30 19 31 20 32 21 33 22 34
REMARK SMILES IDX 23 35 75 36 24 37 74 38 25 39 26 40 27 41 68 42 28 43 73 44
REMARK SMILES IDX 67 45 69 46 29 47 72 48 66 49 65 50 30 52 56 53 39 54 55 55
REMARK SMILES IDX 40 56 43 57 54 58 70 59 41 60 42 61 53 63 71 64 44 65 31 66
REMARK SMILES IDX 32 67 37 68 33 69 34 70 36 71 38 72 35 73 57 74 58 75 63 76
REMARK SMILES IDX 59 77 60 78 62 79 64 80 61 81 45 82 46 83 51 84 47 85 48 86
REMARK SMILES IDX 50 87 52 88 49 89
REMARK H PARENT 6 14 69 51 43 62
REMARK Flexibility Score: inf
ROOT
ATOM      1  O   UNL A   1      35.589  22.122  24.527  1.00  0.00    -0.462 OA
ENDROOT
BRANCH   1   2
ATOM      2  C   UNL A   1      34.817  22.869  23.534  1.00  0.00     0.306 C 
ATOM      3  O   UNL A   1      35.658  23.779  23.259  1.00  0.00    -0.252 OA
BRANCH   2   4
ATOM      4  C   UNL A   1      32.848  22.447  22.717  1.00  0.00     0.129 C 
BRANCH   4   5
ATOM      5  C   UNL A   1      31.141  22.925  23.179  1.00  0.00     0.066 C 
BRANCH   5   6
ATOM      6  C   UNL A   1      30.827  24.318  23.770  1.00  0.00     0.019 A 
ATOM      7  N   UNL A   1      30.707  25.565  23.139  1.00  0.00    -0.335 N 
ATOM      8  C   UNL A   1      30.071  26.448  24.031  1.00  0.00     0.049 A 
ATOM      9  C   UNL A   1      30.804  24.635  25.127  1.00  0.00     0.024 A 
ATOM     10  C   UNL A   1      30.370  25.972  25.287  1.00  0.00     0.029 A 
BRANCH   7  11
ATOM     11  C   UNL A   1      31.368  26.194  21.980  1.00  0.00     0.222 C 
BRANCH  11  12
ATOM     12  C   UNL A   1      32.796  25.916  21.672  1.00  0.00     0.244 C 
ATOM     13  N   UNL A   1      33.796  26.126  22.573  1.00  0.00    -0.325 N 
ATOM     14  H   UNL A   1      34.656  25.711  22.336  1.00  0.00     0.169 HD
ATOM     15  O   UNL A   1      33.069  25.451  20.559  1.00  0.00    -0.273 OA
BRANCH  13  16
ATOM     16  C   UNL A   1      33.801  26.833  23.779  1.00  0.00     0.041 A 
ATOM     17  C   UNL A   1      33.977  29.187  27.378  1.00  0.00     0.044 C 
ATOM     18  C   UNL A   1      33.865  28.378  26.121  1.00  0.00    -0.051 A 
ATOM     19  C   UNL A   1      33.937  26.985  26.189  1.00  0.00     0.005 A 
ATOM     20  C   UNL A   1      33.704  28.991  24.875  1.00  0.00     0.005 A 
ATOM     21  C   UNL A   1      33.886  26.218  25.025  1.00  0.00     0.026 A 
ATOM     22  C   UNL A   1      33.652  28.220  23.712  1.00  0.00     0.026 A 
ENDBRANCH  13  16
ENDBRANCH  11  12
ENDBRANCH   7  11
BRANCH   8  23
ATOM     23  C   UNL A   1      29.398  27.679  23.597  1.00  0.00    -0.002 A 
ATOM     24  C   UNL A   1      28.026  27.738  23.325  1.00  0.00     0.010 A 
ATOM     25  C   UNL A   1      30.155  28.859  23.524  1.00  0.00     0.010 A 
ATOM     26  C   UNL A   1      27.426  28.962  23.000  1.00  0.00     0.001 A 
ATOM     27  C   UNL A   1      29.556  30.077  23.198  1.00  0.00     0.001 A 
ATOM     28  C   UNL A   1      28.190  30.130  22.939  1.00  0.00     0.000 A 
ENDBRANCH   8  23
ENDBRANCH   5   6
ENDBRANCH   4   5
ENDBRANCH   2   4
ENDBRANCH   1   2
BRANCH   1  29
ATOM     29  C   UNL A   1      36.778  21.266  24.808  1.00  0.00     0.274 C 
BRANCH  29  30
ATOM     30  C   UNL A   1      37.867  21.989  25.569  1.00  0.00     0.275 C 
BRANCH  30  31
ATOM     31  O   UNL A   1      39.202  21.453  25.571  1.00  0.00    -0.458 OA
BRANCH  31  32
ATOM     32  C   UNL A   1      40.146  21.608  26.514  1.00  0.00     0.338 C 
ATOM     33  O   UNL A   1      40.378  20.743  27.354  1.00  0.00    -0.246 OA
BRANCH  32  34
ATOM     34  C   UNL A   1      40.688  22.952  26.741  1.00  0.00     0.060 A 
ATOM     35  C   UNL A   1      39.639  23.962  27.791  1.00  0.00     0.016 A 
ATOM     36  C   UNL A   1      42.134  23.736  25.922  1.00  0.00     0.016 A 
ATOM     37  C   UNL A   1      39.979  25.715  28.037  1.00  0.00     0.010 A 
ATOM     38  C   UNL A   1      42.365  25.526  26.078  1.00  0.00     0.010 A 
ATOM     39  C   UNL A   1      41.298  26.529  27.165  1.00  0.00    -0.014 A 
BRANCH  39  40
ATOM     40  C   UNL A   1      41.563  28.045  27.166  1.00  0.00     0.031 A 
ATOM     41  C   UNL A   1      40.424  28.736  27.731  1.00  0.00     0.074 A 
ATOM     42  C   UNL A   1      42.588  28.968  27.132  1.00  0.00     0.049 A 
ATOM     43  N   UNL A   1      40.427  28.931  28.996  1.00  0.00    -0.248 NA
ATOM     44  C   UNL A   1      39.247  29.171  27.020  1.00  0.00     0.031 C 
ATOM     45  C   UNL A   1      43.983  28.774  26.782  1.00  0.00     0.029 A 
ATOM     46  N   UNL A   1      42.573  30.339  27.624  1.00  0.00    -0.354 N 
ATOM     47  C   UNL A   1      39.269  29.549  29.318  1.00  0.00     0.074 A 
ATOM     48  C   UNL A   1      38.578  29.726  28.042  1.00  0.00     0.031 C 
ATOM     49  C   UNL A   1      44.692  29.880  27.112  1.00  0.00     0.029 A 
ATOM     50  C   UNL A   1      43.856  30.900  27.814  1.00  0.00     0.049 A 
ATOM     51  H   UNL A   1      41.741  30.832  27.809  1.00  0.00     0.167 HD
ATOM     52  C   UNL A   1      39.083  29.858  30.627  1.00  0.00     0.037 A 
ATOM     53  C   UNL A   1      44.370  31.558  28.924  1.00  0.00     0.037 A 
ATOM     54  C   UNL A   1      40.052  29.242  31.577  1.00  0.00     0.049 A 
ATOM     55  C   UNL A   1      44.661  30.407  29.808  1.00  0.00     0.074 A 
ATOM     56  C   UNL A   1      39.964  28.657  32.828  1.00  0.00     0.029 A 
ATOM     57  N   UNL A   1      41.396  29.079  31.234  1.00  0.00    -0.354 N 
ATOM     58  N   UNL A   1      43.709  29.811  30.445  1.00  0.00    -0.248 NA
ATOM     59  C   UNL A   1      45.982  29.820  29.921  1.00  0.00     0.031 C 
ATOM     60  C   UNL A   1      41.229  28.047  33.144  1.00  0.00     0.029 A 
ATOM     61  C   UNL A   1      42.118  28.277  32.108  1.00  0.00     0.049 A 
ATOM     62  H   UNL A   1      41.798  29.498  30.438  1.00  0.00     0.167 HD
ATOM     63  C   UNL A   1      44.262  28.713  31.030  1.00  0.00     0.074 A 
ATOM     64  C   UNL A   1      45.653  28.703  30.579  1.00  0.00     0.031 C 
ATOM     65  C   UNL A   1      43.511  27.881  31.798  1.00  0.00     0.037 A 
BRANCH  52  66
ATOM     66  C   UNL A   1      38.049  30.873  30.994  1.00  0.00     0.057 A 
ATOM     67  C   UNL A   1      38.475  32.143  31.406  1.00  0.00     0.134 A 
ATOM     68  C   UNL A   1      36.663  30.721  30.819  1.00  0.00     0.134 A 
ATOM     69  F   UNL A   1      39.773  32.399  31.626  1.00  0.00    -0.206 F 
ATOM     70  C   UNL A   1      37.590  33.214  31.560  1.00  0.00     0.040 A 
ATOM     71  C   UNL A   1      35.775  31.800  30.900  1.00  0.00     0.040 A 
ATOM     72  F   UNL A   1      36.118  29.523  30.564  1.00  0.00    -0.206 F 
ATOM     73  C   UNL A   1      36.240  33.055  31.268  1.00  0.00     0.006 A 
ENDBRANCH  52  66
BRANCH  53  74
ATOM     74  C   UNL A   1      44.090  32.817  29.760  1.00  0.00     0.057 A 
ATOM     75  C   UNL A   1      42.769  33.195  30.044  1.00  0.00     0.134 A 
ATOM     76  C   UNL A   1      45.034  33.864  29.988  1.00  0.00     0.134 A 
ATOM     77  F   UNL A   1      41.760  32.344  29.801  1.00  0.00    -0.206 F 
ATOM     78  C   UNL A   1      42.417  34.494  30.490  1.00  0.00     0.040 A 
ATOM     79  C   UNL A   1      44.696  35.156  30.426  1.00  0.00     0.040 A 
ATOM     80  F   UNL A   1      46.338  33.729  29.733  1.00  0.00    -0.206 F 
ATOM     81  C   UNL A   1      43.379  35.485  30.670  1.00  0.00     0.006 A 
ENDBRANCH  53  74
BRANCH  65  82
ATOM     82  C   UNL A   1      44.103  26.538  32.113  1.00  0.00     0.057 A 
ATOM     83  C   UNL A   1      44.155  25.450  31.225  1.00  0.00     0.134 A 
ATOM     84  C   UNL A   1      44.491  26.261  33.424  1.00  0.00     0.134 A 
ATOM     85  F   UNL A   1      43.919  25.620  29.915  1.00  0.00    -0.206 F 
ATOM     86  C   UNL A   1      44.407  24.139  31.647  1.00  0.00     0.040 A 
ATOM     87  C   UNL A   1      44.804  24.961  33.842  1.00  0.00     0.040 A 
ATOM     88  F   UNL A   1      44.557  27.246  34.332  1.00  0.00    -0.206 F 
ATOM     89  C   UNL A   1      44.721  23.888  32.970  1.00  0.00     0.006 A 
ENDBRANCH  65  82
ENDBRANCH  39  40
ENDBRANCH  32  34
ENDBRANCH  31  32
ENDBRANCH  30  31
ENDBRANCH  29  30
ENDBRANCH   1  29
TORSDOF 17
ENDMDL
