MODEL 1
REMARK VINA RESULT:     -11.6      0.000      0.000
REMARK SMILES Cc1cnn([C@H]2CC[C@@]([NH3+])(C(=O)OCCOC(=O)c3ccc(-c4c5nc(c(-c6c(F)cccc6F)c6ccc([nH]6)c(-c6c(F)cccc6F)c6nc(c(-c7c(F)cccc7F)c7ccc4[nH]7)C=C6)C=C5)cc3)C2)c1
REMARK SMILES IDX 15 1 14 2 13 3 11 4 12 5 9 6 6 7 7 8 73 9 8 10 5 11 1 12
REMARK SMILES IDX 2 13 3 14 74 15 4 16 10 17 16 21 17 22 18 23 19 24 20 25
REMARK SMILES IDX 72 26 21 27 71 28 22 29 23 30 24 31 65 32 25 33 70 34 64 35
REMARK SMILES IDX 66 36 26 37 69 38 63 39 62 40 27 42 53 43 36 44 52 45 37 46
REMARK SMILES IDX 40 47 51 48 67 49 38 50 39 51 50 53 68 54 41 55 28 56 29 57
REMARK SMILES IDX 34 58 30 59 31 60 33 61 35 62 32 63 54 64 55 65 60 66 56 67
REMARK SMILES IDX 57 68 59 69 61 70 58 71 42 72 43 73 48 74 44 75 45 76 47 77
REMARK SMILES IDX 49 78 46 79
REMARK H PARENT 10 18 10 19 10 20 66 41 40 52
REMARK Flexibility Score: inf
ROOT
ATOM      1  C   UNL A   1      32.892  29.189  27.241  1.00  0.00     0.275 C 
ENDROOT
BRANCH   1   2
ATOM      2  C   UNL A   1      31.778  28.144  27.359  1.00  0.00     0.274 C 
BRANCH   2   3
ATOM      3  O   UNL A   1      31.202  27.798  26.077  1.00  0.00    -0.457 OA
BRANCH   3   4
ATOM      4  C   UNL A   1      31.078  26.463  25.813  1.00  0.00     0.368 C 
ATOM      5  O   UNL A   1      30.355  25.699  26.452  1.00  0.00    -0.245 OA
BRANCH   4   6
ATOM      6  C   UNL A   1      32.001  25.950  24.639  1.00  0.00     0.194 C 
ATOM      7  C   UNL A   1      31.211  26.949  22.498  1.00  0.00     0.114 C 
ATOM      8  C   UNL A   1      32.657  27.409  22.713  1.00  0.00     0.034 C 
ATOM      9  C   UNL A   1      31.171  25.663  23.356  1.00  0.00     0.108 C 
ATOM     10  C   UNL A   1      33.100  26.901  24.110  1.00  0.00     0.083 C 
BRANCH   7  11
ATOM     11  N   UNL A   1      30.158  27.945  22.770  1.00  0.00    -0.269 N 
ATOM     12  C   UNL A   1      28.090  31.614  21.496  1.00  0.00     0.048 C 
ATOM     13  C   UNL A   1      28.510  30.278  22.024  1.00  0.00    -0.013 A 
ATOM     14  C   UNL A   1      27.382  28.951  23.002  1.00  0.00     0.138 A 
ATOM     15  C   UNL A   1      30.138  29.597  21.942  1.00  0.00     0.112 A 
ATOM     16  N   UNL A   1      28.398  27.565  23.405  1.00  0.00    -0.181 NA
ENDBRANCH   7  11
BRANCH   6  17
ATOM     17  N   UNL A   1      32.594  24.690  25.150  1.00  0.00    -0.343 N 
ATOM     18  H   UNL A   1      32.724  24.037  24.376  1.00  0.00     0.345 HD
ATOM     19  H   UNL A   1      31.969  24.276  25.841  1.00  0.00     0.345 HD
ATOM     20  H   UNL A   1      33.495  24.889  25.582  1.00  0.00     0.345 HD
ENDBRANCH   6  17
ENDBRANCH   4   6
ENDBRANCH   3   4
ENDBRANCH   2   3
ENDBRANCH   1   2
BRANCH   1  21
ATOM     21  O   UNL A   1      32.512  30.275  26.374  1.00  0.00    -0.458 OA
BRANCH  21  22
ATOM     22  C   UNL A   1      32.302  31.631  27.017  1.00  0.00     0.338 C 
ATOM     23  O   UNL A   1      31.220  32.006  26.510  1.00  0.00    -0.246 OA
BRANCH  22  24
ATOM     24  C   UNL A   1      33.821  32.724  28.252  1.00  0.00     0.060 A 
ATOM     25  C   UNL A   1      34.874  33.675  27.809  1.00  0.00     0.016 A 
ATOM     26  C   UNL A   1      34.360  32.387  29.581  1.00  0.00     0.016 A 
ATOM     27  C   UNL A   1      36.229  33.378  28.014  1.00  0.00     0.010 A 
ATOM     28  C   UNL A   1      35.602  31.806  29.675  1.00  0.00     0.010 A 
ATOM     29  C   UNL A   1      36.558  32.276  28.808  1.00  0.00    -0.014 A 
BRANCH  29  30
ATOM     30  C   UNL A   1      37.905  32.089  29.303  1.00  0.00     0.031 A 
ATOM     31  C   UNL A   1      38.246  30.666  28.995  1.00  0.00     0.074 A 
ATOM     32  C   UNL A   1      38.739  33.051  29.752  1.00  0.00     0.049 A 
ATOM     33  N   UNL A   1      38.060  29.686  29.816  1.00  0.00    -0.248 NA
ATOM     34  C   UNL A   1      38.343  30.211  27.583  1.00  0.00     0.031 C 
ATOM     35  C   UNL A   1      38.570  34.502  29.852  1.00  0.00     0.029 A 
ATOM     36  N   UNL A   1      40.013  32.876  30.216  1.00  0.00    -0.354 N 
ATOM     37  C   UNL A   1      38.359  28.548  29.088  1.00  0.00     0.074 A 
ATOM     38  C   UNL A   1      38.171  28.893  27.713  1.00  0.00     0.031 C 
ATOM     39  C   UNL A   1      39.771  35.089  30.106  1.00  0.00     0.029 A 
ATOM     40  C   UNL A   1      40.766  34.056  30.331  1.00  0.00     0.049 A 
ATOM     41  H   UNL A   1      40.374  31.991  30.451  1.00  0.00     0.167 HD
ATOM     42  C   UNL A   1      39.144  27.599  29.659  1.00  0.00     0.037 A 
ATOM     43  C   UNL A   1      42.107  34.092  30.587  1.00  0.00     0.037 A 
ATOM     44  C   UNL A   1      39.148  27.769  31.098  1.00  0.00     0.049 A 
ATOM     45  C   UNL A   1      42.449  32.771  31.201  1.00  0.00     0.074 A 
ATOM     46  C   UNL A   1      38.139  27.825  32.045  1.00  0.00     0.029 A 
ATOM     47  N   UNL A   1      40.213  28.459  31.631  1.00  0.00    -0.354 N 
ATOM     48  N   UNL A   1      41.986  32.397  32.366  1.00  0.00    -0.248 NA
ATOM     49  C   UNL A   1      42.768  31.692  30.271  1.00  0.00     0.031 C 
ATOM     50  C   UNL A   1      38.471  28.940  32.872  1.00  0.00     0.029 A 
ATOM     51  C   UNL A   1      39.734  29.405  32.506  1.00  0.00     0.049 A 
ATOM     52  H   UNL A   1      41.162  28.301  31.421  1.00  0.00     0.167 HD
ATOM     53  C   UNL A   1      41.515  31.109  32.153  1.00  0.00     0.074 A 
ATOM     54  C   UNL A   1      42.037  30.724  30.836  1.00  0.00     0.031 C 
ATOM     55  C   UNL A   1      40.471  30.596  32.872  1.00  0.00     0.037 A 
BRANCH  42  56
ATOM     56  C   UNL A   1      40.239  26.886  28.908  1.00  0.00     0.057 A 
ATOM     57  C   UNL A   1      40.080  25.522  28.636  1.00  0.00     0.134 A 
ATOM     58  C   UNL A   1      41.539  27.394  28.683  1.00  0.00     0.134 A 
ATOM     59  F   UNL A   1      38.898  24.917  28.834  1.00  0.00    -0.206 F 
ATOM     60  C   UNL A   1      41.145  24.712  28.227  1.00  0.00     0.040 A 
ATOM     61  C   UNL A   1      42.596  26.607  28.227  1.00  0.00     0.040 A 
ATOM     62  F   UNL A   1      41.901  28.645  28.980  1.00  0.00    -0.206 F 
ATOM     63  C   UNL A   1      42.409  25.254  28.024  1.00  0.00     0.006 A 
ENDBRANCH  42  56
BRANCH  43  64
ATOM     64  C   UNL A   1      43.164  34.978  30.019  1.00  0.00     0.057 A 
ATOM     65  C   UNL A   1      43.505  34.962  28.653  1.00  0.00     0.134 A 
ATOM     66  C   UNL A   1      43.647  36.078  30.746  1.00  0.00     0.134 A 
ATOM     67  F   UNL A   1      43.061  33.985  27.849  1.00  0.00    -0.206 F 
ATOM     68  C   UNL A   1      44.255  35.988  28.048  1.00  0.00     0.040 A 
ATOM     69  C   UNL A   1      44.390  37.110  30.155  1.00  0.00     0.040 A 
ATOM     70  F   UNL A   1      43.333  36.237  32.038  1.00  0.00    -0.206 F 
ATOM     71  C   UNL A   1      44.687  37.076  28.800  1.00  0.00     0.006 A 
ENDBRANCH  43  64
BRANCH  55  72
ATOM     72  C   UNL A   1      39.943  31.386  34.046  1.00  0.00     0.057 A 
ATOM     73  C   UNL A   1      38.864  32.287  34.004  1.00  0.00     0.134 A 
ATOM     74  C   UNL A   1      40.447  31.081  35.315  1.00  0.00     0.134 A 
ATOM     75  F   UNL A   1      38.241  32.571  32.855  1.00  0.00    -0.206 F 
ATOM     76  C   UNL A   1      38.345  32.881  35.164  1.00  0.00     0.040 A 
ATOM     77  C   UNL A   1      39.920  31.641  36.479  1.00  0.00     0.040 A 
ATOM     78  F   UNL A   1      41.434  30.182  35.445  1.00  0.00    -0.206 F 
ATOM     79  C   UNL A   1      38.872  32.554  36.408  1.00  0.00     0.006 A 
ENDBRANCH  55  72
ENDBRANCH  29  30
ENDBRANCH  22  24
ENDBRANCH  21  22
ENDBRANCH   1  21
TORSDOF 13
ENDMDL
MODEL 2
REMARK VINA RESULT:     -11.5      1.450      3.105
REMARK SMILES Cc1cnn([C@H]2CC[C@@]([NH3+])(C(=O)OCCOC(=O)c3ccc(-c4c5nc(c(-c6c(F)cccc6F)c6ccc([nH]6)c(-c6c(F)cccc6F)c6nc(c(-c7c(F)cccc7F)c7ccc4[nH]7)C=C6)C=C5)cc3)C2)c1
REMARK SMILES IDX 15 1 14 2 13 3 11 4 12 5 9 6 6 7 7 8 73 9 8 10 5 11 1 12
REMARK SMILES IDX 2 13 3 14 74 15 4 16 10 17 16 21 17 22 18 23 19 24 20 25
REMARK SMILES IDX 72 26 21 27 71 28 22 29 23 30 24 31 65 32 25 33 70 34 64 35
REMARK SMILES IDX 66 36 26 37 69 38 63 39 62 40 27 42 53 43 36 44 52 45 37 46
REMARK SMILES IDX 40 47 51 48 67 49 38 50 39 51 50 53 68 54 41 55 28 56 29 57
REMARK SMILES IDX 34 58 30 59 31 60 33 61 35 62 32 63 54 64 55 65 60 66 56 67
REMARK SMILES IDX 57 68 59 69 61 70 58 71 42 72 43 73 48 74 44 75 45 76 47 77
REMARK SMILES IDX 49 78 46 79
REMARK H PARENT 10 18 10 19 10 20 66 41 40 52
REMARK Flexibility Score: inf
ROOT
ATOM      1  C   UNL A   1      31.918  29.676  25.749  1.00  0.00     0.275 C 
ENDROOT
BRANCH   1   2
ATOM      2  C   UNL A   1      32.744  28.409  25.504  1.00  0.00     0.274 C 
BRANCH   2   3
ATOM      3  O   UNL A   1      31.956  27.200  25.619  1.00  0.00    -0.457 OA
BRANCH   3   4
ATOM      4  C   UNL A   1      31.566  26.622  24.444  1.00  0.00     0.368 C 
ATOM      5  O   UNL A   1      31.892  27.036  23.332  1.00  0.00    -0.245 OA
BRANCH   4   6
ATOM      6  C   UNL A   1      30.593  25.391  24.623  1.00  0.00     0.194 C 
ATOM      7  C   UNL A   1      31.883  23.288  24.274  1.00  0.00     0.114 C 
ATOM      8  C   UNL A   1      31.322  23.251  25.700  1.00  0.00     0.034 C 
ATOM      9  C   UNL A   1      30.906  24.273  23.589  1.00  0.00     0.108 C 
ATOM     10  C   UNL A   1      30.638  24.618  25.962  1.00  0.00     0.083 C 
BRANCH   7  11
ATOM     11  N   UNL A   1      33.318  23.599  24.141  1.00  0.00    -0.269 N 
ATOM     12  C   UNL A   1      37.262  23.860  26.075  1.00  0.00     0.048 C 
ATOM     13  C   UNL A   1      36.084  23.673  25.171  1.00  0.00    -0.013 A 
ATOM     14  C   UNL A   1      36.106  23.169  23.238  1.00  0.00     0.138 A 
ATOM     15  C   UNL A   1      34.391  23.914  25.613  1.00  0.00     0.112 A 
ATOM     16  N   UNL A   1      34.436  23.111  22.671  1.00  0.00    -0.181 NA
ENDBRANCH   7  11
BRANCH   6  17
ATOM     17  N   UNL A   1      29.239  25.943  24.376  1.00  0.00    -0.343 N 
ATOM     18  H   UNL A   1      28.590  25.577  25.075  1.00  0.00     0.345 HD
ATOM     19  H   UNL A   1      28.924  25.667  23.446  1.00  0.00     0.345 HD
ATOM     20  H   UNL A   1      29.269  26.959  24.439  1.00  0.00     0.345 HD
ENDBRANCH   6  17
ENDBRANCH   4   6
ENDBRANCH   3   4
ENDBRANCH   2   3
ENDBRANCH   1   2
BRANCH   1  21
ATOM     21  O   UNL A   1      32.116  30.190  27.080  1.00  0.00    -0.458 OA
BRANCH  21  22
ATOM     22  C   UNL A   1      32.168  31.697  27.238  1.00  0.00     0.338 C 
ATOM     23  O   UNL A   1      31.262  32.081  26.464  1.00  0.00    -0.246 OA
BRANCH  22  24
ATOM     24  C   UNL A   1      33.768  32.826  28.328  1.00  0.00     0.060 A 
ATOM     25  C   UNL A   1      34.842  33.691  27.774  1.00  0.00     0.016 A 
ATOM     26  C   UNL A   1      34.337  32.581  29.665  1.00  0.00     0.016 A 
ATOM     27  C   UNL A   1      36.190  33.356  27.964  1.00  0.00     0.010 A 
ATOM     28  C   UNL A   1      35.557  31.959  29.773  1.00  0.00     0.010 A 
ATOM     29  C   UNL A   1      36.503  32.313  28.840  1.00  0.00    -0.014 A 
BRANCH  29  30
ATOM     30  C   UNL A   1      37.857  32.113  29.310  1.00  0.00     0.031 A 
ATOM     31  C   UNL A   1      38.160  30.673  29.042  1.00  0.00     0.074 A 
ATOM     32  C   UNL A   1      38.721  33.070  29.707  1.00  0.00     0.049 A 
ATOM     33  N   UNL A   1      37.973  29.725  29.899  1.00  0.00    -0.248 NA
ATOM     34  C   UNL A   1      38.213  30.169  27.644  1.00  0.00     0.031 C 
ATOM     35  C   UNL A   1      38.586  34.527  29.762  1.00  0.00     0.029 A 
ATOM     36  N   UNL A   1      40.002  32.882  30.147  1.00  0.00    -0.354 N 
ATOM     37  C   UNL A   1      38.230  28.557  29.203  1.00  0.00     0.074 A 
ATOM     38  C   UNL A   1      38.016  28.861  27.822  1.00  0.00     0.031 C 
ATOM     39  C   UNL A   1      39.805  35.095  29.968  1.00  0.00     0.029 A 
ATOM     40  C   UNL A   1      40.783  34.048  30.204  1.00  0.00     0.049 A 
ATOM     41  H   UNL A   1      40.349  31.998  30.403  1.00  0.00     0.167 HD
ATOM     42  C   UNL A   1      39.007  27.610  29.786  1.00  0.00     0.037 A 
ATOM     43  C   UNL A   1      42.130  34.063  30.428  1.00  0.00     0.037 A 
ATOM     44  C   UNL A   1      39.050  27.828  31.218  1.00  0.00     0.049 A 
ATOM     45  C   UNL A   1      42.458  32.755  31.078  1.00  0.00     0.074 A 
ATOM     46  C   UNL A   1      38.065  27.936  32.187  1.00  0.00     0.029 A 
ATOM     47  N   UNL A   1      40.142  28.511  31.704  1.00  0.00    -0.354 N 
ATOM     48  N   UNL A   1      42.015  32.431  32.265  1.00  0.00    -0.248 NA
ATOM     49  C   UNL A   1      42.732  31.639  30.177  1.00  0.00     0.031 C 
ATOM     50  C   UNL A   1      38.441  29.071  32.968  1.00  0.00     0.029 A 
ATOM     51  C   UNL A   1      39.704  29.495  32.557  1.00  0.00     0.049 A 
ATOM     52  H   UNL A   1      41.082  28.325  31.477  1.00  0.00     0.167 HD
ATOM     53  C   UNL A   1      41.512  31.147  32.106  1.00  0.00     0.074 A 
ATOM     54  C   UNL A   1      41.994  30.708  30.791  1.00  0.00     0.031 C 
ATOM     55  C   UNL A   1      40.476  30.681  32.866  1.00  0.00     0.037 A 
BRANCH  42  56
ATOM     56  C   UNL A   1      40.068  26.849  29.035  1.00  0.00     0.057 A 
ATOM     57  C   UNL A   1      41.162  27.560  28.524  1.00  0.00     0.134 A 
ATOM     58  C   UNL A   1      39.941  25.524  28.558  1.00  0.00     0.134 A 
ATOM     59  F   UNL A   1      41.376  28.836  28.882  1.00  0.00    -0.206 F 
ATOM     60  C   UNL A   1      42.027  27.016  27.569  1.00  0.00     0.040 A 
ATOM     61  C   UNL A   1      40.826  24.954  27.645  1.00  0.00     0.040 A 
ATOM     62  F   UNL A   1      38.908  24.731  28.858  1.00  0.00    -0.206 F 
ATOM     63  C   UNL A   1      41.859  25.710  27.124  1.00  0.00     0.006 A 
ENDBRANCH  42  56
BRANCH  43  64
ATOM     64  C   UNL A   1      43.192  34.907  29.807  1.00  0.00     0.057 A 
ATOM     65  C   UNL A   1      43.571  34.766  28.457  1.00  0.00     0.134 A 
ATOM     66  C   UNL A   1      43.641  36.077  30.438  1.00  0.00     0.134 A 
ATOM     67  F   UNL A   1      43.160  33.711  27.739  1.00  0.00    -0.206 F 
ATOM     68  C   UNL A   1      44.325  35.741  27.777  1.00  0.00     0.040 A 
ATOM     69  C   UNL A   1      44.388  37.058  29.772  1.00  0.00     0.040 A 
ATOM     70  F   UNL A   1      43.290  36.353  31.701  1.00  0.00    -0.206 F 
ATOM     71  C   UNL A   1      44.723  36.901  28.434  1.00  0.00     0.006 A 
ENDBRANCH  43  64
BRANCH  55  72
ATOM     72  C   UNL A   1      39.993  31.520  34.025  1.00  0.00     0.057 A 
ATOM     73  C   UNL A   1      38.920  32.429  33.984  1.00  0.00     0.134 A 
ATOM     74  C   UNL A   1      40.535  31.260  35.288  1.00  0.00     0.134 A 
ATOM     75  F   UNL A   1      38.262  32.675  32.845  1.00  0.00    -0.206 F 
ATOM     76  C   UNL A   1      38.444  33.072  35.135  1.00  0.00     0.040 A 
ATOM     77  C   UNL A   1      40.051  31.870  36.446  1.00  0.00     0.040 A 
ATOM     78  F   UNL A   1      41.519  30.358  35.421  1.00  0.00    -0.206 F 
ATOM     79  C   UNL A   1      39.009  32.789  36.373  1.00  0.00     0.006 A 
ENDBRANCH  55  72
ENDBRANCH  29  30
ENDBRANCH  22  24
ENDBRANCH  21  22
ENDBRANCH   1  21
TORSDOF 13
ENDMDL
MODEL 3
REMARK VINA RESULT:     -11.4      1.284      2.703
REMARK SMILES Cc1cnn([C@H]2CC[C@@]([NH3+])(C(=O)OCCOC(=O)c3ccc(-c4c5nc(c(-c6c(F)cccc6F)c6ccc([nH]6)c(-c6c(F)cccc6F)c6nc(c(-c7c(F)cccc7F)c7ccc4[nH]7)C=C6)C=C5)cc3)C2)c1
REMARK SMILES IDX 15 1 14 2 13 3 11 4 12 5 9 6 6 7 7 8 73 9 8 10 5 11 1 12
REMARK SMILES IDX 2 13 3 14 74 15 4 16 10 17 16 21 17 22 18 23 19 24 20 25
REMARK SMILES IDX 72 26 21 27 71 28 22 29 23 30 24 31 65 32 25 33 70 34 64 35
REMARK SMILES IDX 66 36 26 37 69 38 63 39 62 40 27 42 53 43 36 44 52 45 37 46
REMARK SMILES IDX 40 47 51 48 67 49 38 50 39 51 50 53 68 54 41 55 28 56 29 57
REMARK SMILES IDX 34 58 30 59 31 60 33 61 35 62 32 63 54 64 55 65 60 66 56 67
REMARK SMILES IDX 57 68 59 69 61 70 58 71 42 72 43 73 48 74 44 75 45 76 47 77
REMARK SMILES IDX 49 78 46 79
REMARK H PARENT 10 18 10 19 10 20 66 41 40 52
REMARK Flexibility Score: inf
ROOT
ATOM      1  C   UNL A   1      33.655  29.552  26.687  1.00  0.00     0.275 C 
ENDROOT
BRANCH   1   2
ATOM      2  C   UNL A   1      33.595  28.402  25.676  1.00  0.00     0.274 C 
BRANCH   2   3
ATOM      3  O   UNL A   1      32.611  28.625  24.638  1.00  0.00    -0.457 OA
BRANCH   3   4
ATOM      4  C   UNL A   1      32.736  27.857  23.515  1.00  0.00     0.368 C 
ATOM      5  O   UNL A   1      33.812  27.582  22.985  1.00  0.00    -0.245 OA
BRANCH   4   6
ATOM      6  C   UNL A   1      31.359  27.388  22.899  1.00  0.00     0.194 C 
ATOM      7  C   UNL A   1      31.302  24.897  22.857  1.00  0.00     0.114 C 
ATOM      8  C   UNL A   1      30.136  25.368  23.731  1.00  0.00     0.034 C 
ATOM      9  C   UNL A   1      31.548  26.148  21.981  1.00  0.00     0.108 C 
ATOM     10  C   UNL A   1      30.254  26.908  23.870  1.00  0.00     0.083 C 
BRANCH   7  11
ATOM     11  N   UNL A   1      32.478  24.359  23.565  1.00  0.00    -0.269 N 
ATOM     12  C   UNL A   1      36.627  22.913  23.321  1.00  0.00     0.048 C 
ATOM     13  C   UNL A   1      35.308  23.524  23.677  1.00  0.00    -0.013 A 
ATOM     14  C   UNL A   1      34.818  24.447  25.379  1.00  0.00     0.138 A 
ATOM     15  C   UNL A   1      33.857  23.514  22.669  1.00  0.00     0.112 A 
ATOM     16  N   UNL A   1      33.130  24.951  25.259  1.00  0.00    -0.181 NA
ENDBRANCH   7  11
BRANCH   6  17
ATOM     17  N   UNL A   1      30.892  28.545  22.096  1.00  0.00    -0.343 N 
ATOM     18  H   UNL A   1      29.882  28.481  21.964  1.00  0.00     0.345 HD
ATOM     19  H   UNL A   1      31.355  28.536  21.187  1.00  0.00     0.345 HD
ATOM     20  H   UNL A   1      31.117  29.410  22.585  1.00  0.00     0.345 HD
ENDBRANCH   6  17
ENDBRANCH   4   6
ENDBRANCH   3   4
ENDBRANCH   2   3
ENDBRANCH   1   2
BRANCH   1  21
ATOM     21  O   UNL A   1      32.351  30.110  26.935  1.00  0.00    -0.458 OA
BRANCH  21  22
ATOM     22  C   UNL A   1      32.280  31.591  27.249  1.00  0.00     0.338 C 
ATOM     23  O   UNL A   1      31.283  31.960  26.587  1.00  0.00    -0.246 OA
BRANCH  22  24
ATOM     24  C   UNL A   1      33.857  32.757  28.334  1.00  0.00     0.060 A 
ATOM     25  C   UNL A   1      34.922  33.630  27.776  1.00  0.00     0.016 A 
ATOM     26  C   UNL A   1      34.421  32.538  29.678  1.00  0.00     0.016 A 
ATOM     27  C   UNL A   1      36.274  33.317  27.979  1.00  0.00     0.010 A 
ATOM     28  C   UNL A   1      35.649  31.935  29.801  1.00  0.00     0.010 A 
ATOM     29  C   UNL A   1      36.595  32.291  28.870  1.00  0.00    -0.014 A 
BRANCH  29  30
ATOM     30  C   UNL A   1      37.949  32.116  29.351  1.00  0.00     0.031 A 
ATOM     31  C   UNL A   1      38.294  30.692  29.053  1.00  0.00     0.074 A 
ATOM     32  C   UNL A   1      38.783  33.086  29.780  1.00  0.00     0.049 A 
ATOM     33  N   UNL A   1      38.123  29.718  29.886  1.00  0.00    -0.248 NA
ATOM     34  C   UNL A   1      38.377  30.222  27.645  1.00  0.00     0.031 C 
ATOM     35  C   UNL A   1      38.607  34.538  29.868  1.00  0.00     0.029 A 
ATOM     36  N   UNL A   1      40.063  32.923  30.230  1.00  0.00    -0.354 N 
ATOM     37  C   UNL A   1      38.420  28.575  29.165  1.00  0.00     0.074 A 
ATOM     38  C   UNL A   1      38.214  28.905  27.790  1.00  0.00     0.031 C 
ATOM     39  C   UNL A   1      39.808  35.133  30.101  1.00  0.00     0.029 A 
ATOM     40  C   UNL A   1      40.811  34.107  30.325  1.00  0.00     0.049 A 
ATOM     41  H   UNL A   1      40.432  32.042  30.470  1.00  0.00     0.167 HD
ATOM     42  C   UNL A   1      39.216  27.636  29.736  1.00  0.00     0.037 A 
ATOM     43  C   UNL A   1      42.155  34.154  30.565  1.00  0.00     0.037 A 
ATOM     44  C   UNL A   1      39.237  27.821  31.173  1.00  0.00     0.049 A 
ATOM     45  C   UNL A   1      42.511  32.840  31.188  1.00  0.00     0.074 A 
ATOM     46  C   UNL A   1      38.240  27.880  32.132  1.00  0.00     0.029 A 
ATOM     47  N   UNL A   1      40.305  28.522  31.687  1.00  0.00    -0.354 N 
ATOM     48  N   UNL A   1      42.064  32.476  32.362  1.00  0.00    -0.248 NA
ATOM     49  C   UNL A   1      42.825  31.754  30.264  1.00  0.00     0.031 C 
ATOM     50  C   UNL A   1      38.575  29.006  32.944  1.00  0.00     0.029 A 
ATOM     51  C   UNL A   1      39.831  29.473  32.558  1.00  0.00     0.049 A 
ATOM     52  H   UNL A   1      41.252  28.367  31.467  1.00  0.00     0.167 HD
ATOM     53  C   UNL A   1      41.598  31.184  32.166  1.00  0.00     0.074 A 
ATOM     54  C   UNL A   1      42.106  30.788  30.847  1.00  0.00     0.031 C 
ATOM     55  C   UNL A   1      40.566  30.672  32.904  1.00  0.00     0.037 A 
BRANCH  42  56
ATOM     56  C   UNL A   1      40.306  26.922  28.980  1.00  0.00     0.057 A 
ATOM     57  C   UNL A   1      40.114  25.575  28.648  1.00  0.00     0.134 A 
ATOM     58  C   UNL A   1      41.626  27.399  28.802  1.00  0.00     0.134 A 
ATOM     59  F   UNL A   1      38.911  24.998  28.798  1.00  0.00    -0.206 F 
ATOM     60  C   UNL A   1      41.164  24.751  28.229  1.00  0.00     0.040 A 
ATOM     61  C   UNL A   1      42.669  26.600  28.336  1.00  0.00     0.040 A 
ATOM     62  F   UNL A   1      42.017  28.626  29.158  1.00  0.00    -0.206 F 
ATOM     63  C   UNL A   1      42.447  25.262  28.074  1.00  0.00     0.006 A 
ENDBRANCH  42  56
BRANCH  43  64
ATOM     64  C   UNL A   1      43.200  35.040  29.975  1.00  0.00     0.057 A 
ATOM     65  C   UNL A   1      43.369  35.182  28.584  1.00  0.00     0.134 A 
ATOM     66  C   UNL A   1      43.852  36.004  30.762  1.00  0.00     0.134 A 
ATOM     67  F   UNL A   1      42.755  34.348  27.733  1.00  0.00    -0.206 F 
ATOM     68  C   UNL A   1      44.117  36.231  28.016  1.00  0.00     0.040 A 
ATOM     69  C   UNL A   1      44.595  37.055  30.208  1.00  0.00     0.040 A 
ATOM     70  F   UNL A   1      43.712  36.011  32.093  1.00  0.00    -0.206 F 
ATOM     71  C   UNL A   1      44.721  37.182  28.832  1.00  0.00     0.006 A 
ENDBRANCH  43  64
BRANCH  55  72
ATOM     72  C   UNL A   1      40.048  31.470  34.076  1.00  0.00     0.057 A 
ATOM     73  C   UNL A   1      38.945  32.343  34.045  1.00  0.00     0.134 A 
ATOM     74  C   UNL A   1      40.591  31.203  35.336  1.00  0.00     0.134 A 
ATOM     75  F   UNL A   1      38.285  32.589  32.908  1.00  0.00    -0.206 F 
ATOM     76  C   UNL A   1      38.440  32.945  35.207  1.00  0.00     0.040 A 
ATOM     77  C   UNL A   1      40.079  31.772  36.504  1.00  0.00     0.040 A 
ATOM     78  F   UNL A   1      41.604  30.333  35.458  1.00  0.00    -0.206 F 
ATOM     79  C   UNL A   1      39.007  32.657  36.442  1.00  0.00     0.006 A 
ENDBRANCH  55  72
ENDBRANCH  29  30
ENDBRANCH  22  24
ENDBRANCH  21  22
ENDBRANCH   1  21
TORSDOF 13
ENDMDL
