MODEL 1
REMARK VINA RESULT:     -10.5      0.000      0.000
REMARK SMILES O=C(CC1(NS(=O)(=O)C[C@H]2CCCO2)CCC1)OCCOC(=O)c1ccc(-c2c3nc(c(-c4c(F)cccc4F)c4ccc([nH]4)c(-c4c(F)cccc4F)c4nc(c(-c5c(F)cccc5F)c5ccc2[nH]5)C=C4)C=C3)cc1
REMARK SMILES IDX 18 1 2 2 1 3 3 4 4 5 15 6 17 7 16 8 5 9 6 11 7 12 8 13 9 14
REMARK SMILES IDX 10 15 11 16 14 17 12 18 13 19 19 20 20 21 21 22 22 23 23 24
REMARK SMILES IDX 24 25 25 26 77 27 26 28 76 29 27 30 28 31 29 32 70 33 30 34
REMARK SMILES IDX 75 35 69 36 71 37 31 38 74 39 68 40 67 41 32 43 58 44 41 45
REMARK SMILES IDX 57 46 42 47 45 48 56 49 72 50 43 51 44 52 55 54 73 55 46 56
REMARK SMILES IDX 33 57 34 58 39 59 35 60 36 61 38 62 40 63 37 64 59 65 60 66
REMARK SMILES IDX 65 67 61 68 62 69 64 70 66 71 63 72 47 73 48 74 53 75 49 76
REMARK SMILES IDX 50 77 52 78 54 79 51 80
REMARK H PARENT 5 10 71 42 45 53
REMARK Flexibility Score: inf
ROOT
ATOM      1  O   UNL A   1      31.908  29.997  27.200  1.00  0.00    -0.462 OA
ENDROOT
BRANCH   1   2
ATOM      2  C   UNL A   1      31.966  28.665  26.999  1.00  0.00     0.307 C 
ATOM      3  O   UNL A   1      31.180  27.931  27.598  1.00  0.00    -0.252 OA
BRANCH   2   4
ATOM      4  C   UNL A   1      32.957  28.071  26.022  1.00  0.00     0.146 C 
BRANCH   4   5
ATOM      5  C   UNL A   1      32.555  27.819  24.562  1.00  0.00     0.043 C 
ATOM      6  C   UNL A   1      33.068  28.944  23.602  1.00  0.00     0.024 C 
ATOM      7  C   UNL A   1      33.505  26.842  23.796  1.00  0.00     0.024 C 
ATOM      8  C   UNL A   1      33.742  27.898  22.719  1.00  0.00     0.004 C 
BRANCH   5   9
ATOM      9  N   UNL A   1      31.069  27.484  24.457  1.00  0.00    -0.208 NA
ATOM     10  H   UNL A   1      30.653  27.954  25.261  1.00  0.00     0.141 HD
BRANCH   9  11
ATOM     11  S   UNL A   1      29.965  27.758  23.210  1.00  0.00     0.214 S 
ATOM     12  O   UNL A   1      30.632  27.482  21.956  1.00  0.00    -0.212 OA
ATOM     13  O   UNL A   1      28.756  27.054  23.573  1.00  0.00    -0.212 OA
BRANCH  11  14
ATOM     14  C   UNL A   1      29.670  29.503  23.248  1.00  0.00     0.185 C 
BRANCH  14  15
ATOM     15  C   UNL A   1      28.393  30.060  22.640  1.00  0.00     0.134 C 
ATOM     16  C   UNL A   1      27.963  31.428  23.153  1.00  0.00     0.035 C 
ATOM     17  O   UNL A   1      28.403  30.103  21.214  1.00  0.00    -0.377 OA
ATOM     18  C   UNL A   1      28.240  32.344  21.995  1.00  0.00     0.031 C 
ATOM     19  C   UNL A   1      28.080  31.437  20.795  1.00  0.00     0.160 C 
ENDBRANCH  14  15
ENDBRANCH  11  14
ENDBRANCH   9  11
ENDBRANCH   5   9
ENDBRANCH   4   5
ENDBRANCH   2   4
ENDBRANCH   1   2
BRANCH   1  20
ATOM     20  C   UNL A   1      31.433  30.928  26.206  1.00  0.00     0.274 C 
BRANCH  20  21
ATOM     21  C   UNL A   1      31.723  32.383  26.576  1.00  0.00     0.275 C 
BRANCH  21  22
ATOM     22  O   UNL A   1      32.472  32.407  27.801  1.00  0.00    -0.458 OA
BRANCH  22  23
ATOM     23  C   UNL A   1      33.328  33.440  27.981  1.00  0.00     0.338 C 
ATOM     24  O   UNL A   1      33.120  34.619  27.809  1.00  0.00    -0.246 OA
BRANCH  23  25
ATOM     25  C   UNL A   1      34.593  32.850  28.468  1.00  0.00     0.060 A 
ATOM     26  C   UNL A   1      34.590  31.569  29.018  1.00  0.00     0.016 A 
ATOM     27  C   UNL A   1      35.797  33.535  28.293  1.00  0.00     0.016 A 
ATOM     28  C   UNL A   1      35.797  30.988  29.426  1.00  0.00     0.010 A 
ATOM     29  C   UNL A   1      37.008  32.909  28.612  1.00  0.00     0.010 A 
ATOM     30  C   UNL A   1      37.023  31.655  29.244  1.00  0.00    -0.014 A 
BRANCH  30  31
ATOM     31  C   UNL A   1      38.277  31.096  29.838  1.00  0.00     0.031 A 
ATOM     32  C   UNL A   1      38.660  31.447  31.260  1.00  0.00     0.074 A 
ATOM     33  C   UNL A   1      39.058  30.233  29.154  1.00  0.00     0.049 A 
ATOM     34  N   UNL A   1      39.616  30.951  32.010  1.00  0.00    -0.248 NA
ATOM     35  C   UNL A   1      37.887  32.510  31.921  1.00  0.00     0.031 C 
ATOM     36  C   UNL A   1      38.886  29.853  27.752  1.00  0.00     0.029 A 
ATOM     37  N   UNL A   1      40.154  29.504  29.560  1.00  0.00    -0.354 N 
ATOM     38  C   UNL A   1      39.541  31.630  33.221  1.00  0.00     0.074 A 
ATOM     39  C   UNL A   1      38.519  32.639  33.076  1.00  0.00     0.031 C 
ATOM     40  C   UNL A   1      39.812  28.933  27.427  1.00  0.00     0.029 A 
ATOM     41  C   UNL A   1      40.648  28.658  28.594  1.00  0.00     0.049 A 
ATOM     42  H   UNL A   1      40.547  29.582  30.459  1.00  0.00     0.167 HD
ATOM     43  C   UNL A   1      40.213  31.408  34.376  1.00  0.00     0.037 A 
ATOM     44  C   UNL A   1      41.642  27.748  28.649  1.00  0.00     0.037 A 
ATOM     45  C   UNL A   1      41.222  30.400  34.554  1.00  0.00     0.049 A 
ATOM     46  C   UNL A   1      42.373  27.507  29.946  1.00  0.00     0.074 A 
ATOM     47  C   UNL A   1      41.923  30.074  35.702  1.00  0.00     0.029 A 
ATOM     48  N   UNL A   1      41.675  29.556  33.555  1.00  0.00    -0.354 N 
ATOM     49  N   UNL A   1      42.205  28.081  31.113  1.00  0.00    -0.248 NA
ATOM     50  C   UNL A   1      43.417  26.470  29.938  1.00  0.00     0.031 C 
ATOM     51  C   UNL A   1      42.830  29.057  35.388  1.00  0.00     0.029 A 
ATOM     52  C   UNL A   1      42.658  28.719  34.056  1.00  0.00     0.049 A 
ATOM     53  H   UNL A   1      41.349  29.552  32.626  1.00  0.00     0.167 HD
ATOM     54  C   UNL A   1      43.100  27.456  31.978  1.00  0.00     0.074 A 
ATOM     55  C   UNL A   1      43.786  26.443  31.210  1.00  0.00     0.031 C 
ATOM     56  C   UNL A   1      43.335  27.706  33.290  1.00  0.00     0.037 A 
BRANCH  43  57
ATOM     57  C   UNL A   1      39.841  32.256  35.559  1.00  0.00     0.057 A 
ATOM     58  C   UNL A   1      38.804  31.885  36.427  1.00  0.00     0.134 A 
ATOM     59  C   UNL A   1      40.536  33.435  35.851  1.00  0.00     0.134 A 
ATOM     60  F   UNL A   1      38.088  30.774  36.194  1.00  0.00    -0.206 F 
ATOM     61  C   UNL A   1      38.453  32.669  37.525  1.00  0.00     0.040 A 
ATOM     62  C   UNL A   1      40.214  34.214  36.965  1.00  0.00     0.040 A 
ATOM     63  F   UNL A   1      41.543  33.847  35.065  1.00  0.00    -0.206 F 
ATOM     64  C   UNL A   1      39.166  33.834  37.802  1.00  0.00     0.006 A 
ENDBRANCH  43  57
BRANCH  44  65
ATOM     65  C   UNL A   1      41.999  26.948  27.444  1.00  0.00     0.057 A 
ATOM     66  C   UNL A   1      41.452  25.676  27.227  1.00  0.00     0.134 A 
ATOM     67  C   UNL A   1      42.943  27.408  26.520  1.00  0.00     0.134 A 
ATOM     68  F   UNL A   1      40.563  25.166  28.092  1.00  0.00    -0.206 F 
ATOM     69  C   UNL A   1      41.857  24.879  26.154  1.00  0.00     0.040 A 
ATOM     70  C   UNL A   1      43.335  26.633  25.427  1.00  0.00     0.040 A 
ATOM     71  F   UNL A   1      43.504  28.617  26.671  1.00  0.00    -0.206 F 
ATOM     72  C   UNL A   1      42.800  25.358  25.249  1.00  0.00     0.006 A 
ENDBRANCH  44  65
BRANCH  56  73
ATOM     73  C   UNL A   1      44.356  26.853  33.986  1.00  0.00     0.057 A 
ATOM     74  C   UNL A   1      44.009  25.659  34.632  1.00  0.00     0.134 A 
ATOM     75  C   UNL A   1      45.710  27.216  33.988  1.00  0.00     0.134 A 
ATOM     76  F   UNL A   1      42.730  25.255  34.673  1.00  0.00    -0.206 F 
ATOM     77  C   UNL A   1      44.963  24.876  35.285  1.00  0.00     0.040 A 
ATOM     78  C   UNL A   1      46.678  26.425  34.613  1.00  0.00     0.040 A 
ATOM     79  F   UNL A   1      46.116  28.338  33.377  1.00  0.00    -0.206 F 
ATOM     80  C   UNL A   1      46.303  25.258  35.272  1.00  0.00     0.006 A 
ENDBRANCH  56  73
ENDBRANCH  30  31
ENDBRANCH  23  25
ENDBRANCH  22  23
ENDBRANCH  21  22
ENDBRANCH  20  21
ENDBRANCH   1  20
TORSDOF 16
ENDMDL
MODEL 2
REMARK VINA RESULT:     -10.3      1.707      3.424
REMARK SMILES O=C(CC1(NS(=O)(=O)C[C@H]2CCCO2)CCC1)OCCOC(=O)c1ccc(-c2c3nc(c(-c4c(F)cccc4F)c4ccc([nH]4)c(-c4c(F)cccc4F)c4nc(c(-c5c(F)cccc5F)c5ccc2[nH]5)C=C4)C=C3)cc1
REMARK SMILES IDX 18 1 2 2 1 3 3 4 4 5 15 6 17 7 16 8 5 9 6 11 7 12 8 13 9 14
REMARK SMILES IDX 10 15 11 16 14 17 12 18 13 19 19 20 20 21 21 22 22 23 23 24
REMARK SMILES IDX 24 25 25 26 77 27 26 28 76 29 27 30 28 31 29 32 70 33 30 34
REMARK SMILES IDX 75 35 69 36 71 37 31 38 74 39 68 40 67 41 32 43 58 44 41 45
REMARK SMILES IDX 57 46 42 47 45 48 56 49 72 50 43 51 44 52 55 54 73 55 46 56
REMARK SMILES IDX 33 57 34 58 39 59 35 60 36 61 38 62 40 63 37 64 59 65 60 66
REMARK SMILES IDX 65 67 61 68 62 69 64 70 66 71 63 72 47 73 48 74 53 75 49 76
REMARK SMILES IDX 50 77 52 78 54 79 51 80
REMARK H PARENT 5 10 71 42 45 53
REMARK Flexibility Score: inf
ROOT
ATOM      1  O   UNL A   1      32.369  29.769  25.017  1.00  0.00    -0.462 OA
ENDROOT
BRANCH   1   2
ATOM      2  C   UNL A   1      32.624  29.296  23.780  1.00  0.00     0.307 C 
ATOM      3  O   UNL A   1      33.792  29.210  23.397  1.00  0.00    -0.252 OA
BRANCH   2   4
ATOM      4  C   UNL A   1      31.499  28.838  22.878  1.00  0.00     0.146 C 
BRANCH   4   5
ATOM      5  C   UNL A   1      31.029  27.377  22.901  1.00  0.00     0.043 C 
ATOM      6  C   UNL A   1      31.397  26.656  24.242  1.00  0.00     0.024 C 
ATOM      7  C   UNL A   1      29.530  27.193  23.306  1.00  0.00     0.024 C 
ATOM      8  C   UNL A   1      29.939  26.252  24.437  1.00  0.00     0.004 C 
BRANCH   5   9
ATOM      9  N   UNL A   1      31.442  26.652  21.623  1.00  0.00    -0.208 NA
ATOM     10  H   UNL A   1      31.344  27.360  20.896  1.00  0.00     0.141 HD
BRANCH   9  11
ATOM     11  S   UNL A   1      32.877  25.857  21.225  1.00  0.00     0.214 S 
ATOM     12  O   UNL A   1      32.806  25.483  19.829  1.00  0.00    -0.212 OA
ATOM     13  O   UNL A   1      33.954  26.689  21.712  1.00  0.00    -0.212 OA
BRANCH  11  14
ATOM     14  C   UNL A   1      32.826  24.349  22.151  1.00  0.00     0.185 C 
BRANCH  14  15
ATOM     15  C   UNL A   1      33.765  24.165  23.333  1.00  0.00     0.134 C 
ATOM     16  C   UNL A   1      33.289  23.193  24.405  1.00  0.00     0.035 C 
ATOM     17  O   UNL A   1      35.094  23.801  22.962  1.00  0.00    -0.377 OA
ATOM     18  C   UNL A   1      34.190  22.004  24.231  1.00  0.00     0.031 C 
ATOM     19  C   UNL A   1      35.460  22.613  23.679  1.00  0.00     0.160 C 
ENDBRANCH  14  15
ENDBRANCH  11  14
ENDBRANCH   9  11
ENDBRANCH   5   9
ENDBRANCH   4   5
ENDBRANCH   2   4
ENDBRANCH   1   2
BRANCH   1  20
ATOM     20  C   UNL A   1      31.164  30.486  25.357  1.00  0.00     0.274 C 
BRANCH  20  21
ATOM     21  C   UNL A   1      31.409  31.599  26.375  1.00  0.00     0.275 C 
BRANCH  21  22
ATOM     22  O   UNL A   1      32.708  31.412  26.959  1.00  0.00    -0.458 OA
BRANCH  22  23
ATOM     23  C   UNL A   1      33.281  32.488  27.548  1.00  0.00     0.338 C 
ATOM     24  O   UNL A   1      32.838  33.611  27.641  1.00  0.00    -0.246 OA
BRANCH  23  25
ATOM     25  C   UNL A   1      34.570  32.021  28.102  1.00  0.00     0.060 A 
ATOM     26  C   UNL A   1      34.743  30.671  28.400  1.00  0.00     0.016 A 
ATOM     27  C   UNL A   1      35.636  32.912  28.237  1.00  0.00     0.016 A 
ATOM     28  C   UNL A   1      35.983  30.220  28.869  1.00  0.00     0.010 A 
ATOM     29  C   UNL A   1      36.898  32.437  28.611  1.00  0.00     0.010 A 
ATOM     30  C   UNL A   1      37.075  31.098  28.997  1.00  0.00    -0.014 A 
BRANCH  30  31
ATOM     31  C   UNL A   1      38.336  30.637  29.658  1.00  0.00     0.031 A 
ATOM     32  C   UNL A   1      38.630  31.040  31.088  1.00  0.00     0.074 A 
ATOM     33  C   UNL A   1      39.204  29.817  29.028  1.00  0.00     0.049 A 
ATOM     34  N   UNL A   1      39.582  30.624  31.890  1.00  0.00    -0.248 NA
ATOM     35  C   UNL A   1      37.758  32.060  31.691  1.00  0.00     0.031 C 
ATOM     36  C   UNL A   1      39.121  29.400  27.628  1.00  0.00     0.029 A 
ATOM     37  N   UNL A   1      40.327  29.172  29.498  1.00  0.00    -0.354 N 
ATOM     38  C   UNL A   1      39.406  31.319  33.081  1.00  0.00     0.074 A 
ATOM     39  C   UNL A   1      38.326  32.253  32.869  1.00  0.00     0.031 C 
ATOM     40  C   UNL A   1      40.121  28.539  27.365  1.00  0.00     0.029 A 
ATOM     41  C   UNL A   1      40.920  28.343  28.574  1.00  0.00     0.049 A 
ATOM     42  H   UNL A   1      40.672  29.293  30.412  1.00  0.00     0.167 HD
ATOM     43  C   UNL A   1      40.038  31.166  34.269  1.00  0.00     0.037 A 
ATOM     44  C   UNL A   1      41.969  27.504  28.692  1.00  0.00     0.037 A 
ATOM     45  C   UNL A   1      41.103  30.232  34.513  1.00  0.00     0.049 A 
ATOM     46  C   UNL A   1      42.654  27.338  30.025  1.00  0.00     0.074 A 
ATOM     47  C   UNL A   1      41.771  29.977  35.698  1.00  0.00     0.029 A 
ATOM     48  N   UNL A   1      41.657  29.402  33.554  1.00  0.00    -0.354 N 
ATOM     49  N   UNL A   1      42.396  27.921  31.171  1.00  0.00    -0.248 NA
ATOM     50  C   UNL A   1      43.765  26.375  30.086  1.00  0.00     0.031 C 
ATOM     51  C   UNL A   1      42.759  29.018  35.447  1.00  0.00     0.029 A 
ATOM     52  C   UNL A   1      42.671  28.643  34.116  1.00  0.00     0.049 A 
ATOM     53  H   UNL A   1      41.374  29.359  32.612  1.00  0.00     0.167 HD
ATOM     54  C   UNL A   1      43.290  27.375  32.088  1.00  0.00     0.074 A 
ATOM     55  C   UNL A   1      44.077  26.396  31.373  1.00  0.00     0.031 C 
ATOM     56  C   UNL A   1      43.448  27.665  33.403  1.00  0.00     0.037 A 
BRANCH  43  57
ATOM     57  C   UNL A   1      39.557  32.009  35.416  1.00  0.00     0.057 A 
ATOM     58  C   UNL A   1      38.577  31.542  36.305  1.00  0.00     0.134 A 
ATOM     59  C   UNL A   1      40.090  33.280  35.652  1.00  0.00     0.134 A 
ATOM     60  F   UNL A   1      38.014  30.337  36.124  1.00  0.00    -0.206 F 
ATOM     61  C   UNL A   1      38.125  32.321  37.369  1.00  0.00     0.040 A 
ATOM     62  C   UNL A   1      39.667  34.058  36.732  1.00  0.00     0.040 A 
ATOM     63  F   UNL A   1      41.033  33.787  34.844  1.00  0.00    -0.206 F 
ATOM     64  C   UNL A   1      38.677  33.580  37.591  1.00  0.00     0.006 A 
ENDBRANCH  43  57
BRANCH  44  65
ATOM     65  C   UNL A   1      42.433  26.708  27.522  1.00  0.00     0.057 A 
ATOM     66  C   UNL A   1      43.311  27.250  26.575  1.00  0.00     0.134 A 
ATOM     67  C   UNL A   1      41.957  25.412  27.290  1.00  0.00     0.134 A 
ATOM     68  F   UNL A   1      43.781  28.497  26.725  1.00  0.00    -0.206 F 
ATOM     69  C   UNL A   1      43.672  26.547  25.423  1.00  0.00     0.040 A 
ATOM     70  C   UNL A   1      42.333  24.687  26.157  1.00  0.00     0.040 A 
ATOM     71  F   UNL A   1      41.113  24.836  28.158  1.00  0.00    -0.206 F 
ATOM     72  C   UNL A   1      43.183  25.260  25.213  1.00  0.00     0.006 A 
ENDBRANCH  44  65
BRANCH  56  73
ATOM     73  C   UNL A   1      44.491  26.896  34.162  1.00  0.00     0.057 A 
ATOM     74  C   UNL A   1      45.799  27.375  34.318  1.00  0.00     0.134 A 
ATOM     75  C   UNL A   1      44.178  25.672  34.768  1.00  0.00     0.134 A 
ATOM     76  F   UNL A   1      46.168  28.538  33.758  1.00  0.00    -0.206 F 
ATOM     77  C   UNL A   1      46.766  26.650  35.017  1.00  0.00     0.040 A 
ATOM     78  C   UNL A   1      45.128  24.952  35.495  1.00  0.00     0.040 A 
ATOM     79  F   UNL A   1      42.942  25.160  34.673  1.00  0.00    -0.206 F 
ATOM     80  C   UNL A   1      46.429  25.436  35.612  1.00  0.00     0.006 A 
ENDBRANCH  56  73
ENDBRANCH  30  31
ENDBRANCH  23  25
ENDBRANCH  22  23
ENDBRANCH  21  22
ENDBRANCH  20  21
ENDBRANCH   1  20
TORSDOF 16
ENDMDL
MODEL 3
REMARK VINA RESULT:     -10.2      4.488      9.043
REMARK SMILES O=C(CC1(NS(=O)(=O)C[C@H]2CCCO2)CCC1)OCCOC(=O)c1ccc(-c2c3nc(c(-c4c(F)cccc4F)c4ccc([nH]4)c(-c4c(F)cccc4F)c4nc(c(-c5c(F)cccc5F)c5ccc2[nH]5)C=C4)C=C3)cc1
REMARK SMILES IDX 18 1 2 2 1 3 3 4 4 5 15 6 17 7 16 8 5 9 6 11 7 12 8 13 9 14
REMARK SMILES IDX 10 15 11 16 14 17 12 18 13 19 19 20 20 21 21 22 22 23 23 24
REMARK SMILES IDX 24 25 25 26 77 27 26 28 76 29 27 30 28 31 29 32 70 33 30 34
REMARK SMILES IDX 75 35 69 36 71 37 31 38 74 39 68 40 67 41 32 43 58 44 41 45
REMARK SMILES IDX 57 46 42 47 45 48 56 49 72 50 43 51 44 52 55 54 73 55 46 56
REMARK SMILES IDX 33 57 34 58 39 59 35 60 36 61 38 62 40 63 37 64 59 65 60 66
REMARK SMILES IDX 65 67 61 68 62 69 64 70 66 71 63 72 47 73 48 74 53 75 49 76
REMARK SMILES IDX 50 77 52 78 54 79 51 80
REMARK H PARENT 5 10 71 42 45 53
REMARK Flexibility Score: inf
ROOT
ATOM      1  O   UNL A   1      34.073  20.611  24.341  1.00  0.00    -0.462 OA
ENDROOT
BRANCH   1   2
ATOM      2  C   UNL A   1      32.804  21.061  24.267  1.00  0.00     0.307 C 
ATOM      3  O   UNL A   1      31.976  20.665  25.088  1.00  0.00    -0.252 OA
BRANCH   2   4
ATOM      4  C   UNL A   1      32.399  22.070  23.214  1.00  0.00     0.146 C 
BRANCH   4   5
ATOM      5  C   UNL A   1      31.994  23.495  23.617  1.00  0.00     0.043 C 
ATOM      6  C   UNL A   1      30.751  23.512  24.568  1.00  0.00     0.024 C 
ATOM      7  C   UNL A   1      32.817  24.080  24.811  1.00  0.00     0.024 C 
ATOM      8  C   UNL A   1      31.527  24.344  25.585  1.00  0.00     0.004 C 
BRANCH   5   9
ATOM      9  N   UNL A   1      31.906  24.401  22.393  1.00  0.00    -0.208 NA
ATOM     10  H   UNL A   1      31.100  24.996  22.584  1.00  0.00     0.141 HD
BRANCH   9  11
ATOM     11  S   UNL A   1      33.040  25.458  21.722  1.00  0.00     0.214 S 
ATOM     12  O   UNL A   1      34.329  25.155  22.305  1.00  0.00    -0.212 OA
ATOM     13  O   UNL A   1      32.848  25.407  20.290  1.00  0.00    -0.212 OA
BRANCH  11  14
ATOM     14  C   UNL A   1      32.577  27.055  22.327  1.00  0.00     0.185 C 
BRANCH  14  15
ATOM     15  C   UNL A   1      31.180  27.268  22.887  1.00  0.00     0.134 C 
ATOM     16  C   UNL A   1      31.115  27.912  24.266  1.00  0.00     0.035 C 
ATOM     17  O   UNL A   1      30.314  27.994  22.016  1.00  0.00    -0.377 OA
ATOM     18  C   UNL A   1      30.599  29.295  23.988  1.00  0.00     0.031 C 
ATOM     19  C   UNL A   1      29.764  29.105  22.740  1.00  0.00     0.160 C 
ENDBRANCH  14  15
ENDBRANCH  11  14
ENDBRANCH   9  11
ENDBRANCH   5   9
ENDBRANCH   4   5
ENDBRANCH   2   4
ENDBRANCH   1   2
BRANCH   1  20
ATOM     20  C   UNL A   1      35.034  21.107  25.295  1.00  0.00     0.274 C 
BRANCH  20  21
ATOM     21  C   UNL A   1      36.433  20.533  25.073  1.00  0.00     0.275 C 
BRANCH  21  22
ATOM     22  O   UNL A   1      37.401  21.558  25.349  1.00  0.00    -0.458 OA
BRANCH  22  23
ATOM     23  C   UNL A   1      38.605  21.158  25.823  1.00  0.00     0.338 C 
ATOM     24  O   UNL A   1      39.088  20.050  25.791  1.00  0.00    -0.246 OA
BRANCH  23  25
ATOM     25  C   UNL A   1      39.254  22.366  26.377  1.00  0.00     0.060 A 
ATOM     26  C   UNL A   1      38.686  23.619  26.151  1.00  0.00     0.016 A 
ATOM     27  C   UNL A   1      40.375  22.242  27.199  1.00  0.00     0.016 A 
ATOM     28  C   UNL A   1      39.269  24.756  26.724  1.00  0.00     0.010 A 
ATOM     29  C   UNL A   1      40.892  23.370  27.847  1.00  0.00     0.010 A 
ATOM     30  C   UNL A   1      40.389  24.651  27.569  1.00  0.00    -0.014 A 
BRANCH  30  31
ATOM     31  C   UNL A   1      41.099  25.885  28.032  1.00  0.00     0.031 A 
ATOM     32  C   UNL A   1      42.524  26.146  27.593  1.00  0.00     0.074 A 
ATOM     33  C   UNL A   1      40.478  26.811  28.794  1.00  0.00     0.049 A 
ATOM     34  N   UNL A   1      43.260  27.220  27.755  1.00  0.00    -0.248 NA
ATOM     35  C   UNL A   1      43.227  25.051  26.906  1.00  0.00     0.031 C 
ATOM     36  C   UNL A   1      39.141  26.682  29.374  1.00  0.00     0.029 A 
ATOM     37  N   UNL A   1      40.894  28.060  29.199  1.00  0.00    -0.354 N 
ATOM     38  C   UNL A   1      44.490  26.930  27.177  1.00  0.00     0.074 A 
ATOM     39  C   UNL A   1      44.442  25.551  26.754  1.00  0.00     0.031 C 
ATOM     40  C   UNL A   1      38.831  27.819  30.022  1.00  0.00     0.029 A 
ATOM     41  C   UNL A   1      39.945  28.759  29.908  1.00  0.00     0.049 A 
ATOM     42  H   UNL A   1      41.789  28.419  28.998  1.00  0.00     0.167 HD
ATOM     43  C   UNL A   1      45.554  27.740  26.960  1.00  0.00     0.037 A 
ATOM     44  C   UNL A   1      39.960  30.019  30.391  1.00  0.00     0.037 A 
ATOM     45  C   UNL A   1      45.622  29.121  27.355  1.00  0.00     0.049 A 
ATOM     46  C   UNL A   1      41.149  30.910  30.130  1.00  0.00     0.074 A 
ATOM     47  C   UNL A   1      46.642  30.030  27.136  1.00  0.00     0.029 A 
ATOM     48  N   UNL A   1      44.632  29.789  28.054  1.00  0.00    -0.354 N 
ATOM     49  N   UNL A   1      42.256  30.650  29.479  1.00  0.00    -0.248 NA
ATOM     50  C   UNL A   1      41.075  32.284  30.653  1.00  0.00     0.031 C 
ATOM     51  C   UNL A   1      46.285  31.242  27.737  1.00  0.00     0.029 A 
ATOM     52  C   UNL A   1      45.023  31.098  28.288  1.00  0.00     0.049 A 
ATOM     53  H   UNL A   1      43.779  29.394  28.343  1.00  0.00     0.167 HD
ATOM     54  C   UNL A   1      42.993  31.831  29.492  1.00  0.00     0.074 A 
ATOM     55  C   UNL A   1      42.196  32.815  30.189  1.00  0.00     0.031 C 
ATOM     56  C   UNL A   1      44.224  32.076  28.977  1.00  0.00     0.037 A 
BRANCH  43  57
ATOM     57  C   UNL A   1      46.721  27.156  26.218  1.00  0.00     0.057 A 
ATOM     58  C   UNL A   1      47.750  26.479  26.892  1.00  0.00     0.134 A 
ATOM     59  C   UNL A   1      46.810  27.242  24.825  1.00  0.00     0.134 A 
ATOM     60  F   UNL A   1      47.732  26.376  28.230  1.00  0.00    -0.206 F 
ATOM     61  C   UNL A   1      48.837  25.936  26.209  1.00  0.00     0.040 A 
ATOM     62  C   UNL A   1      47.880  26.676  24.127  1.00  0.00     0.040 A 
ATOM     63  F   UNL A   1      45.859  27.871  24.117  1.00  0.00    -0.206 F 
ATOM     64  C   UNL A   1      48.900  26.027  24.820  1.00  0.00     0.006 A 
ENDBRANCH  43  57
BRANCH  44  65
ATOM     65  C   UNL A   1      38.793  30.550  31.147  1.00  0.00     0.057 A 
ATOM     66  C   UNL A   1      38.675  30.362  32.530  1.00  0.00     0.134 A 
ATOM     67  C   UNL A   1      37.739  31.199  30.494  1.00  0.00     0.134 A 
ATOM     68  F   UNL A   1      39.638  29.722  33.209  1.00  0.00    -0.206 F 
ATOM     69  C   UNL A   1      37.536  30.768  33.230  1.00  0.00     0.040 A 
ATOM     70  C   UNL A   1      36.608  31.636  31.187  1.00  0.00     0.040 A 
ATOM     71  F   UNL A   1      37.789  31.410  29.171  1.00  0.00    -0.206 F 
ATOM     72  C   UNL A   1      36.499  31.410  32.558  1.00  0.00     0.006 A 
ENDBRANCH  44  65
BRANCH  56  73
ATOM     73  C   UNL A   1      44.772  33.467  29.122  1.00  0.00     0.057 A 
ATOM     74  C   UNL A   1      45.573  33.838  30.210  1.00  0.00     0.134 A 
ATOM     75  C   UNL A   1      44.519  34.441  28.146  1.00  0.00     0.134 A 
ATOM     76  F   UNL A   1      45.850  32.956  31.183  1.00  0.00    -0.206 F 
ATOM     77  C   UNL A   1      46.071  35.136  30.342  1.00  0.00     0.040 A 
ATOM     78  C   UNL A   1      45.036  35.734  28.253  1.00  0.00     0.040 A 
ATOM     79  F   UNL A   1      43.773  34.151  27.071  1.00  0.00    -0.206 F 
ATOM     80  C   UNL A   1      45.806  36.086  29.358  1.00  0.00     0.006 A 
ENDBRANCH  56  73
ENDBRANCH  30  31
ENDBRANCH  23  25
ENDBRANCH  22  23
ENDBRANCH  21  22
ENDBRANCH  20  21
ENDBRANCH   1  20
TORSDOF 16
ENDMDL
