MODEL 1
REMARK VINA RESULT:     -10.6      0.000      0.000
REMARK SMILES C[C@@H](O)[C@@H](NC(=O)CSc1ccncc1)C(=O)OCCOC(=O)c1ccc(-c2c3nc(c(-c4c(F)cccc4F)c4ccc([nH]4)c(-c4c(F)cccc4F)c4nc(c(-c5c(F)cccc5F)c5ccc2[nH]5)C=C4)C=C3)cc1
REMARK SMILES IDX 19 1 18 2 16 3 17 4 4 5 2 6 1 7 3 8 5 10 6 11 7 13 8 14 9 15
REMARK SMILES IDX 10 16 11 17 15 18 12 19 14 20 13 21 20 22 21 23 22 24 23 25
REMARK SMILES IDX 24 26 25 27 77 28 26 29 76 30 27 31 28 32 29 33 70 34 30 35
REMARK SMILES IDX 75 36 69 37 71 38 31 39 74 40 68 41 67 42 32 44 58 45 41 46
REMARK SMILES IDX 57 47 42 48 45 49 56 50 72 51 43 52 44 53 55 55 73 56 46 57
REMARK SMILES IDX 33 58 34 59 39 60 35 61 36 62 38 63 40 64 37 65 59 66 60 67
REMARK SMILES IDX 65 68 61 69 62 70 64 71 66 72 63 73 47 74 48 75 53 76 49 77
REMARK SMILES IDX 50 78 52 79 54 80 51 81
REMARK H PARENT 3 9 5 12 71 43 45 54
REMARK Flexibility Score: inf
ROOT
ATOM      1  C   UNL A   1      35.230  35.016  32.844  1.00  0.00     0.274 C 
ENDROOT
BRANCH   1   2
ATOM      2  O   UNL A   1      34.894  36.228  33.558  1.00  0.00    -0.460 OA
BRANCH   2   3
ATOM      3  C   UNL A   1      34.122  37.140  32.900  1.00  0.00     0.331 C 
ATOM      4  O   UNL A   1      34.073  38.335  33.170  1.00  0.00    -0.250 OA
BRANCH   3   5
ATOM      5  C   UNL A   1      33.228  36.495  31.827  1.00  0.00     0.221 C 
BRANCH   5   6
ATOM      6  C   UNL A   1      31.766  36.224  32.294  1.00  0.00     0.145 C 
ATOM      7  C   UNL A   1      31.534  34.768  32.706  1.00  0.00     0.041 C 
BRANCH   6   8
ATOM      8  O   UNL A   1      31.483  36.954  33.491  1.00  0.00    -0.391 OA
ATOM      9  H   UNL A   1      30.702  36.575  33.925  1.00  0.00     0.211 HD
ENDBRANCH   6   8
ENDBRANCH   5   6
BRANCH   5  10
ATOM     10  N   UNL A   1      33.321  37.022  30.446  1.00  0.00    -0.340 N 
ATOM     11  C   UNL A   1      33.457  36.485  29.208  1.00  0.00     0.231 C 
ATOM     12  H   UNL A   1      33.271  38.005  30.420  1.00  0.00     0.164 HD
ATOM     13  O   UNL A   1      33.895  37.247  28.337  1.00  0.00    -0.274 OA
BRANCH  11  14
ATOM     14  C   UNL A   1      32.981  35.107  28.828  1.00  0.00     0.174 C 
BRANCH  14  15
ATOM     15  S   UNL A   1      34.201  33.928  28.195  1.00  0.00    -0.116 SA
BRANCH  15  16
ATOM     16  C   UNL A   1      33.323  32.478  27.664  1.00  0.00     0.011 A 
ATOM     17  C   UNL A   1      34.016  31.268  27.706  1.00  0.00     0.035 A 
ATOM     18  C   UNL A   1      32.083  32.507  27.035  1.00  0.00     0.035 A 
ATOM     19  C   UNL A   1      33.432  30.144  27.146  1.00  0.00     0.112 A 
ATOM     20  C   UNL A   1      31.572  31.328  26.516  1.00  0.00     0.112 A 
ATOM     21  N   UNL A   1      32.221  30.147  26.555  1.00  0.00    -0.265 NA
ENDBRANCH  15  16
ENDBRANCH  14  15
ENDBRANCH  11  14
ENDBRANCH   5  10
ENDBRANCH   3   5
ENDBRANCH   2   3
ENDBRANCH   1   2
BRANCH   1  22
ATOM     22  C   UNL A   1      34.981  33.758  33.675  1.00  0.00     0.275 C 
BRANCH  22  23
ATOM     23  O   UNL A   1      35.799  32.672  33.219  1.00  0.00    -0.458 OA
BRANCH  23  24
ATOM     24  C   UNL A   1      35.395  32.136  32.046  1.00  0.00     0.338 C 
ATOM     25  O   UNL A   1      34.327  32.317  31.485  1.00  0.00    -0.246 OA
BRANCH  24  26
ATOM     26  C   UNL A   1      36.526  31.436  31.424  1.00  0.00     0.060 A 
ATOM     27  C   UNL A   1      37.420  30.758  32.259  1.00  0.00     0.016 A 
ATOM     28  C   UNL A   1      36.735  31.492  30.048  1.00  0.00     0.016 A 
ATOM     29  C   UNL A   1      38.542  30.141  31.727  1.00  0.00     0.010 A 
ATOM     30  C   UNL A   1      37.868  30.881  29.511  1.00  0.00     0.010 A 
ATOM     31  C   UNL A   1      38.783  30.223  30.352  1.00  0.00    -0.014 A 
BRANCH  31  32
ATOM     32  C   UNL A   1      40.058  29.722  29.807  1.00  0.00     0.031 A 
ATOM     33  C   UNL A   1      41.209  30.673  29.682  1.00  0.00     0.074 A 
ATOM     34  C   UNL A   1      40.176  28.436  29.439  1.00  0.00     0.049 A 
ATOM     35  N   UNL A   1      42.369  30.498  29.109  1.00  0.00    -0.248 NA
ATOM     36  C   UNL A   1      41.022  32.006  30.279  1.00  0.00     0.031 C 
ATOM     37  C   UNL A   1      39.136  27.418  29.582  1.00  0.00     0.029 A 
ATOM     38  N   UNL A   1      41.222  27.773  28.855  1.00  0.00    -0.354 N 
ATOM     39  C   UNL A   1      43.042  31.704  29.251  1.00  0.00     0.074 A 
ATOM     40  C   UNL A   1      42.157  32.607  29.955  1.00  0.00     0.031 C 
ATOM     41  C   UNL A   1      39.592  26.259  29.078  1.00  0.00     0.029 A 
ATOM     42  C   UNL A   1      40.933  26.470  28.540  1.00  0.00     0.049 A 
ATOM     43  H   UNL A   1      42.097  28.191  28.680  1.00  0.00     0.167 HD
ATOM     44  C   UNL A   1      44.286  32.024  28.826  1.00  0.00     0.037 A 
ATOM     45  C   UNL A   1      41.660  25.566  27.858  1.00  0.00     0.037 A 
ATOM     46  C   UNL A   1      45.155  31.109  28.134  1.00  0.00     0.049 A 
ATOM     47  C   UNL A   1      43.017  25.963  27.344  1.00  0.00     0.074 A 
ATOM     48  C   UNL A   1      46.437  31.324  27.662  1.00  0.00     0.029 A 
ATOM     49  N   UNL A   1      44.824  29.799  27.820  1.00  0.00    -0.354 N 
ATOM     50  N   UNL A   1      43.643  27.110  27.465  1.00  0.00    -0.248 NA
ATOM     51  C   UNL A   1      43.765  24.946  26.594  1.00  0.00     0.031 C 
ATOM     52  C   UNL A   1      46.867  30.154  27.027  1.00  0.00     0.029 A 
ATOM     53  C   UNL A   1      45.871  29.197  27.144  1.00  0.00     0.049 A 
ATOM     54  H   UNL A   1      43.970  29.361  28.045  1.00  0.00     0.167 HD
ATOM     55  C   UNL A   1      44.867  26.945  26.830  1.00  0.00     0.074 A 
ATOM     56  C   UNL A   1      44.897  25.583  26.333  1.00  0.00     0.031 C 
ATOM     57  C   UNL A   1      45.876  27.836  26.671  1.00  0.00     0.037 A 
BRANCH  44  58
ATOM     58  C   UNL A   1      44.754  33.427  29.063  1.00  0.00     0.057 A 
ATOM     59  C   UNL A   1      44.500  34.461  28.153  1.00  0.00     0.134 A 
ATOM     60  C   UNL A   1      45.467  33.751  30.225  1.00  0.00     0.134 A 
ATOM     61  F   UNL A   1      43.841  34.213  27.010  1.00  0.00    -0.206 F 
ATOM     62  C   UNL A   1      44.955  35.761  28.379  1.00  0.00     0.040 A 
ATOM     63  C   UNL A   1      45.907  35.052  30.474  1.00  0.00     0.040 A 
ATOM     64  F   UNL A   1      45.747  32.807  31.137  1.00  0.00    -0.206 F 
ATOM     65  C   UNL A   1      45.656  36.061  29.546  1.00  0.00     0.006 A 
ENDBRANCH  44  58
BRANCH  45  66
ATOM     66  C   UNL A   1      41.109  24.213  27.601  1.00  0.00     0.057 A 
ATOM     67  C   UNL A   1      40.102  24.010  26.652  1.00  0.00     0.134 A 
ATOM     68  C   UNL A   1      41.575  23.091  28.299  1.00  0.00     0.134 A 
ATOM     69  F   UNL A   1      39.601  25.048  25.967  1.00  0.00    -0.206 F 
ATOM     70  C   UNL A   1      39.570  22.741  26.413  1.00  0.00     0.040 A 
ATOM     71  C   UNL A   1      41.069  21.815  28.052  1.00  0.00     0.040 A 
ATOM     72  F   UNL A   1      42.541  23.220  29.220  1.00  0.00    -0.206 F 
ATOM     73  C   UNL A   1      40.058  21.638  27.110  1.00  0.00     0.006 A 
ENDBRANCH  45  66
BRANCH  57  74
ATOM     74  C   UNL A   1      47.108  27.353  25.966  1.00  0.00     0.057 A 
ATOM     75  C   UNL A   1      47.284  27.523  24.587  1.00  0.00     0.134 A 
ATOM     76  C   UNL A   1      48.147  26.752  26.686  1.00  0.00     0.134 A 
ATOM     77  F   UNL A   1      46.318  28.080  23.842  1.00  0.00    -0.206 F 
ATOM     78  C   UNL A   1      48.446  27.094  23.946  1.00  0.00     0.040 A 
ATOM     79  C   UNL A   1      49.323  26.340  26.059  1.00  0.00     0.040 A 
ATOM     80  F   UNL A   1      48.041  26.568  28.011  1.00  0.00    -0.206 F 
ATOM     81  C   UNL A   1      49.473  26.507  24.684  1.00  0.00     0.006 A 
ENDBRANCH  57  74
ENDBRANCH  31  32
ENDBRANCH  24  26
ENDBRANCH  23  24
ENDBRANCH  22  23
ENDBRANCH   1  22
TORSDOF 17
ENDMDL
MODEL 2
REMARK VINA RESULT:     -10.6      5.743     12.130
REMARK SMILES C[C@@H](O)[C@@H](NC(=O)CSc1ccncc1)C(=O)OCCOC(=O)c1ccc(-c2c3nc(c(-c4c(F)cccc4F)c4ccc([nH]4)c(-c4c(F)cccc4F)c4nc(c(-c5c(F)cccc5F)c5ccc2[nH]5)C=C4)C=C3)cc1
REMARK SMILES IDX 19 1 18 2 16 3 17 4 4 5 2 6 1 7 3 8 5 10 6 11 7 13 8 14 9 15
REMARK SMILES IDX 10 16 11 17 15 18 12 19 14 20 13 21 20 22 21 23 22 24 23 25
REMARK SMILES IDX 24 26 25 27 77 28 26 29 76 30 27 31 28 32 29 33 70 34 30 35
REMARK SMILES IDX 75 36 69 37 71 38 31 39 74 40 68 41 67 42 32 44 58 45 41 46
REMARK SMILES IDX 57 47 42 48 45 49 56 50 72 51 43 52 44 53 55 55 73 56 46 57
REMARK SMILES IDX 33 58 34 59 39 60 35 61 36 62 38 63 40 64 37 65 59 66 60 67
REMARK SMILES IDX 65 68 61 69 62 70 64 71 66 72 63 73 47 74 48 75 53 76 49 77
REMARK SMILES IDX 50 78 52 79 54 80 51 81
REMARK H PARENT 3 9 5 12 71 43 45 54
REMARK Flexibility Score: inf
ROOT
ATOM      1  C   UNL A   1      41.139  20.044  27.251  1.00  0.00     0.274 C 
ENDROOT
BRANCH   1   2
ATOM      2  O   UNL A   1      41.554  19.757  25.895  1.00  0.00    -0.460 OA
BRANCH   2   3
ATOM      3  C   UNL A   1      42.631  18.934  25.740  1.00  0.00     0.331 C 
ATOM      4  O   UNL A   1      42.596  17.713  25.853  1.00  0.00    -0.250 OA
BRANCH   3   5
ATOM      5  C   UNL A   1      43.938  19.708  25.497  1.00  0.00     0.221 C 
BRANCH   5   6
ATOM      6  C   UNL A   1      45.141  18.811  25.076  1.00  0.00     0.145 C 
ATOM      7  C   UNL A   1      46.474  19.565  25.081  1.00  0.00     0.041 C 
BRANCH   6   8
ATOM      8  O   UNL A   1      45.348  17.772  26.038  1.00  0.00    -0.391 OA
ATOM      9  H   UNL A   1      45.911  17.082  25.653  1.00  0.00     0.211 HD
ENDBRANCH   6   8
ENDBRANCH   5   6
BRANCH   5  10
ATOM     10  N   UNL A   1      43.854  20.980  24.743  1.00  0.00    -0.340 N 
ATOM     11  C   UNL A   1      43.864  22.299  25.059  1.00  0.00     0.231 C 
ATOM     12  H   UNL A   1      43.773  20.831  23.773  1.00  0.00     0.164 HD
ATOM     13  O   UNL A   1      43.378  23.058  24.211  1.00  0.00    -0.274 OA
BRANCH  11  14
ATOM     14  C   UNL A   1      44.542  22.871  26.276  1.00  0.00     0.174 C 
BRANCH  14  15
ATOM     15  S   UNL A   1      46.096  23.772  26.042  1.00  0.00    -0.116 SA
BRANCH  15  16
ATOM     16  C   UNL A   1      45.691  25.408  25.484  1.00  0.00     0.011 A 
ATOM     17  C   UNL A   1      46.724  26.159  24.921  1.00  0.00     0.035 A 
ATOM     18  C   UNL A   1      44.484  26.045  25.751  1.00  0.00     0.035 A 
ATOM     19  C   UNL A   1      46.497  27.493  24.628  1.00  0.00     0.112 A 
ATOM     20  C   UNL A   1      44.344  27.380  25.410  1.00  0.00     0.112 A 
ATOM     21  N   UNL A   1      45.326  28.120  24.856  1.00  0.00    -0.265 NA
ENDBRANCH  15  16
ENDBRANCH  14  15
ENDBRANCH  11  14
ENDBRANCH   5  10
ENDBRANCH   3   5
ENDBRANCH   2   3
ENDBRANCH   1   2
BRANCH   1  22
ATOM     22  C   UNL A   1      41.058  21.543  27.534  1.00  0.00     0.275 C 
BRANCH  22  23
ATOM     23  O   UNL A   1      40.783  22.278  26.334  1.00  0.00    -0.458 OA
BRANCH  23  24
ATOM     24  C   UNL A   1      39.579  22.892  26.332  1.00  0.00     0.338 C 
ATOM     25  O   UNL A   1      38.502  22.399  26.039  1.00  0.00    -0.246 OA
BRANCH  24  26
ATOM     26  C   UNL A   1      39.720  24.225  26.933  1.00  0.00     0.060 A 
ATOM     27  C   UNL A   1      40.453  25.189  26.233  1.00  0.00     0.016 A 
ATOM     28  C   UNL A   1      39.188  24.505  28.190  1.00  0.00     0.016 A 
ATOM     29  C   UNL A   1      40.673  26.439  26.790  1.00  0.00     0.010 A 
ATOM     30  C   UNL A   1      39.417  25.758  28.757  1.00  0.00     0.010 A 
ATOM     31  C   UNL A   1      40.177  26.719  28.066  1.00  0.00    -0.014 A 
BRANCH  31  32
ATOM     32  C   UNL A   1      40.557  27.978  28.733  1.00  0.00     0.031 A 
ATOM     33  C   UNL A   1      41.956  28.126  29.248  1.00  0.00     0.074 A 
ATOM     34  C   UNL A   1      39.660  28.968  28.866  1.00  0.00     0.049 A 
ATOM     35  N   UNL A   1      42.473  29.074  29.982  1.00  0.00    -0.248 NA
ATOM     36  C   UNL A   1      42.899  27.053  28.890  1.00  0.00     0.031 C 
ATOM     37  C   UNL A   1      38.294  28.947  28.343  1.00  0.00     0.029 A 
ATOM     38  N   UNL A   1      39.762  30.179  29.498  1.00  0.00    -0.354 N 
ATOM     39  C   UNL A   1      43.793  28.701  30.199  1.00  0.00     0.074 A 
ATOM     40  C   UNL A   1      43.995  27.436  29.527  1.00  0.00     0.031 C 
ATOM     41  C   UNL A   1      37.677  30.087  28.694  1.00  0.00     0.029 A 
ATOM     42  C   UNL A   1      38.590  30.892  29.501  1.00  0.00     0.049 A 
ATOM     43  H   UNL A   1      40.596  30.505  29.908  1.00  0.00     0.167 HD
ATOM     44  C   UNL A   1      44.744  29.361  30.900  1.00  0.00     0.037 A 
ATOM     45  C   UNL A   1      38.285  32.046  30.122  1.00  0.00     0.037 A 
ATOM     46  C   UNL A   1      44.525  30.623  31.554  1.00  0.00     0.049 A 
ATOM     47  C   UNL A   1      39.342  32.731  30.944  1.00  0.00     0.074 A 
ATOM     48  C   UNL A   1      45.418  31.382  32.287  1.00  0.00     0.029 A 
ATOM     49  N   UNL A   1      43.321  31.312  31.547  1.00  0.00    -0.354 N 
ATOM     50  N   UNL A   1      40.585  32.368  31.161  1.00  0.00    -0.248 NA
ATOM     51  C   UNL A   1      38.956  33.980  31.612  1.00  0.00     0.031 C 
ATOM     52  C   UNL A   1      44.742  32.513  32.757  1.00  0.00     0.029 A 
ATOM     53  C   UNL A   1      43.441  32.480  32.279  1.00  0.00     0.049 A 
ATOM     54  H   UNL A   1      42.501  31.013  31.089  1.00  0.00     0.167 HD
ATOM     55  C   UNL A   1      41.135  33.355  31.969  1.00  0.00     0.074 A 
ATOM     56  C   UNL A   1      40.093  34.335  32.195  1.00  0.00     0.031 C 
ATOM     57  C   UNL A   1      42.387  33.443  32.478  1.00  0.00     0.037 A 
BRANCH  44  58
ATOM     58  C   UNL A   1      46.086  28.704  31.023  1.00  0.00     0.057 A 
ATOM     59  C   UNL A   1      46.401  27.853  32.090  1.00  0.00     0.134 A 
ATOM     60  C   UNL A   1      47.075  28.923  30.056  1.00  0.00     0.134 A 
ATOM     61  F   UNL A   1      45.506  27.618  33.061  1.00  0.00    -0.206 F 
ATOM     62  C   UNL A   1      47.661  27.259  32.201  1.00  0.00     0.040 A 
ATOM     63  C   UNL A   1      48.330  28.317  30.144  1.00  0.00     0.040 A 
ATOM     64  F   UNL A   1      46.838  29.730  29.010  1.00  0.00    -0.206 F 
ATOM     65  C   UNL A   1      48.627  27.487  31.223  1.00  0.00     0.006 A 
ENDBRANCH  44  58
BRANCH  45  66
ATOM     66  C   UNL A   1      36.917  32.608  30.011  1.00  0.00     0.057 A 
ATOM     67  C   UNL A   1      35.917  32.264  30.926  1.00  0.00     0.134 A 
ATOM     68  C   UNL A   1      36.577  33.502  28.987  1.00  0.00     0.134 A 
ATOM     69  F   UNL A   1      36.176  31.398  31.915  1.00  0.00    -0.206 F 
ATOM     70  C   UNL A   1      34.623  32.780  30.821  1.00  0.00     0.040 A 
ATOM     71  C   UNL A   1      35.295  34.043  28.886  1.00  0.00     0.040 A 
ATOM     72  F   UNL A   1      37.492  33.873  28.080  1.00  0.00    -0.206 F 
ATOM     73  C   UNL A   1      34.312  33.677  29.802  1.00  0.00     0.006 A 
ENDBRANCH  45  66
BRANCH  57  74
ATOM     74  C   UNL A   1      42.708  34.659  33.295  1.00  0.00     0.057 A 
ATOM     75  C   UNL A   1      42.591  34.663  34.690  1.00  0.00     0.134 A 
ATOM     76  C   UNL A   1      43.181  35.824  32.677  1.00  0.00     0.134 A 
ATOM     77  F   UNL A   1      42.131  33.582  35.337  1.00  0.00    -0.206 F 
ATOM     78  C   UNL A   1      42.917  35.793  35.442  1.00  0.00     0.040 A 
ATOM     79  C   UNL A   1      43.532  36.950  33.421  1.00  0.00     0.040 A 
ATOM     80  F   UNL A   1      43.323  35.879  31.344  1.00  0.00    -0.206 F 
ATOM     81  C   UNL A   1      43.396  36.937  34.807  1.00  0.00     0.006 A 
ENDBRANCH  57  74
ENDBRANCH  31  32
ENDBRANCH  24  26
ENDBRANCH  23  24
ENDBRANCH  22  23
ENDBRANCH   1  22
TORSDOF 17
ENDMDL
MODEL 3
REMARK VINA RESULT:     -10.3      5.495     12.030
REMARK SMILES C[C@@H](O)[C@@H](NC(=O)CSc1ccncc1)C(=O)OCCOC(=O)c1ccc(-c2c3nc(c(-c4c(F)cccc4F)c4ccc([nH]4)c(-c4c(F)cccc4F)c4nc(c(-c5c(F)cccc5F)c5ccc2[nH]5)C=C4)C=C3)cc1
REMARK SMILES IDX 19 1 18 2 16 3 17 4 4 5 2 6 1 7 3 8 5 10 6 11 7 13 8 14 9 15
REMARK SMILES IDX 10 16 11 17 15 18 12 19 14 20 13 21 20 22 21 23 22 24 23 25
REMARK SMILES IDX 24 26 25 27 77 28 26 29 76 30 27 31 28 32 29 33 70 34 30 35
REMARK SMILES IDX 75 36 69 37 71 38 31 39 74 40 68 41 67 42 32 44 58 45 41 46
REMARK SMILES IDX 57 47 42 48 45 49 56 50 72 51 43 52 44 53 55 55 73 56 46 57
REMARK SMILES IDX 33 58 34 59 39 60 35 61 36 62 38 63 40 64 37 65 59 66 60 67
REMARK SMILES IDX 65 68 61 69 62 70 64 71 66 72 63 73 47 74 48 75 53 76 49 77
REMARK SMILES IDX 50 78 52 79 54 80 51 81
REMARK H PARENT 3 9 5 12 71 43 45 54
REMARK Flexibility Score: inf
ROOT
ATOM      1  C   UNL A   1      41.079  19.838  26.800  1.00  0.00     0.274 C 
ENDROOT
BRANCH   1   2
ATOM      2  O   UNL A   1      41.768  19.122  25.749  1.00  0.00    -0.460 OA
BRANCH   2   3
ATOM      3  C   UNL A   1      43.002  18.622  26.049  1.00  0.00     0.331 C 
ATOM      4  O   UNL A   1      43.199  17.597  26.693  1.00  0.00    -0.250 OA
BRANCH   3   5
ATOM      5  C   UNL A   1      44.144  19.536  25.572  1.00  0.00     0.221 C 
BRANCH   5   6
ATOM      6  C   UNL A   1      45.333  18.778  24.909  1.00  0.00     0.145 C 
ATOM      7  C   UNL A   1      46.585  19.647  24.765  1.00  0.00     0.041 C 
BRANCH   6   8
ATOM      8  O   UNL A   1      45.771  17.707  25.751  1.00  0.00    -0.391 OA
ATOM      9  H   UNL A   1      45.250  17.704  26.570  1.00  0.00     0.211 HD
ENDBRANCH   6   8
ENDBRANCH   5   6
BRANCH   5  10
ATOM     10  N   UNL A   1      43.775  20.788  24.872  1.00  0.00    -0.340 N 
ATOM     11  C   UNL A   1      43.775  22.109  25.179  1.00  0.00     0.231 C 
ATOM     12  H   UNL A   1      43.452  20.620  23.957  1.00  0.00     0.164 HD
ATOM     13  O   UNL A   1      43.031  22.821  24.493  1.00  0.00    -0.274 OA
BRANCH  11  14
ATOM     14  C   UNL A   1      44.708  22.744  26.177  1.00  0.00     0.174 C 
BRANCH  14  15
ATOM     15  S   UNL A   1      46.293  23.383  25.576  1.00  0.00    -0.116 SA
BRANCH  15  16
ATOM     16  C   UNL A   1      46.120  25.138  25.366  1.00  0.00     0.011 A 
ATOM     17  C   UNL A   1      44.823  25.652  25.373  1.00  0.00     0.035 A 
ATOM     18  C   UNL A   1      47.163  25.984  25.003  1.00  0.00     0.035 A 
ATOM     19  C   UNL A   1      44.630  26.984  25.046  1.00  0.00     0.112 A 
ATOM     20  C   UNL A   1      46.875  27.306  24.706  1.00  0.00     0.112 A 
ATOM     21  N   UNL A   1      45.631  27.825  24.717  1.00  0.00    -0.265 NA
ENDBRANCH  15  16
ENDBRANCH  14  15
ENDBRANCH  11  14
ENDBRANCH   5  10
ENDBRANCH   3   5
ENDBRANCH   2   3
ENDBRANCH   1   2
BRANCH   1  22
ATOM     22  C   UNL A   1      39.977  20.749  26.264  1.00  0.00     0.275 C 
BRANCH  22  23
ATOM     23  O   UNL A   1      40.244  22.122  26.584  1.00  0.00    -0.458 OA
BRANCH  23  24
ATOM     24  C   UNL A   1      39.217  22.957  26.312  1.00  0.00     0.338 C 
ATOM     25  O   UNL A   1      38.144  22.664  25.811  1.00  0.00    -0.246 OA
BRANCH  24  26
ATOM     26  C   UNL A   1      39.504  24.274  26.893  1.00  0.00     0.060 A 
ATOM     27  C   UNL A   1      40.050  25.257  26.060  1.00  0.00     0.016 A 
ATOM     28  C   UNL A   1      39.292  24.523  28.247  1.00  0.00     0.016 A 
ATOM     29  C   UNL A   1      40.403  26.494  26.577  1.00  0.00     0.010 A 
ATOM     30  C   UNL A   1      39.657  25.762  28.772  1.00  0.00     0.010 A 
ATOM     31  C   UNL A   1      40.231  26.741  27.942  1.00  0.00    -0.014 A 
BRANCH  31  32
ATOM     32  C   UNL A   1      40.765  27.985  28.527  1.00  0.00     0.031 A 
ATOM     33  C   UNL A   1      39.802  29.046  28.962  1.00  0.00     0.074 A 
ATOM     34  C   UNL A   1      42.090  28.149  28.668  1.00  0.00     0.049 A 
ATOM     35  N   UNL A   1      40.039  30.264  29.370  1.00  0.00    -0.248 NA
ATOM     36  C   UNL A   1      38.374  28.686  28.926  1.00  0.00     0.031 C 
ATOM     37  C   UNL A   1      43.106  27.151  28.336  1.00  0.00     0.029 A 
ATOM     38  N   UNL A   1      42.807  29.227  29.116  1.00  0.00    -0.354 N 
ATOM     39  C   UNL A   1      38.793  30.826  29.613  1.00  0.00     0.074 A 
ATOM     40  C   UNL A   1      37.802  29.821  29.297  1.00  0.00     0.031 C 
ATOM     41  C   UNL A   1      44.321  27.672  28.573  1.00  0.00     0.029 A 
ATOM     42  C   UNL A   1      44.165  29.051  29.029  1.00  0.00     0.049 A 
ATOM     43  H   UNL A   1      42.389  30.047  29.466  1.00  0.00     0.167 HD
ATOM     44  C   UNL A   1      38.510  32.072  30.057  1.00  0.00     0.037 A 
ATOM     45  C   UNL A   1      45.164  29.924  29.256  1.00  0.00     0.037 A 
ATOM     46  C   UNL A   1      39.511  33.056  30.374  1.00  0.00     0.049 A 
ATOM     47  C   UNL A   1      44.822  31.322  29.692  1.00  0.00     0.074 A 
ATOM     48  C   UNL A   1      39.338  34.348  30.835  1.00  0.00     0.029 A 
ATOM     49  N   UNL A   1      40.878  32.848  30.262  1.00  0.00    -0.354 N 
ATOM     50  N   UNL A   1      43.642  31.857  29.904  1.00  0.00    -0.248 NA
ATOM     51  C   UNL A   1      45.946  32.241  29.913  1.00  0.00     0.031 C 
ATOM     52  C   UNL A   1      40.600  34.935  30.966  1.00  0.00     0.029 A 
ATOM     53  C   UNL A   1      41.561  33.993  30.629  1.00  0.00     0.049 A 
ATOM     54  H   UNL A   1      41.300  32.008  29.965  1.00  0.00     0.167 HD
ATOM     55  C   UNL A   1      43.882  33.164  30.308  1.00  0.00     0.074 A 
ATOM     56  C   UNL A   1      45.321  33.337  30.319  1.00  0.00     0.031 C 
ATOM     57  C   UNL A   1      42.996  34.133  30.639  1.00  0.00     0.037 A 
BRANCH  44  58
ATOM     58  C   UNL A   1      37.063  32.445  30.182  1.00  0.00     0.057 A 
ATOM     59  C   UNL A   1      36.366  33.077  29.146  1.00  0.00     0.134 A 
ATOM     60  C   UNL A   1      36.356  32.161  31.358  1.00  0.00     0.134 A 
ATOM     61  F   UNL A   1      36.990  33.397  28.001  1.00  0.00    -0.206 F 
ATOM     62  C   UNL A   1      35.022  33.433  29.281  1.00  0.00     0.040 A 
ATOM     63  C   UNL A   1      35.007  32.491  31.497  1.00  0.00     0.040 A 
ATOM     64  F   UNL A   1      36.966  31.559  32.390  1.00  0.00    -0.206 F 
ATOM     65  C   UNL A   1      34.338  33.134  30.458  1.00  0.00     0.006 A 
ENDBRANCH  44  58
BRANCH  45  66
ATOM     66  C   UNL A   1      46.572  29.509  29.049  1.00  0.00     0.057 A 
ATOM     67  C   UNL A   1      47.335  28.986  30.099  1.00  0.00     0.134 A 
ATOM     68  C   UNL A   1      47.191  29.625  27.797  1.00  0.00     0.134 A 
ATOM     69  F   UNL A   1      46.804  28.870  31.325  1.00  0.00    -0.206 F 
ATOM     70  C   UNL A   1      48.665  28.604  29.915  1.00  0.00     0.040 A 
ATOM     71  C   UNL A   1      48.512  29.224  27.595  1.00  0.00     0.040 A 
ATOM     72  F   UNL A   1      46.513  30.116  26.750  1.00  0.00    -0.206 F 
ATOM     73  C   UNL A   1      49.255  28.717  28.658  1.00  0.00     0.006 A 
ENDBRANCH  45  66
BRANCH  57  74
ATOM     74  C   UNL A   1      43.559  35.452  31.079  1.00  0.00     0.057 A 
ATOM     75  C   UNL A   1      43.781  36.498  30.176  1.00  0.00     0.134 A 
ATOM     76  C   UNL A   1      43.839  35.688  32.431  1.00  0.00     0.134 A 
ATOM     77  F   UNL A   1      43.543  36.328  28.866  1.00  0.00    -0.206 F 
ATOM     78  C   UNL A   1      44.280  37.729  30.600  1.00  0.00     0.040 A 
ATOM     79  C   UNL A   1      44.317  36.922  32.870  1.00  0.00     0.040 A 
ATOM     80  F   UNL A   1      43.640  34.727  33.346  1.00  0.00    -0.206 F 
ATOM     81  C   UNL A   1      44.542  37.946  31.952  1.00  0.00     0.006 A 
ENDBRANCH  57  74
ENDBRANCH  31  32
ENDBRANCH  24  26
ENDBRANCH  23  24
ENDBRANCH  22  23
ENDBRANCH   1  22
TORSDOF 17
ENDMDL
