MODEL 1
REMARK VINA RESULT:      -9.8      0.000      0.000
REMARK SMILES C#CCN(CC(=O)OCCOC(=O)c1ccc(-c2c3nc(c(-c4c(F)cccc4F)c4ccc([nH]4)c(-c4c(F)cccc4F)c4nc(c(-c5c(F)cccc5F)c5ccc2[nH]5)C=C4)C=C3)cc1)C(=O)N1CCO[C@@H](C#N)C1
REMARK SMILES IDX 9 1 8 2 6 3 7 4 5 5 4 6 3 7 2 8 1 9 68 10 69 11 70 12 71 13
REMARK SMILES IDX 77 14 72 15 74 16 73 17 75 18 76 19 10 20 11 21 12 22 13 23
REMARK SMILES IDX 14 24 15 25 67 26 16 27 66 28 17 29 18 30 19 31 60 32 20 33
REMARK SMILES IDX 65 34 59 35 61 36 21 37 64 38 58 39 57 40 22 42 48 43 31 44
REMARK SMILES IDX 47 45 32 46 35 47 46 48 62 49 33 50 34 51 45 53 63 54 36 55
REMARK SMILES IDX 23 56 24 57 29 58 25 59 26 60 28 61 30 62 27 63 49 64 50 65
REMARK SMILES IDX 55 66 51 67 52 68 54 69 56 70 53 71 37 72 38 73 43 74 39 75
REMARK SMILES IDX 40 76 42 77 44 78 41 79
REMARK H PARENT 61 41 35 52
REMARK Flexibility Score: inf
ROOT
ATOM      1  C   UNL A   1      31.651  28.490  24.088  1.00  0.00     0.274 C 
ENDROOT
BRANCH   1   2
ATOM      2  O   UNL A   1      32.765  28.874  23.258  1.00  0.00    -0.461 OA
BRANCH   2   3
ATOM      3  C   UNL A   1      33.457  27.844  22.720  1.00  0.00     0.325 C 
ATOM      4  O   UNL A   1      34.031  27.870  21.635  1.00  0.00    -0.250 OA
BRANCH   3   5
ATOM      5  C   UNL A   1      33.615  26.648  23.653  1.00  0.00     0.245 C 
BRANCH   5   6
ATOM      6  N   UNL A   1      32.852  25.370  23.555  1.00  0.00    -0.302 N 
BRANCH   6   7
ATOM      7  C   UNL A   1      33.539  24.420  22.755  1.00  0.00     0.211 C 
BRANCH   7   8
ATOM      8  C   UNL A   1      34.749  23.699  23.327  1.00  0.00    -0.085 C 
ATOM      9  C   UNL A   1      35.786  23.081  23.818  1.00  0.00     0.006 C 
ENDBRANCH   7   8
ENDBRANCH   6   7
BRANCH   6  10
ATOM     10  C   UNL A   1      31.698  24.834  24.108  1.00  0.00     0.321 C 
ATOM     11  O   UNL A   1      30.830  24.310  23.402  1.00  0.00    -0.248 OA
BRANCH  10  12
ATOM     12  N   UNL A   1      31.563  24.745  25.456  1.00  0.00    -0.319 N 
ATOM     13  C   UNL A   1      30.231  24.601  26.081  1.00  0.00     0.150 C 
ATOM     14  C   UNL A   1      32.610  24.438  26.364  1.00  0.00     0.169 C 
ATOM     15  C   UNL A   1      30.114  23.265  26.873  1.00  0.00     0.183 C 
ATOM     16  C   UNL A   1      32.449  22.995  26.782  1.00  0.00     0.240 C 
ATOM     17  O   UNL A   1      31.290  22.919  27.621  1.00  0.00    -0.360 OA
BRANCH  16  18
ATOM     18  C   UNL A   1      32.497  21.938  25.750  1.00  0.00     0.096 C 
ATOM     19  N   UNL A   1      32.539  21.057  25.005  1.00  0.00    -0.195 NA
ENDBRANCH  16  18
ENDBRANCH  10  12
ENDBRANCH   6  10
ENDBRANCH   5   6
ENDBRANCH   3   5
ENDBRANCH   2   3
ENDBRANCH   1   2
BRANCH   1  20
ATOM     20  C   UNL A   1      31.638  29.358  25.352  1.00  0.00     0.275 C 
BRANCH  20  21
ATOM     21  O   UNL A   1      32.910  29.954  25.708  1.00  0.00    -0.458 OA
BRANCH  21  22
ATOM     22  C   UNL A   1      32.914  30.881  26.695  1.00  0.00     0.338 C 
ATOM     23  O   UNL A   1      32.083  31.751  26.876  1.00  0.00    -0.246 OA
BRANCH  22  24
ATOM     24  C   UNL A   1      34.218  30.834  27.405  1.00  0.00     0.060 A 
ATOM     25  C   UNL A   1      34.558  29.613  27.964  1.00  0.00     0.016 A 
ATOM     26  C   UNL A   1      35.049  31.943  27.635  1.00  0.00     0.016 A 
ATOM     27  C   UNL A   1      35.674  29.537  28.802  1.00  0.00     0.010 A 
ATOM     28  C   UNL A   1      36.258  31.808  28.370  1.00  0.00     0.010 A 
ATOM     29  C   UNL A   1      36.611  30.586  28.956  1.00  0.00    -0.014 A 
BRANCH  29  30
ATOM     30  C   UNL A   1      37.939  30.273  29.607  1.00  0.00     0.031 A 
ATOM     31  C   UNL A   1      39.016  29.370  29.021  1.00  0.00     0.074 A 
ATOM     32  C   UNL A   1      38.195  30.867  30.800  1.00  0.00     0.049 A 
ATOM     33  N   UNL A   1      40.095  28.893  29.607  1.00  0.00    -0.248 NA
ATOM     34  C   UNL A   1      38.896  28.959  27.615  1.00  0.00     0.031 C 
ATOM     35  C   UNL A   1      37.300  31.810  31.489  1.00  0.00     0.029 A 
ATOM     36  N   UNL A   1      39.273  30.799  31.649  1.00  0.00    -0.354 N 
ATOM     37  C   UNL A   1      40.758  28.111  28.660  1.00  0.00     0.074 A 
ATOM     38  C   UNL A   1      39.971  28.192  27.446  1.00  0.00     0.031 C 
ATOM     39  C   UNL A   1      37.906  32.326  32.554  1.00  0.00     0.029 A 
ATOM     40  C   UNL A   1      39.090  31.537  32.798  1.00  0.00     0.049 A 
ATOM     41  H   UNL A   1      40.087  30.279  31.459  1.00  0.00     0.167 HD
ATOM     42  C   UNL A   1      41.896  27.378  28.805  1.00  0.00     0.037 A 
ATOM     43  C   UNL A   1      39.680  31.498  34.003  1.00  0.00     0.037 A 
ATOM     44  C   UNL A   1      42.658  27.301  30.034  1.00  0.00     0.049 A 
ATOM     45  C   UNL A   1      40.796  30.541  34.204  1.00  0.00     0.074 A 
ATOM     46  C   UNL A   1      43.800  26.562  30.304  1.00  0.00     0.029 A 
ATOM     47  N   UNL A   1      42.345  27.979  31.205  1.00  0.00    -0.354 N 
ATOM     48  N   UNL A   1      41.352  29.742  33.331  1.00  0.00    -0.248 NA
ATOM     49  C   UNL A   1      41.353  30.464  35.555  1.00  0.00     0.031 C 
ATOM     50  C   UNL A   1      44.124  26.725  31.655  1.00  0.00     0.029 A 
ATOM     51  C   UNL A   1      43.237  27.631  32.211  1.00  0.00     0.049 A 
ATOM     52  H   UNL A   1      41.600  28.613  31.307  1.00  0.00     0.167 HD
ATOM     53  C   UNL A   1      42.349  29.077  34.020  1.00  0.00     0.074 A 
ATOM     54  C   UNL A   1      42.327  29.583  35.380  1.00  0.00     0.031 C 
ATOM     55  C   UNL A   1      43.204  28.134  33.561  1.00  0.00     0.037 A 
BRANCH  42  56
ATOM     56  C   UNL A   1      42.363  26.520  27.650  1.00  0.00     0.057 A 
ATOM     57  C   UNL A   1      41.956  25.192  27.472  1.00  0.00     0.134 A 
ATOM     58  C   UNL A   1      43.175  27.072  26.645  1.00  0.00     0.134 A 
ATOM     59  F   UNL A   1      41.172  24.593  28.382  1.00  0.00    -0.206 F 
ATOM     60  C   UNL A   1      42.355  24.442  26.358  1.00  0.00     0.040 A 
ATOM     61  C   UNL A   1      43.559  26.342  25.515  1.00  0.00     0.040 A 
ATOM     62  F   UNL A   1      43.587  28.347  26.727  1.00  0.00    -0.206 F 
ATOM     63  C   UNL A   1      43.155  25.018  25.374  1.00  0.00     0.006 A 
ENDBRANCH  42  56
BRANCH  43  64
ATOM     64  C   UNL A   1      39.104  32.297  35.118  1.00  0.00     0.057 A 
ATOM     65  C   UNL A   1      38.204  31.731  36.020  1.00  0.00     0.134 A 
ATOM     66  C   UNL A   1      39.506  33.624  35.350  1.00  0.00     0.134 A 
ATOM     67  F   UNL A   1      37.777  30.471  35.847  1.00  0.00    -0.206 F 
ATOM     68  C   UNL A   1      37.722  32.451  37.115  1.00  0.00     0.040 A 
ATOM     69  C   UNL A   1      39.067  34.339  36.464  1.00  0.00     0.040 A 
ATOM     70  F   UNL A   1      40.388  34.222  34.533  1.00  0.00    -0.206 F 
ATOM     71  C   UNL A   1      38.165  33.754  37.346  1.00  0.00     0.006 A 
ENDBRANCH  43  64
BRANCH  55  72
ATOM     72  C   UNL A   1      44.219  27.628  34.539  1.00  0.00     0.057 A 
ATOM     73  C   UNL A   1      45.448  28.271  34.728  1.00  0.00     0.134 A 
ATOM     74  C   UNL A   1      43.961  26.477  35.293  1.00  0.00     0.134 A 
ATOM     75  F   UNL A   1      45.767  29.360  34.011  1.00  0.00    -0.206 F 
ATOM     76  C   UNL A   1      46.398  27.771  35.619  1.00  0.00     0.040 A 
ATOM     77  C   UNL A   1      44.889  25.988  36.211  1.00  0.00     0.040 A 
ATOM     78  F   UNL A   1      42.804  25.814  35.152  1.00  0.00    -0.206 F 
ATOM     79  C   UNL A   1      46.115  26.632  36.369  1.00  0.00     0.006 A 
ENDBRANCH  55  72
ENDBRANCH  29  30
ENDBRANCH  22  24
ENDBRANCH  21  22
ENDBRANCH  20  21
ENDBRANCH   1  20
TORSDOF 17
ENDMDL
MODEL 2
REMARK VINA RESULT:      -9.7      0.989      1.975
REMARK SMILES C#CCN(CC(=O)OCCOC(=O)c1ccc(-c2c3nc(c(-c4c(F)cccc4F)c4ccc([nH]4)c(-c4c(F)cccc4F)c4nc(c(-c5c(F)cccc5F)c5ccc2[nH]5)C=C4)C=C3)cc1)C(=O)N1CCO[C@@H](C#N)C1
REMARK SMILES IDX 9 1 8 2 6 3 7 4 5 5 4 6 3 7 2 8 1 9 68 10 69 11 70 12 71 13
REMARK SMILES IDX 77 14 72 15 74 16 73 17 75 18 76 19 10 20 11 21 12 22 13 23
REMARK SMILES IDX 14 24 15 25 67 26 16 27 66 28 17 29 18 30 19 31 60 32 20 33
REMARK SMILES IDX 65 34 59 35 61 36 21 37 64 38 58 39 57 40 22 42 48 43 31 44
REMARK SMILES IDX 47 45 32 46 35 47 46 48 62 49 33 50 34 51 45 53 63 54 36 55
REMARK SMILES IDX 23 56 24 57 29 58 25 59 26 60 28 61 30 62 27 63 49 64 50 65
REMARK SMILES IDX 55 66 51 67 52 68 54 69 56 70 53 71 37 72 38 73 43 74 39 75
REMARK SMILES IDX 40 76 42 77 44 78 41 79
REMARK H PARENT 61 41 35 52
REMARK Flexibility Score: inf
ROOT
ATOM      1  C   UNL A   1      31.982  28.471  23.889  1.00  0.00     0.274 C 
ENDROOT
BRANCH   1   2
ATOM      2  O   UNL A   1      33.334  27.976  23.823  1.00  0.00    -0.461 OA
BRANCH   2   3
ATOM      3  C   UNL A   1      33.448  26.629  23.797  1.00  0.00     0.325 C 
ATOM      4  O   UNL A   1      33.653  25.957  22.789  1.00  0.00    -0.250 OA
BRANCH   3   5
ATOM      5  C   UNL A   1      33.457  25.979  25.176  1.00  0.00     0.245 C 
BRANCH   5   6
ATOM      6  N   UNL A   1      33.880  24.579  25.469  1.00  0.00    -0.302 N 
BRANCH   6   7
ATOM      7  C   UNL A   1      35.288  24.435  25.371  1.00  0.00     0.211 C 
BRANCH   7   8
ATOM      8  C   UNL A   1      35.877  23.638  24.218  1.00  0.00    -0.085 C 
ATOM      9  C   UNL A   1      36.382  22.954  23.230  1.00  0.00     0.006 C 
ENDBRANCH   7   8
ENDBRANCH   6   7
BRANCH   6  10
ATOM     10  C   UNL A   1      33.275  23.407  25.898  1.00  0.00     0.321 C 
ATOM     11  O   UNL A   1      33.408  23.001  27.057  1.00  0.00    -0.248 OA
BRANCH  10  12
ATOM     12  N   UNL A   1      32.400  22.753  25.091  1.00  0.00    -0.319 N 
ATOM     13  C   UNL A   1      32.287  23.090  23.657  1.00  0.00     0.150 C 
ATOM     14  C   UNL A   1      31.780  21.512  25.394  1.00  0.00     0.169 C 
ATOM     15  C   UNL A   1      32.654  21.875  22.754  1.00  0.00     0.183 C 
ATOM     16  C   UNL A   1      32.493  20.436  24.608  1.00  0.00     0.240 C 
ATOM     17  O   UNL A   1      32.151  20.616  23.228  1.00  0.00    -0.360 OA
BRANCH  16  18
ATOM     18  C   UNL A   1      33.939  20.222  24.831  1.00  0.00     0.096 C 
ATOM     19  N   UNL A   1      35.077  20.136  25.000  1.00  0.00    -0.195 NA
ENDBRANCH  16  18
ENDBRANCH  10  12
ENDBRANCH   6  10
ENDBRANCH   5   6
ENDBRANCH   3   5
ENDBRANCH   2   3
ENDBRANCH   1   2
BRANCH   1  20
ATOM     20  C   UNL A   1      31.840  29.394  25.105  1.00  0.00     0.275 C 
BRANCH  20  21
ATOM     21  O   UNL A   1      33.056  30.063  25.522  1.00  0.00    -0.458 OA
BRANCH  21  22
ATOM     22  C   UNL A   1      32.991  30.858  26.616  1.00  0.00     0.338 C 
ATOM     23  O   UNL A   1      32.103  31.645  26.889  1.00  0.00    -0.246 OA
BRANCH  22  24
ATOM     24  C   UNL A   1      34.289  30.807  27.336  1.00  0.00     0.060 A 
ATOM     25  C   UNL A   1      34.653  29.567  27.837  1.00  0.00     0.016 A 
ATOM     26  C   UNL A   1      35.091  31.922  27.630  1.00  0.00     0.016 A 
ATOM     27  C   UNL A   1      35.763  29.476  28.681  1.00  0.00     0.010 A 
ATOM     28  C   UNL A   1      36.296  31.779  28.370  1.00  0.00     0.010 A 
ATOM     29  C   UNL A   1      36.673  30.537  28.898  1.00  0.00    -0.014 A 
BRANCH  29  30
ATOM     30  C   UNL A   1      38.002  30.223  29.546  1.00  0.00     0.031 A 
ATOM     31  C   UNL A   1      39.089  29.343  28.945  1.00  0.00     0.074 A 
ATOM     32  C   UNL A   1      38.249  30.795  30.751  1.00  0.00     0.049 A 
ATOM     33  N   UNL A   1      40.171  28.864  29.523  1.00  0.00    -0.248 NA
ATOM     34  C   UNL A   1      38.977  28.960  27.531  1.00  0.00     0.031 C 
ATOM     35  C   UNL A   1      37.344  31.716  31.457  1.00  0.00     0.029 A 
ATOM     36  N   UNL A   1      39.325  30.720  31.602  1.00  0.00    -0.354 N 
ATOM     37  C   UNL A   1      40.844  28.108  28.563  1.00  0.00     0.074 A 
ATOM     38  C   UNL A   1      40.059  28.206  27.349  1.00  0.00     0.031 C 
ATOM     39  C   UNL A   1      37.942  32.215  32.534  1.00  0.00     0.029 A 
ATOM     40  C   UNL A   1      39.133  31.433  32.766  1.00  0.00     0.049 A 
ATOM     41  H   UNL A   1      40.145  30.212  31.404  1.00  0.00     0.167 HD
ATOM     42  C   UNL A   1      41.988  27.382  28.696  1.00  0.00     0.037 A 
ATOM     43  C   UNL A   1      39.720  31.374  33.971  1.00  0.00     0.037 A 
ATOM     44  C   UNL A   1      42.748  27.287  29.925  1.00  0.00     0.049 A 
ATOM     45  C   UNL A   1      40.844  30.424  34.155  1.00  0.00     0.074 A 
ATOM     46  C   UNL A   1      43.895  26.553  30.183  1.00  0.00     0.029 A 
ATOM     47  N   UNL A   1      42.425  27.937  31.109  1.00  0.00    -0.354 N 
ATOM     48  N   UNL A   1      41.409  29.647  33.268  1.00  0.00    -0.248 NA
ATOM     49  C   UNL A   1      41.398  30.324  35.506  1.00  0.00     0.031 C 
ATOM     50  C   UNL A   1      44.215  26.692  31.538  1.00  0.00     0.029 A 
ATOM     51  C   UNL A   1      43.317  27.578  32.110  1.00  0.00     0.049 A 
ATOM     52  H   UNL A   1      41.673  28.563  31.222  1.00  0.00     0.167 HD
ATOM     53  C   UNL A   1      42.411  28.977  33.946  1.00  0.00     0.074 A 
ATOM     54  C   UNL A   1      42.380  29.455  35.316  1.00  0.00     0.031 C 
ATOM     55  C   UNL A   1      43.276  28.052  33.470  1.00  0.00     0.037 A 
BRANCH  42  56
ATOM     56  C   UNL A   1      42.466  26.553  27.525  1.00  0.00     0.057 A 
ATOM     57  C   UNL A   1      43.397  27.019  26.589  1.00  0.00     0.134 A 
ATOM     58  C   UNL A   1      42.044  25.219  27.386  1.00  0.00     0.134 A 
ATOM     59  F   UNL A   1      43.858  28.278  26.657  1.00  0.00    -0.206 F 
ATOM     60  C   UNL A   1      43.870  26.205  25.551  1.00  0.00     0.040 A 
ATOM     61  C   UNL A   1      42.528  24.389  26.370  1.00  0.00     0.040 A 
ATOM     62  F   UNL A   1      41.173  24.688  28.258  1.00  0.00    -0.206 F 
ATOM     63  C   UNL A   1      43.439  24.885  25.443  1.00  0.00     0.006 A 
ENDBRANCH  42  56
BRANCH  43  64
ATOM     64  C   UNL A   1      39.134  32.145  35.101  1.00  0.00     0.057 A 
ATOM     65  C   UNL A   1      38.265  31.541  36.010  1.00  0.00     0.134 A 
ATOM     66  C   UNL A   1      39.494  33.482  35.339  1.00  0.00     0.134 A 
ATOM     67  F   UNL A   1      37.877  30.270  35.832  1.00  0.00    -0.206 F 
ATOM     68  C   UNL A   1      37.775  32.237  37.117  1.00  0.00     0.040 A 
ATOM     69  C   UNL A   1      39.048  34.174  36.464  1.00  0.00     0.040 A 
ATOM     70  F   UNL A   1      40.345  34.115  34.515  1.00  0.00    -0.206 F 
ATOM     71  C   UNL A   1      38.178  33.552  37.353  1.00  0.00     0.006 A 
ENDBRANCH  43  64
BRANCH  55  72
ATOM     72  C   UNL A   1      44.293  27.536  34.440  1.00  0.00     0.057 A 
ATOM     73  C   UNL A   1      44.078  26.373  35.189  1.00  0.00     0.134 A 
ATOM     74  C   UNL A   1      45.500  28.220  34.629  1.00  0.00     0.134 A 
ATOM     75  F   UNL A   1      42.928  25.691  35.076  1.00  0.00    -0.206 F 
ATOM     76  C   UNL A   1      45.020  25.921  36.113  1.00  0.00     0.040 A 
ATOM     77  C   UNL A   1      46.464  27.759  35.524  1.00  0.00     0.040 A 
ATOM     78  F   UNL A   1      45.762  29.343  33.945  1.00  0.00    -0.206 F 
ATOM     79  C   UNL A   1      46.221  26.610  36.275  1.00  0.00     0.006 A 
ENDBRANCH  55  72
ENDBRANCH  29  30
ENDBRANCH  22  24
ENDBRANCH  21  22
ENDBRANCH  20  21
ENDBRANCH   1  20
TORSDOF 17
ENDMDL
MODEL 3
REMARK VINA RESULT:      -9.6      1.150      1.767
REMARK SMILES C#CCN(CC(=O)OCCOC(=O)c1ccc(-c2c3nc(c(-c4c(F)cccc4F)c4ccc([nH]4)c(-c4c(F)cccc4F)c4nc(c(-c5c(F)cccc5F)c5ccc2[nH]5)C=C4)C=C3)cc1)C(=O)N1CCO[C@@H](C#N)C1
REMARK SMILES IDX 9 1 8 2 6 3 7 4 5 5 4 6 3 7 2 8 1 9 68 10 69 11 70 12 71 13
REMARK SMILES IDX 77 14 72 15 74 16 73 17 75 18 76 19 10 20 11 21 12 22 13 23
REMARK SMILES IDX 14 24 15 25 67 26 16 27 66 28 17 29 18 30 19 31 60 32 20 33
REMARK SMILES IDX 65 34 59 35 61 36 21 37 64 38 58 39 57 40 22 42 48 43 31 44
REMARK SMILES IDX 47 45 32 46 35 47 46 48 62 49 33 50 34 51 45 53 63 54 36 55
REMARK SMILES IDX 23 56 24 57 29 58 25 59 26 60 28 61 30 62 27 63 49 64 50 65
REMARK SMILES IDX 55 66 51 67 52 68 54 69 56 70 53 71 37 72 38 73 43 74 39 75
REMARK SMILES IDX 40 76 42 77 44 78 41 79
REMARK H PARENT 61 41 35 52
REMARK Flexibility Score: inf
ROOT
ATOM      1  C   UNL A   1      31.579  29.064  23.894  1.00  0.00     0.274 C 
ENDROOT
BRANCH   1   2
ATOM      2  O   UNL A   1      31.061  27.719  23.912  1.00  0.00    -0.461 OA
BRANCH   2   3
ATOM      3  C   UNL A   1      30.851  27.172  22.694  1.00  0.00     0.325 C 
ATOM      4  O   UNL A   1      30.651  27.804  21.661  1.00  0.00    -0.250 OA
BRANCH   3   5
ATOM      5  C   UNL A   1      31.036  25.659  22.653  1.00  0.00     0.245 C 
BRANCH   5   6
ATOM      6  N   UNL A   1      32.340  24.944  22.759  1.00  0.00    -0.302 N 
BRANCH   6   7
ATOM      7  C   UNL A   1      33.386  25.832  23.120  1.00  0.00     0.211 C 
BRANCH   7   8
ATOM      8  C   UNL A   1      33.703  26.052  24.591  1.00  0.00    -0.085 C 
ATOM      9  C   UNL A   1      33.975  26.240  25.852  1.00  0.00     0.006 C 
ENDBRANCH   7   8
ENDBRANCH   6   7
BRANCH   6  10
ATOM     10  C   UNL A   1      32.785  23.632  22.685  1.00  0.00     0.321 C 
ATOM     11  O   UNL A   1      33.888  23.353  22.203  1.00  0.00    -0.248 OA
BRANCH  10  12
ATOM     12  N   UNL A   1      32.077  22.634  23.275  1.00  0.00    -0.319 N 
ATOM     13  C   UNL A   1      32.154  21.246  22.775  1.00  0.00     0.150 C 
ATOM     14  C   UNL A   1      31.492  22.702  24.567  1.00  0.00     0.169 C 
ATOM     15  C   UNL A   1      32.718  20.280  23.859  1.00  0.00     0.183 C 
ATOM     16  C   UNL A   1      32.374  21.918  25.512  1.00  0.00     0.240 C 
ATOM     17  O   UNL A   1      32.226  20.531  25.185  1.00  0.00    -0.360 OA
BRANCH  16  18
ATOM     18  C   UNL A   1      33.782  22.331  25.692  1.00  0.00     0.096 C 
ATOM     19  N   UNL A   1      34.895  22.628  25.756  1.00  0.00    -0.195 NA
ENDBRANCH  16  18
ENDBRANCH  10  12
ENDBRANCH   6  10
ENDBRANCH   5   6
ENDBRANCH   3   5
ENDBRANCH   2   3
ENDBRANCH   1   2
BRANCH   1  20
ATOM     20  C   UNL A   1      31.623  29.610  25.326  1.00  0.00     0.275 C 
BRANCH  20  21
ATOM     21  O   UNL A   1      32.927  30.050  25.782  1.00  0.00    -0.458 OA
BRANCH  21  22
ATOM     22  C   UNL A   1      32.966  31.010  26.735  1.00  0.00     0.338 C 
ATOM     23  O   UNL A   1      32.167  31.916  26.886  1.00  0.00    -0.246 OA
BRANCH  22  24
ATOM     24  C   UNL A   1      34.269  30.943  27.445  1.00  0.00     0.060 A 
ATOM     25  C   UNL A   1      34.627  29.696  27.933  1.00  0.00     0.016 A 
ATOM     26  C   UNL A   1      35.082  32.049  27.741  1.00  0.00     0.016 A 
ATOM     27  C   UNL A   1      35.743  29.589  28.768  1.00  0.00     0.010 A 
ATOM     28  C   UNL A   1      36.292  31.891  28.471  1.00  0.00     0.010 A 
ATOM     29  C   UNL A   1      36.662  30.641  28.986  1.00  0.00    -0.014 A 
BRANCH  29  30
ATOM     30  C   UNL A   1      37.994  30.311  29.621  1.00  0.00     0.031 A 
ATOM     31  C   UNL A   1      39.068  29.424  29.006  1.00  0.00     0.074 A 
ATOM     32  C   UNL A   1      38.256  30.875  30.827  1.00  0.00     0.049 A 
ATOM     33  N   UNL A   1      40.150  28.932  29.573  1.00  0.00    -0.248 NA
ATOM     34  C   UNL A   1      38.940  29.049  27.591  1.00  0.00     0.031 C 
ATOM     35  C   UNL A   1      37.366  31.800  31.546  1.00  0.00     0.029 A 
ATOM     36  N   UNL A   1      39.339  30.785  31.669  1.00  0.00    -0.354 N 
ATOM     37  C   UNL A   1      40.808  28.175  28.603  1.00  0.00     0.074 A 
ATOM     38  C   UNL A   1      40.014  28.287  27.397  1.00  0.00     0.031 C 
ATOM     39  C   UNL A   1      37.978  32.288  32.620  1.00  0.00     0.029 A 
ATOM     40  C   UNL A   1      39.163  31.493  32.838  1.00  0.00     0.049 A 
ATOM     41  H   UNL A   1      40.152  30.270  31.461  1.00  0.00     0.167 HD
ATOM     42  C   UNL A   1      41.945  27.438  28.723  1.00  0.00     0.037 A 
ATOM     43  C   UNL A   1      39.760  31.423  34.038  1.00  0.00     0.037 A 
ATOM     44  C   UNL A   1      42.715  27.329  29.945  1.00  0.00     0.049 A 
ATOM     45  C   UNL A   1      40.876  30.461  34.208  1.00  0.00     0.074 A 
ATOM     46  C   UNL A   1      43.858  26.582  30.190  1.00  0.00     0.029 A 
ATOM     47  N   UNL A   1      42.409  27.976  31.135  1.00  0.00    -0.354 N 
ATOM     48  N   UNL A   1      41.427  29.684  33.311  1.00  0.00    -0.248 NA
ATOM     49  C   UNL A   1      41.441  30.348  35.553  1.00  0.00     0.031 C 
ATOM     50  C   UNL A   1      44.189  26.711  31.543  1.00  0.00     0.029 A 
ATOM     51  C   UNL A   1      43.305  27.603  32.127  1.00  0.00     0.049 A 
ATOM     52  H   UNL A   1      41.663  28.608  31.258  1.00  0.00     0.167 HD
ATOM     53  C   UNL A   1      42.428  29.001  33.978  1.00  0.00     0.074 A 
ATOM     54  C   UNL A   1      42.413  29.472  35.350  1.00  0.00     0.031 C 
ATOM     55  C   UNL A   1      43.280  28.070  33.489  1.00  0.00     0.037 A 
BRANCH  42  56
ATOM     56  C   UNL A   1      42.406  26.610  27.544  1.00  0.00     0.057 A 
ATOM     57  C   UNL A   1      43.309  27.085  26.584  1.00  0.00     0.134 A 
ATOM     58  C   UNL A   1      41.998  25.271  27.419  1.00  0.00     0.134 A 
ATOM     59  F   UNL A   1      43.755  28.349  26.636  1.00  0.00    -0.206 F 
ATOM     60  C   UNL A   1      43.767  26.273  25.538  1.00  0.00     0.040 A 
ATOM     61  C   UNL A   1      42.468  24.442  26.395  1.00  0.00     0.040 A 
ATOM     62  F   UNL A   1      41.154  24.732  28.314  1.00  0.00    -0.206 F 
ATOM     63  C   UNL A   1      43.350  24.946  25.445  1.00  0.00     0.006 A 
ENDBRANCH  42  56
BRANCH  43  64
ATOM     64  C   UNL A   1      39.190  32.193  35.176  1.00  0.00     0.057 A 
ATOM     65  C   UNL A   1      38.257  31.619  36.039  1.00  0.00     0.134 A 
ATOM     66  C   UNL A   1      39.629  33.495  35.470  1.00  0.00     0.134 A 
ATOM     67  F   UNL A   1      37.794  30.382  35.806  1.00  0.00    -0.206 F 
ATOM     68  C   UNL A   1      37.780  32.308  37.155  1.00  0.00     0.040 A 
ATOM     69  C   UNL A   1      39.195  34.177  36.606  1.00  0.00     0.040 A 
ATOM     70  F   UNL A   1      40.544  34.098  34.693  1.00  0.00    -0.206 F 
ATOM     71  C   UNL A   1      38.260  33.585  37.448  1.00  0.00     0.006 A 
ENDBRANCH  43  64
BRANCH  55  72
ATOM     72  C   UNL A   1      44.300  27.539  34.448  1.00  0.00     0.057 A 
ATOM     73  C   UNL A   1      45.532  28.176  34.647  1.00  0.00     0.134 A 
ATOM     74  C   UNL A   1      44.046  26.370  35.175  1.00  0.00     0.134 A 
ATOM     75  F   UNL A   1      45.847  29.282  33.955  1.00  0.00    -0.206 F 
ATOM     76  C   UNL A   1      46.486  27.653  35.519  1.00  0.00     0.040 A 
ATOM     77  C   UNL A   1      44.978  25.858  36.076  1.00  0.00     0.040 A 
ATOM     78  F   UNL A   1      42.887  25.712  35.025  1.00  0.00    -0.206 F 
ATOM     79  C   UNL A   1      46.206  26.496  36.242  1.00  0.00     0.006 A 
ENDBRANCH  55  72
ENDBRANCH  29  30
ENDBRANCH  22  24
ENDBRANCH  21  22
ENDBRANCH  20  21
ENDBRANCH   1  20
TORSDOF 17
ENDMDL
