MODEL 1
REMARK VINA RESULT:     -12.4      0.000      0.000
REMARK SMILES O=C(OCCOC(=O)c1cccc(Nc2ccnc3ccc(Cl)cc23)c1)c1ccc(-c2c3nc(c(-c4c(F)cccc4F)c4ccc([nH]4)c(-c4c(F)cccc4F)c4nc(c(-c5c(F)cccc5F)c5ccc2[nH]5)C=C4)C=C3)cc1
REMARK SMILES IDX 4 1 3 2 2 3 1 4 27 5 28 6 80 7 29 8 79 9 30 10 31 11 32 12
REMARK SMILES IDX 73 13 33 14 78 15 72 16 74 17 34 18 77 19 71 20 70 21 35 23
REMARK SMILES IDX 61 24 44 25 60 26 45 27 48 28 59 29 75 30 46 31 47 32 58 34
REMARK SMILES IDX 76 35 49 36 36 37 37 38 42 39 38 40 39 41 41 42 43 43 40 44
REMARK SMILES IDX 62 45 63 46 68 47 64 48 65 49 67 50 69 51 66 52 50 53 51 54
REMARK SMILES IDX 56 55 52 56 53 57 55 58 57 59 54 60 5 61 6 62 7 63 8 64 9 65
REMARK SMILES IDX 10 66 26 67 11 68 13 69 12 70 14 71 15 73 16 74 25 75 17 76
REMARK SMILES IDX 19 77 24 78 18 79 20 80 22 81 21 82 23 83
REMARK H PARENT 74 22 48 33 14 72
REMARK Flexibility Score: inf
ROOT
ATOM      1  C   UNL A   1      43.898  21.979  25.014  1.00  0.00     0.275 C 
ENDROOT
BRANCH   1   2
ATOM      2  O   UNL A   1      43.533  23.321  24.651  1.00  0.00    -0.458 OA
BRANCH   2   3
ATOM      3  C   UNL A   1      44.090  24.487  25.059  1.00  0.00     0.338 C 
ATOM      4  O   UNL A   1      45.205  24.784  24.632  1.00  0.00    -0.246 OA
BRANCH   3   5
ATOM      5  C   UNL A   1      43.517  25.342  26.152  1.00  0.00     0.060 A 
ATOM      6  C   UNL A   1      43.873  26.657  26.445  1.00  0.00     0.016 A 
ATOM      7  C   UNL A   1      42.500  24.751  26.928  1.00  0.00     0.016 A 
ATOM      8  C   UNL A   1      43.207  27.381  27.431  1.00  0.00     0.010 A 
ATOM      9  C   UNL A   1      41.795  25.484  27.886  1.00  0.00     0.010 A 
ATOM     10  C   UNL A   1      42.161  26.805  28.152  1.00  0.00    -0.014 A 
BRANCH  10  11
ATOM     11  C   UNL A   1      41.596  27.560  29.287  1.00  0.00     0.031 A 
ATOM     12  C   UNL A   1      42.312  27.497  30.603  1.00  0.00     0.074 A 
ATOM     13  C   UNL A   1      40.542  28.374  29.102  1.00  0.00     0.049 A 
ATOM     14  N   UNL A   1      42.068  28.146  31.710  1.00  0.00    -0.248 NA
ATOM     15  C   UNL A   1      43.472  26.592  30.676  1.00  0.00     0.031 C 
ATOM     16  C   UNL A   1      39.828  28.561  27.835  1.00  0.00     0.029 A 
ATOM     17  N   UNL A   1      39.893  29.209  29.973  1.00  0.00    -0.354 N 
ATOM     18  C   UNL A   1      43.051  27.737  32.602  1.00  0.00     0.074 A 
ATOM     19  C   UNL A   1      43.852  26.740  31.933  1.00  0.00     0.031 C 
ATOM     20  C   UNL A   1      38.840  29.453  28.013  1.00  0.00     0.029 A 
ATOM     21  C   UNL A   1      38.848  29.896  29.403  1.00  0.00     0.049 A 
ATOM     22  H   UNL A   1      40.153  29.308  30.917  1.00  0.00     0.167 HD
ATOM     23  C   UNL A   1      43.283  28.179  33.859  1.00  0.00     0.037 A 
ATOM     24  C   UNL A   1      38.000  30.784  29.954  1.00  0.00     0.037 A 
ATOM     25  C   UNL A   1      42.472  29.168  34.513  1.00  0.00     0.049 A 
ATOM     26  C   UNL A   1      38.210  31.175  31.393  1.00  0.00     0.074 A 
ATOM     27  C   UNL A   1      42.593  29.681  35.789  1.00  0.00     0.029 A 
ATOM     28  N   UNL A   1      41.373  29.786  33.930  1.00  0.00    -0.354 N 
ATOM     29  N   UNL A   1      39.159  30.803  32.221  1.00  0.00    -0.248 NA
ATOM     30  C   UNL A   1      37.248  32.123  31.968  1.00  0.00     0.031 C 
ATOM     31  C   UNL A   1      41.533  30.571  35.998  1.00  0.00     0.029 A 
ATOM     32  C   UNL A   1      40.787  30.655  34.831  1.00  0.00     0.049 A 
ATOM     33  H   UNL A   1      41.057  29.627  33.011  1.00  0.00     0.167 HD
ATOM     34  C   UNL A   1      38.932  31.500  33.401  1.00  0.00     0.074 A 
ATOM     35  C   UNL A   1      37.761  32.324  33.175  1.00  0.00     0.031 C 
ATOM     36  C   UNL A   1      39.628  31.471  34.564  1.00  0.00     0.037 A 
BRANCH  23  37
ATOM     37  C   UNL A   1      44.427  27.546  34.594  1.00  0.00     0.057 A 
ATOM     38  C   UNL A   1      44.262  26.399  35.385  1.00  0.00     0.134 A 
ATOM     39  C   UNL A   1      45.699  28.131  34.565  1.00  0.00     0.134 A 
ATOM     40  F   UNL A   1      43.061  25.806  35.480  1.00  0.00    -0.206 F 
ATOM     41  C   UNL A   1      45.308  25.885  36.154  1.00  0.00     0.040 A 
ATOM     42  C   UNL A   1      46.760  27.609  35.308  1.00  0.00     0.040 A 
ATOM     43  F   UNL A   1      45.925  29.232  33.834  1.00  0.00    -0.206 F 
ATOM     44  C   UNL A   1      46.562  26.491  36.116  1.00  0.00     0.006 A 
ENDBRANCH  23  37
BRANCH  24  45
ATOM     45  C   UNL A   1      36.897  31.378  29.151  1.00  0.00     0.057 A 
ATOM     46  C   UNL A   1      36.962  32.697  28.688  1.00  0.00     0.134 A 
ATOM     47  C   UNL A   1      35.737  30.651  28.854  1.00  0.00     0.134 A 
ATOM     48  F   UNL A   1      38.039  33.452  28.948  1.00  0.00    -0.206 F 
ATOM     49  C   UNL A   1      35.905  33.281  27.984  1.00  0.00     0.040 A 
ATOM     50  C   UNL A   1      34.683  31.213  28.131  1.00  0.00     0.040 A 
ATOM     51  F   UNL A   1      35.613  29.378  29.259  1.00  0.00    -0.206 F 
ATOM     52  C   UNL A   1      34.762  32.537  27.703  1.00  0.00     0.006 A 
ENDBRANCH  24  45
BRANCH  36  53
ATOM     53  C   UNL A   1      39.169  32.389  35.658  1.00  0.00     0.057 A 
ATOM     54  C   UNL A   1      38.291  31.967  36.664  1.00  0.00     0.134 A 
ATOM     55  C   UNL A   1      39.652  33.702  35.728  1.00  0.00     0.134 A 
ATOM     56  F   UNL A   1      37.784  30.725  36.646  1.00  0.00    -0.206 F 
ATOM     57  C   UNL A   1      37.892  32.826  37.688  1.00  0.00     0.040 A 
ATOM     58  C   UNL A   1      39.285  34.560  36.765  1.00  0.00     0.040 A 
ATOM     59  F   UNL A   1      40.504  34.166  34.801  1.00  0.00    -0.206 F 
ATOM     60  C   UNL A   1      38.397  34.125  37.745  1.00  0.00     0.006 A 
ENDBRANCH  36  53
ENDBRANCH  10  11
ENDBRANCH   3   5
ENDBRANCH   2   3
ENDBRANCH   1   2
BRANCH   1  61
ATOM     61  C   UNL A   1      42.953  21.347  26.049  1.00  0.00     0.275 C 
BRANCH  61  62
ATOM     62  O   UNL A   1      41.567  21.511  25.680  1.00  0.00    -0.458 OA
BRANCH  62  63
ATOM     63  C   UNL A   1      40.622  21.200  26.608  1.00  0.00     0.338 C 
ATOM     64  O   UNL A   1      40.778  20.544  27.629  1.00  0.00    -0.246 OA
BRANCH  63  65
ATOM     65  C   UNL A   1      39.383  21.937  26.270  1.00  0.00     0.062 A 
ATOM     66  C   UNL A   1      39.253  23.190  26.874  1.00  0.00     0.016 A 
ATOM     67  C   UNL A   1      38.379  21.456  25.399  1.00  0.00     0.041 A 
ATOM     68  C   UNL A   1      38.220  24.034  26.498  1.00  0.00     0.003 A 
ATOM     69  C   UNL A   1      37.289  22.286  25.059  1.00  0.00     0.039 A 
ATOM     70  C   UNL A   1      37.281  23.599  25.569  1.00  0.00     0.026 A 
BRANCH  69  71
ATOM     71  N   UNL A   1      36.252  21.897  24.161  1.00  0.00    -0.355 N 
ATOM     72  H   UNL A   1      36.504  21.693  23.232  1.00  0.00     0.167 HD
BRANCH  71  73
ATOM     73  C   UNL A   1      34.877  21.785  24.516  1.00  0.00     0.050 A 
ATOM     74  C   UNL A   1      34.557  20.715  25.353  1.00  0.00     0.047 A 
ATOM     75  C   UNL A   1      33.801  22.558  23.983  1.00  0.00     0.025 A 
ATOM     76  C   UNL A   1      33.258  20.293  25.456  1.00  0.00     0.114 A 
ATOM     77  C   UNL A   1      32.496  22.166  24.392  1.00  0.00     0.072 A 
ATOM     78  C   UNL A   1      33.881  23.643  23.071  1.00  0.00     0.033 A 
ATOM     79  N   UNL A   1      32.227  21.023  25.023  1.00  0.00    -0.256 NA
ATOM     80  C   UNL A   1      31.399  22.961  24.117  1.00  0.00     0.030 A 
ATOM     81  C   UNL A   1      32.732  24.369  22.720  1.00  0.00     0.041 A 
ATOM     82  C   UNL A   1      31.503  24.076  23.297  1.00  0.00     0.023 A 
ATOM     83  Cl  UNL A   1      32.815  25.630  21.552  1.00  0.00    -0.084 Cl
ENDBRANCH  71  73
ENDBRANCH  69  71
ENDBRANCH  63  65
ENDBRANCH  62  63
ENDBRANCH  61  62
ENDBRANCH   1  61
TORSDOF 13
ENDMDL
MODEL 2
REMARK VINA RESULT:     -12.1      5.313     10.190
REMARK SMILES O=C(OCCOC(=O)c1cccc(Nc2ccnc3ccc(Cl)cc23)c1)c1ccc(-c2c3nc(c(-c4c(F)cccc4F)c4ccc([nH]4)c(-c4c(F)cccc4F)c4nc(c(-c5c(F)cccc5F)c5ccc2[nH]5)C=C4)C=C3)cc1
REMARK SMILES IDX 4 1 3 2 2 3 1 4 27 5 28 6 80 7 29 8 79 9 30 10 31 11 32 12
REMARK SMILES IDX 73 13 33 14 78 15 72 16 74 17 34 18 77 19 71 20 70 21 35 23
REMARK SMILES IDX 61 24 44 25 60 26 45 27 48 28 59 29 75 30 46 31 47 32 58 34
REMARK SMILES IDX 76 35 49 36 36 37 37 38 42 39 38 40 39 41 41 42 43 43 40 44
REMARK SMILES IDX 62 45 63 46 68 47 64 48 65 49 67 50 69 51 66 52 50 53 51 54
REMARK SMILES IDX 56 55 52 56 53 57 55 58 57 59 54 60 5 61 6 62 7 63 8 64 9 65
REMARK SMILES IDX 10 66 26 67 11 68 13 69 12 70 14 71 15 73 16 74 25 75 17 76
REMARK SMILES IDX 19 77 24 78 18 79 20 80 22 81 21 82 23 83
REMARK H PARENT 74 22 48 33 14 72
REMARK Flexibility Score: inf
ROOT
ATOM      1  C   UNL A   1      34.523  33.833  31.348  1.00  0.00     0.275 C 
ENDROOT
BRANCH   1   2
ATOM      2  O   UNL A   1      34.996  32.477  31.412  1.00  0.00    -0.458 OA
BRANCH   2   3
ATOM      3  C   UNL A   1      35.990  31.965  32.180  1.00  0.00     0.338 C 
ATOM      4  O   UNL A   1      35.907  32.091  33.402  1.00  0.00    -0.246 OA
BRANCH   3   5
ATOM      5  C   UNL A   1      37.276  31.431  31.624  1.00  0.00     0.060 A 
ATOM      6  C   UNL A   1      38.284  30.788  32.342  1.00  0.00     0.016 A 
ATOM      7  C   UNL A   1      37.455  31.575  30.234  1.00  0.00     0.016 A 
ATOM      8  C   UNL A   1      39.398  30.255  31.699  1.00  0.00     0.010 A 
ATOM      9  C   UNL A   1      38.546  31.002  29.574  1.00  0.00     0.010 A 
ATOM     10  C   UNL A   1      39.534  30.351  30.315  1.00  0.00    -0.014 A 
BRANCH  10  11
ATOM     11  C   UNL A   1      40.804  29.909  29.705  1.00  0.00     0.031 A 
ATOM     12  C   UNL A   1      40.895  28.497  29.209  1.00  0.00     0.074 A 
ATOM     13  C   UNL A   1      41.797  30.791  29.494  1.00  0.00     0.049 A 
ATOM     14  N   UNL A   1      41.861  27.911  28.553  1.00  0.00    -0.248 NA
ATOM     15  C   UNL A   1      39.731  27.634  29.471  1.00  0.00     0.031 C 
ATOM     16  C   UNL A   1      41.767  32.207  29.873  1.00  0.00     0.029 A 
ATOM     17  N   UNL A   1      43.020  30.634  28.899  1.00  0.00    -0.354 N 
ATOM     18  C   UNL A   1      41.414  26.618  28.316  1.00  0.00     0.074 A 
ATOM     19  C   UNL A   1      40.124  26.484  28.950  1.00  0.00     0.031 C 
ATOM     20  C   UNL A   1      42.920  32.787  29.501  1.00  0.00     0.029 A 
ATOM     21  C   UNL A   1      43.769  31.786  28.864  1.00  0.00     0.049 A 
ATOM     22  H   UNL A   1      43.333  29.776  28.529  1.00  0.00     0.167 HD
ATOM     23  C   UNL A   1      42.014  25.638  27.603  1.00  0.00     0.037 A 
ATOM     24  C   UNL A   1      45.002  31.997  28.367  1.00  0.00     0.037 A 
ATOM     25  C   UNL A   1      43.301  25.785  26.982  1.00  0.00     0.049 A 
ATOM     26  C   UNL A   1      45.698  30.854  27.676  1.00  0.00     0.074 A 
ATOM     27  C   UNL A   1      44.022  24.860  26.253  1.00  0.00     0.029 A 
ATOM     28  N   UNL A   1      44.065  26.944  27.034  1.00  0.00    -0.354 N 
ATOM     29  N   UNL A   1      45.257  29.642  27.432  1.00  0.00    -0.248 NA
ATOM     30  C   UNL A   1      47.054  31.113  27.173  1.00  0.00     0.031 C 
ATOM     31  C   UNL A   1      45.248  25.443  25.910  1.00  0.00     0.029 A 
ATOM     32  C   UNL A   1      45.264  26.750  26.375  1.00  0.00     0.049 A 
ATOM     33  H   UNL A   1      43.793  27.781  27.477  1.00  0.00     0.167 HD
ATOM     34  C   UNL A   1      46.262  29.006  26.715  1.00  0.00     0.074 A 
ATOM     35  C   UNL A   1      47.330  29.973  26.555  1.00  0.00     0.031 C 
ATOM     36  C   UNL A   1      46.300  27.742  26.224  1.00  0.00     0.037 A 
BRANCH  23  37
ATOM     37  C   UNL A   1      41.289  24.327  27.516  1.00  0.00     0.057 A 
ATOM     38  C   UNL A   1      41.713  23.193  28.225  1.00  0.00     0.134 A 
ATOM     39  C   UNL A   1      40.191  24.179  26.661  1.00  0.00     0.134 A 
ATOM     40  F   UNL A   1      42.779  23.259  29.039  1.00  0.00    -0.206 F 
ATOM     41  C   UNL A   1      41.100  21.951  28.051  1.00  0.00     0.040 A 
ATOM     42  C   UNL A   1      39.551  22.949  26.501  1.00  0.00     0.040 A 
ATOM     43  F   UNL A   1      39.736  25.221  25.950  1.00  0.00    -0.206 F 
ATOM     44  C   UNL A   1      40.015  21.827  27.186  1.00  0.00     0.006 A 
ENDBRANCH  23  37
BRANCH  24  45
ATOM     45  C   UNL A   1      45.647  33.333  28.480  1.00  0.00     0.057 A 
ATOM     46  C   UNL A   1      46.499  33.643  29.547  1.00  0.00     0.134 A 
ATOM     47  C   UNL A   1      45.402  34.343  27.542  1.00  0.00     0.134 A 
ATOM     48  F   UNL A   1      46.765  32.725  30.487  1.00  0.00    -0.206 F 
ATOM     49  C   UNL A   1      47.061  34.913  29.692  1.00  0.00     0.040 A 
ATOM     50  C   UNL A   1      45.976  35.611  27.661  1.00  0.00     0.040 A 
ATOM     51  F   UNL A   1      44.603  34.112  26.490  1.00  0.00    -0.206 F 
ATOM     52  C   UNL A   1      46.801  35.902  28.745  1.00  0.00     0.006 A 
ENDBRANCH  24  45
BRANCH  36  53
ATOM     53  C   UNL A   1      47.513  27.354  25.431  1.00  0.00     0.057 A 
ATOM     54  C   UNL A   1      47.601  27.576  24.051  1.00  0.00     0.134 A 
ATOM     55  C   UNL A   1      48.625  26.792  26.071  1.00  0.00     0.134 A 
ATOM     56  F   UNL A   1      46.566  28.099  23.378  1.00  0.00    -0.206 F 
ATOM     57  C   UNL A   1      48.746  27.230  23.332  1.00  0.00     0.040 A 
ATOM     58  C   UNL A   1      49.786  26.472  25.368  1.00  0.00     0.040 A 
ATOM     59  F   UNL A   1      48.608  26.563  27.393  1.00  0.00    -0.206 F 
ATOM     60  C   UNL A   1      49.846  26.685  23.993  1.00  0.00     0.006 A 
ENDBRANCH  36  53
ENDBRANCH  10  11
ENDBRANCH   3   5
ENDBRANCH   2   3
ENDBRANCH   1   2
BRANCH   1  61
ATOM     61  C   UNL A   1      34.117  34.274  29.932  1.00  0.00     0.275 C 
BRANCH  61  62
ATOM     62  O   UNL A   1      33.780  33.147  29.096  1.00  0.00    -0.458 OA
BRANCH  62  63
ATOM     63  C   UNL A   1      34.614  32.851  28.063  1.00  0.00     0.338 C 
ATOM     64  O   UNL A   1      35.527  33.540  27.631  1.00  0.00    -0.246 OA
BRANCH  63  65
ATOM     65  C   UNL A   1      34.348  31.457  27.641  1.00  0.00     0.062 A 
ATOM     66  C   UNL A   1      35.461  30.613  27.638  1.00  0.00     0.016 A 
ATOM     67  C   UNL A   1      33.076  30.964  27.266  1.00  0.00     0.041 A 
ATOM     68  C   UNL A   1      35.297  29.254  27.424  1.00  0.00     0.003 A 
ATOM     69  C   UNL A   1      32.912  29.591  26.985  1.00  0.00     0.039 A 
ATOM     70  C   UNL A   1      34.030  28.750  27.147  1.00  0.00     0.026 A 
BRANCH  69  71
ATOM     71  N   UNL A   1      31.662  29.002  26.635  1.00  0.00    -0.355 N 
ATOM     72  H   UNL A   1      30.943  29.021  27.307  1.00  0.00     0.167 HD
BRANCH  71  73
ATOM     73  C   UNL A   1      31.382  28.386  25.381  1.00  0.00     0.050 A 
ATOM     74  C   UNL A   1      31.218  29.260  24.306  1.00  0.00     0.047 A 
ATOM     75  C   UNL A   1      31.108  27.002  25.162  1.00  0.00     0.025 A 
ATOM     76  C   UNL A   1      30.594  28.830  23.165  1.00  0.00     0.114 A 
ATOM     77  C   UNL A   1      30.719  26.650  23.840  1.00  0.00     0.072 A 
ATOM     78  C   UNL A   1      31.146  25.949  26.114  1.00  0.00     0.033 A 
ATOM     79  N   UNL A   1      30.381  27.537  22.904  1.00  0.00    -0.256 NA
ATOM     80  C   UNL A   1      30.637  25.325  23.455  1.00  0.00     0.030 A 
ATOM     81  C   UNL A   1      30.949  24.617  25.715  1.00  0.00     0.041 A 
ATOM     82  C   UNL A   1      30.766  24.296  24.375  1.00  0.00     0.023 A 
ATOM     83  Cl  UNL A   1      30.912  23.351  26.879  1.00  0.00    -0.084 Cl
ENDBRANCH  71  73
ENDBRANCH  69  71
ENDBRANCH  63  65
ENDBRANCH  62  63
ENDBRANCH  61  62
ENDBRANCH   1  61
TORSDOF 13
ENDMDL
MODEL 3
REMARK VINA RESULT:     -12.0      3.735      8.107
REMARK SMILES O=C(OCCOC(=O)c1cccc(Nc2ccnc3ccc(Cl)cc23)c1)c1ccc(-c2c3nc(c(-c4c(F)cccc4F)c4ccc([nH]4)c(-c4c(F)cccc4F)c4nc(c(-c5c(F)cccc5F)c5ccc2[nH]5)C=C4)C=C3)cc1
REMARK SMILES IDX 4 1 3 2 2 3 1 4 27 5 28 6 80 7 29 8 79 9 30 10 31 11 32 12
REMARK SMILES IDX 73 13 33 14 78 15 72 16 74 17 34 18 77 19 71 20 70 21 35 23
REMARK SMILES IDX 61 24 44 25 60 26 45 27 48 28 59 29 75 30 46 31 47 32 58 34
REMARK SMILES IDX 76 35 49 36 36 37 37 38 42 39 38 40 39 41 41 42 43 43 40 44
REMARK SMILES IDX 62 45 63 46 68 47 64 48 65 49 67 50 69 51 66 52 50 53 51 54
REMARK SMILES IDX 56 55 52 56 53 57 55 58 57 59 54 60 5 61 6 62 7 63 8 64 9 65
REMARK SMILES IDX 10 66 26 67 11 68 13 69 12 70 14 71 15 73 16 74 25 75 17 76
REMARK SMILES IDX 19 77 24 78 18 79 20 80 22 81 21 82 23 83
REMARK H PARENT 74 22 48 33 14 72
REMARK Flexibility Score: inf
ROOT
ATOM      1  C   UNL A   1      31.473  32.236  27.116  1.00  0.00     0.275 C 
ENDROOT
BRANCH   1   2
ATOM      2  O   UNL A   1      32.220  33.463  27.066  1.00  0.00    -0.458 OA
BRANCH   2   3
ATOM      3  C   UNL A   1      32.907  34.074  28.061  1.00  0.00     0.338 C 
ATOM      4  O   UNL A   1      32.568  35.210  28.393  1.00  0.00    -0.246 OA
BRANCH   3   5
ATOM      5  C   UNL A   1      34.176  33.532  28.648  1.00  0.00     0.060 A 
ATOM      6  C   UNL A   1      35.438  34.120  28.577  1.00  0.00     0.016 A 
ATOM      7  C   UNL A   1      34.059  32.323  29.364  1.00  0.00     0.016 A 
ATOM      8  C   UNL A   1      36.531  33.564  29.239  1.00  0.00     0.010 A 
ATOM      9  C   UNL A   1      35.138  31.784  30.069  1.00  0.00     0.010 A 
ATOM     10  C   UNL A   1      36.388  32.401  29.993  1.00  0.00    -0.014 A 
BRANCH  10  11
ATOM     11  C   UNL A   1      37.604  31.771  30.543  1.00  0.00     0.031 A 
ATOM     12  C   UNL A   1      37.950  32.035  31.978  1.00  0.00     0.074 A 
ATOM     13  C   UNL A   1      38.304  30.890  29.805  1.00  0.00     0.049 A 
ATOM     14  N   UNL A   1      38.903  31.521  32.708  1.00  0.00    -0.248 NA
ATOM     15  C   UNL A   1      37.092  32.995  32.693  1.00  0.00     0.031 C 
ATOM     16  C   UNL A   1      37.996  30.510  28.423  1.00  0.00     0.029 A 
ATOM     17  N   UNL A   1      39.410  30.144  30.115  1.00  0.00    -0.354 N 
ATOM     18  C   UNL A   1      38.750  32.087  33.967  1.00  0.00     0.074 A 
ATOM     19  C   UNL A   1      37.657  33.027  33.887  1.00  0.00     0.031 C 
ATOM     20  C   UNL A   1      38.895  29.602  28.005  1.00  0.00     0.029 A 
ATOM     21  C   UNL A   1      39.839  29.341  29.085  1.00  0.00     0.049 A 
ATOM     22  H   UNL A   1      39.853  30.178  30.994  1.00  0.00     0.167 HD
ATOM     23  C   UNL A   1      39.439  31.820  35.099  1.00  0.00     0.037 A 
ATOM     24  C   UNL A   1      40.882  28.492  29.034  1.00  0.00     0.037 A 
ATOM     25  C   UNL A   1      40.528  30.885  35.161  1.00  0.00     0.049 A 
ATOM     26  C   UNL A   1      41.708  28.297  30.279  1.00  0.00     0.074 A 
ATOM     27  C   UNL A   1      41.317  30.545  36.242  1.00  0.00     0.029 A 
ATOM     28  N   UNL A   1      40.985  30.147  34.077  1.00  0.00    -0.354 N 
ATOM     29  N   UNL A   1      41.538  28.816  31.473  1.00  0.00    -0.248 NA
ATOM     30  C   UNL A   1      42.854  27.386  30.176  1.00  0.00     0.031 C 
ATOM     31  C   UNL A   1      42.289  29.641  35.798  1.00  0.00     0.029 A 
ATOM     32  C   UNL A   1      42.067  29.373  34.455  1.00  0.00     0.049 A 
ATOM     33  H   UNL A   1      40.598  30.172  33.172  1.00  0.00     0.167 HD
ATOM     34  C   UNL A   1      42.530  28.266  32.274  1.00  0.00     0.074 A 
ATOM     35  C   UNL A   1      43.290  27.365  31.429  1.00  0.00     0.031 C 
ATOM     36  C   UNL A   1      42.790  28.475  33.588  1.00  0.00     0.037 A 
BRANCH  23  37
ATOM     37  C   UNL A   1      39.050  32.595  36.323  1.00  0.00     0.057 A 
ATOM     38  C   UNL A   1      39.607  33.847  36.622  1.00  0.00     0.134 A 
ATOM     39  C   UNL A   1      38.154  32.050  37.252  1.00  0.00     0.134 A 
ATOM     40  F   UNL A   1      40.496  34.412  35.789  1.00  0.00    -0.206 F 
ATOM     41  C   UNL A   1      39.323  34.507  37.819  1.00  0.00     0.040 A 
ATOM     42  C   UNL A   1      37.839  32.715  38.438  1.00  0.00     0.040 A 
ATOM     43  F   UNL A   1      37.588  30.855  37.031  1.00  0.00    -0.206 F 
ATOM     44  C   UNL A   1      38.436  33.941  38.731  1.00  0.00     0.006 A 
ENDBRANCH  23  37
BRANCH  24  45
ATOM     45  C   UNL A   1      41.194  27.749  27.783  1.00  0.00     0.057 A 
ATOM     46  C   UNL A   1      41.964  28.325  26.766  1.00  0.00     0.134 A 
ATOM     47  C   UNL A   1      40.703  26.456  27.561  1.00  0.00     0.134 A 
ATOM     48  F   UNL A   1      42.454  29.565  26.910  1.00  0.00    -0.206 F 
ATOM     49  C   UNL A   1      42.211  27.656  25.564  1.00  0.00     0.040 A 
ATOM     50  C   UNL A   1      40.962  25.767  26.375  1.00  0.00     0.040 A 
ATOM     51  F   UNL A   1      39.967  25.841  28.498  1.00  0.00    -0.206 F 
ATOM     52  C   UNL A   1      41.711  26.371  25.367  1.00  0.00     0.006 A 
ENDBRANCH  24  45
BRANCH  36  53
ATOM     53  C   UNL A   1      43.908  27.684  34.199  1.00  0.00     0.057 A 
ATOM     54  C   UNL A   1      45.217  28.177  34.268  1.00  0.00     0.134 A 
ATOM     55  C   UNL A   1      43.657  26.428  34.766  1.00  0.00     0.134 A 
ATOM     56  F   UNL A   1      45.524  29.368  33.732  1.00  0.00    -0.206 F 
ATOM     57  C   UNL A   1      46.241  27.438  34.861  1.00  0.00     0.040 A 
ATOM     58  C   UNL A   1      44.666  25.694  35.389  1.00  0.00     0.040 A 
ATOM     59  F   UNL A   1      42.422  25.902  34.742  1.00  0.00    -0.206 F 
ATOM     60  C   UNL A   1      45.965  26.196  35.431  1.00  0.00     0.006 A 
ENDBRANCH  36  53
ENDBRANCH  10  11
ENDBRANCH   3   5
ENDBRANCH   2   3
ENDBRANCH   1   2
BRANCH   1  61
ATOM     61  C   UNL A   1      32.176  31.061  26.415  1.00  0.00     0.275 C 
BRANCH  61  62
ATOM     62  O   UNL A   1      32.220  29.886  27.252  1.00  0.00    -0.458 OA
BRANCH  62  63
ATOM     63  C   UNL A   1      33.232  29.000  27.049  1.00  0.00     0.338 C 
ATOM     64  O   UNL A   1      34.384  29.089  27.452  1.00  0.00    -0.246 OA
BRANCH  63  65
ATOM     65  C   UNL A   1      32.668  27.800  26.390  1.00  0.00     0.062 A 
ATOM     66  C   UNL A   1      31.394  27.426  26.825  1.00  0.00     0.016 A 
ATOM     67  C   UNL A   1      33.327  27.056  25.384  1.00  0.00     0.041 A 
ATOM     68  C   UNL A   1      30.705  26.424  26.161  1.00  0.00     0.003 A 
ATOM     69  C   UNL A   1      32.654  25.992  24.745  1.00  0.00     0.039 A 
ATOM     70  C   UNL A   1      31.314  25.751  25.108  1.00  0.00     0.026 A 
BRANCH  69  71
ATOM     71  N   UNL A   1      33.226  25.213  23.698  1.00  0.00    -0.355 N 
ATOM     72  H   UNL A   1      33.427  25.666  22.848  1.00  0.00     0.167 HD
BRANCH  71  73
ATOM     73  C   UNL A   1      33.527  23.824  23.796  1.00  0.00     0.050 A 
ATOM     74  C   UNL A   1      32.549  22.960  23.300  1.00  0.00     0.047 A 
ATOM     75  C   UNL A   1      34.640  23.246  24.479  1.00  0.00     0.025 A 
ATOM     76  C   UNL A   1      32.553  21.641  23.667  1.00  0.00     0.114 A 
ATOM     77  C   UNL A   1      34.650  21.826  24.556  1.00  0.00     0.072 A 
ATOM     78  C   UNL A   1      35.713  23.924  25.116  1.00  0.00     0.033 A 
ATOM     79  N   UNL A   1      33.604  21.058  24.250  1.00  0.00    -0.256 NA
ATOM     80  C   UNL A   1      35.770  21.149  25.000  1.00  0.00     0.030 A 
ATOM     81  C   UNL A   1      36.791  23.206  25.659  1.00  0.00     0.041 A 
ATOM     82  C   UNL A   1      36.856  21.823  25.538  1.00  0.00     0.023 A 
ATOM     83  Cl  UNL A   1      38.050  24.020  26.503  1.00  0.00    -0.084 Cl
ENDBRANCH  71  73
ENDBRANCH  69  71
ENDBRANCH  63  65
ENDBRANCH  62  63
ENDBRANCH  61  62
ENDBRANCH   1  61
TORSDOF 13
ENDMDL
