MODEL 1
REMARK VINA RESULT:     -10.7      0.000      0.000
REMARK SMILES C[C@@H](CCC(=O)OCCOC(=O)c1ccc(-c2c3nc(c(-c4c(F)cccc4F)c4ccc([nH]4)c(-c4c(F)cccc4F)c4nc(c(-c5c(F)cccc5F)c5ccc2[nH]5)C=C4)C=C3)cc1)NC(=O)Nc1ccc(Cl)c(Br)c1
REMARK SMILES IDX 8 1 7 2 5 3 6 4 4 5 3 6 2 7 1 8 67 9 68 10 69 12 70 13 71 15
REMARK SMILES IDX 72 16 78 17 73 18 76 19 74 20 77 21 75 22 9 23 10 24 11 25
REMARK SMILES IDX 12 26 13 27 14 28 66 29 15 30 65 31 16 32 17 33 18 34 59 35
REMARK SMILES IDX 19 36 64 37 58 38 60 39 20 40 63 41 57 42 56 43 21 45 47 46
REMARK SMILES IDX 30 47 46 48 31 49 34 50 45 51 61 52 32 53 33 54 44 56 62 57
REMARK SMILES IDX 35 58 22 59 23 60 28 61 24 62 25 63 27 64 29 65 26 66 48 67
REMARK SMILES IDX 49 68 54 69 50 70 51 71 53 72 55 73 52 74 36 75 37 76 42 77
REMARK SMILES IDX 38 78 39 79 41 80 43 81 40 82
REMARK H PARENT 67 11 70 14 60 44 34 55
REMARK Flexibility Score: inf
ROOT
ATOM      1  C   UNL A   1      31.657  32.401  26.882  1.00  0.00     0.274 C 
ENDROOT
BRANCH   1   2
ATOM      2  O   UNL A   1      32.191  31.061  26.804  1.00  0.00    -0.462 OA
BRANCH   2   3
ATOM      3  C   UNL A   1      31.774  30.285  25.773  1.00  0.00     0.305 C 
ATOM      4  O   UNL A   1      30.791  30.515  25.080  1.00  0.00    -0.252 OA
BRANCH   3   5
ATOM      5  C   UNL A   1      32.610  29.032  25.612  1.00  0.00     0.125 C 
BRANCH   5   6
ATOM      6  C   UNL A   1      33.548  28.958  24.403  1.00  0.00     0.036 C 
BRANCH   6   7
ATOM      7  C   UNL A   1      33.002  28.315  23.112  1.00  0.00     0.081 C 
ATOM      8  C   UNL A   1      34.043  28.201  22.001  1.00  0.00     0.031 C 
BRANCH   7   9
ATOM      9  N   UNL A   1      31.818  29.031  22.646  1.00  0.00    -0.335 N 
ATOM     10  C   UNL A   1      30.571  28.685  22.282  1.00  0.00     0.319 C 
ATOM     11  H   UNL A   1      31.970  30.002  22.583  1.00  0.00     0.165 HD
ATOM     12  O   UNL A   1      29.912  29.502  21.634  1.00  0.00    -0.248 OA
ATOM     13  N   UNL A   1      30.066  27.451  22.486  1.00  0.00    -0.308 N 
ATOM     14  H   UNL A   1      29.364  27.189  21.848  1.00  0.00     0.171 HD
BRANCH  13  15
ATOM     15  C   UNL A   1      30.367  26.478  23.442  1.00  0.00     0.044 A 
ATOM     16  C   UNL A   1      29.963  26.723  24.753  1.00  0.00     0.028 A 
ATOM     17  C   UNL A   1      31.031  25.290  23.125  1.00  0.00     0.043 A 
ATOM     18  C   UNL A   1      30.091  25.722  25.717  1.00  0.00     0.024 A 
ATOM     19  C   UNL A   1      31.173  24.290  24.093  1.00  0.00     0.038 A 
ATOM     20  C   UNL A   1      30.675  24.496  25.385  1.00  0.00     0.055 A 
ATOM     21  Br  UNL A   1      32.000  22.666  23.560  1.00  0.00    -0.049 Br
ATOM     22  Cl  UNL A   1      30.721  23.281  26.611  1.00  0.00    -0.083 Cl
ENDBRANCH  13  15
ENDBRANCH   7   9
ENDBRANCH   6   7
ENDBRANCH   5   6
ENDBRANCH   3   5
ENDBRANCH   2   3
ENDBRANCH   1   2
BRANCH   1  23
ATOM     23  C   UNL A   1      32.742  33.428  27.219  1.00  0.00     0.275 C 
BRANCH  23  24
ATOM     24  O   UNL A   1      32.341  34.263  28.320  1.00  0.00    -0.458 OA
BRANCH  24  25
ATOM     25  C   UNL A   1      33.282  35.124  28.771  1.00  0.00     0.338 C 
ATOM     26  O   UNL A   1      33.249  36.342  28.752  1.00  0.00    -0.246 OA
BRANCH  25  27
ATOM     27  C   UNL A   1      34.338  34.363  29.454  1.00  0.00     0.060 A 
ATOM     28  C   UNL A   1      35.661  34.554  29.041  1.00  0.00     0.016 A 
ATOM     29  C   UNL A   1      34.028  33.448  30.460  1.00  0.00     0.016 A 
ATOM     30  C   UNL A   1      36.687  33.829  29.641  1.00  0.00     0.010 A 
ATOM     31  C   UNL A   1      35.056  32.715  31.055  1.00  0.00     0.010 A 
ATOM     32  C   UNL A   1      36.388  32.898  30.642  1.00  0.00    -0.014 A 
BRANCH  32  33
ATOM     33  C   UNL A   1      37.460  32.061  31.224  1.00  0.00     0.031 A 
ATOM     34  C   UNL A   1      37.920  32.328  32.625  1.00  0.00     0.074 A 
ATOM     35  C   UNL A   1      38.022  31.085  30.493  1.00  0.00     0.049 A 
ATOM     36  N   UNL A   1      38.920  31.801  33.283  1.00  0.00    -0.248 NA
ATOM     37  C   UNL A   1      37.154  33.327  33.386  1.00  0.00     0.031 C 
ATOM     38  C   UNL A   1      37.627  30.711  29.135  1.00  0.00     0.029 A 
ATOM     39  N   UNL A   1      39.059  30.237  30.788  1.00  0.00    -0.354 N 
ATOM     40  C   UNL A   1      38.917  32.416  34.526  1.00  0.00     0.074 A 
ATOM     41  C   UNL A   1      37.825  33.367  34.528  1.00  0.00     0.031 C 
ATOM     42  C   UNL A   1      38.422  29.716  28.709  1.00  0.00     0.029 A 
ATOM     43  C   UNL A   1      39.405  29.413  29.747  1.00  0.00     0.049 A 
ATOM     44  H   UNL A   1      39.511  30.222  31.663  1.00  0.00     0.167 HD
ATOM     45  C   UNL A   1      39.752  32.206  35.571  1.00  0.00     0.037 A 
ATOM     46  C   UNL A   1      40.420  28.537  29.635  1.00  0.00     0.037 A 
ATOM     47  C   UNL A   1      40.833  31.257  35.563  1.00  0.00     0.049 A 
ATOM     48  C   UNL A   1      41.366  28.358  30.789  1.00  0.00     0.074 A 
ATOM     49  C   UNL A   1      41.734  30.963  36.571  1.00  0.00     0.029 A 
ATOM     50  N   UNL A   1      41.159  30.445  34.486  1.00  0.00    -0.354 N 
ATOM     51  N   UNL A   1      41.362  28.947  31.961  1.00  0.00    -0.248 NA
ATOM     52  C   UNL A   1      42.463  27.397  30.605  1.00  0.00     0.031 C 
ATOM     53  C   UNL A   1      42.625  29.997  36.093  1.00  0.00     0.029 A 
ATOM     54  C   UNL A   1      42.256  29.661  34.800  1.00  0.00     0.049 A 
ATOM     55  H   UNL A   1      40.680  30.429  33.625  1.00  0.00     0.167 HD
ATOM     56  C   UNL A   1      42.436  28.414  32.661  1.00  0.00     0.074 A 
ATOM     57  C   UNL A   1      43.067  27.448  31.785  1.00  0.00     0.031 C 
ATOM     58  C   UNL A   1      42.863  28.699  33.916  1.00  0.00     0.037 A 
BRANCH  45  59
ATOM     59  C   UNL A   1      39.544  33.047  36.793  1.00  0.00     0.057 A 
ATOM     60  C   UNL A   1      38.623  32.694  37.787  1.00  0.00     0.134 A 
ATOM     61  C   UNL A   1      40.283  34.223  36.983  1.00  0.00     0.134 A 
ATOM     62  F   UNL A   1      37.872  31.590  37.655  1.00  0.00    -0.206 F 
ATOM     63  C   UNL A   1      38.426  33.493  38.915  1.00  0.00     0.040 A 
ATOM     64  C   UNL A   1      40.111  35.017  38.117  1.00  0.00     0.040 A 
ATOM     65  F   UNL A   1      41.183  34.616  36.069  1.00  0.00    -0.206 F 
ATOM     66  C   UNL A   1      39.176  34.656  39.085  1.00  0.00     0.006 A 
ENDBRANCH  45  59
BRANCH  46  67
ATOM     67  C   UNL A   1      40.603  27.776  28.376  1.00  0.00     0.057 A 
ATOM     68  C   UNL A   1      40.012  26.520  28.197  1.00  0.00     0.134 A 
ATOM     69  C   UNL A   1      41.367  28.288  27.320  1.00  0.00     0.134 A 
ATOM     70  F   UNL A   1      39.287  25.971  29.182  1.00  0.00    -0.206 F 
ATOM     71  C   UNL A   1      40.181  25.796  27.016  1.00  0.00     0.040 A 
ATOM     72  C   UNL A   1      41.528  27.584  26.126  1.00  0.00     0.040 A 
ATOM     73  F   UNL A   1      41.959  29.486  27.431  1.00  0.00    -0.206 F 
ATOM     74  C   UNL A   1      40.936  26.331  25.974  1.00  0.00     0.006 A 
ENDBRANCH  46  67
BRANCH  58  75
ATOM     75  C   UNL A   1      44.043  27.931  34.427  1.00  0.00     0.057 A 
ATOM     76  C   UNL A   1      45.347  28.430  34.327  1.00  0.00     0.134 A 
ATOM     77  C   UNL A   1      43.867  26.697  35.065  1.00  0.00     0.134 A 
ATOM     78  F   UNL A   1      45.583  29.601  33.714  1.00  0.00    -0.206 F 
ATOM     79  C   UNL A   1      46.438  27.721  34.832  1.00  0.00     0.040 A 
ATOM     80  C   UNL A   1      44.947  25.988  35.592  1.00  0.00     0.040 A 
ATOM     81  F   UNL A   1      42.640  26.168  35.198  1.00  0.00    -0.206 F 
ATOM     82  C   UNL A   1      46.238  26.499  35.473  1.00  0.00     0.006 A 
ENDBRANCH  58  75
ENDBRANCH  32  33
ENDBRANCH  25  27
ENDBRANCH  24  25
ENDBRANCH  23  24
ENDBRANCH   1  23
TORSDOF 15
ENDMDL
MODEL 2
REMARK VINA RESULT:     -10.7      4.992      8.164
REMARK SMILES C[C@@H](CCC(=O)OCCOC(=O)c1ccc(-c2c3nc(c(-c4c(F)cccc4F)c4ccc([nH]4)c(-c4c(F)cccc4F)c4nc(c(-c5c(F)cccc5F)c5ccc2[nH]5)C=C4)C=C3)cc1)NC(=O)Nc1ccc(Cl)c(Br)c1
REMARK SMILES IDX 8 1 7 2 5 3 6 4 4 5 3 6 2 7 1 8 67 9 68 10 69 12 70 13 71 15
REMARK SMILES IDX 72 16 78 17 73 18 76 19 74 20 77 21 75 22 9 23 10 24 11 25
REMARK SMILES IDX 12 26 13 27 14 28 66 29 15 30 65 31 16 32 17 33 18 34 59 35
REMARK SMILES IDX 19 36 64 37 58 38 60 39 20 40 63 41 57 42 56 43 21 45 47 46
REMARK SMILES IDX 30 47 46 48 31 49 34 50 45 51 61 52 32 53 33 54 44 56 62 57
REMARK SMILES IDX 35 58 22 59 23 60 28 61 24 62 25 63 27 64 29 65 26 66 48 67
REMARK SMILES IDX 49 68 54 69 50 70 51 71 53 72 55 73 52 74 36 75 37 76 42 77
REMARK SMILES IDX 38 78 39 79 41 80 43 81 40 82
REMARK H PARENT 67 11 70 14 60 44 34 55
REMARK Flexibility Score: inf
ROOT
ATOM      1  C   UNL A   1      36.562  22.552  23.596  1.00  0.00     0.274 C 
ENDROOT
BRANCH   1   2
ATOM      2  O   UNL A   1      35.417  23.278  24.096  1.00  0.00    -0.462 OA
BRANCH   2   3
ATOM      3  C   UNL A   1      34.333  23.362  23.287  1.00  0.00     0.305 C 
ATOM      4  O   UNL A   1      34.171  24.218  22.426  1.00  0.00    -0.252 OA
BRANCH   3   5
ATOM      5  C   UNL A   1      33.279  22.326  23.615  1.00  0.00     0.125 C 
BRANCH   5   6
ATOM      6  C   UNL A   1      33.295  21.721  25.023  1.00  0.00     0.036 C 
BRANCH   6   7
ATOM      7  C   UNL A   1      32.851  22.621  26.194  1.00  0.00     0.081 C 
ATOM      8  C   UNL A   1      33.729  22.484  27.435  1.00  0.00     0.031 C 
BRANCH   7   9
ATOM      9  N   UNL A   1      31.448  22.381  26.519  1.00  0.00    -0.335 N 
ATOM     10  C   UNL A   1      30.402  23.149  26.873  1.00  0.00     0.319 C 
ATOM     11  H   UNL A   1      31.210  21.427  26.466  1.00  0.00     0.165 HD
ATOM     12  O   UNL A   1      29.428  22.594  27.387  1.00  0.00    -0.248 OA
ATOM     13  N   UNL A   1      30.428  24.495  26.805  1.00  0.00    -0.308 N 
ATOM     14  H   UNL A   1      29.827  24.946  27.441  1.00  0.00     0.171 HD
BRANCH  13  15
ATOM     15  C   UNL A   1      31.159  25.364  25.991  1.00  0.00     0.044 A 
ATOM     16  C   UNL A   1      32.183  26.095  26.591  1.00  0.00     0.028 A 
ATOM     17  C   UNL A   1      30.909  25.504  24.623  1.00  0.00     0.043 A 
ATOM     18  C   UNL A   1      33.048  26.853  25.803  1.00  0.00     0.024 A 
ATOM     19  C   UNL A   1      31.767  26.275  23.832  1.00  0.00     0.038 A 
ATOM     20  C   UNL A   1      32.857  26.928  24.419  1.00  0.00     0.055 A 
ATOM     21  Br  UNL A   1      31.417  26.339  21.966  1.00  0.00    -0.049 Br
ATOM     22  Cl  UNL A   1      34.019  27.819  23.505  1.00  0.00    -0.083 Cl
ENDBRANCH  13  15
ENDBRANCH   7   9
ENDBRANCH   6   7
ENDBRANCH   5   6
ENDBRANCH   3   5
ENDBRANCH   2   3
ENDBRANCH   1   2
BRANCH   1  23
ATOM     23  C   UNL A   1      36.826  21.277  24.403  1.00  0.00     0.275 C 
BRANCH  23  24
ATOM     24  O   UNL A   1      37.289  21.590  25.729  1.00  0.00    -0.458 OA
BRANCH  24  25
ATOM     25  C   UNL A   1      38.580  21.275  25.985  1.00  0.00     0.338 C 
ATOM     26  O   UNL A   1      39.153  20.226  25.745  1.00  0.00    -0.246 OA
BRANCH  25  27
ATOM     27  C   UNL A   1      39.275  22.471  26.481  1.00  0.00     0.060 A 
ATOM     28  C   UNL A   1      38.794  23.725  26.086  1.00  0.00     0.016 A 
ATOM     29  C   UNL A   1      40.406  22.362  27.290  1.00  0.00     0.016 A 
ATOM     30  C   UNL A   1      39.442  24.881  26.508  1.00  0.00     0.010 A 
ATOM     31  C   UNL A   1      41.060  23.522  27.706  1.00  0.00     0.010 A 
ATOM     32  C   UNL A   1      40.585  24.785  27.311  1.00  0.00    -0.014 A 
BRANCH  32  33
ATOM     33  C   UNL A   1      41.332  26.004  27.692  1.00  0.00     0.031 A 
ATOM     34  C   UNL A   1      40.640  27.068  28.488  1.00  0.00     0.074 A 
ATOM     35  C   UNL A   1      42.611  26.156  27.310  1.00  0.00     0.049 A 
ATOM     36  N   UNL A   1      41.064  28.259  28.822  1.00  0.00    -0.248 NA
ATOM     37  C   UNL A   1      39.287  26.750  28.969  1.00  0.00     0.031 C 
ATOM     38  C   UNL A   1      43.395  25.169  26.568  1.00  0.00     0.029 A 
ATOM     39  N   UNL A   1      43.471  27.210  27.484  1.00  0.00    -0.354 N 
ATOM     40  C   UNL A   1      40.025  28.842  29.534  1.00  0.00     0.074 A 
ATOM     41  C   UNL A   1      38.944  27.879  29.573  1.00  0.00     0.031 C 
ATOM     42  C   UNL A   1      44.619  25.670  26.338  1.00  0.00     0.029 A 
ATOM     43  C   UNL A   1      44.690  27.025  26.881  1.00  0.00     0.049 A 
ATOM     44  H   UNL A   1      43.237  28.020  27.992  1.00  0.00     0.167 HD
ATOM     45  C   UNL A   1      39.979  30.070  30.102  1.00  0.00     0.037 A 
ATOM     46  C   UNL A   1      45.731  27.869  26.754  1.00  0.00     0.037 A 
ATOM     47  C   UNL A   1      41.059  31.019  30.062  1.00  0.00     0.049 A 
ATOM     48  C   UNL A   1      45.637  29.246  27.348  1.00  0.00     0.074 A 
ATOM     49  C   UNL A   1      41.116  32.288  30.612  1.00  0.00     0.029 A 
ATOM     50  N   UNL A   1      42.276  30.800  29.434  1.00  0.00    -0.354 N 
ATOM     51  N   UNL A   1      44.649  29.793  28.016  1.00  0.00    -0.248 NA
ATOM     52  C   UNL A   1      46.800  30.126  27.168  1.00  0.00     0.031 C 
ATOM     53  C   UNL A   1      42.355  32.849  30.288  1.00  0.00     0.029 A 
ATOM     54  C   UNL A   1      43.085  31.916  29.569  1.00  0.00     0.049 A 
ATOM     55  H   UNL A   1      42.528  29.974  28.961  1.00  0.00     0.167 HD
ATOM     56  C   UNL A   1      45.078  31.069  28.354  1.00  0.00     0.074 A 
ATOM     57  C   UNL A   1      46.418  31.214  27.825  1.00  0.00     0.031 C 
ATOM     58  C   UNL A   1      44.420  32.036  29.041  1.00  0.00     0.037 A 
BRANCH  45  59
ATOM     59  C   UNL A   1      38.703  30.461  30.783  1.00  0.00     0.057 A 
ATOM     60  C   UNL A   1      37.680  31.139  30.108  1.00  0.00     0.134 A 
ATOM     61  C   UNL A   1      38.491  30.145  32.132  1.00  0.00     0.134 A 
ATOM     62  F   UNL A   1      37.830  31.485  28.821  1.00  0.00    -0.206 F 
ATOM     63  C   UNL A   1      36.502  31.512  30.756  1.00  0.00     0.040 A 
ATOM     64  C   UNL A   1      37.307  30.493  32.784  1.00  0.00     0.040 A 
ATOM     65  F   UNL A   1      39.430  29.495  32.835  1.00  0.00    -0.206 F 
ATOM     66  C   UNL A   1      36.310  31.184  32.098  1.00  0.00     0.006 A 
ENDBRANCH  45  59
BRANCH  46  67
ATOM     67  C   UNL A   1      46.944  27.437  26.018  1.00  0.00     0.057 A 
ATOM     68  C   UNL A   1      48.030  26.862  26.688  1.00  0.00     0.134 A 
ATOM     69  C   UNL A   1      47.045  27.586  24.630  1.00  0.00     0.134 A 
ATOM     70  F   UNL A   1      47.999  26.715  28.020  1.00  0.00    -0.206 F 
ATOM     71  C   UNL A   1      49.176  26.456  26.004  1.00  0.00     0.040 A 
ATOM     72  C   UNL A   1      48.177  27.166  23.930  1.00  0.00     0.040 A 
ATOM     73  F   UNL A   1      46.038  28.131  23.932  1.00  0.00    -0.206 F 
ATOM     74  C   UNL A   1      49.250  26.602  24.620  1.00  0.00     0.006 A 
ENDBRANCH  46  67
BRANCH  58  75
ATOM     75  C   UNL A   1      45.155  33.317  29.290  1.00  0.00     0.057 A 
ATOM     76  C   UNL A   1      45.979  33.488  30.409  1.00  0.00     0.134 A 
ATOM     77  C   UNL A   1      45.071  34.375  28.377  1.00  0.00     0.134 A 
ATOM     78  F   UNL A   1      46.091  32.516  31.327  1.00  0.00    -0.206 F 
ATOM     79  C   UNL A   1      46.683  34.675  30.619  1.00  0.00     0.040 A 
ATOM     80  C   UNL A   1      45.786  35.559  28.565  1.00  0.00     0.040 A 
ATOM     81  F   UNL A   1      44.303  34.270  27.282  1.00  0.00    -0.206 F 
ATOM     82  C   UNL A   1      46.593  35.712  29.691  1.00  0.00     0.006 A 
ENDBRANCH  58  75
ENDBRANCH  32  33
ENDBRANCH  25  27
ENDBRANCH  24  25
ENDBRANCH  23  24
ENDBRANCH   1  23
TORSDOF 15
ENDMDL
MODEL 3
REMARK VINA RESULT:     -10.7      2.333      6.951
REMARK SMILES C[C@@H](CCC(=O)OCCOC(=O)c1ccc(-c2c3nc(c(-c4c(F)cccc4F)c4ccc([nH]4)c(-c4c(F)cccc4F)c4nc(c(-c5c(F)cccc5F)c5ccc2[nH]5)C=C4)C=C3)cc1)NC(=O)Nc1ccc(Cl)c(Br)c1
REMARK SMILES IDX 8 1 7 2 5 3 6 4 4 5 3 6 2 7 1 8 67 9 68 10 69 12 70 13 71 15
REMARK SMILES IDX 72 16 78 17 73 18 76 19 74 20 77 21 75 22 9 23 10 24 11 25
REMARK SMILES IDX 12 26 13 27 14 28 66 29 15 30 65 31 16 32 17 33 18 34 59 35
REMARK SMILES IDX 19 36 64 37 58 38 60 39 20 40 63 41 57 42 56 43 21 45 47 46
REMARK SMILES IDX 30 47 46 48 31 49 34 50 45 51 61 52 32 53 33 54 44 56 62 57
REMARK SMILES IDX 35 58 22 59 23 60 28 61 24 62 25 63 27 64 29 65 26 66 48 67
REMARK SMILES IDX 49 68 54 69 50 70 51 71 53 72 55 73 52 74 36 75 37 76 42 77
REMARK SMILES IDX 38 78 39 79 41 80 43 81 40 82
REMARK H PARENT 67 11 70 14 60 44 34 55
REMARK Flexibility Score: inf
ROOT
ATOM      1  C   UNL A   1      33.193  29.311  24.879  1.00  0.00     0.274 C 
ENDROOT
BRANCH   1   2
ATOM      2  O   UNL A   1      32.699  28.223  24.067  1.00  0.00    -0.462 OA
BRANCH   2   3
ATOM      3  C   UNL A   1      33.139  26.976  24.365  1.00  0.00     0.305 C 
ATOM      4  O   UNL A   1      33.507  26.151  23.539  1.00  0.00    -0.252 OA
BRANCH   3   5
ATOM      5  C   UNL A   1      33.047  26.664  25.844  1.00  0.00     0.125 C 
BRANCH   5   6
ATOM      6  C   UNL A   1      31.653  26.417  26.430  1.00  0.00     0.036 C 
BRANCH   6   7
ATOM      7  C   UNL A   1      30.771  25.350  25.752  1.00  0.00     0.081 C 
ATOM      8  C   UNL A   1      29.691  25.938  24.847  1.00  0.00     0.031 C 
BRANCH   7   9
ATOM      9  N   UNL A   1      30.187  24.459  26.750  1.00  0.00    -0.335 N 
ATOM     10  C   UNL A   1      30.054  23.128  26.885  1.00  0.00     0.319 C 
ATOM     11  H   UNL A   1      29.795  24.952  27.507  1.00  0.00     0.165 HD
ATOM     12  O   UNL A   1      29.225  22.711  27.698  1.00  0.00    -0.248 OA
ATOM     13  N   UNL A   1      30.692  22.245  26.089  1.00  0.00    -0.308 N 
ATOM     14  H   UNL A   1      30.233  21.380  25.992  1.00  0.00     0.171 HD
BRANCH  13  15
ATOM     15  C   UNL A   1      31.890  22.344  25.378  1.00  0.00     0.044 A 
ATOM     16  C   UNL A   1      31.827  22.191  23.993  1.00  0.00     0.028 A 
ATOM     17  C   UNL A   1      33.116  22.602  25.997  1.00  0.00     0.043 A 
ATOM     18  C   UNL A   1      32.958  22.437  23.216  1.00  0.00     0.024 A 
ATOM     19  C   UNL A   1      34.255  22.836  25.220  1.00  0.00     0.038 A 
ATOM     20  C   UNL A   1      34.169  22.782  23.824  1.00  0.00     0.055 A 
ATOM     21  Br  UNL A   1      35.862  23.274  26.132  1.00  0.00    -0.049 Br
ATOM     22  Cl  UNL A   1      35.500  23.153  22.788  1.00  0.00    -0.083 Cl
ENDBRANCH  13  15
ENDBRANCH   7   9
ENDBRANCH   6   7
ENDBRANCH   5   6
ENDBRANCH   3   5
ENDBRANCH   2   3
ENDBRANCH   1   2
BRANCH   1  23
ATOM     23  C   UNL A   1      32.052  30.101  25.528  1.00  0.00     0.275 C 
BRANCH  23  24
ATOM     24  O   UNL A   1      32.349  30.402  26.904  1.00  0.00    -0.458 OA
BRANCH  24  25
ATOM     25  C   UNL A   1      32.989  31.575  27.118  1.00  0.00     0.338 C 
ATOM     26  O   UNL A   1      32.562  32.702  26.937  1.00  0.00    -0.246 OA
BRANCH  25  27
ATOM     27  C   UNL A   1      34.279  31.304  27.767  1.00  0.00     0.060 A 
ATOM     28  C   UNL A   1      34.545  29.994  28.185  1.00  0.00     0.016 A 
ATOM     29  C   UNL A   1      35.198  32.327  27.998  1.00  0.00     0.016 A 
ATOM     30  C   UNL A   1      35.742  29.702  28.832  1.00  0.00     0.010 A 
ATOM     31  C   UNL A   1      36.395  32.034  28.654  1.00  0.00     0.010 A 
ATOM     32  C   UNL A   1      36.667  30.723  29.080  1.00  0.00    -0.014 A 
BRANCH  32  33
ATOM     33  C   UNL A   1      37.901  30.439  29.844  1.00  0.00     0.031 A 
ATOM     34  C   UNL A   1      38.954  29.561  29.237  1.00  0.00     0.074 A 
ATOM     35  C   UNL A   1      38.063  30.951  31.075  1.00  0.00     0.049 A 
ATOM     36  N   UNL A   1      40.048  29.088  29.774  1.00  0.00    -0.248 NA
ATOM     37  C   UNL A   1      38.744  29.159  27.838  1.00  0.00     0.031 C 
ATOM     38  C   UNL A   1      37.124  31.848  31.747  1.00  0.00     0.029 A 
ATOM     39  N   UNL A   1      39.075  30.776  31.985  1.00  0.00    -0.354 N 
ATOM     40  C   UNL A   1      40.647  28.316  28.789  1.00  0.00     0.074 A 
ATOM     41  C   UNL A   1      39.789  28.373  27.624  1.00  0.00     0.031 C 
ATOM     42  C   UNL A   1      37.597  32.135  32.971  1.00  0.00     0.029 A 
ATOM     43  C   UNL A   1      38.849  31.411  33.180  1.00  0.00     0.049 A 
ATOM     44  H   UNL A   1      39.883  30.247  31.799  1.00  0.00     0.167 HD
ATOM     45  C   UNL A   1      41.807  27.622  28.852  1.00  0.00     0.037 A 
ATOM     46  C   UNL A   1      39.558  31.383  34.324  1.00  0.00     0.037 A 
ATOM     47  C   UNL A   1      42.657  27.574  30.012  1.00  0.00     0.049 A 
ATOM     48  C   UNL A   1      40.817  30.564  34.388  1.00  0.00     0.074 A 
ATOM     49  C   UNL A   1      43.858  26.905  30.178  1.00  0.00     0.029 A 
ATOM     50  N   UNL A   1      42.391  28.223  31.209  1.00  0.00    -0.354 N 
ATOM     51  N   UNL A   1      41.376  29.832  33.453  1.00  0.00    -0.248 NA
ATOM     52  C   UNL A   1      41.543  30.563  35.666  1.00  0.00     0.031 C 
ATOM     53  C   UNL A   1      44.302  27.123  31.486  1.00  0.00     0.029 A 
ATOM     54  C   UNL A   1      43.398  27.959  32.123  1.00  0.00     0.049 A 
ATOM     55  H   UNL A   1      41.604  28.788  31.383  1.00  0.00     0.167 HD
ATOM     56  C   UNL A   1      42.526  29.301  34.021  1.00  0.00     0.074 A 
ATOM     57  C   UNL A   1      42.591  29.802  35.379  1.00  0.00     0.031 C 
ATOM     58  C   UNL A   1      43.446  28.474  33.468  1.00  0.00     0.037 A 
BRANCH  45  59
ATOM     59  C   UNL A   1      42.201  26.835  27.640  1.00  0.00     0.057 A 
ATOM     60  C   UNL A   1      41.813  25.501  27.465  1.00  0.00     0.134 A 
ATOM     61  C   UNL A   1      42.973  27.423  26.629  1.00  0.00     0.134 A 
ATOM     62  F   UNL A   1      41.089  24.876  28.405  1.00  0.00    -0.206 F 
ATOM     63  C   UNL A   1      42.198  24.771  26.338  1.00  0.00     0.040 A 
ATOM     64  C   UNL A   1      43.344  26.711  25.488  1.00  0.00     0.040 A 
ATOM     65  F   UNL A   1      43.377  28.698  26.735  1.00  0.00    -0.206 F 
ATOM     66  C   UNL A   1      42.962  25.379  25.343  1.00  0.00     0.006 A 
ENDBRANCH  45  59
BRANCH  46  67
ATOM     67  C   UNL A   1      39.082  32.142  35.506  1.00  0.00     0.057 A 
ATOM     68  C   UNL A   1      38.230  31.555  36.447  1.00  0.00     0.134 A 
ATOM     69  C   UNL A   1      39.472  33.469  35.723  1.00  0.00     0.134 A 
ATOM     70  F   UNL A   1      37.806  30.294  36.280  1.00  0.00    -0.206 F 
ATOM     71  C   UNL A   1      37.775  32.264  37.560  1.00  0.00     0.040 A 
ATOM     72  C   UNL A   1      39.041  34.183  36.842  1.00  0.00     0.040 A 
ATOM     73  F   UNL A   1      40.287  34.087  34.856  1.00  0.00    -0.206 F 
ATOM     74  C   UNL A   1      38.186  33.580  37.763  1.00  0.00     0.006 A 
ENDBRANCH  46  67
BRANCH  58  75
ATOM     75  C   UNL A   1      44.619  28.090  34.319  1.00  0.00     0.057 A 
ATOM     76  C   UNL A   1      45.777  28.874  34.375  1.00  0.00     0.134 A 
ATOM     77  C   UNL A   1      44.570  26.945  35.123  1.00  0.00     0.134 A 
ATOM     78  F   UNL A   1      45.889  29.977  33.617  1.00  0.00    -0.206 F 
ATOM     79  C   UNL A   1      46.853  28.525  35.192  1.00  0.00     0.040 A 
ATOM     80  C   UNL A   1      45.631  26.596  35.959  1.00  0.00     0.040 A 
ATOM     81  F   UNL A   1      43.485  26.155  35.118  1.00  0.00    -0.206 F 
ATOM     82  C   UNL A   1      46.778  27.386  35.993  1.00  0.00     0.006 A 
ENDBRANCH  58  75
ENDBRANCH  32  33
ENDBRANCH  25  27
ENDBRANCH  24  25
ENDBRANCH  23  24
ENDBRANCH   1  23
TORSDOF 15
ENDMDL
