MODEL 1
REMARK VINA RESULT:     -13.4      0.000      0.000
REMARK SMILES CS(=O)(=O)c1ccc(C2=NN(c3ccc(C(=O)OCCOC(=O)c4ccc(-c5c6nc(c(-c7c(F)cccc7F)c7ccc([nH]7)c(-c7c(F)cccc7F)c7nc(c(-c8c(F)cccc8F)c8ccc5[nH]8)C=C7)C=C6)cc4)cc3)[C@H](c3ccccc3)C2)cc1
REMARK SMILES IDX 19 1 18 2 16 3 17 4 15 5 12 6 13 7 79 8 14 9 78 10 11 11
REMARK SMILES IDX 9 12 10 13 87 14 80 15 8 16 5 17 6 18 89 19 7 20 88 21 2 22
REMARK SMILES IDX 1 23 3 24 4 25 81 26 82 27 86 28 83 29 85 30 84 31 20 32
REMARK SMILES IDX 21 33 22 34 23 35 24 36 25 37 77 38 26 39 76 40 27 41 28 42
REMARK SMILES IDX 29 43 70 44 30 45 75 46 69 47 71 48 31 49 74 50 68 51 67 52
REMARK SMILES IDX 32 54 58 55 41 56 57 57 42 58 45 59 56 60 72 61 43 62 44 63
REMARK SMILES IDX 55 65 73 66 46 67 33 68 34 69 39 70 35 71 36 72 38 73 40 74
REMARK SMILES IDX 37 75 59 76 60 77 65 78 61 79 62 80 64 81 66 82 63 83 47 84
REMARK SMILES IDX 48 85 53 86 49 87 50 88 52 89 54 90 51 91
REMARK H PARENT 71 53 45 64
REMARK Flexibility Score: inf
ROOT
ATOM      1  C   UNL A   1      41.701  20.747  26.011  1.00  0.00     0.275 C 
ENDROOT
BRANCH   1   2
ATOM      2  O   UNL A   1      40.512  21.400  25.525  1.00  0.00    -0.458 OA
BRANCH   2   3
ATOM      3  C   UNL A   1      39.632  21.800  26.474  1.00  0.00     0.338 C 
ATOM      4  O   UNL A   1      39.875  21.985  27.657  1.00  0.00    -0.246 OA
BRANCH   3   5
ATOM      5  C   UNL A   1      38.299  22.079  25.882  1.00  0.00     0.060 A 
ATOM      6  C   UNL A   1      35.746  22.696  24.883  1.00  0.00     0.060 A 
ATOM      7  C   UNL A   1      36.464  23.645  25.615  1.00  0.00     0.029 A 
ATOM      8  C   UNL A   1      36.338  21.453  24.617  1.00  0.00     0.029 A 
ATOM      9  C   UNL A   1      37.716  23.328  26.139  1.00  0.00     0.018 A 
ATOM     10  C   UNL A   1      37.612  21.144  25.105  1.00  0.00     0.018 A 
BRANCH   6  11
ATOM     11  N   UNL A   1      34.410  22.921  24.530  1.00  0.00    -0.257 N 
ATOM     12  C   UNL A   1      32.836  24.364  24.447  1.00  0.00     0.071 C 
ATOM     13  N   UNL A   1      34.063  24.158  24.083  1.00  0.00    -0.176 NA
ATOM     14  C   UNL A   1      32.205  23.281  25.276  1.00  0.00     0.091 C 
ATOM     15  C   UNL A   1      33.377  22.298  25.376  1.00  0.00     0.144 C 
BRANCH  12  16
ATOM     16  C   UNL A   1      32.086  25.569  24.047  1.00  0.00    -0.002 A 
ATOM     17  C   UNL A   1      30.681  27.886  23.395  1.00  0.00     0.067 A 
ATOM     18  C   UNL A   1      30.929  27.587  24.736  1.00  0.00     0.021 A 
ATOM     19  C   UNL A   1      31.123  27.024  22.379  1.00  0.00     0.021 A 
ATOM     20  C   UNL A   1      31.624  26.420  25.058  1.00  0.00     0.011 A 
ATOM     21  C   UNL A   1      31.834  25.866  22.705  1.00  0.00     0.011 A 
BRANCH  17  22
ATOM     22  S   UNL A   1      29.810  29.354  22.898  1.00  0.00     0.175 S 
ATOM     23  C   UNL A   1      28.088  28.951  22.819  1.00  0.00     0.163 C 
ATOM     24  O   UNL A   1      30.249  29.654  21.549  1.00  0.00    -0.224 OA
ATOM     25  O   UNL A   1      29.985  30.309  23.976  1.00  0.00    -0.224 OA
ENDBRANCH  17  22
ENDBRANCH  12  16
BRANCH  15  26
ATOM     26  C   UNL A   1      33.162  20.857  24.945  1.00  0.00    -0.023 A 
ATOM     27  C   UNL A   1      33.235  19.767  25.823  1.00  0.00     0.006 A 
ATOM     28  C   UNL A   1      32.756  20.609  23.617  1.00  0.00     0.006 A 
ATOM     29  C   UNL A   1      32.923  18.476  25.385  1.00  0.00     0.000 A 
ATOM     30  C   UNL A   1      32.418  19.326  23.189  1.00  0.00     0.000 A 
ATOM     31  C   UNL A   1      32.505  18.257  24.074  1.00  0.00     0.000 A 
ENDBRANCH  15  26
ENDBRANCH   6  11
ENDBRANCH   3   5
ENDBRANCH   2   3
ENDBRANCH   1   2
BRANCH   1  32
ATOM     32  C   UNL A   1      42.938  21.591  25.712  1.00  0.00     0.275 C 
BRANCH  32  33
ATOM     33  O   UNL A   1      42.558  22.784  25.000  1.00  0.00    -0.458 OA
BRANCH  33  34
ATOM     34  C   UNL A   1      43.395  23.838  25.127  1.00  0.00     0.338 C 
ATOM     35  O   UNL A   1      44.461  24.020  24.567  1.00  0.00    -0.246 OA
BRANCH  34  36
ATOM     36  C   UNL A   1      42.817  24.804  26.073  1.00  0.00     0.060 A 
ATOM     37  C   UNL A   1      43.293  26.113  26.078  1.00  0.00     0.016 A 
ATOM     38  C   UNL A   1      41.901  24.386  27.035  1.00  0.00     0.016 A 
ATOM     39  C   UNL A   1      42.905  26.999  27.080  1.00  0.00     0.010 A 
ATOM     40  C   UNL A   1      41.456  25.298  28.001  1.00  0.00     0.010 A 
ATOM     41  C   UNL A   1      41.976  26.605  28.053  1.00  0.00    -0.014 A 
BRANCH  41  42
ATOM     42  C   UNL A   1      41.600  27.533  29.156  1.00  0.00     0.031 A 
ATOM     43  C   UNL A   1      42.409  27.560  30.425  1.00  0.00     0.074 A 
ATOM     44  C   UNL A   1      40.551  28.368  29.024  1.00  0.00     0.049 A 
ATOM     45  N   UNL A   1      42.157  28.166  31.559  1.00  0.00    -0.248 NA
ATOM     46  C   UNL A   1      43.664  26.793  30.423  1.00  0.00     0.031 C 
ATOM     47  C   UNL A   1      39.711  28.495  27.833  1.00  0.00     0.029 A 
ATOM     48  N   UNL A   1      40.018  29.278  29.904  1.00  0.00    -0.354 N 
ATOM     49  C   UNL A   1      43.188  27.807  32.419  1.00  0.00     0.074 A 
ATOM     50  C   UNL A   1      44.070  26.930  31.677  1.00  0.00     0.031 C 
ATOM     51  C   UNL A   1      38.795  29.454  28.040  1.00  0.00     0.029 A 
ATOM     52  C   UNL A   1      38.929  29.952  29.405  1.00  0.00     0.049 A 
ATOM     53  H   UNL A   1      40.380  29.432  30.806  1.00  0.00     0.167 HD
ATOM     54  C   UNL A   1      43.381  28.175  33.709  1.00  0.00     0.037 A 
ATOM     55  C   UNL A   1      38.108  30.844  29.991  1.00  0.00     0.037 A 
ATOM     56  C   UNL A   1      42.540  29.095  34.428  1.00  0.00     0.049 A 
ATOM     57  C   UNL A   1      38.318  31.208  31.433  1.00  0.00     0.074 A 
ATOM     58  C   UNL A   1      42.667  29.546  35.731  1.00  0.00     0.029 A 
ATOM     59  N   UNL A   1      41.421  29.720  33.898  1.00  0.00    -0.354 N 
ATOM     60  N   UNL A   1      39.262  30.815  32.255  1.00  0.00    -0.248 NA
ATOM     61  C   UNL A   1      37.335  32.117  32.037  1.00  0.00     0.031 C 
ATOM     62  C   UNL A   1      41.608  30.420  35.999  1.00  0.00     0.029 A 
ATOM     63  C   UNL A   1      40.841  30.541  34.852  1.00  0.00     0.049 A 
ATOM     64  H   UNL A   1      41.088  29.598  32.980  1.00  0.00     0.167 HD
ATOM     65  C   UNL A   1      38.993  31.437  33.466  1.00  0.00     0.074 A 
ATOM     66  C   UNL A   1      37.807  32.247  33.268  1.00  0.00     0.031 C 
ATOM     67  C   UNL A   1      39.664  31.343  34.639  1.00  0.00     0.037 A 
BRANCH  54  68
ATOM     68  C   UNL A   1      44.532  27.547  34.439  1.00  0.00     0.057 A 
ATOM     69  C   UNL A   1      44.401  26.350  35.154  1.00  0.00     0.134 A 
ATOM     70  C   UNL A   1      45.800  28.144  34.406  1.00  0.00     0.134 A 
ATOM     71  F   UNL A   1      43.212  25.735  35.238  1.00  0.00    -0.206 F 
ATOM     72  C   UNL A   1      45.483  25.783  35.831  1.00  0.00     0.040 A 
ATOM     73  C   UNL A   1      46.894  27.575  35.058  1.00  0.00     0.040 A 
ATOM     74  F   UNL A   1      45.996  29.289  33.733  1.00  0.00    -0.206 F 
ATOM     75  C   UNL A   1      46.736  26.393  35.780  1.00  0.00     0.006 A 
ENDBRANCH  54  68
BRANCH  55  76
ATOM     76  C   UNL A   1      36.986  31.436  29.219  1.00  0.00     0.057 A 
ATOM     77  C   UNL A   1      35.825  30.700  28.958  1.00  0.00     0.134 A 
ATOM     78  C   UNL A   1      37.046  32.745  28.727  1.00  0.00     0.134 A 
ATOM     79  F   UNL A   1      35.720  29.432  29.380  1.00  0.00    -0.206 F 
ATOM     80  C   UNL A   1      34.764  31.244  28.231  1.00  0.00     0.040 A 
ATOM     81  C   UNL A   1      35.982  33.311  28.022  1.00  0.00     0.040 A 
ATOM     82  F   UNL A   1      38.133  33.501  28.942  1.00  0.00    -0.206 F 
ATOM     83  C   UNL A   1      34.838  32.556  27.769  1.00  0.00     0.006 A 
ENDBRANCH  55  76
BRANCH  67  84
ATOM     84  C   UNL A   1      39.147  32.155  35.788  1.00  0.00     0.057 A 
ATOM     85  C   UNL A   1      38.262  31.617  36.730  1.00  0.00     0.134 A 
ATOM     86  C   UNL A   1      39.557  33.481  35.965  1.00  0.00     0.134 A 
ATOM     87  F   UNL A   1      37.820  30.357  36.606  1.00  0.00    -0.206 F 
ATOM     88  C   UNL A   1      37.786  32.378  37.799  1.00  0.00     0.040 A 
ATOM     89  C   UNL A   1      39.105  34.247  37.041  1.00  0.00     0.040 A 
ATOM     90  F   UNL A   1      40.407  34.053  35.100  1.00  0.00    -0.206 F 
ATOM     91  C   UNL A   1      38.212  33.696  37.959  1.00  0.00     0.006 A 
ENDBRANCH  67  84
ENDBRANCH  41  42
ENDBRANCH  34  36
ENDBRANCH  33  34
ENDBRANCH  32  33
ENDBRANCH   1  32
TORSDOF 15
ENDMDL
MODEL 2
REMARK VINA RESULT:     -13.3      4.459      9.910
REMARK SMILES CS(=O)(=O)c1ccc(C2=NN(c3ccc(C(=O)OCCOC(=O)c4ccc(-c5c6nc(c(-c7c(F)cccc7F)c7ccc([nH]7)c(-c7c(F)cccc7F)c7nc(c(-c8c(F)cccc8F)c8ccc5[nH]8)C=C7)C=C6)cc4)cc3)[C@H](c3ccccc3)C2)cc1
REMARK SMILES IDX 19 1 18 2 16 3 17 4 15 5 12 6 13 7 79 8 14 9 78 10 11 11
REMARK SMILES IDX 9 12 10 13 87 14 80 15 8 16 5 17 6 18 89 19 7 20 88 21 2 22
REMARK SMILES IDX 1 23 3 24 4 25 81 26 82 27 86 28 83 29 85 30 84 31 20 32
REMARK SMILES IDX 21 33 22 34 23 35 24 36 25 37 77 38 26 39 76 40 27 41 28 42
REMARK SMILES IDX 29 43 70 44 30 45 75 46 69 47 71 48 31 49 74 50 68 51 67 52
REMARK SMILES IDX 32 54 58 55 41 56 57 57 42 58 45 59 56 60 72 61 43 62 44 63
REMARK SMILES IDX 55 65 73 66 46 67 33 68 34 69 39 70 35 71 36 72 38 73 40 74
REMARK SMILES IDX 37 75 59 76 60 77 65 78 61 79 62 80 64 81 66 82 63 83 47 84
REMARK SMILES IDX 48 85 53 86 49 87 50 88 52 89 54 90 51 91
REMARK H PARENT 71 53 45 64
REMARK Flexibility Score: inf
ROOT
ATOM      1  C   UNL A   1      34.050  33.506  29.246  1.00  0.00     0.275 C 
ENDROOT
BRANCH   1   2
ATOM      2  O   UNL A   1      33.708  32.176  28.810  1.00  0.00    -0.458 OA
BRANCH   2   3
ATOM      3  C   UNL A   1      34.383  31.722  27.727  1.00  0.00     0.338 C 
ATOM      4  O   UNL A   1      35.435  32.161  27.290  1.00  0.00    -0.246 OA
BRANCH   3   5
ATOM      5  C   UNL A   1      33.718  30.527  27.147  1.00  0.00     0.060 A 
ATOM      6  C   UNL A   1      32.592  28.231  25.981  1.00  0.00     0.060 A 
ATOM      7  C   UNL A   1      33.933  28.237  26.373  1.00  0.00     0.029 A 
ATOM      8  C   UNL A   1      31.810  29.369  26.222  1.00  0.00     0.029 A 
ATOM      9  C   UNL A   1      34.500  29.386  26.920  1.00  0.00     0.018 A 
ATOM     10  C   UNL A   1      32.362  30.511  26.809  1.00  0.00     0.018 A 
BRANCH   6  11
ATOM     11  N   UNL A   1      32.064  27.165  25.243  1.00  0.00    -0.257 N 
ATOM     12  C   UNL A   1      32.394  25.166  24.564  1.00  0.00     0.071 C 
ATOM     13  N   UNL A   1      32.371  25.898  25.634  1.00  0.00    -0.176 NA
ATOM     14  C   UNL A   1      32.169  25.889  23.266  1.00  0.00     0.091 C 
ATOM     15  C   UNL A   1      32.005  27.324  23.780  1.00  0.00     0.144 C 
BRANCH  12  16
ATOM     16  C   UNL A   1      32.596  23.706  24.612  1.00  0.00    -0.002 A 
ATOM     17  C   UNL A   1      32.934  20.940  24.600  1.00  0.00     0.067 A 
ATOM     18  C   UNL A   1      32.149  21.540  23.615  1.00  0.00     0.021 A 
ATOM     19  C   UNL A   1      33.541  21.716  25.599  1.00  0.00     0.021 A 
ATOM     20  C   UNL A   1      31.973  22.925  23.631  1.00  0.00     0.011 A 
ATOM     21  C   UNL A   1      33.378  23.104  25.601  1.00  0.00     0.011 A 
BRANCH  17  22
ATOM     22  S   UNL A   1      33.215  19.184  24.648  1.00  0.00     0.175 S 
ATOM     23  C   UNL A   1      32.532  18.496  23.166  1.00  0.00     0.163 C 
ATOM     24  O   UNL A   1      32.438  18.676  25.762  1.00  0.00    -0.224 OA
ATOM     25  O   UNL A   1      34.653  19.005  24.591  1.00  0.00    -0.224 OA
ENDBRANCH  17  22
ENDBRANCH  12  16
BRANCH  15  26
ATOM     26  C   UNL A   1      30.756  28.100  23.398  1.00  0.00    -0.023 A 
ATOM     27  C   UNL A   1      30.784  29.348  22.763  1.00  0.00     0.006 A 
ATOM     28  C   UNL A   1      29.501  27.484  23.589  1.00  0.00     0.006 A 
ATOM     29  C   UNL A   1      29.600  29.962  22.343  1.00  0.00     0.000 A 
ATOM     30  C   UNL A   1      28.323  28.084  23.145  1.00  0.00     0.000 A 
ATOM     31  C   UNL A   1      28.373  29.327  22.524  1.00  0.00     0.000 A 
ENDBRANCH  15  26
ENDBRANCH   6  11
ENDBRANCH   3   5
ENDBRANCH   2   3
ENDBRANCH   1   2
BRANCH   1  32
ATOM     32  C   UNL A   1      34.374  33.515  30.738  1.00  0.00     0.275 C 
BRANCH  32  33
ATOM     33  O   UNL A   1      34.636  32.175  31.192  1.00  0.00    -0.458 OA
BRANCH  33  34
ATOM     34  C   UNL A   1      35.645  32.040  32.082  1.00  0.00     0.338 C 
ATOM     35  O   UNL A   1      35.677  32.413  33.241  1.00  0.00    -0.246 OA
BRANCH  34  36
ATOM     36  C   UNL A   1      36.763  31.331  31.443  1.00  0.00     0.060 A 
ATOM     37  C   UNL A   1      37.705  30.692  32.245  1.00  0.00     0.016 A 
ATOM     38  C   UNL A   1      36.949  31.405  30.065  1.00  0.00     0.016 A 
ATOM     39  C   UNL A   1      38.871  30.174  31.686  1.00  0.00     0.010 A 
ATOM     40  C   UNL A   1      38.087  30.822  29.493  1.00  0.00     0.010 A 
ATOM     41  C   UNL A   1      39.076  30.229  30.300  1.00  0.00    -0.014 A 
BRANCH  41  42
ATOM     42  C   UNL A   1      40.345  29.724  29.705  1.00  0.00     0.031 A 
ATOM     43  C   UNL A   1      41.534  30.640  29.582  1.00  0.00     0.074 A 
ATOM     44  C   UNL A   1      40.450  28.446  29.292  1.00  0.00     0.049 A 
ATOM     45  N   UNL A   1      42.666  30.451  28.951  1.00  0.00    -0.248 NA
ATOM     46  C   UNL A   1      41.431  31.946  30.249  1.00  0.00     0.031 C 
ATOM     47  C   UNL A   1      39.404  27.429  29.400  1.00  0.00     0.029 A 
ATOM     48  N   UNL A   1      41.498  27.781  28.703  1.00  0.00    -0.354 N 
ATOM     49  C   UNL A   1      43.383  31.633  29.095  1.00  0.00     0.074 A 
ATOM     50  C   UNL A   1      42.558  32.533  29.874  1.00  0.00     0.031 C 
ATOM     51  C   UNL A   1      39.874  26.262  28.932  1.00  0.00     0.029 A 
ATOM     52  C   UNL A   1      41.224  26.466  28.416  1.00  0.00     0.049 A 
ATOM     53  H   UNL A   1      42.364  28.207  28.505  1.00  0.00     0.167 HD
ATOM     54  C   UNL A   1      44.615  31.939  28.621  1.00  0.00     0.037 A 
ATOM     55  C   UNL A   1      41.959  25.536  27.777  1.00  0.00     0.037 A 
ATOM     56  C   UNL A   1      45.460  31.024  27.901  1.00  0.00     0.049 A 
ATOM     57  C   UNL A   1      43.307  25.910  27.227  1.00  0.00     0.074 A 
ATOM     58  C   UNL A   1      46.734  31.236  27.399  1.00  0.00     0.029 A 
ATOM     59  N   UNL A   1      45.124  29.715  27.592  1.00  0.00    -0.354 N 
ATOM     60  N   UNL A   1      43.948  27.049  27.317  1.00  0.00    -0.248 NA
ATOM     61  C   UNL A   1      44.019  24.876  26.464  1.00  0.00     0.031 C 
ATOM     62  C   UNL A   1      47.155  30.065  26.760  1.00  0.00     0.029 A 
ATOM     63  C   UNL A   1      46.159  29.112  26.895  1.00  0.00     0.049 A 
ATOM     64  H   UNL A   1      44.275  29.279  27.832  1.00  0.00     0.167 HD
ATOM     65  C   UNL A   1      45.143  26.866  26.634  1.00  0.00     0.074 A 
ATOM     66  C   UNL A   1      45.145  25.501  26.149  1.00  0.00     0.031 C 
ATOM     67  C   UNL A   1      46.147  27.752  26.422  1.00  0.00     0.037 A 
BRANCH  54  68
ATOM     68  C   UNL A   1      45.107  33.341  28.837  1.00  0.00     0.057 A 
ATOM     69  C   UNL A   1      44.786  34.388  27.964  1.00  0.00     0.134 A 
ATOM     70  C   UNL A   1      45.899  33.647  29.952  1.00  0.00     0.134 A 
ATOM     71  F   UNL A   1      44.044  34.160  26.871  1.00  0.00    -0.206 F 
ATOM     72  C   UNL A   1      45.257  35.685  28.179  1.00  0.00     0.040 A 
ATOM     73  C   UNL A   1      46.356  34.944  30.190  1.00  0.00     0.040 A 
ATOM     74  F   UNL A   1      46.238  32.691  30.830  1.00  0.00    -0.206 F 
ATOM     75  C   UNL A   1      46.040  35.967  29.298  1.00  0.00     0.006 A 
ENDBRANCH  54  68
BRANCH  55  76
ATOM     76  C   UNL A   1      41.423  24.164  27.595  1.00  0.00     0.057 A 
ATOM     77  C   UNL A   1      41.904  23.095  28.358  1.00  0.00     0.134 A 
ATOM     78  C   UNL A   1      40.420  23.889  26.657  1.00  0.00     0.134 A 
ATOM     79  F   UNL A   1      42.883  23.292  29.253  1.00  0.00    -0.206 F 
ATOM     80  C   UNL A   1      41.410  21.800  28.194  1.00  0.00     0.040 A 
ATOM     81  C   UNL A   1      39.899  22.604  26.500  1.00  0.00     0.040 A 
ATOM     82  F   UNL A   1      39.919  24.870  25.892  1.00  0.00    -0.206 F 
ATOM     83  C   UNL A   1      40.398  21.554  27.269  1.00  0.00     0.006 A 
ENDBRANCH  55  76
BRANCH  67  84
ATOM     84  C   UNL A   1      47.338  27.261  25.657  1.00  0.00     0.057 A 
ATOM     85  C   UNL A   1      47.457  27.456  24.276  1.00  0.00     0.134 A 
ATOM     86  C   UNL A   1      48.387  26.605  26.313  1.00  0.00     0.134 A 
ATOM     87  F   UNL A   1      46.478  28.064  23.588  1.00  0.00    -0.206 F 
ATOM     88  C   UNL A   1      48.571  26.999  23.569  1.00  0.00     0.040 A 
ATOM     89  C   UNL A   1      49.515  26.161  25.621  1.00  0.00     0.040 A 
ATOM     90  F   UNL A   1      48.335  26.391  27.635  1.00  0.00    -0.206 F 
ATOM     91  C   UNL A   1      49.607  26.354  24.243  1.00  0.00     0.006 A 
ENDBRANCH  67  84
ENDBRANCH  41  42
ENDBRANCH  34  36
ENDBRANCH  33  34
ENDBRANCH  32  33
ENDBRANCH   1  32
TORSDOF 15
ENDMDL
MODEL 3
REMARK VINA RESULT:     -13.2      4.877     10.112
REMARK SMILES CS(=O)(=O)c1ccc(C2=NN(c3ccc(C(=O)OCCOC(=O)c4ccc(-c5c6nc(c(-c7c(F)cccc7F)c7ccc([nH]7)c(-c7c(F)cccc7F)c7nc(c(-c8c(F)cccc8F)c8ccc5[nH]8)C=C7)C=C6)cc4)cc3)[C@H](c3ccccc3)C2)cc1
REMARK SMILES IDX 19 1 18 2 16 3 17 4 15 5 12 6 13 7 79 8 14 9 78 10 11 11
REMARK SMILES IDX 9 12 10 13 87 14 80 15 8 16 5 17 6 18 89 19 7 20 88 21 2 22
REMARK SMILES IDX 1 23 3 24 4 25 81 26 82 27 86 28 83 29 85 30 84 31 20 32
REMARK SMILES IDX 21 33 22 34 23 35 24 36 25 37 77 38 26 39 76 40 27 41 28 42
REMARK SMILES IDX 29 43 70 44 30 45 75 46 69 47 71 48 31 49 74 50 68 51 67 52
REMARK SMILES IDX 32 54 58 55 41 56 57 57 42 58 45 59 56 60 72 61 43 62 44 63
REMARK SMILES IDX 55 65 73 66 46 67 33 68 34 69 39 70 35 71 36 72 38 73 40 74
REMARK SMILES IDX 37 75 59 76 60 77 65 78 61 79 62 80 64 81 66 82 63 83 47 84
REMARK SMILES IDX 48 85 53 86 49 87 50 88 52 89 54 90 51 91
REMARK H PARENT 71 53 45 64
REMARK Flexibility Score: inf
ROOT
ATOM      1  C   UNL A   1      34.902  32.311  28.480  1.00  0.00     0.275 C 
ENDROOT
BRANCH   1   2
ATOM      2  O   UNL A   1      34.314  31.084  28.007  1.00  0.00    -0.458 OA
BRANCH   2   3
ATOM      3  C   UNL A   1      33.112  31.206  27.394  1.00  0.00     0.338 C 
ATOM      4  O   UNL A   1      32.471  32.236  27.253  1.00  0.00    -0.246 OA
BRANCH   3   5
ATOM      5  C   UNL A   1      32.675  29.910  26.815  1.00  0.00     0.060 A 
ATOM      6  C   UNL A   1      31.843  27.526  25.580  1.00  0.00     0.060 A 
ATOM      7  C   UNL A   1      32.672  28.421  24.898  1.00  0.00     0.029 A 
ATOM      8  C   UNL A   1      31.474  27.815  26.901  1.00  0.00     0.029 A 
ATOM      9  C   UNL A   1      33.057  29.618  25.497  1.00  0.00     0.018 A 
ATOM     10  C   UNL A   1      31.892  28.996  27.523  1.00  0.00     0.018 A 
BRANCH   6  11
ATOM     11  N   UNL A   1      31.279  26.426  24.924  1.00  0.00    -0.257 N 
ATOM     12  C   UNL A   1      31.629  24.447  24.197  1.00  0.00     0.071 C 
ATOM     13  N   UNL A   1      31.717  25.183  25.261  1.00  0.00    -0.176 NA
ATOM     14  C   UNL A   1      31.172  25.148  22.948  1.00  0.00     0.091 C 
ATOM     15  C   UNL A   1      30.997  26.573  23.485  1.00  0.00     0.144 C 
BRANCH  12  16
ATOM     16  C   UNL A   1      31.925  23.003  24.210  1.00  0.00    -0.002 A 
ATOM     17  C   UNL A   1      32.494  20.276  24.124  1.00  0.00     0.067 A 
ATOM     18  C   UNL A   1      32.190  20.952  22.941  1.00  0.00     0.021 A 
ATOM     19  C   UNL A   1      32.503  20.956  25.351  1.00  0.00     0.021 A 
ATOM     20  C   UNL A   1      31.895  22.315  22.991  1.00  0.00     0.011 A 
ATOM     21  C   UNL A   1      32.226  22.325  25.394  1.00  0.00     0.011 A 
BRANCH  17  22
ATOM     22  S   UNL A   1      32.888  18.542  24.148  1.00  0.00     0.175 S 
ATOM     23  C   UNL A   1      32.551  17.897  22.534  1.00  0.00     0.163 C 
ATOM     24  O   UNL A   1      31.955  17.923  25.068  1.00  0.00    -0.224 OA
ATOM     25  O   UNL A   1      34.321  18.459  24.361  1.00  0.00    -0.224 OA
ENDBRANCH  17  22
ENDBRANCH  12  16
BRANCH  15  26
ATOM     26  C   UNL A   1      29.660  27.268  23.293  1.00  0.00    -0.023 A 
ATOM     27  C   UNL A   1      28.450  26.773  23.797  1.00  0.00     0.006 A 
ATOM     28  C   UNL A   1      29.648  28.536  22.675  1.00  0.00     0.006 A 
ATOM     29  C   UNL A   1      27.270  27.514  23.676  1.00  0.00     0.000 A 
ATOM     30  C   UNL A   1      28.477  29.287  22.580  1.00  0.00     0.000 A 
ATOM     31  C   UNL A   1      27.285  28.773  23.079  1.00  0.00     0.000 A 
ENDBRANCH  15  26
ENDBRANCH   6  11
ENDBRANCH   3   5
ENDBRANCH   2   3
ENDBRANCH   1   2
BRANCH   1  32
ATOM     32  C   UNL A   1      35.077  32.272  29.997  1.00  0.00     0.275 C 
BRANCH  32  33
ATOM     33  O   UNL A   1      36.436  31.930  30.326  1.00  0.00    -0.458 OA
BRANCH  33  34
ATOM     34  C   UNL A   1      36.621  30.707  30.870  1.00  0.00     0.338 C 
ATOM     35  O   UNL A   1      35.922  30.137  31.689  1.00  0.00    -0.246 OA
BRANCH  34  36
ATOM     36  C   UNL A   1      37.837  30.104  30.305  1.00  0.00     0.060 A 
ATOM     37  C   UNL A   1      38.796  29.580  31.168  1.00  0.00     0.016 A 
ATOM     38  C   UNL A   1      38.087  30.173  28.936  1.00  0.00     0.016 A 
ATOM     39  C   UNL A   1      40.037  29.176  30.680  1.00  0.00     0.010 A 
ATOM     40  C   UNL A   1      39.307  29.700  28.436  1.00  0.00     0.010 A 
ATOM     41  C   UNL A   1      40.307  29.226  29.306  1.00  0.00    -0.014 A 
BRANCH  41  42
ATOM     42  C   UNL A   1      41.651  28.844  28.788  1.00  0.00     0.031 A 
ATOM     43  C   UNL A   1      41.902  27.438  28.312  1.00  0.00     0.074 A 
ATOM     44  C   UNL A   1      42.644  29.752  28.719  1.00  0.00     0.049 A 
ATOM     45  N   UNL A   1      43.031  26.861  27.983  1.00  0.00    -0.248 NA
ATOM     46  C   UNL A   1      40.727  26.560  28.203  1.00  0.00     0.031 C 
ATOM     47  C   UNL A   1      42.533  31.163  29.089  1.00  0.00     0.029 A 
ATOM     48  N   UNL A   1      43.947  29.621  28.303  1.00  0.00    -0.354 N 
ATOM     49  C   UNL A   1      42.711  25.542  27.685  1.00  0.00     0.074 A 
ATOM     50  C   UNL A   1      41.282  25.402  27.873  1.00  0.00     0.031 C 
ATOM     51  C   UNL A   1      43.703  31.775  28.847  1.00  0.00     0.029 A 
ATOM     52  C   UNL A   1      44.670  30.786  28.383  1.00  0.00     0.049 A 
ATOM     53  H   UNL A   1      44.326  28.772  27.979  1.00  0.00     0.167 HD
ATOM     54  C   UNL A   1      43.533  24.539  27.293  1.00  0.00     0.037 A 
ATOM     55  C   UNL A   1      45.974  31.026  28.146  1.00  0.00     0.037 A 
ATOM     56  C   UNL A   1      44.943  24.692  27.046  1.00  0.00     0.049 A 
ATOM     57  C   UNL A   1      46.874  29.891  27.749  1.00  0.00     0.074 A 
ATOM     58  C   UNL A   1      45.856  23.740  26.625  1.00  0.00     0.029 A 
ATOM     59  N   UNL A   1      45.644  25.881  27.184  1.00  0.00    -0.354 N 
ATOM     60  N   UNL A   1      46.571  28.634  27.530  1.00  0.00    -0.248 NA
ATOM     61  C   UNL A   1      48.302  30.203  27.592  1.00  0.00     0.031 C 
ATOM     62  C   UNL A   1      47.114  24.345  26.537  1.00  0.00     0.029 A 
ATOM     63  C   UNL A   1      46.979  25.682  26.869  1.00  0.00     0.049 A 
ATOM     64  H   UNL A   1      45.252  26.738  27.464  1.00  0.00     0.167 HD
ATOM     65  C   UNL A   1      47.766  28.009  27.199  1.00  0.00     0.074 A 
ATOM     66  C   UNL A   1      48.796  29.028  27.229  1.00  0.00     0.031 C 
ATOM     67  C   UNL A   1      47.991  26.706  26.901  1.00  0.00     0.037 A 
BRANCH  54  68
ATOM     68  C   UNL A   1      42.931  23.173  27.142  1.00  0.00     0.057 A 
ATOM     69  C   UNL A   1      42.629  22.363  28.244  1.00  0.00     0.134 A 
ATOM     70  C   UNL A   1      42.629  22.671  25.869  1.00  0.00     0.134 A 
ATOM     71  F   UNL A   1      42.907  22.777  29.489  1.00  0.00    -0.206 F 
ATOM     72  C   UNL A   1      42.073  21.092  28.083  1.00  0.00     0.040 A 
ATOM     73  C   UNL A   1      42.051  21.413  25.697  1.00  0.00     0.040 A 
ATOM     74  F   UNL A   1      42.886  23.399  24.771  1.00  0.00    -0.206 F 
ATOM     75  C   UNL A   1      41.776  20.616  26.807  1.00  0.00     0.006 A 
ENDBRANCH  54  68
BRANCH  55  76
ATOM     76  C   UNL A   1      46.515  32.398  28.309  1.00  0.00     0.057 A 
ATOM     77  C   UNL A   1      47.053  32.821  29.529  1.00  0.00     0.134 A 
ATOM     78  C   UNL A   1      46.510  33.318  27.252  1.00  0.00     0.134 A 
ATOM     79  F   UNL A   1      47.061  31.994  30.585  1.00  0.00    -0.206 F 
ATOM     80  C   UNL A   1      47.563  34.109  29.696  1.00  0.00     0.040 A 
ATOM     81  C   UNL A   1      47.040  34.601  27.397  1.00  0.00     0.040 A 
ATOM     82  F   UNL A   1      46.006  32.975  26.058  1.00  0.00    -0.206 F 
ATOM     83  C   UNL A   1      47.565  35.000  28.625  1.00  0.00     0.006 A 
ENDBRANCH  55  76
BRANCH  67  84
ATOM     84  C   UNL A   1      49.398  26.319  26.559  1.00  0.00     0.057 A 
ATOM     85  C   UNL A   1      50.292  25.861  27.534  1.00  0.00     0.134 A 
ATOM     86  C   UNL A   1      49.854  26.383  25.238  1.00  0.00     0.134 A 
ATOM     87  F   UNL A   1      49.919  25.792  28.821  1.00  0.00    -0.206 F 
ATOM     88  C   UNL A   1      51.600  25.499  27.208  1.00  0.00     0.040 A 
ATOM     89  C   UNL A   1      51.154  26.004  24.896  1.00  0.00     0.040 A 
ATOM     90  F   UNL A   1      49.045  26.808  24.257  1.00  0.00    -0.206 F 
ATOM     91  C   UNL A   1      52.033  25.565  25.885  1.00  0.00     0.006 A 
ENDBRANCH  67  84
ENDBRANCH  41  42
ENDBRANCH  34  36
ENDBRANCH  33  34
ENDBRANCH  32  33
ENDBRANCH   1  32
TORSDOF 15
ENDMDL
