MODEL 1
REMARK VINA RESULT:     -13.4      0.000      0.000
REMARK SMILES O=C(OCCOC(=O)c1ccc(-c2c3nc(c(-c4c(F)cccc4F)c4ccc([nH]4)c(-c4c(F)cccc4F)c4nc(c(-c5c(F)cccc5F)c5ccc2[nH]5)C=C4)C=C3)cc1)c1ccc(NC(=O)[C@@H]2CC=CC[C@H]2C(=O)Nc2cccc([N+](=O)[O-])c2)cc1
REMARK SMILES IDX 3 1 2 2 1 3 63 4 64 5 89 6 65 7 88 8 66 9 67 10 68 11 69 13
REMARK SMILES IDX 70 14 71 15 75 16 72 17 74 18 73 19 76 20 77 21 78 22 79 24
REMARK SMILES IDX 80 25 87 26 81 27 83 28 82 29 84 30 85 31 86 32 4 33 5 34
REMARK SMILES IDX 6 35 7 36 8 37 9 38 10 39 62 40 11 41 61 42 12 43 13 44
REMARK SMILES IDX 14 45 55 46 15 47 60 48 54 49 56 50 16 51 59 52 53 53 52 54
REMARK SMILES IDX 17 56 43 57 26 58 42 59 27 60 30 61 41 62 57 63 28 64 29 65
REMARK SMILES IDX 40 67 58 68 31 69 18 70 19 71 24 72 20 73 21 74 23 75 25 76
REMARK SMILES IDX 22 77 44 78 45 79 50 80 46 81 47 82 49 83 51 84 48 85 32 86
REMARK SMILES IDX 33 87 38 88 34 89 35 90 37 91 39 92 36 93
REMARK H PARENT 67 12 78 23 56 55 30 66
REMARK Flexibility Score: inf
ROOT
ATOM      1  O   UNL A   1      32.496  29.865  27.305  1.00  0.00    -0.458 OA
ENDROOT
BRANCH   1   2
ATOM      2  C   UNL A   1      33.270  28.785  27.008  1.00  0.00     0.338 C 
ATOM      3  O   UNL A   1      34.437  28.745  27.387  1.00  0.00    -0.246 OA
BRANCH   2   4
ATOM      4  C   UNL A   1      32.815  27.765  26.013  1.00  0.00     0.060 A 
ATOM      5  C   UNL A   1      33.463  27.533  24.821  1.00  0.00     0.018 A 
ATOM      6  C   UNL A   1      31.755  26.901  26.329  1.00  0.00     0.018 A 
ATOM      7  C   UNL A   1      33.272  26.361  24.117  1.00  0.00     0.027 A 
ATOM      8  C   UNL A   1      31.450  25.799  25.502  1.00  0.00     0.027 A 
ATOM      9  C   UNL A   1      32.263  25.480  24.412  1.00  0.00     0.041 A 
BRANCH   9  10
ATOM     10  N   UNL A   1      32.051  24.289  23.703  1.00  0.00    -0.326 N 
ATOM     11  C   UNL A   1      32.759  23.137  23.545  1.00  0.00     0.228 C 
ATOM     12  H   UNL A   1      31.200  24.286  23.209  1.00  0.00     0.169 HD
ATOM     13  O   UNL A   1      32.212  22.248  22.877  1.00  0.00    -0.274 OA
BRANCH  11  14
ATOM     14  C   UNL A   1      34.164  22.852  24.087  1.00  0.00     0.095 C 
ATOM     15  C   UNL A   1      35.295  23.285  23.146  1.00  0.00     0.041 C 
ATOM     16  C   UNL A   1      34.328  21.510  24.824  1.00  0.00     0.095 C 
ATOM     17  C   UNL A   1      36.643  22.747  23.522  1.00  0.00    -0.030 C 
ATOM     18  C   UNL A   1      35.757  21.236  25.326  1.00  0.00     0.041 C 
ATOM     19  C   UNL A   1      36.846  21.846  24.491  1.00  0.00    -0.030 C 
BRANCH  16  20
ATOM     20  C   UNL A   1      33.213  21.193  25.831  1.00  0.00     0.228 C 
ATOM     21  O   UNL A   1      32.862  22.071  26.630  1.00  0.00    -0.274 OA
ATOM     22  N   UNL A   1      32.509  20.023  25.850  1.00  0.00    -0.326 N 
ATOM     23  H   UNL A   1      31.790  19.966  26.520  1.00  0.00     0.169 HD
BRANCH  22  24
ATOM     24  C   UNL A   1      32.676  18.898  25.044  1.00  0.00     0.048 A 
ATOM     25  C   UNL A   1      32.493  19.037  23.669  1.00  0.00     0.026 A 
ATOM     26  C   UNL A   1      33.088  17.681  25.574  1.00  0.00     0.111 A 
ATOM     27  C   UNL A   1      32.888  18.008  22.812  1.00  0.00     0.009 A 
ATOM     28  C   UNL A   1      33.554  16.683  24.716  1.00  0.00     0.271 A 
ATOM     29  C   UNL A   1      33.460  16.843  23.330  1.00  0.00     0.086 A 
BRANCH  28  30
ATOM     30  N   UNL A   1      34.242  15.513  25.275  1.00  0.00     0.062 N 
ATOM     31  O   UNL A   1      33.570  14.491  25.471  1.00  0.00    -0.258 OA
ATOM     32  O   UNL A   1      35.462  15.600  25.472  1.00  0.00    -0.258 OA
ENDBRANCH  28  30
ENDBRANCH  22  24
ENDBRANCH  16  20
ENDBRANCH  11  14
ENDBRANCH   9  10
ENDBRANCH   2   4
ENDBRANCH   1   2
BRANCH   1  33
ATOM     33  C   UNL A   1      32.066  30.912  26.404  1.00  0.00     0.275 C 
BRANCH  33  34
ATOM     34  C   UNL A   1      31.734  32.244  27.120  1.00  0.00     0.275 C 
BRANCH  34  35
ATOM     35  O   UNL A   1      32.671  33.312  26.853  1.00  0.00    -0.458 OA
BRANCH  35  36
ATOM     36  C   UNL A   1      33.047  34.052  27.934  1.00  0.00     0.338 C 
ATOM     37  O   UNL A   1      32.438  34.982  28.410  1.00  0.00    -0.246 OA
BRANCH  36  38
ATOM     38  C   UNL A   1      34.259  33.458  28.567  1.00  0.00     0.060 A 
ATOM     39  C   UNL A   1      34.081  32.456  29.527  1.00  0.00     0.016 A 
ATOM     40  C   UNL A   1      35.554  33.863  28.244  1.00  0.00     0.016 A 
ATOM     41  C   UNL A   1      35.188  31.856  30.150  1.00  0.00     0.010 A 
ATOM     42  C   UNL A   1      36.664  33.230  28.839  1.00  0.00     0.010 A 
ATOM     43  C   UNL A   1      36.500  32.222  29.809  1.00  0.00    -0.014 A 
BRANCH  43  44
ATOM     44  C   UNL A   1      37.690  31.596  30.482  1.00  0.00     0.031 A 
ATOM     45  C   UNL A   1      38.481  30.513  29.790  1.00  0.00     0.074 A 
ATOM     46  C   UNL A   1      38.080  31.958  31.724  1.00  0.00     0.049 A 
ATOM     47  N   UNL A   1      39.518  29.840  30.228  1.00  0.00    -0.248 NA
ATOM     48  C   UNL A   1      38.066  30.152  28.428  1.00  0.00     0.031 C 
ATOM     49  C   UNL A   1      37.476  33.018  32.522  1.00  0.00     0.029 A 
ATOM     50  N   UNL A   1      39.064  31.457  32.549  1.00  0.00    -0.354 N 
ATOM     51  C   UNL A   1      39.884  28.987  29.195  1.00  0.00     0.074 A 
ATOM     52  C   UNL A   1      38.925  29.187  28.128  1.00  0.00     0.031 C 
ATOM     53  C   UNL A   1      38.040  33.043  33.741  1.00  0.00     0.029 A 
ATOM     54  C   UNL A   1      39.070  32.011  33.810  1.00  0.00     0.049 A 
ATOM     55  H   UNL A   1      39.706  30.768  32.263  1.00  0.00     0.167 HD
ATOM     56  C   UNL A   1      40.937  28.140  29.121  1.00  0.00     0.037 A 
ATOM     57  C   UNL A   1      39.808  31.729  34.904  1.00  0.00     0.037 A 
ATOM     58  C   UNL A   1      41.923  27.943  30.152  1.00  0.00     0.049 A 
ATOM     59  C   UNL A   1      40.907  30.702  34.830  1.00  0.00     0.074 A 
ATOM     60  C   UNL A   1      43.076  27.176  30.101  1.00  0.00     0.029 A 
ATOM     61  N   UNL A   1      41.868  28.492  31.421  1.00  0.00    -0.354 N 
ATOM     62  N   UNL A   1      41.310  29.999  33.801  1.00  0.00    -0.248 NA
ATOM     63  C   UNL A   1      41.676  30.452  36.060  1.00  0.00     0.031 C 
ATOM     64  C   UNL A   1      43.686  27.212  31.358  1.00  0.00     0.029 A 
ATOM     65  C   UNL A   1      42.939  28.039  32.177  1.00  0.00     0.049 A 
ATOM     66  H   UNL A   1      41.172  29.112  31.739  1.00  0.00     0.167 HD
ATOM     67  C   UNL A   1      42.399  29.259  34.248  1.00  0.00     0.074 A 
ATOM     68  C   UNL A   1      42.602  29.603  35.638  1.00  0.00     0.031 C 
ATOM     69  C   UNL A   1      43.162  28.380  33.557  1.00  0.00     0.037 A 
BRANCH  56  70
ATOM     70  C   UNL A   1      41.105  27.351  27.858  1.00  0.00     0.057 A 
ATOM     71  C   UNL A   1      41.867  27.834  26.788  1.00  0.00     0.134 A 
ATOM     72  C   UNL A   1      40.573  26.060  27.750  1.00  0.00     0.134 A 
ATOM     73  F   UNL A   1      42.399  29.065  26.832  1.00  0.00    -0.206 F 
ATOM     74  C   UNL A   1      42.086  27.064  25.645  1.00  0.00     0.040 A 
ATOM     75  C   UNL A   1      40.803  25.272  26.621  1.00  0.00     0.040 A 
ATOM     76  F   UNL A   1      39.845  25.537  28.747  1.00  0.00    -0.206 F 
ATOM     77  C   UNL A   1      41.560  25.775  25.564  1.00  0.00     0.006 A 
ENDBRANCH  56  70
BRANCH  57  78
ATOM     78  C   UNL A   1      39.542  32.418  36.195  1.00  0.00     0.057 A 
ATOM     79  C   UNL A   1      38.541  31.976  37.067  1.00  0.00     0.134 A 
ATOM     80  C   UNL A   1      40.225  33.591  36.539  1.00  0.00     0.134 A 
ATOM     81  F   UNL A   1      37.834  30.874  36.779  1.00  0.00    -0.206 F 
ATOM     82  C   UNL A   1      38.201  32.695  38.216  1.00  0.00     0.040 A 
ATOM     83  C   UNL A   1      39.911  34.309  37.695  1.00  0.00     0.040 A 
ATOM     84  F   UNL A   1      41.197  34.067  35.748  1.00  0.00    -0.206 F 
ATOM     85  C   UNL A   1      38.886  33.867  38.530  1.00  0.00     0.006 A 
ENDBRANCH  57  78
BRANCH  69  86
ATOM     86  C   UNL A   1      44.316  27.739  34.271  1.00  0.00     0.057 A 
ATOM     87  C   UNL A   1      45.575  28.352  34.339  1.00  0.00     0.134 A 
ATOM     88  C   UNL A   1      44.156  26.520  34.943  1.00  0.00     0.134 A 
ATOM     89  F   UNL A   1      45.802  29.511  33.704  1.00  0.00    -0.206 F 
ATOM     90  C   UNL A   1      46.634  27.770  35.040  1.00  0.00     0.040 A 
ATOM     91  C   UNL A   1      45.200  25.942  35.669  1.00  0.00     0.040 A 
ATOM     92  F   UNL A   1      42.977  25.881  34.923  1.00  0.00    -0.206 F 
ATOM     93  C   UNL A   1      46.445  26.566  35.715  1.00  0.00     0.006 A 
ENDBRANCH  69  86
ENDBRANCH  43  44
ENDBRANCH  36  38
ENDBRANCH  35  36
ENDBRANCH  34  35
ENDBRANCH  33  34
ENDBRANCH   1  33
TORSDOF 16
ENDMDL
MODEL 2
REMARK VINA RESULT:     -13.3      4.360      9.988
REMARK SMILES O=C(OCCOC(=O)c1ccc(-c2c3nc(c(-c4c(F)cccc4F)c4ccc([nH]4)c(-c4c(F)cccc4F)c4nc(c(-c5c(F)cccc5F)c5ccc2[nH]5)C=C4)C=C3)cc1)c1ccc(NC(=O)[C@@H]2CC=CC[C@H]2C(=O)Nc2cccc([N+](=O)[O-])c2)cc1
REMARK SMILES IDX 3 1 2 2 1 3 63 4 64 5 89 6 65 7 88 8 66 9 67 10 68 11 69 13
REMARK SMILES IDX 70 14 71 15 75 16 72 17 74 18 73 19 76 20 77 21 78 22 79 24
REMARK SMILES IDX 80 25 87 26 81 27 83 28 82 29 84 30 85 31 86 32 4 33 5 34
REMARK SMILES IDX 6 35 7 36 8 37 9 38 10 39 62 40 11 41 61 42 12 43 13 44
REMARK SMILES IDX 14 45 55 46 15 47 60 48 54 49 56 50 16 51 59 52 53 53 52 54
REMARK SMILES IDX 17 56 43 57 26 58 42 59 27 60 30 61 41 62 57 63 28 64 29 65
REMARK SMILES IDX 40 67 58 68 31 69 18 70 19 71 24 72 20 73 21 74 23 75 25 76
REMARK SMILES IDX 22 77 44 78 45 79 50 80 46 81 47 82 49 83 51 84 48 85 32 86
REMARK SMILES IDX 33 87 38 88 34 89 35 90 37 91 39 92 36 93
REMARK H PARENT 67 12 78 23 56 55 30 66
REMARK Flexibility Score: inf
ROOT
ATOM      1  O   UNL A   1      37.648  22.145  24.703  1.00  0.00    -0.458 OA
ENDROOT
BRANCH   1   2
ATOM      2  C   UNL A   1      37.009  23.252  25.174  1.00  0.00     0.338 C 
ATOM      3  O   UNL A   1      37.608  24.042  25.899  1.00  0.00    -0.246 OA
BRANCH   2   4
ATOM      4  C   UNL A   1      35.526  23.395  25.045  1.00  0.00     0.060 A 
ATOM      5  C   UNL A   1      34.677  23.454  26.127  1.00  0.00     0.018 A 
ATOM      6  C   UNL A   1      34.950  23.606  23.782  1.00  0.00     0.018 A 
ATOM      7  C   UNL A   1      33.400  23.966  26.009  1.00  0.00     0.027 A 
ATOM      8  C   UNL A   1      33.588  23.956  23.660  1.00  0.00     0.027 A 
ATOM      9  C   UNL A   1      32.812  24.208  24.793  1.00  0.00     0.041 A 
BRANCH   9  10
ATOM     10  N   UNL A   1      31.515  24.720  24.656  1.00  0.00    -0.326 N 
ATOM     11  C   UNL A   1      30.947  25.940  24.859  1.00  0.00     0.228 C 
ATOM     12  H   UNL A   1      30.869  24.045  24.344  1.00  0.00     0.169 HD
ATOM     13  O   UNL A   1      29.748  26.041  24.561  1.00  0.00    -0.274 OA
BRANCH  11  14
ATOM     14  C   UNL A   1      31.638  27.179  25.439  1.00  0.00     0.095 C 
ATOM     15  C   UNL A   1      31.503  27.313  26.962  1.00  0.00     0.041 C 
ATOM     16  C   UNL A   1      31.507  28.464  24.599  1.00  0.00     0.095 C 
ATOM     17  C   UNL A   1      31.906  28.654  27.496  1.00  0.00    -0.030 C 
ATOM     18  C   UNL A   1      32.181  29.697  25.225  1.00  0.00     0.041 C 
ATOM     19  C   UNL A   1      32.214  29.706  26.726  1.00  0.00    -0.030 C 
BRANCH  16  20
ATOM     20  C   UNL A   1      31.763  28.273  23.097  1.00  0.00     0.228 C 
ATOM     21  O   UNL A   1      32.773  27.654  22.737  1.00  0.00    -0.274 OA
ATOM     22  N   UNL A   1      30.897  28.669  22.118  1.00  0.00    -0.326 N 
ATOM     23  H   UNL A   1      31.164  28.447  21.196  1.00  0.00     0.169 HD
BRANCH  22  24
ATOM     24  C   UNL A   1      29.687  29.346  22.253  1.00  0.00     0.048 A 
ATOM     25  C   UNL A   1      28.620  28.680  22.853  1.00  0.00     0.026 A 
ATOM     26  C   UNL A   1      29.554  30.676  21.873  1.00  0.00     0.111 A 
ATOM     27  C   UNL A   1      27.481  29.394  23.227  1.00  0.00     0.009 A 
ATOM     28  C   UNL A   1      28.450  31.408  22.315  1.00  0.00     0.271 A 
ATOM     29  C   UNL A   1      27.409  30.771  22.998  1.00  0.00     0.086 A 
BRANCH  28  30
ATOM     30  N   UNL A   1      28.438  32.867  22.155  1.00  0.00     0.062 N 
ATOM     31  O   UNL A   1      27.690  33.343  21.289  1.00  0.00    -0.258 OA
ATOM     32  O   UNL A   1      29.139  33.538  22.925  1.00  0.00    -0.258 OA
ENDBRANCH  28  30
ENDBRANCH  22  24
ENDBRANCH  16  20
ENDBRANCH  11  14
ENDBRANCH   9  10
ENDBRANCH   2   4
ENDBRANCH   1   2
BRANCH   1  33
ATOM     33  C   UNL A   1      37.643  20.817  25.276  1.00  0.00     0.275 C 
BRANCH  33  34
ATOM     34  C   UNL A   1      38.887  19.977  24.895  1.00  0.00     0.275 C 
BRANCH  34  35
ATOM     35  O   UNL A   1      39.515  19.306  26.011  1.00  0.00    -0.458 OA
BRANCH  35  36
ATOM     36  C   UNL A   1      40.873  19.402  26.068  1.00  0.00     0.338 C 
ATOM     37  O   UNL A   1      41.665  18.605  25.619  1.00  0.00    -0.246 OA
BRANCH  36  38
ATOM     38  C   UNL A   1      41.272  20.722  26.634  1.00  0.00     0.060 A 
ATOM     39  C   UNL A   1      41.884  21.649  25.783  1.00  0.00     0.016 A 
ATOM     40  C   UNL A   1      41.064  21.064  27.970  1.00  0.00     0.016 A 
ATOM     41  C   UNL A   1      42.274  22.912  26.260  1.00  0.00     0.010 A 
ATOM     42  C   UNL A   1      41.417  22.347  28.436  1.00  0.00     0.010 A 
ATOM     43  C   UNL A   1      42.036  23.289  27.592  1.00  0.00    -0.014 A 
BRANCH  43  44
ATOM     44  C   UNL A   1      42.464  24.632  28.115  1.00  0.00     0.031 A 
ATOM     45  C   UNL A   1      41.459  25.745  28.285  1.00  0.00     0.074 A 
ATOM     46  C   UNL A   1      43.751  24.899  28.429  1.00  0.00     0.049 A 
ATOM     47  N   UNL A   1      41.651  26.976  28.696  1.00  0.00    -0.248 NA
ATOM     48  C   UNL A   1      40.058  25.432  27.971  1.00  0.00     0.031 C 
ATOM     49  C   UNL A   1      44.847  23.939  28.383  1.00  0.00     0.029 A 
ATOM     50  N   UNL A   1      44.365  26.067  28.827  1.00  0.00    -0.354 N 
ATOM     51  C   UNL A   1      40.400  27.577  28.699  1.00  0.00     0.074 A 
ATOM     52  C   UNL A   1      39.462  26.595  28.197  1.00  0.00     0.031 C 
ATOM     53  C   UNL A   1      46.005  24.561  28.659  1.00  0.00     0.029 A 
ATOM     54  C   UNL A   1      45.736  25.970  28.928  1.00  0.00     0.049 A 
ATOM     55  H   UNL A   1      43.870  26.895  29.023  1.00  0.00     0.167 HD
ATOM     56  C   UNL A   1      40.051  28.819  29.112  1.00  0.00     0.037 A 
ATOM     57  C   UNL A   1      46.677  26.899  29.200  1.00  0.00     0.037 A 
ATOM     58  C   UNL A   1      40.955  29.805  29.644  1.00  0.00     0.049 A 
ATOM     59  C   UNL A   1      46.271  28.306  29.552  1.00  0.00     0.074 A 
ATOM     60  C   UNL A   1      40.651  31.047  30.178  1.00  0.00     0.029 A 
ATOM     61  N   UNL A   1      42.332  29.680  29.690  1.00  0.00    -0.354 N 
ATOM     62  N   UNL A   1      45.069  28.813  29.666  1.00  0.00    -0.248 NA
ATOM     63  C   UNL A   1      47.352  29.262  29.844  1.00  0.00     0.031 C 
ATOM     64  C   UNL A   1      41.848  31.697  30.492  1.00  0.00     0.029 A 
ATOM     65  C   UNL A   1      42.894  30.842  30.197  1.00  0.00     0.049 A 
ATOM     66  H   UNL A   1      42.837  28.883  29.406  1.00  0.00     0.167 HD
ATOM     67  C   UNL A   1      45.250  30.127  30.082  1.00  0.00     0.074 A 
ATOM     68  C   UNL A   1      46.674  30.341  30.209  1.00  0.00     0.031 C 
ATOM     69  C   UNL A   1      44.308  31.066  30.340  1.00  0.00     0.037 A 
BRANCH  56  70
ATOM     70  C   UNL A   1      38.603  29.197  29.025  1.00  0.00     0.057 A 
ATOM     71  C   UNL A   1      37.765  29.150  30.146  1.00  0.00     0.134 A 
ATOM     72  C   UNL A   1      38.069  29.697  27.831  1.00  0.00     0.134 A 
ATOM     73  F   UNL A   1      38.219  28.678  31.315  1.00  0.00    -0.206 F 
ATOM     74  C   UNL A   1      36.439  29.578  30.079  1.00  0.00     0.040 A 
ATOM     75  C   UNL A   1      36.751  30.147  27.757  1.00  0.00     0.040 A 
ATOM     76  F   UNL A   1      38.826  29.779  26.727  1.00  0.00    -0.206 F 
ATOM     77  C   UNL A   1      35.931  30.087  28.884  1.00  0.00     0.006 A 
ENDBRANCH  56  70
BRANCH  57  78
ATOM     78  C   UNL A   1      48.121  26.549  29.147  1.00  0.00     0.057 A 
ATOM     79  C   UNL A   1      48.821  26.155  30.295  1.00  0.00     0.134 A 
ATOM     80  C   UNL A   1      48.854  26.690  27.963  1.00  0.00     0.134 A 
ATOM     81  F   UNL A   1      48.179  26.027  31.465  1.00  0.00    -0.206 F 
ATOM     82  C   UNL A   1      50.203  25.952  30.275  1.00  0.00     0.040 A 
ATOM     83  C   UNL A   1      50.233  26.470  27.924  1.00  0.00     0.040 A 
ATOM     84  F   UNL A   1      48.245  27.062  26.829  1.00  0.00    -0.206 F 
ATOM     85  C   UNL A   1      50.912  26.112  29.087  1.00  0.00     0.006 A 
ENDBRANCH  57  78
BRANCH  69  86
ATOM     86  C   UNL A   1      44.771  32.411  30.819  1.00  0.00     0.057 A 
ATOM     87  C   UNL A   1      45.076  33.448  29.927  1.00  0.00     0.134 A 
ATOM     88  C   UNL A   1      44.862  32.693  32.189  1.00  0.00     0.134 A 
ATOM     89  F   UNL A   1      45.026  33.242  28.603  1.00  0.00    -0.206 F 
ATOM     90  C   UNL A   1      45.466  34.711  30.380  1.00  0.00     0.040 A 
ATOM     91  C   UNL A   1      45.225  33.958  32.654  1.00  0.00     0.040 A 
ATOM     92  F   UNL A   1      44.579  31.748  33.099  1.00  0.00    -0.206 F 
ATOM     93  C   UNL A   1      45.532  34.971  31.747  1.00  0.00     0.006 A 
ENDBRANCH  69  86
ENDBRANCH  43  44
ENDBRANCH  36  38
ENDBRANCH  35  36
ENDBRANCH  34  35
ENDBRANCH  33  34
ENDBRANCH   1  33
TORSDOF 16
ENDMDL
MODEL 3
REMARK VINA RESULT:     -13.2      0.384      5.832
REMARK SMILES O=C(OCCOC(=O)c1ccc(-c2c3nc(c(-c4c(F)cccc4F)c4ccc([nH]4)c(-c4c(F)cccc4F)c4nc(c(-c5c(F)cccc5F)c5ccc2[nH]5)C=C4)C=C3)cc1)c1ccc(NC(=O)[C@@H]2CC=CC[C@H]2C(=O)Nc2cccc([N+](=O)[O-])c2)cc1
REMARK SMILES IDX 3 1 2 2 1 3 63 4 64 5 89 6 65 7 88 8 66 9 67 10 68 11 69 13
REMARK SMILES IDX 70 14 71 15 75 16 72 17 74 18 73 19 76 20 77 21 78 22 79 24
REMARK SMILES IDX 80 25 87 26 81 27 83 28 82 29 84 30 85 31 86 32 4 33 5 34
REMARK SMILES IDX 6 35 7 36 8 37 9 38 10 39 62 40 11 41 61 42 12 43 13 44
REMARK SMILES IDX 14 45 55 46 15 47 60 48 54 49 56 50 16 51 59 52 53 53 52 54
REMARK SMILES IDX 17 56 43 57 26 58 42 59 27 60 30 61 41 62 57 63 28 64 29 65
REMARK SMILES IDX 40 67 58 68 31 69 18 70 19 71 24 72 20 73 21 74 23 75 25 76
REMARK SMILES IDX 22 77 44 78 45 79 50 80 46 81 47 82 49 83 51 84 48 85 32 86
REMARK SMILES IDX 33 87 38 88 34 89 35 90 37 91 39 92 36 93
REMARK H PARENT 67 12 78 23 56 55 30 66
REMARK Flexibility Score: inf
ROOT
ATOM      1  O   UNL A   1      32.415  29.858  27.182  1.00  0.00    -0.458 OA
ENDROOT
BRANCH   1   2
ATOM      2  C   UNL A   1      33.227  28.825  26.823  1.00  0.00     0.338 C 
ATOM      3  O   UNL A   1      34.422  28.858  27.104  1.00  0.00    -0.246 OA
BRANCH   2   4
ATOM      4  C   UNL A   1      32.754  27.774  25.870  1.00  0.00     0.060 A 
ATOM      5  C   UNL A   1      33.282  27.608  24.609  1.00  0.00     0.018 A 
ATOM      6  C   UNL A   1      31.816  26.818  26.288  1.00  0.00     0.018 A 
ATOM      7  C   UNL A   1      33.117  26.426  23.913  1.00  0.00     0.027 A 
ATOM      8  C   UNL A   1      31.518  25.698  25.483  1.00  0.00     0.027 A 
ATOM      9  C   UNL A   1      32.229  25.457  24.305  1.00  0.00     0.041 A 
BRANCH   9  10
ATOM     10  N   UNL A   1      32.044  24.257  23.606  1.00  0.00    -0.326 N 
ATOM     11  C   UNL A   1      32.768  23.111  23.475  1.00  0.00     0.228 C 
ATOM     12  H   UNL A   1      31.203  24.238  23.095  1.00  0.00     0.169 HD
ATOM     13  O   UNL A   1      32.244  22.208  22.808  1.00  0.00    -0.274 OA
BRANCH  11  14
ATOM     14  C   UNL A   1      34.164  22.848  24.048  1.00  0.00     0.095 C 
ATOM     15  C   UNL A   1      35.309  23.289  23.127  1.00  0.00     0.041 C 
ATOM     16  C   UNL A   1      34.331  21.513  24.798  1.00  0.00     0.095 C 
ATOM     17  C   UNL A   1      36.656  22.771  23.534  1.00  0.00    -0.030 C 
ATOM     18  C   UNL A   1      35.753  21.261  25.331  1.00  0.00     0.041 C 
ATOM     19  C   UNL A   1      36.851  21.880  24.514  1.00  0.00    -0.030 C 
BRANCH  16  20
ATOM     20  C   UNL A   1      33.199  21.189  25.784  1.00  0.00     0.228 C 
ATOM     21  O   UNL A   1      32.834  22.062  26.582  1.00  0.00    -0.274 OA
ATOM     22  N   UNL A   1      32.497  20.017  25.785  1.00  0.00    -0.326 N 
ATOM     23  H   UNL A   1      31.768  19.956  26.443  1.00  0.00     0.169 HD
BRANCH  22  24
ATOM     24  C   UNL A   1      32.681  18.896  24.976  1.00  0.00     0.048 A 
ATOM     25  C   UNL A   1      32.488  19.034  23.602  1.00  0.00     0.026 A 
ATOM     26  C   UNL A   1      33.117  17.687  25.502  1.00  0.00     0.111 A 
ATOM     27  C   UNL A   1      32.897  18.015  22.742  1.00  0.00     0.009 A 
ATOM     28  C   UNL A   1      33.597  16.698  24.640  1.00  0.00     0.271 A 
ATOM     29  C   UNL A   1      33.493  16.859  23.255  1.00  0.00     0.086 A 
BRANCH  28  30
ATOM     30  N   UNL A   1      34.309  15.540  25.193  1.00  0.00     0.062 N 
ATOM     31  O   UNL A   1      33.659  14.501  25.376  1.00  0.00    -0.258 OA
ATOM     32  O   UNL A   1      35.525  15.654  25.398  1.00  0.00    -0.258 OA
ENDBRANCH  28  30
ENDBRANCH  22  24
ENDBRANCH  16  20
ENDBRANCH  11  14
ENDBRANCH   9  10
ENDBRANCH   2   4
ENDBRANCH   1   2
BRANCH   1  33
ATOM     33  C   UNL A   1      31.753  30.801  26.307  1.00  0.00     0.275 C 
BRANCH  33  34
ATOM     34  C   UNL A   1      31.579  32.206  26.933  1.00  0.00     0.275 C 
BRANCH  34  35
ATOM     35  O   UNL A   1      32.691  33.100  26.703  1.00  0.00    -0.458 OA
BRANCH  35  36
ATOM     36  C   UNL A   1      33.105  33.817  27.786  1.00  0.00     0.338 C 
ATOM     37  O   UNL A   1      32.545  34.776  28.265  1.00  0.00    -0.246 OA
BRANCH  36  38
ATOM     38  C   UNL A   1      34.286  33.161  28.416  1.00  0.00     0.060 A 
ATOM     39  C   UNL A   1      34.067  32.042  29.226  1.00  0.00     0.016 A 
ATOM     40  C   UNL A   1      35.590  33.620  28.233  1.00  0.00     0.016 A 
ATOM     41  C   UNL A   1      35.144  31.379  29.839  1.00  0.00     0.010 A 
ATOM     42  C   UNL A   1      36.673  32.928  28.815  1.00  0.00     0.010 A 
ATOM     43  C   UNL A   1      36.467  31.802  29.635  1.00  0.00    -0.014 A 
BRANCH  43  44
ATOM     44  C   UNL A   1      37.624  31.108  30.299  1.00  0.00     0.031 A 
ATOM     45  C   UNL A   1      38.005  31.441  31.720  1.00  0.00     0.074 A 
ATOM     46  C   UNL A   1      38.372  30.188  29.651  1.00  0.00     0.049 A 
ATOM     47  N   UNL A   1      38.990  30.965  32.445  1.00  0.00    -0.248 NA
ATOM     48  C   UNL A   1      37.164  32.419  32.424  1.00  0.00     0.031 C 
ATOM     49  C   UNL A   1      38.125  29.700  28.299  1.00  0.00     0.029 A 
ATOM     50  N   UNL A   1      39.513  29.513  30.031  1.00  0.00    -0.354 N 
ATOM     51  C   UNL A   1      38.880  31.576  33.687  1.00  0.00     0.074 A 
ATOM     52  C   UNL A   1      37.767  32.498  33.603  1.00  0.00     0.031 C 
ATOM     53  C   UNL A   1      39.114  28.870  27.930  1.00  0.00     0.029 A 
ATOM     54  C   UNL A   1      40.065  28.743  29.031  1.00  0.00     0.049 A 
ATOM     55  H   UNL A   1      39.897  29.575  30.935  1.00  0.00     0.167 HD
ATOM     56  C   UNL A   1      39.611  31.367  34.808  1.00  0.00     0.037 A 
ATOM     57  C   UNL A   1      41.203  28.020  28.989  1.00  0.00     0.037 A 
ATOM     58  C   UNL A   1      40.702  30.435  34.930  1.00  0.00     0.049 A 
ATOM     59  C   UNL A   1      42.061  27.889  30.220  1.00  0.00     0.074 A 
ATOM     60  C   UNL A   1      41.419  30.100  36.067  1.00  0.00     0.029 A 
ATOM     61  N   UNL A   1      41.250  29.710  33.887  1.00  0.00    -0.354 N 
ATOM     62  N   UNL A   1      41.865  28.381  31.418  1.00  0.00    -0.248 NA
ATOM     63  C   UNL A   1      43.285  27.078  30.102  1.00  0.00     0.031 C 
ATOM     64  C   UNL A   1      42.439  29.218  35.701  1.00  0.00     0.029 A 
ATOM     65  C   UNL A   1      42.328  28.968  34.346  1.00  0.00     0.049 A 
ATOM     66  H   UNL A   1      40.922  29.720  32.959  1.00  0.00     0.167 HD
ATOM     67  C   UNL A   1      42.911  27.905  32.200  1.00  0.00     0.074 A 
ATOM     68  C   UNL A   1      43.737  27.079  31.347  1.00  0.00     0.031 C 
ATOM     69  C   UNL A   1      43.153  28.133  33.513  1.00  0.00     0.037 A 
BRANCH  56  70
ATOM     70  C   UNL A   1      39.249  32.159  36.028  1.00  0.00     0.057 A 
ATOM     71  C   UNL A   1      39.762  33.443  36.247  1.00  0.00     0.134 A 
ATOM     72  C   UNL A   1      38.312  31.666  36.944  1.00  0.00     0.134 A 
ATOM     73  F   UNL A   1      40.666  33.967  35.406  1.00  0.00    -0.206 F 
ATOM     74  C   UNL A   1      39.362  34.208  37.343  1.00  0.00     0.040 A 
ATOM     75  C   UNL A   1      37.888  32.430  38.032  1.00  0.00     0.040 A 
ATOM     76  F   UNL A   1      37.775  30.448  36.781  1.00  0.00    -0.206 F 
ATOM     77  C   UNL A   1      38.415  33.704  38.234  1.00  0.00     0.006 A 
ENDBRANCH  56  70
BRANCH  57  78
ATOM     78  C   UNL A   1      41.628  27.351  27.731  1.00  0.00     0.057 A 
ATOM     79  C   UNL A   1      42.316  28.047  26.729  1.00  0.00     0.134 A 
ATOM     80  C   UNL A   1      41.273  26.023  27.465  1.00  0.00     0.134 A 
ATOM     81  F   UNL A   1      42.661  29.329  26.914  1.00  0.00    -0.206 F 
ATOM     82  C   UNL A   1      42.602  27.459  25.495  1.00  0.00     0.040 A 
ATOM     83  C   UNL A   1      41.572  25.415  26.244  1.00  0.00     0.040 A 
ATOM     84  F   UNL A   1      40.616  25.300  28.383  1.00  0.00    -0.206 F 
ATOM     85  C   UNL A   1      42.227  26.140  25.249  1.00  0.00     0.006 A 
ENDBRANCH  57  78
BRANCH  69  86
ATOM     86  C   UNL A   1      44.342  27.460  34.135  1.00  0.00     0.057 A 
ATOM     87  C   UNL A   1      45.582  28.103  34.243  1.00  0.00     0.134 A 
ATOM     88  C   UNL A   1      44.234  26.175  34.682  1.00  0.00     0.134 A 
ATOM     89  F   UNL A   1      45.759  29.329  33.726  1.00  0.00    -0.206 F 
ATOM     90  C   UNL A   1      46.673  27.488  34.860  1.00  0.00     0.040 A 
ATOM     91  C   UNL A   1      45.310  25.560  35.325  1.00  0.00     0.040 A 
ATOM     92  F   UNL A   1      43.074  25.503  34.619  1.00  0.00    -0.206 F 
ATOM     93  C   UNL A   1      46.536  26.216  35.411  1.00  0.00     0.006 A 
ENDBRANCH  69  86
ENDBRANCH  43  44
ENDBRANCH  36  38
ENDBRANCH  35  36
ENDBRANCH  34  35
ENDBRANCH  33  34
ENDBRANCH   1  33
TORSDOF 16
ENDMDL
