MODEL 1
REMARK VINA RESULT:     -10.6      0.000      0.000
REMARK SMILES CC(C)CCNC(=O)[C@@H](C)Oc1ccc(N)cc1C(=O)OCCOC(=O)c1ccc(-c2c3nc(c(-c4c(F)cccc4F)c4ccc([nH]4)c(-c4c(F)cccc4F)c4nc(c(-c5c(F)cccc5F)c5ccc2[nH]5)C=C4)C=C3)cc1
REMARK SMILES IDX 19 1 20 2 18 3 12 4 13 5 14 6 17 7 15 8 11 9 9 10 10 11 7 12
REMARK SMILES IDX 6 13 8 15 5 16 4 17 2 18 1 19 3 20 16 21 21 24 22 25 23 26
REMARK SMILES IDX 24 27 25 28 26 29 27 30 28 31 80 32 29 33 79 34 30 35 31 36
REMARK SMILES IDX 32 37 73 38 33 39 78 40 72 41 74 42 34 43 77 44 71 45 70 46
REMARK SMILES IDX 35 48 61 49 44 50 60 51 45 52 48 53 59 54 75 55 46 56 47 57
REMARK SMILES IDX 58 59 76 60 49 61 36 62 37 63 42 64 38 65 39 66 41 67 43 68
REMARK SMILES IDX 40 69 62 70 63 71 68 72 64 73 65 74 67 75 69 76 66 77 50 78
REMARK SMILES IDX 51 79 56 80 52 81 53 82 55 83 57 84 54 85
REMARK H PARENT 6 14 16 22 16 23 74 47 48 58
REMARK Flexibility Score: inf
ROOT
ATOM      1  C   UNL A   1      34.674  23.774  25.623  1.00  0.00     0.342 C 
ATOM      2  O   UNL A   1      35.658  24.485  25.509  1.00  0.00    -0.246 OA
ENDROOT
BRANCH   1   3
ATOM      3  C   UNL A   1      33.316  24.359  25.538  1.00  0.00     0.104 A 
ATOM      4  C   UNL A   1      32.889  25.039  24.406  1.00  0.00     0.135 A 
ATOM      5  C   UNL A   1      31.540  24.980  24.053  1.00  0.00     0.049 A 
ATOM      6  C   UNL A   1      30.602  24.427  24.939  1.00  0.00     0.029 A 
ATOM      7  C   UNL A   1      32.361  23.934  26.469  1.00  0.00     0.045 A 
ATOM      8  C   UNL A   1      30.997  23.992  26.200  1.00  0.00     0.032 A 
BRANCH   4   9
ATOM      9  O   UNL A   1      33.762  25.725  23.618  1.00  0.00    -0.480 OA
BRANCH   9  10
ATOM     10  C   UNL A   1      33.122  26.535  22.616  1.00  0.00     0.258 C 
ATOM     11  C   UNL A   1      32.873  25.819  21.283  1.00  0.00     0.064 C 
BRANCH  10  12
ATOM     12  C   UNL A   1      33.485  28.044  22.452  1.00  0.00     0.260 C 
ATOM     13  N   UNL A   1      32.896  29.054  23.157  1.00  0.00    -0.353 N 
ATOM     14  H   UNL A   1      33.390  29.905  23.153  1.00  0.00     0.163 HD
ATOM     15  O   UNL A   1      34.369  28.379  21.652  1.00  0.00    -0.271 OA
BRANCH  13  16
ATOM     16  C   UNL A   1      31.658  29.071  23.909  1.00  0.00     0.116 C 
BRANCH  16  17
ATOM     17  C   UNL A   1      31.829  29.278  25.409  1.00  0.00     0.024 C 
BRANCH  17  18
ATOM     18  C   UNL A   1      32.299  28.031  26.190  1.00  0.00    -0.016 C 
ATOM     19  C   UNL A   1      33.804  28.034  26.487  1.00  0.00     0.007 C 
ATOM     20  C   UNL A   1      31.528  27.950  27.510  1.00  0.00     0.007 C 
ENDBRANCH  17  18
ENDBRANCH  16  17
ENDBRANCH  13  16
ENDBRANCH  10  12
ENDBRANCH   9  10
ENDBRANCH   4   9
BRANCH   8  21
ATOM     21  N   UNL A   1      30.084  23.563  27.140  1.00  0.00    -0.399 N 
ATOM     22  H   UNL A   1      29.388  22.913  26.890  1.00  0.00     0.156 HD
ATOM     23  H   UNL A   1      30.127  23.907  28.061  1.00  0.00     0.156 HD
ENDBRANCH   8  21
ENDBRANCH   1   3
BRANCH   1  24
ATOM     24  O   UNL A   1      34.686  22.436  25.820  1.00  0.00    -0.458 OA
BRANCH  24  25
ATOM     25  C   UNL A   1      35.154  21.662  24.695  1.00  0.00     0.275 C 
BRANCH  25  26
ATOM     26  C   UNL A   1      36.382  20.818  25.046  1.00  0.00     0.275 C 
BRANCH  26  27
ATOM     27  O   UNL A   1      37.608  21.550  24.848  1.00  0.00    -0.458 OA
BRANCH  27  28
ATOM     28  C   UNL A   1      38.627  21.163  25.640  1.00  0.00     0.338 C 
ATOM     29  O   UNL A   1      39.162  20.061  25.679  1.00  0.00    -0.246 OA
BRANCH  28  30
ATOM     30  C   UNL A   1      39.143  22.284  26.436  1.00  0.00     0.060 A 
ATOM     31  C   UNL A   1      38.635  23.543  26.160  1.00  0.00     0.016 A 
ATOM     32  C   UNL A   1      40.290  22.158  27.215  1.00  0.00     0.016 A 
ATOM     33  C   UNL A   1      39.371  24.678  26.468  1.00  0.00     0.010 A 
ATOM     34  C   UNL A   1      40.932  23.315  27.686  1.00  0.00     0.010 A 
ATOM     35  C   UNL A   1      40.517  24.593  27.266  1.00  0.00    -0.014 A 
BRANCH  35  36
ATOM     36  C   UNL A   1      41.259  25.841  27.625  1.00  0.00     0.031 A 
ATOM     37  C   UNL A   1      40.635  26.890  28.513  1.00  0.00     0.074 A 
ATOM     38  C   UNL A   1      42.527  26.019  27.194  1.00  0.00     0.049 A 
ATOM     39  N   UNL A   1      41.079  28.086  28.821  1.00  0.00    -0.248 NA
ATOM     40  C   UNL A   1      39.336  26.566  29.126  1.00  0.00     0.031 C 
ATOM     41  C   UNL A   1      43.282  25.080  26.358  1.00  0.00     0.029 A 
ATOM     42  N   UNL A   1      43.421  27.040  27.414  1.00  0.00    -0.354 N 
ATOM     43  C   UNL A   1      40.087  28.676  29.597  1.00  0.00     0.074 A 
ATOM     44  C   UNL A   1      39.017  27.710  29.716  1.00  0.00     0.031 C 
ATOM     45  C   UNL A   1      44.536  25.525  26.206  1.00  0.00     0.029 A 
ATOM     46  C   UNL A   1      44.644  26.840  26.818  1.00  0.00     0.049 A 
ATOM     47  H   UNL A   1      43.205  27.839  27.949  1.00  0.00     0.167 HD
ATOM     48  C   UNL A   1      40.072  29.911  30.158  1.00  0.00     0.037 A 
ATOM     49  C   UNL A   1      45.722  27.639  26.723  1.00  0.00     0.037 A 
ATOM     50  C   UNL A   1      41.165  30.848  30.090  1.00  0.00     0.049 A 
ATOM     51  C   UNL A   1      45.665  29.011  27.325  1.00  0.00     0.074 A 
ATOM     52  C   UNL A   1      41.254  32.112  30.651  1.00  0.00     0.029 A 
ATOM     53  N   UNL A   1      42.365  30.621  29.434  1.00  0.00    -0.354 N 
ATOM     54  N   UNL A   1      44.703  29.571  28.017  1.00  0.00    -0.248 NA
ATOM     55  C   UNL A   1      46.836  29.871  27.113  1.00  0.00     0.031 C 
ATOM     56  C   UNL A   1      42.487  32.666  30.294  1.00  0.00     0.029 A 
ATOM     57  C   UNL A   1      43.191  31.727  29.558  1.00  0.00     0.049 A 
ATOM     58  H   UNL A   1      42.596  29.795  28.951  1.00  0.00     0.167 HD
ATOM     59  C   UNL A   1      45.155  30.844  28.332  1.00  0.00     0.074 A 
ATOM     60  C   UNL A   1      46.491  30.960  27.785  1.00  0.00     0.031 C 
ATOM     61  C   UNL A   1      44.518  31.832  29.007  1.00  0.00     0.037 A 
BRANCH  48  62
ATOM     62  C   UNL A   1      38.816  30.344  30.864  1.00  0.00     0.057 A 
ATOM     63  C   UNL A   1      38.612  30.137  32.234  1.00  0.00     0.134 A 
ATOM     64  C   UNL A   1      37.813  31.028  30.162  1.00  0.00     0.134 A 
ATOM     65  F   UNL A   1      39.524  29.480  32.966  1.00  0.00    -0.206 F 
ATOM     66  C   UNL A   1      37.447  30.571  32.874  1.00  0.00     0.040 A 
ATOM     67  C   UNL A   1      36.659  31.492  30.795  1.00  0.00     0.040 A 
ATOM     68  F   UNL A   1      37.945  31.269  28.849  1.00  0.00    -0.206 F 
ATOM     69  C   UNL A   1      36.470  31.258  32.155  1.00  0.00     0.006 A 
ENDBRANCH  48  62
BRANCH  49  70
ATOM     70  C   UNL A   1      46.928  27.184  25.980  1.00  0.00     0.057 A 
ATOM     71  C   UNL A   1      47.065  27.420  24.608  1.00  0.00     0.134 A 
ATOM     72  C   UNL A   1      47.965  26.493  26.621  1.00  0.00     0.134 A 
ATOM     73  F   UNL A   1      46.095  28.054  23.932  1.00  0.00    -0.206 F 
ATOM     74  C   UNL A   1      48.180  26.976  23.897  1.00  0.00     0.040 A 
ATOM     75  C   UNL A   1      49.103  26.075  25.930  1.00  0.00     0.040 A 
ATOM     76  F   UNL A   1      47.897  26.236  27.935  1.00  0.00    -0.206 F 
ATOM     77  C   UNL A   1      49.209  26.308  24.562  1.00  0.00     0.006 A 
ENDBRANCH  49  70
BRANCH  61  78
ATOM     78  C   UNL A   1      45.283  33.105  29.218  1.00  0.00     0.057 A 
ATOM     79  C   UNL A   1      45.201  34.176  28.318  1.00  0.00     0.134 A 
ATOM     80  C   UNL A   1      46.122  33.257  30.329  1.00  0.00     0.134 A 
ATOM     81  F   UNL A   1      44.429  34.088  27.224  1.00  0.00    -0.206 F 
ATOM     82  C   UNL A   1      45.956  35.336  28.496  1.00  0.00     0.040 A 
ATOM     83  C   UNL A   1      46.858  34.424  30.534  1.00  0.00     0.040 A 
ATOM     84  F   UNL A   1      46.240  32.272  31.233  1.00  0.00    -0.206 F 
ATOM     85  C   UNL A   1      46.784  35.463  29.610  1.00  0.00     0.006 A 
ENDBRANCH  61  78
ENDBRANCH  35  36
ENDBRANCH  28  30
ENDBRANCH  27  28
ENDBRANCH  26  27
ENDBRANCH  25  26
ENDBRANCH  24  25
ENDBRANCH   1  24
TORSDOF 18
ENDMDL
MODEL 2
REMARK VINA RESULT:     -10.5      3.941      8.854
REMARK SMILES CC(C)CCNC(=O)[C@@H](C)Oc1ccc(N)cc1C(=O)OCCOC(=O)c1ccc(-c2c3nc(c(-c4c(F)cccc4F)c4ccc([nH]4)c(-c4c(F)cccc4F)c4nc(c(-c5c(F)cccc5F)c5ccc2[nH]5)C=C4)C=C3)cc1
REMARK SMILES IDX 19 1 20 2 18 3 12 4 13 5 14 6 17 7 15 8 11 9 9 10 10 11 7 12
REMARK SMILES IDX 6 13 8 15 5 16 4 17 2 18 1 19 3 20 16 21 21 24 22 25 23 26
REMARK SMILES IDX 24 27 25 28 26 29 27 30 28 31 80 32 29 33 79 34 30 35 31 36
REMARK SMILES IDX 32 37 73 38 33 39 78 40 72 41 74 42 34 43 77 44 71 45 70 46
REMARK SMILES IDX 35 48 61 49 44 50 60 51 45 52 48 53 59 54 75 55 46 56 47 57
REMARK SMILES IDX 58 59 76 60 49 61 36 62 37 63 42 64 38 65 39 66 41 67 43 68
REMARK SMILES IDX 40 69 62 70 63 71 68 72 64 73 65 74 67 75 69 76 66 77 50 78
REMARK SMILES IDX 51 79 56 80 52 81 53 82 55 83 57 84 54 85
REMARK H PARENT 6 14 16 22 16 23 74 47 48 58
REMARK Flexibility Score: inf
ROOT
ATOM      1  C   UNL A   1      32.088  27.477  25.824  1.00  0.00     0.342 C 
ATOM      2  O   UNL A   1      33.271  27.181  25.843  1.00  0.00    -0.246 OA
ENDROOT
BRANCH   1   3
ATOM      3  C   UNL A   1      31.332  27.453  24.552  1.00  0.00     0.104 A 
ATOM      4  C   UNL A   1      30.158  26.724  24.419  1.00  0.00     0.135 A 
ATOM      5  C   UNL A   1      29.161  27.202  23.567  1.00  0.00     0.049 A 
ATOM      6  C   UNL A   1      29.426  28.275  22.701  1.00  0.00     0.029 A 
ATOM      7  C   UNL A   1      31.630  28.430  23.594  1.00  0.00     0.045 A 
ATOM      8  C   UNL A   1      30.700  28.830  22.640  1.00  0.00     0.032 A 
BRANCH   4   9
ATOM      9  O   UNL A   1      29.946  25.583  25.130  1.00  0.00    -0.480 OA
BRANCH   9  10
ATOM     10  C   UNL A   1      31.009  24.620  25.008  1.00  0.00     0.258 C 
ATOM     11  C   UNL A   1      30.804  23.586  23.895  1.00  0.00     0.064 C 
BRANCH  10  12
ATOM     12  C   UNL A   1      31.715  24.040  26.273  1.00  0.00     0.260 C 
ATOM     13  N   UNL A   1      33.067  23.894  26.395  1.00  0.00    -0.353 N 
ATOM     14  H   UNL A   1      33.389  23.772  27.317  1.00  0.00     0.163 HD
ATOM     15  O   UNL A   1      31.038  23.696  27.251  1.00  0.00    -0.271 OA
BRANCH  13  16
ATOM     16  C   UNL A   1      34.103  23.889  25.382  1.00  0.00     0.116 C 
BRANCH  16  17
ATOM     17  C   UNL A   1      34.421  22.514  24.808  1.00  0.00     0.024 C 
BRANCH  17  18
ATOM     18  C   UNL A   1      35.918  22.134  24.817  1.00  0.00    -0.016 C 
ATOM     19  C   UNL A   1      36.159  20.630  25.001  1.00  0.00     0.007 C 
ATOM     20  C   UNL A   1      36.556  22.587  23.501  1.00  0.00     0.007 C 
ENDBRANCH  17  18
ENDBRANCH  16  17
ENDBRANCH  13  16
ENDBRANCH  10  12
ENDBRANCH   9  10
ENDBRANCH   4   9
BRANCH   8  21
ATOM     21  N   UNL A   1      31.028  29.797  21.712  1.00  0.00    -0.399 N 
ATOM     22  H   UNL A   1      30.725  30.725  21.841  1.00  0.00     0.156 HD
ATOM     23  H   UNL A   1      31.564  29.560  20.922  1.00  0.00     0.156 HD
ENDBRANCH   8  21
ENDBRANCH   1   3
BRANCH   1  24
ATOM     24  O   UNL A   1      31.348  27.835  26.898  1.00  0.00    -0.458 OA
BRANCH  24  25
ATOM     25  C   UNL A   1      31.848  28.977  27.626  1.00  0.00     0.275 C 
BRANCH  25  26
ATOM     26  C   UNL A   1      31.778  30.264  26.801  1.00  0.00     0.275 C 
BRANCH  26  27
ATOM     27  O   UNL A   1      33.090  30.728  26.421  1.00  0.00    -0.458 OA
BRANCH  27  28
ATOM     28  C   UNL A   1      33.609  31.670  27.233  1.00  0.00     0.338 C 
ATOM     29  O   UNL A   1      33.044  32.662  27.678  1.00  0.00    -0.246 OA
BRANCH  28  30
ATOM     30  C   UNL A   1      34.975  31.325  27.649  1.00  0.00     0.060 A 
ATOM     31  C   UNL A   1      35.224  29.999  27.965  1.00  0.00     0.016 A 
ATOM     32  C   UNL A   1      35.898  32.304  28.001  1.00  0.00     0.016 A 
ATOM     33  C   UNL A   1      36.272  29.667  28.812  1.00  0.00     0.010 A 
ATOM     34  C   UNL A   1      37.059  31.935  28.700  1.00  0.00     0.010 A 
ATOM     35  C   UNL A   1      37.232  30.620  29.171  1.00  0.00    -0.014 A 
BRANCH  35  36
ATOM     36  C   UNL A   1      38.380  30.218  30.041  1.00  0.00     0.031 A 
ATOM     37  C   UNL A   1      39.490  29.343  29.512  1.00  0.00     0.074 A 
ATOM     38  C   UNL A   1      38.459  30.680  31.309  1.00  0.00     0.049 A 
ATOM     39  N   UNL A   1      40.490  28.792  30.158  1.00  0.00    -0.248 NA
ATOM     40  C   UNL A   1      39.471  29.030  28.073  1.00  0.00     0.031 C 
ATOM     41  C   UNL A   1      37.483  31.563  31.955  1.00  0.00     0.029 A 
ATOM     42  N   UNL A   1      39.414  30.493  32.280  1.00  0.00    -0.354 N 
ATOM     43  C   UNL A   1      41.171  28.017  29.224  1.00  0.00     0.074 A 
ATOM     44  C   UNL A   1      40.472  28.166  27.967  1.00  0.00     0.031 C 
ATOM     45  C   UNL A   1      37.925  31.904  33.172  1.00  0.00     0.029 A 
ATOM     46  C   UNL A   1      39.147  31.164  33.450  1.00  0.00     0.049 A 
ATOM     47  H   UNL A   1      40.213  29.933  32.149  1.00  0.00     0.167 HD
ATOM     48  C   UNL A   1      42.276  27.251  29.402  1.00  0.00     0.037 A 
ATOM     49  C   UNL A   1      39.778  31.153  34.639  1.00  0.00     0.037 A 
ATOM     50  C   UNL A   1      43.006  27.153  30.641  1.00  0.00     0.049 A 
ATOM     51  C   UNL A   1      40.978  30.272  34.816  1.00  0.00     0.074 A 
ATOM     52  C   UNL A   1      44.153  26.425  30.911  1.00  0.00     0.029 A 
ATOM     53  N   UNL A   1      42.670  27.812  31.814  1.00  0.00    -0.354 N 
ATOM     54  N   UNL A   1      41.581  29.511  33.936  1.00  0.00    -0.248 NA
ATOM     55  C   UNL A   1      41.572  30.232  36.158  1.00  0.00     0.031 C 
ATOM     56  C   UNL A   1      44.483  26.606  32.258  1.00  0.00     0.029 A 
ATOM     57  C   UNL A   1      43.575  27.492  32.814  1.00  0.00     0.049 A 
ATOM     58  H   UNL A   1      41.902  28.418  31.920  1.00  0.00     0.167 HD
ATOM     59  C   UNL A   1      42.631  28.909  34.614  1.00  0.00     0.074 A 
ATOM     60  C   UNL A   1      42.602  29.421  35.969  1.00  0.00     0.031 C 
ATOM     61  C   UNL A   1      43.534  28.006  34.159  1.00  0.00     0.037 A 
BRANCH  48  62
ATOM     62  C   UNL A   1      42.746  26.419  28.240  1.00  0.00     0.057 A 
ATOM     63  C   UNL A   1      42.212  25.158  27.951  1.00  0.00     0.134 A 
ATOM     64  C   UNL A   1      43.722  26.918  27.366  1.00  0.00     0.134 A 
ATOM     65  F   UNL A   1      41.283  24.613  28.751  1.00  0.00    -0.206 F 
ATOM     66  C   UNL A   1      42.648  24.414  26.850  1.00  0.00     0.040 A 
ATOM     67  C   UNL A   1      44.145  26.198  26.248  1.00  0.00     0.040 A 
ATOM     68  F   UNL A   1      44.272  28.124  27.576  1.00  0.00    -0.206 F 
ATOM     69  C   UNL A   1      43.612  24.937  25.991  1.00  0.00     0.006 A 
ENDBRANCH  48  62
BRANCH  49  70
ATOM     70  C   UNL A   1      39.252  31.960  35.772  1.00  0.00     0.057 A 
ATOM     71  C   UNL A   1      39.716  33.259  36.013  1.00  0.00     0.134 A 
ATOM     72  C   UNL A   1      38.283  31.451  36.646  1.00  0.00     0.134 A 
ATOM     73  F   UNL A   1      40.662  33.794  35.228  1.00  0.00    -0.206 F 
ATOM     74  C   UNL A   1      39.247  34.015  37.087  1.00  0.00     0.040 A 
ATOM     75  C   UNL A   1      37.778  32.209  37.702  1.00  0.00     0.040 A 
ATOM     76  F   UNL A   1      37.794  30.214  36.470  1.00  0.00    -0.206 F 
ATOM     77  C   UNL A   1      38.267  33.493  37.932  1.00  0.00     0.006 A 
ENDBRANCH  49  70
BRANCH  61  78
ATOM     78  C   UNL A   1      44.582  27.552  35.132  1.00  0.00     0.057 A 
ATOM     79  C   UNL A   1      45.796  28.236  35.287  1.00  0.00     0.134 A 
ATOM     80  C   UNL A   1      44.379  26.410  35.917  1.00  0.00     0.134 A 
ATOM     81  F   UNL A   1      46.060  29.327  34.553  1.00  0.00    -0.206 F 
ATOM     82  C   UNL A   1      46.784  27.777  36.158  1.00  0.00     0.040 A 
ATOM     83  C   UNL A   1      45.347  25.960  36.814  1.00  0.00     0.040 A 
ATOM     84  F   UNL A   1      43.236  25.714  35.824  1.00  0.00    -0.206 F 
ATOM     85  C   UNL A   1      46.559  26.638  36.928  1.00  0.00     0.006 A 
ENDBRANCH  61  78
ENDBRANCH  35  36
ENDBRANCH  28  30
ENDBRANCH  27  28
ENDBRANCH  26  27
ENDBRANCH  25  26
ENDBRANCH  24  25
ENDBRANCH   1  24
TORSDOF 18
ENDMDL
MODEL 3
REMARK VINA RESULT:     -10.5      1.517      2.711
REMARK SMILES CC(C)CCNC(=O)[C@@H](C)Oc1ccc(N)cc1C(=O)OCCOC(=O)c1ccc(-c2c3nc(c(-c4c(F)cccc4F)c4ccc([nH]4)c(-c4c(F)cccc4F)c4nc(c(-c5c(F)cccc5F)c5ccc2[nH]5)C=C4)C=C3)cc1
REMARK SMILES IDX 19 1 20 2 18 3 12 4 13 5 14 6 17 7 15 8 11 9 9 10 10 11 7 12
REMARK SMILES IDX 6 13 8 15 5 16 4 17 2 18 1 19 3 20 16 21 21 24 22 25 23 26
REMARK SMILES IDX 24 27 25 28 26 29 27 30 28 31 80 32 29 33 79 34 30 35 31 36
REMARK SMILES IDX 32 37 73 38 33 39 78 40 72 41 74 42 34 43 77 44 71 45 70 46
REMARK SMILES IDX 35 48 61 49 44 50 60 51 45 52 48 53 59 54 75 55 46 56 47 57
REMARK SMILES IDX 58 59 76 60 49 61 36 62 37 63 42 64 38 65 39 66 41 67 43 68
REMARK SMILES IDX 40 69 62 70 63 71 68 72 64 73 65 74 67 75 69 76 66 77 50 78
REMARK SMILES IDX 51 79 56 80 52 81 53 82 55 83 57 84 54 85
REMARK H PARENT 6 14 16 22 16 23 74 47 48 58
REMARK Flexibility Score: inf
ROOT
ATOM      1  C   UNL A   1      34.332  21.194  26.282  1.00  0.00     0.342 C 
ATOM      2  O   UNL A   1      34.080  21.440  27.449  1.00  0.00    -0.246 OA
ENDROOT
BRANCH   1   3
ATOM      3  C   UNL A   1      33.268  20.711  25.374  1.00  0.00     0.104 A 
ATOM      4  C   UNL A   1      32.755  21.515  24.365  1.00  0.00     0.135 A 
ATOM      5  C   UNL A   1      32.321  20.917  23.181  1.00  0.00     0.049 A 
ATOM      6  C   UNL A   1      32.204  19.521  23.097  1.00  0.00     0.029 A 
ATOM      7  C   UNL A   1      33.021  19.333  25.327  1.00  0.00     0.045 A 
ATOM      8  C   UNL A   1      32.458  18.726  24.210  1.00  0.00     0.032 A 
BRANCH   4   9
ATOM      9  O   UNL A   1      32.704  22.869  24.493  1.00  0.00    -0.480 OA
BRANCH   9  10
ATOM     10  C   UNL A   1      31.423  23.362  24.921  1.00  0.00     0.258 C 
ATOM     11  C   UNL A   1      30.695  24.226  23.884  1.00  0.00     0.064 C 
BRANCH  10  12
ATOM     12  C   UNL A   1      31.195  23.834  26.392  1.00  0.00     0.260 C 
ATOM     13  N   UNL A   1      31.399  25.112  26.825  1.00  0.00    -0.353 N 
ATOM     14  H   UNL A   1      30.974  25.331  27.686  1.00  0.00     0.163 HD
ATOM     15  O   UNL A   1      30.789  23.028  27.240  1.00  0.00    -0.271 OA
BRANCH  13  16
ATOM     16  C   UNL A   1      32.144  26.198  26.220  1.00  0.00     0.116 C 
BRANCH  16  17
ATOM     17  C   UNL A   1      31.535  27.579  26.427  1.00  0.00     0.024 C 
BRANCH  17  18
ATOM     18  C   UNL A   1      31.821  28.594  25.300  1.00  0.00    -0.016 C 
ATOM     19  C   UNL A   1      30.810  28.523  24.149  1.00  0.00     0.007 C 
ATOM     20  C   UNL A   1      31.812  30.008  25.889  1.00  0.00     0.007 C 
ENDBRANCH  17  18
ENDBRANCH  16  17
ENDBRANCH  13  16
ENDBRANCH  10  12
ENDBRANCH   9  10
ENDBRANCH   4   9
BRANCH   8  21
ATOM     21  N   UNL A   1      32.231  17.365  24.199  1.00  0.00    -0.399 N 
ATOM     22  H   UNL A   1      31.536  16.977  24.779  1.00  0.00     0.156 HD
ATOM     23  H   UNL A   1      32.762  16.782  23.611  1.00  0.00     0.156 HD
ENDBRANCH   8  21
ENDBRANCH   1   3
BRANCH   1  24
ATOM     24  O   UNL A   1      35.541  21.330  25.691  1.00  0.00    -0.458 OA
BRANCH  24  25
ATOM     25  C   UNL A   1      35.983  20.179  24.940  1.00  0.00     0.275 C 
BRANCH  25  26
ATOM     26  C   UNL A   1      37.508  20.077  24.883  1.00  0.00     0.275 C 
BRANCH  26  27
ATOM     27  O   UNL A   1      38.143  21.275  25.374  1.00  0.00    -0.458 OA
BRANCH  27  28
ATOM     28  C   UNL A   1      39.287  21.066  26.054  1.00  0.00     0.338 C 
ATOM     29  O   UNL A   1      39.991  20.063  26.035  1.00  0.00    -0.246 OA
BRANCH  28  30
ATOM     30  C   UNL A   1      39.699  22.266  26.793  1.00  0.00     0.060 A 
ATOM     31  C   UNL A   1      39.138  23.472  26.404  1.00  0.00     0.016 A 
ATOM     32  C   UNL A   1      40.808  22.260  27.634  1.00  0.00     0.016 A 
ATOM     33  C   UNL A   1      39.794  24.666  26.666  1.00  0.00     0.010 A 
ATOM     34  C   UNL A   1      41.360  23.481  28.053  1.00  0.00     0.010 A 
ATOM     35  C   UNL A   1      40.899  24.702  27.524  1.00  0.00    -0.014 A 
BRANCH  35  36
ATOM     36  C   UNL A   1      41.552  26.013  27.830  1.00  0.00     0.031 A 
ATOM     37  C   UNL A   1      40.849  27.058  28.662  1.00  0.00     0.074 A 
ATOM     38  C   UNL A   1      42.811  26.255  27.402  1.00  0.00     0.049 A 
ATOM     39  N   UNL A   1      41.208  28.294  28.916  1.00  0.00    -0.248 NA
ATOM     40  C   UNL A   1      39.567  26.676  29.277  1.00  0.00     0.031 C 
ATOM     41  C   UNL A   1      43.636  25.331  26.619  1.00  0.00     0.029 A 
ATOM     42  N   UNL A   1      43.632  27.343  27.582  1.00  0.00    -0.354 N 
ATOM     43  C   UNL A   1      40.170  28.852  29.654  1.00  0.00     0.074 A 
ATOM     44  C   UNL A   1      39.166  27.823  29.809  1.00  0.00     0.031 C 
ATOM     45  C   UNL A   1      44.859  25.850  26.457  1.00  0.00     0.029 A 
ATOM     46  C   UNL A   1      44.872  27.198  27.007  1.00  0.00     0.049 A 
ATOM     47  H   UNL A   1      43.357  28.149  28.075  1.00  0.00     0.167 HD
ATOM     48  C   UNL A   1      40.066  30.108  30.156  1.00  0.00     0.037 A 
ATOM     49  C   UNL A   1      45.896  28.062  26.884  1.00  0.00     0.037 A 
ATOM     50  C   UNL A   1      41.095  31.112  30.053  1.00  0.00     0.049 A 
ATOM     51  C   UNL A   1      45.740  29.453  27.419  1.00  0.00     0.074 A 
ATOM     52  C   UNL A   1      41.092  32.404  30.554  1.00  0.00     0.029 A 
ATOM     53  N   UNL A   1      42.315  30.935  29.420  1.00  0.00    -0.354 N 
ATOM     54  N   UNL A   1      44.735  29.979  28.074  1.00  0.00    -0.248 NA
ATOM     55  C   UNL A   1      46.854  30.379  27.177  1.00  0.00     0.031 C 
ATOM     56  C   UNL A   1      42.291  33.022  30.181  1.00  0.00     0.029 A 
ATOM     57  C   UNL A   1      43.065  32.099  29.498  1.00  0.00     0.049 A 
ATOM     58  H   UNL A   1      42.607  30.105  28.978  1.00  0.00     0.167 HD
ATOM     59  C   UNL A   1      45.098  31.293  28.333  1.00  0.00     0.074 A 
ATOM     60  C   UNL A   1      46.429  31.473  27.793  1.00  0.00     0.031 C 
ATOM     61  C   UNL A   1      44.388  32.266  28.955  1.00  0.00     0.037 A 
BRANCH  48  62
ATOM     62  C   UNL A   1      38.775  30.489  30.829  1.00  0.00     0.057 A 
ATOM     63  C   UNL A   1      38.562  30.316  32.202  1.00  0.00     0.134 A 
ATOM     64  C   UNL A   1      37.745  31.087  30.090  1.00  0.00     0.134 A 
ATOM     65  F   UNL A   1      39.500  29.740  32.969  1.00  0.00    -0.206 F 
ATOM     66  C   UNL A   1      37.364  30.701  32.810  1.00  0.00     0.040 A 
ATOM     67  C   UNL A   1      36.555  31.502  30.691  1.00  0.00     0.040 A 
ATOM     68  F   UNL A   1      37.883  31.292  28.771  1.00  0.00    -0.206 F 
ATOM     69  C   UNL A   1      36.359  31.303  32.055  1.00  0.00     0.006 A 
ENDBRANCH  48  62
BRANCH  49  70
ATOM     70  C   UNL A   1      47.138  27.654  26.174  1.00  0.00     0.057 A 
ATOM     71  C   UNL A   1      48.259  27.200  26.879  1.00  0.00     0.134 A 
ATOM     72  C   UNL A   1      47.238  27.717  24.778  1.00  0.00     0.134 A 
ATOM     73  F   UNL A   1      48.236  27.140  28.218  1.00  0.00    -0.206 F 
ATOM     74  C   UNL A   1      49.437  26.837  26.224  1.00  0.00     0.040 A 
ATOM     75  C   UNL A   1      48.396  27.323  24.108  1.00  0.00     0.040 A 
ATOM     76  F   UNL A   1      46.199  28.141  24.043  1.00  0.00    -0.206 F 
ATOM     77  C   UNL A   1      49.504  26.890  24.831  1.00  0.00     0.006 A 
ENDBRANCH  49  70
BRANCH  61  78
ATOM     78  C   UNL A   1      45.064  33.596  29.111  1.00  0.00     0.057 A 
ATOM     79  C   UNL A   1      45.849  33.901  30.232  1.00  0.00     0.134 A 
ATOM     80  C   UNL A   1      44.921  34.589  28.134  1.00  0.00     0.134 A 
ATOM     81  F   UNL A   1      46.012  33.001  31.213  1.00  0.00    -0.206 F 
ATOM     82  C   UNL A   1      46.432  35.159  30.392  1.00  0.00     0.040 A 
ATOM     83  C   UNL A   1      45.525  35.839  28.268  1.00  0.00     0.040 A 
ATOM     84  F   UNL A   1      44.189  34.359  27.032  1.00  0.00    -0.206 F 
ATOM     85  C   UNL A   1      46.274  36.130  29.406  1.00  0.00     0.006 A 
ENDBRANCH  61  78
ENDBRANCH  35  36
ENDBRANCH  28  30
ENDBRANCH  27  28
ENDBRANCH  26  27
ENDBRANCH  25  26
ENDBRANCH  24  25
ENDBRANCH   1  24
TORSDOF 18
ENDMDL
