MODEL 1
REMARK VINA RESULT:     -11.9      0.000      0.000
REMARK SMILES O=C(OCCOC(=O)C1CCN(S(=O)(=O)c2ccc3nc(O)sc3c2)CC1)c1ccc(-c2c3nc(c(-c4c(F)cccc4F)c4ccc([nH]4)c(-c4c(F)cccc4F)c4nc(c(-c5c(F)cccc5F)c5ccc2[nH]5)C=C4)C=C3)cc1
REMARK SMILES IDX 5 1 4 2 3 3 2 4 1 5 28 6 29 7 81 8 30 9 80 10 31 11 32 12
REMARK SMILES IDX 33 13 74 14 34 15 79 16 73 17 75 18 35 19 78 20 72 21 71 22
REMARK SMILES IDX 36 24 62 25 45 26 61 27 46 28 49 29 60 30 76 31 47 32 48 33
REMARK SMILES IDX 59 35 77 36 50 37 37 38 38 39 43 40 39 41 40 42 42 43 44 44
REMARK SMILES IDX 41 45 63 46 64 47 69 48 65 49 66 50 68 51 70 52 67 53 51 54
REMARK SMILES IDX 52 55 57 56 53 57 54 58 56 59 58 60 55 61 6 62 7 63 8 64
REMARK SMILES IDX 9 65 10 66 27 67 11 68 26 69 12 70 13 71 14 72 15 73 16 74
REMARK SMILES IDX 17 75 25 76 18 77 24 78 19 79 23 80 20 81 21 82 22 83
REMARK H PARENT 75 23 49 34 22 84
REMARK Flexibility Score: inf
ROOT
ATOM      1  C   UNL A   1      37.961  21.562  25.798  1.00  0.00     0.274 C 
ENDROOT
BRANCH   1   2
ATOM      2  C   UNL A   1      39.259  22.339  26.068  1.00  0.00     0.275 C 
BRANCH   2   3
ATOM      3  O   UNL A   1      39.749  21.997  27.383  1.00  0.00    -0.458 OA
BRANCH   3   4
ATOM      4  C   UNL A   1      40.803  21.142  27.397  1.00  0.00     0.338 C 
ATOM      5  O   UNL A   1      40.816  20.022  27.884  1.00  0.00    -0.246 OA
BRANCH   4   6
ATOM      6  C   UNL A   1      42.054  21.870  27.030  1.00  0.00     0.060 A 
ATOM      7  C   UNL A   1      42.490  22.925  27.851  1.00  0.00     0.016 A 
ATOM      8  C   UNL A   1      42.493  21.804  25.700  1.00  0.00     0.016 A 
ATOM      9  C   UNL A   1      43.253  23.969  27.301  1.00  0.00     0.010 A 
ATOM     10  C   UNL A   1      43.171  22.884  25.140  1.00  0.00     0.010 A 
ATOM     11  C   UNL A   1      43.544  23.990  25.925  1.00  0.00    -0.014 A 
BRANCH  11  12
ATOM     12  C   UNL A   1      44.484  25.035  25.415  1.00  0.00     0.031 A 
ATOM     13  C   UNL A   1      43.927  26.330  25.964  1.00  0.00     0.074 A 
ATOM     14  C   UNL A   1      45.839  24.992  25.402  1.00  0.00     0.049 A 
ATOM     15  N   UNL A   1      44.157  26.756  27.173  1.00  0.00    -0.248 NA
ATOM     16  C   UNL A   1      42.714  26.882  25.353  1.00  0.00     0.031 C 
ATOM     17  C   UNL A   1      46.717  24.491  26.462  1.00  0.00     0.029 A 
ATOM     18  N   UNL A   1      46.710  25.637  24.529  1.00  0.00    -0.354 N 
ATOM     19  C   UNL A   1      43.055  27.510  27.538  1.00  0.00     0.074 A 
ATOM     20  C   UNL A   1      42.195  27.571  26.378  1.00  0.00     0.031 C 
ATOM     21  C   UNL A   1      47.958  24.984  26.266  1.00  0.00     0.029 A 
ATOM     22  C   UNL A   1      47.998  25.790  25.038  1.00  0.00     0.049 A 
ATOM     23  H   UNL A   1      46.441  25.957  23.638  1.00  0.00     0.167 HD
ATOM     24  C   UNL A   1      42.871  28.000  28.790  1.00  0.00     0.037 A 
ATOM     25  C   UNL A   1      48.764  26.913  24.887  1.00  0.00     0.037 A 
ATOM     26  C   UNL A   1      43.924  27.767  29.732  1.00  0.00     0.049 A 
ATOM     27  C   UNL A   1      48.306  27.780  26.026  1.00  0.00     0.074 A 
ATOM     28  C   UNL A   1      44.150  27.026  30.871  1.00  0.00     0.029 A 
ATOM     29  N   UNL A   1      45.079  28.487  29.550  1.00  0.00    -0.354 N 
ATOM     30  N   UNL A   1      48.700  27.704  27.268  1.00  0.00    -0.248 NA
ATOM     31  C   UNL A   1      47.060  28.520  25.824  1.00  0.00     0.031 C 
ATOM     32  C   UNL A   1      45.572  27.011  31.043  1.00  0.00     0.029 A 
ATOM     33  C   UNL A   1      46.127  27.721  29.980  1.00  0.00     0.049 A 
ATOM     34  H   UNL A   1      45.142  29.395  29.176  1.00  0.00     0.167 HD
ATOM     35  C   UNL A   1      47.591  28.103  28.023  1.00  0.00     0.074 A 
ATOM     36  C   UNL A   1      46.649  28.661  27.076  1.00  0.00     0.031 C 
ATOM     37  C   UNL A   1      47.415  27.747  29.330  1.00  0.00     0.037 A 
BRANCH  24  38
ATOM     38  C   UNL A   1      41.800  28.947  29.131  1.00  0.00     0.057 A 
ATOM     39  C   UNL A   1      40.555  28.575  29.635  1.00  0.00     0.134 A 
ATOM     40  C   UNL A   1      42.133  30.307  29.118  1.00  0.00     0.134 A 
ATOM     41  F   UNL A   1      40.185  27.286  29.667  1.00  0.00    -0.206 F 
ATOM     42  C   UNL A   1      39.685  29.535  30.156  1.00  0.00     0.040 A 
ATOM     43  C   UNL A   1      41.284  31.269  29.648  1.00  0.00     0.040 A 
ATOM     44  F   UNL A   1      43.321  30.704  28.631  1.00  0.00    -0.206 F 
ATOM     45  C   UNL A   1      40.059  30.882  30.181  1.00  0.00     0.006 A 
ENDBRANCH  24  38
BRANCH  25  46
ATOM     46  C   UNL A   1      49.074  27.431  23.524  1.00  0.00     0.057 A 
ATOM     47  C   UNL A   1      48.170  27.936  22.578  1.00  0.00     0.134 A 
ATOM     48  C   UNL A   1      50.426  27.457  23.138  1.00  0.00     0.134 A 
ATOM     49  F   UNL A   1      46.871  28.097  22.856  1.00  0.00    -0.206 F 
ATOM     50  C   UNL A   1      48.565  28.308  21.286  1.00  0.00     0.040 A 
ATOM     51  C   UNL A   1      50.841  27.856  21.862  1.00  0.00     0.040 A 
ATOM     52  F   UNL A   1      51.382  27.108  24.013  1.00  0.00    -0.206 F 
ATOM     53  C   UNL A   1      49.903  28.252  20.917  1.00  0.00     0.006 A 
ENDBRANCH  25  46
BRANCH  37  54
ATOM     54  C   UNL A   1      48.602  27.125  29.978  1.00  0.00     0.057 A 
ATOM     55  C   UNL A   1      49.614  27.885  30.576  1.00  0.00     0.134 A 
ATOM     56  C   UNL A   1      48.738  25.733  30.001  1.00  0.00     0.134 A 
ATOM     57  F   UNL A   1      49.541  29.226  30.620  1.00  0.00    -0.206 F 
ATOM     58  C   UNL A   1      50.738  27.282  31.144  1.00  0.00     0.040 A 
ATOM     59  C   UNL A   1      49.841  25.118  30.592  1.00  0.00     0.040 A 
ATOM     60  F   UNL A   1      47.805  24.948  29.437  1.00  0.00    -0.206 F 
ATOM     61  C   UNL A   1      50.851  25.894  31.156  1.00  0.00     0.006 A 
ENDBRANCH  37  54
ENDBRANCH  11  12
ENDBRANCH   4   6
ENDBRANCH   3   4
ENDBRANCH   2   3
ENDBRANCH   1   2
BRANCH   1  62
ATOM     62  O   UNL A   1      37.656  21.562  24.386  1.00  0.00    -0.462 OA
BRANCH  62  63
ATOM     63  C   UNL A   1      36.698  22.384  23.887  1.00  0.00     0.309 C 
ATOM     64  O   UNL A   1      36.812  23.058  22.875  1.00  0.00    -0.252 OA
BRANCH  63  65
ATOM     65  C   UNL A   1      35.512  22.445  24.853  1.00  0.00     0.102 C 
ATOM     66  C   UNL A   1      34.194  22.034  24.240  1.00  0.00     0.032 C 
ATOM     67  C   UNL A   1      35.269  23.794  25.478  1.00  0.00     0.032 C 
ATOM     68  C   UNL A   1      33.577  22.969  23.233  1.00  0.00     0.103 C 
ATOM     69  C   UNL A   1      34.797  24.800  24.443  1.00  0.00     0.103 C 
ATOM     70  N   UNL A   1      33.589  24.379  23.669  1.00  0.00    -0.198 NA
BRANCH  70  71
ATOM     71  S   UNL A   1      33.215  25.392  22.301  1.00  0.00     0.243 S 
ATOM     72  O   UNL A   1      34.238  26.417  22.202  1.00  0.00    -0.207 OA
ATOM     73  O   UNL A   1      32.908  24.527  21.186  1.00  0.00    -0.207 OA
BRANCH  71  74
ATOM     74  C   UNL A   1      31.710  26.170  22.813  1.00  0.00     0.084 A 
ATOM     75  C   UNL A   1      30.814  25.448  23.598  1.00  0.00     0.024 A 
ATOM     76  C   UNL A   1      31.424  27.463  22.360  1.00  0.00     0.043 A 
ATOM     77  C   UNL A   1      29.524  25.926  23.796  1.00  0.00     0.031 A 
ATOM     78  C   UNL A   1      30.143  27.959  22.635  1.00  0.00     0.059 A 
ATOM     79  C   UNL A   1      29.179  27.200  23.310  1.00  0.00     0.085 A 
ATOM     80  S   UNL A   1      29.459  29.489  22.233  1.00  0.00    -0.077 S 
ATOM     81  N   UNL A   1      27.941  27.796  23.447  1.00  0.00    -0.203 NA
ATOM     82  C   UNL A   1      27.996  28.991  22.930  1.00  0.00     0.271 A 
BRANCH  82  83
ATOM     83  O   UNL A   1      26.920  29.751  22.978  1.00  0.00    -0.486 OA
ATOM     84  H   UNL A   1      26.642  30.217  22.214  1.00  0.00     0.296 HD
ENDBRANCH  82  83
ENDBRANCH  71  74
ENDBRANCH  70  71
ENDBRANCH  63  65
ENDBRANCH  62  63
ENDBRANCH   1  62
TORSDOF 14
ENDMDL
MODEL 2
REMARK VINA RESULT:     -11.9      2.345      4.044
REMARK SMILES O=C(OCCOC(=O)C1CCN(S(=O)(=O)c2ccc3nc(O)sc3c2)CC1)c1ccc(-c2c3nc(c(-c4c(F)cccc4F)c4ccc([nH]4)c(-c4c(F)cccc4F)c4nc(c(-c5c(F)cccc5F)c5ccc2[nH]5)C=C4)C=C3)cc1
REMARK SMILES IDX 5 1 4 2 3 3 2 4 1 5 28 6 29 7 81 8 30 9 80 10 31 11 32 12
REMARK SMILES IDX 33 13 74 14 34 15 79 16 73 17 75 18 35 19 78 20 72 21 71 22
REMARK SMILES IDX 36 24 62 25 45 26 61 27 46 28 49 29 60 30 76 31 47 32 48 33
REMARK SMILES IDX 59 35 77 36 50 37 37 38 38 39 43 40 39 41 40 42 42 43 44 44
REMARK SMILES IDX 41 45 63 46 64 47 69 48 65 49 66 50 68 51 70 52 67 53 51 54
REMARK SMILES IDX 52 55 57 56 53 57 54 58 56 59 58 60 55 61 6 62 7 63 8 64
REMARK SMILES IDX 9 65 10 66 27 67 11 68 26 69 12 70 13 71 14 72 15 73 16 74
REMARK SMILES IDX 17 75 25 76 18 77 24 78 19 79 23 80 20 81 21 82 22 83
REMARK H PARENT 75 23 49 34 22 84
REMARK Flexibility Score: inf
ROOT
ATOM      1  C   UNL A   1      38.079  20.838  25.255  1.00  0.00     0.274 C 
ENDROOT
BRANCH   1   2
ATOM      2  C   UNL A   1      39.257  21.304  26.123  1.00  0.00     0.275 C 
BRANCH   2   3
ATOM      3  O   UNL A   1      40.262  20.268  26.152  1.00  0.00    -0.458 OA
BRANCH   3   4
ATOM      4  C   UNL A   1      41.083  20.296  27.233  1.00  0.00     0.338 C 
ATOM      5  O   UNL A   1      40.809  19.905  28.356  1.00  0.00    -0.246 OA
BRANCH   4   6
ATOM      6  C   UNL A   1      42.260  21.173  26.955  1.00  0.00     0.060 A 
ATOM      7  C   UNL A   1      42.446  22.326  27.737  1.00  0.00     0.016 A 
ATOM      8  C   UNL A   1      42.864  21.090  25.692  1.00  0.00     0.016 A 
ATOM      9  C   UNL A   1      43.123  23.434  27.199  1.00  0.00     0.010 A 
ATOM     10  C   UNL A   1      43.453  22.221  25.131  1.00  0.00     0.010 A 
ATOM     11  C   UNL A   1      43.575  23.413  25.867  1.00  0.00    -0.014 A 
BRANCH  11  12
ATOM     12  C   UNL A   1      44.421  24.549  25.388  1.00  0.00     0.031 A 
ATOM     13  C   UNL A   1      43.691  25.782  25.873  1.00  0.00     0.074 A 
ATOM     14  C   UNL A   1      45.771  24.660  25.455  1.00  0.00     0.049 A 
ATOM     15  N   UNL A   1      43.798  26.251  27.083  1.00  0.00    -0.248 NA
ATOM     16  C   UNL A   1      42.463  26.182  25.180  1.00  0.00     0.031 C 
ATOM     17  C   UNL A   1      46.633  24.280  26.576  1.00  0.00     0.029 A 
ATOM     18  N   UNL A   1      46.615  25.385  24.619  1.00  0.00    -0.354 N 
ATOM     19  C   UNL A   1      42.598  26.882  27.366  1.00  0.00     0.074 A 
ATOM     20  C   UNL A   1      41.809  26.826  26.156  1.00  0.00     0.031 C 
ATOM     21  C   UNL A   1      47.822  24.906  26.441  1.00  0.00     0.029 A 
ATOM     22  C   UNL A   1      47.845  25.690  25.199  1.00  0.00     0.049 A 
ATOM     23  H   UNL A   1      46.366  25.657  23.707  1.00  0.00     0.167 HD
ATOM     24  C   UNL A   1      42.285  27.369  28.593  1.00  0.00     0.037 A 
ATOM     25  C   UNL A   1      48.488  26.890  25.067  1.00  0.00     0.037 A 
ATOM     26  C   UNL A   1      43.298  27.272  29.600  1.00  0.00     0.049 A 
ATOM     27  C   UNL A   1      47.867  27.719  26.156  1.00  0.00     0.074 A 
ATOM     28  C   UNL A   1      43.537  26.581  30.767  1.00  0.00     0.029 A 
ATOM     29  N   UNL A   1      44.375  28.115  29.469  1.00  0.00    -0.354 N 
ATOM     30  N   UNL A   1      48.191  27.709  27.420  1.00  0.00    -0.248 NA
ATOM     31  C   UNL A   1      46.561  28.310  25.864  1.00  0.00     0.031 C 
ATOM     32  C   UNL A   1      44.938  26.729  31.022  1.00  0.00     0.029 A 
ATOM     33  C   UNL A   1      45.474  27.480  29.977  1.00  0.00     0.049 A 
ATOM     34  H   UNL A   1      44.358  29.018  29.077  1.00  0.00     0.167 HD
ATOM     35  C   UNL A   1      47.001  27.992  28.100  1.00  0.00     0.074 A 
ATOM     36  C   UNL A   1      46.062  28.424  27.087  1.00  0.00     0.031 C 
ATOM     37  C   UNL A   1      46.788  27.641  29.402  1.00  0.00     0.037 A 
BRANCH  24  38
ATOM     38  C   UNL A   1      41.096  28.194  28.849  1.00  0.00     0.057 A 
ATOM     39  C   UNL A   1      41.071  29.584  28.754  1.00  0.00     0.134 A 
ATOM     40  C   UNL A   1      39.882  27.516  29.014  1.00  0.00     0.134 A 
ATOM     41  F   UNL A   1      42.205  30.283  28.598  1.00  0.00    -0.206 F 
ATOM     42  C   UNL A   1      39.857  30.274  28.776  1.00  0.00     0.040 A 
ATOM     43  C   UNL A   1      38.668  28.190  29.022  1.00  0.00     0.040 A 
ATOM     44  F   UNL A   1      39.868  26.176  29.119  1.00  0.00    -0.206 F 
ATOM     45  C   UNL A   1      38.652  29.574  28.890  1.00  0.00     0.006 A 
ENDBRANCH  24  38
BRANCH  25  46
ATOM     46  C   UNL A   1      48.819  27.417  23.712  1.00  0.00     0.057 A 
ATOM     47  C   UNL A   1      47.933  27.942  22.760  1.00  0.00     0.134 A 
ATOM     48  C   UNL A   1      50.176  27.431  23.342  1.00  0.00     0.134 A 
ATOM     49  F   UNL A   1      46.633  28.117  23.025  1.00  0.00    -0.206 F 
ATOM     50  C   UNL A   1      48.347  28.321  21.476  1.00  0.00     0.040 A 
ATOM     51  C   UNL A   1      50.611  27.837  22.075  1.00  0.00     0.040 A 
ATOM     52  F   UNL A   1      51.118  27.063  24.224  1.00  0.00    -0.206 F 
ATOM     53  C   UNL A   1      49.689  28.253  21.123  1.00  0.00     0.006 A 
ENDBRANCH  25  46
BRANCH  37  54
ATOM     54  C   UNL A   1      47.995  27.168  30.133  1.00  0.00     0.057 A 
ATOM     55  C   UNL A   1      48.340  25.813  30.213  1.00  0.00     0.134 A 
ATOM     56  C   UNL A   1      48.830  28.088  30.774  1.00  0.00     0.134 A 
ATOM     57  F   UNL A   1      47.604  24.872  29.599  1.00  0.00    -0.206 F 
ATOM     58  C   UNL A   1      49.456  25.388  30.937  1.00  0.00     0.040 A 
ATOM     59  C   UNL A   1      49.964  27.678  31.475  1.00  0.00     0.040 A 
ATOM     60  F   UNL A   1      48.549  29.401  30.742  1.00  0.00    -0.206 F 
ATOM     61  C   UNL A   1      50.273  26.323  31.568  1.00  0.00     0.006 A 
ENDBRANCH  37  54
ENDBRANCH  11  12
ENDBRANCH   4   6
ENDBRANCH   3   4
ENDBRANCH   2   3
ENDBRANCH   1   2
BRANCH   1  62
ATOM     62  O   UNL A   1      36.853  21.471  25.684  1.00  0.00    -0.462 OA
BRANCH  62  63
ATOM     63  C   UNL A   1      36.234  22.384  24.892  1.00  0.00     0.309 C 
ATOM     64  O   UNL A   1      36.134  22.303  23.678  1.00  0.00    -0.252 OA
BRANCH  63  65
ATOM     65  C   UNL A   1      35.805  23.591  25.730  1.00  0.00     0.102 C 
ATOM     66  C   UNL A   1      34.894  23.249  26.885  1.00  0.00     0.032 C 
ATOM     67  C   UNL A   1      35.100  24.679  24.962  1.00  0.00     0.032 C 
ATOM     68  C   UNL A   1      33.487  22.824  26.556  1.00  0.00     0.103 C 
ATOM     69  C   UNL A   1      33.737  24.216  24.481  1.00  0.00     0.103 C 
ATOM     70  N   UNL A   1      32.838  23.695  25.556  1.00  0.00    -0.198 NA
BRANCH  70  71
ATOM     71  S   UNL A   1      31.396  22.907  24.978  1.00  0.00     0.243 S 
ATOM     72  O   UNL A   1      30.539  22.636  26.118  1.00  0.00    -0.207 OA
ATOM     73  O   UNL A   1      30.915  23.652  23.839  1.00  0.00    -0.207 OA
BRANCH  71  74
ATOM     74  C   UNL A   1      32.026  21.362  24.389  1.00  0.00     0.084 A 
ATOM     75  C   UNL A   1      32.167  21.174  23.016  1.00  0.00     0.024 A 
ATOM     76  C   UNL A   1      32.298  20.342  25.308  1.00  0.00     0.043 A 
ATOM     77  C   UNL A   1      32.405  19.901  22.511  1.00  0.00     0.031 A 
ATOM     78  C   UNL A   1      32.609  19.083  24.780  1.00  0.00     0.059 A 
ATOM     79  C   UNL A   1      32.631  18.837  23.402  1.00  0.00     0.085 A 
ATOM     80  S   UNL A   1      32.995  17.621  25.608  1.00  0.00    -0.077 S 
ATOM     81  N   UNL A   1      32.888  17.531  23.034  1.00  0.00    -0.203 NA
ATOM     82  C   UNL A   1      33.103  16.831  24.112  1.00  0.00     0.271 A 
BRANCH  82  83
ATOM     83  O   UNL A   1      33.396  15.552  23.986  1.00  0.00    -0.486 OA
ATOM     84  H   UNL A   1      33.748  15.079  24.715  1.00  0.00     0.296 HD
ENDBRANCH  82  83
ENDBRANCH  71  74
ENDBRANCH  70  71
ENDBRANCH  63  65
ENDBRANCH  62  63
ENDBRANCH   1  62
TORSDOF 14
ENDMDL
MODEL 3
REMARK VINA RESULT:     -11.8      3.663      8.594
REMARK SMILES O=C(OCCOC(=O)C1CCN(S(=O)(=O)c2ccc3nc(O)sc3c2)CC1)c1ccc(-c2c3nc(c(-c4c(F)cccc4F)c4ccc([nH]4)c(-c4c(F)cccc4F)c4nc(c(-c5c(F)cccc5F)c5ccc2[nH]5)C=C4)C=C3)cc1
REMARK SMILES IDX 5 1 4 2 3 3 2 4 1 5 28 6 29 7 81 8 30 9 80 10 31 11 32 12
REMARK SMILES IDX 33 13 74 14 34 15 79 16 73 17 75 18 35 19 78 20 72 21 71 22
REMARK SMILES IDX 36 24 62 25 45 26 61 27 46 28 49 29 60 30 76 31 47 32 48 33
REMARK SMILES IDX 59 35 77 36 50 37 37 38 38 39 43 40 39 41 40 42 42 43 44 44
REMARK SMILES IDX 41 45 63 46 64 47 69 48 65 49 66 50 68 51 70 52 67 53 51 54
REMARK SMILES IDX 52 55 57 56 53 57 54 58 56 59 58 60 55 61 6 62 7 63 8 64
REMARK SMILES IDX 9 65 10 66 27 67 11 68 26 69 12 70 13 71 14 72 15 73 16 74
REMARK SMILES IDX 17 75 25 76 18 77 24 78 19 79 23 80 20 81 21 82 22 83
REMARK H PARENT 75 23 49 34 22 84
REMARK Flexibility Score: inf
ROOT
ATOM      1  C   UNL A   1      32.185  29.348  25.362  1.00  0.00     0.274 C 
ENDROOT
BRANCH   1   2
ATOM      2  C   UNL A   1      32.848  29.701  26.701  1.00  0.00     0.275 C 
BRANCH   2   3
ATOM      3  O   UNL A   1      34.246  29.986  26.475  1.00  0.00    -0.458 OA
BRANCH   3   4
ATOM      4  C   UNL A   1      34.818  30.809  27.390  1.00  0.00     0.338 C 
ATOM      5  O   UNL A   1      34.733  32.027  27.416  1.00  0.00    -0.246 OA
BRANCH   4   6
ATOM      6  C   UNL A   1      35.842  30.060  28.179  1.00  0.00     0.060 A 
ATOM      7  C   UNL A   1      35.692  29.972  29.574  1.00  0.00     0.016 A 
ATOM      8  C   UNL A   1      37.107  29.867  27.607  1.00  0.00     0.016 A 
ATOM      9  C   UNL A   1      36.826  29.822  30.390  1.00  0.00     0.010 A 
ATOM     10  C   UNL A   1      38.235  29.809  28.423  1.00  0.00     0.010 A 
ATOM     11  C   UNL A   1      38.113  29.805  29.825  1.00  0.00    -0.014 A 
BRANCH  11  12
ATOM     12  C   UNL A   1      39.274  29.490  30.712  1.00  0.00     0.031 A 
ATOM     13  C   UNL A   1      39.614  28.055  30.378  1.00  0.00     0.074 A 
ATOM     14  C   UNL A   1      40.363  30.262  30.952  1.00  0.00     0.049 A 
ATOM     15  N   UNL A   1      40.340  27.707  29.355  1.00  0.00    -0.248 NA
ATOM     16  C   UNL A   1      38.731  26.996  30.875  1.00  0.00     0.031 C 
ATOM     17  C   UNL A   1      41.117  31.053  29.977  1.00  0.00     0.029 A 
ATOM     18  N   UNL A   1      41.171  30.278  32.086  1.00  0.00    -0.354 N 
ATOM     19  C   UNL A   1      39.911  26.446  28.981  1.00  0.00     0.074 A 
ATOM     20  C   UNL A   1      38.924  26.040  29.957  1.00  0.00     0.031 C 
ATOM     21  C   UNL A   1      42.333  31.333  30.493  1.00  0.00     0.029 A 
ATOM     22  C   UNL A   1      42.442  30.800  31.857  1.00  0.00     0.049 A 
ATOM     23  H   UNL A   1      40.872  29.951  32.965  1.00  0.00     0.167 HD
ATOM     24  C   UNL A   1      40.340  25.817  27.857  1.00  0.00     0.037 A 
ATOM     25  C   UNL A   1      43.596  30.291  32.387  1.00  0.00     0.037 A 
ATOM     26  C   UNL A   1      41.340  26.491  27.086  1.00  0.00     0.049 A 
ATOM     27  C   UNL A   1      43.960  29.209  31.409  1.00  0.00     0.074 A 
ATOM     28  C   UNL A   1      41.458  27.123  25.868  1.00  0.00     0.029 A 
ATOM     29  N   UNL A   1      42.603  26.533  27.623  1.00  0.00    -0.354 N 
ATOM     30  N   UNL A   1      44.577  29.367  30.270  1.00  0.00    -0.248 NA
ATOM     31  C   UNL A   1      43.253  27.936  31.550  1.00  0.00     0.031 C 
ATOM     32  C   UNL A   1      42.665  27.889  25.948  1.00  0.00     0.029 A 
ATOM     33  C   UNL A   1      43.195  27.699  27.223  1.00  0.00     0.049 A 
ATOM     34  H   UNL A   1      43.011  25.844  28.197  1.00  0.00     0.167 HD
ATOM     35  C   UNL A   1      44.067  28.360  29.442  1.00  0.00     0.074 A 
ATOM     36  C   UNL A   1      43.321  27.476  30.310  1.00  0.00     0.031 C 
ATOM     37  C   UNL A   1      44.093  28.437  28.078  1.00  0.00     0.037 A 
BRANCH  24  38
ATOM     38  C   UNL A   1      40.026  24.413  27.555  1.00  0.00     0.057 A 
ATOM     39  C   UNL A   1      39.001  24.004  26.704  1.00  0.00     0.134 A 
ATOM     40  C   UNL A   1      40.937  23.451  28.010  1.00  0.00     0.134 A 
ATOM     41  F   UNL A   1      38.101  24.883  26.241  1.00  0.00    -0.206 F 
ATOM     42  C   UNL A   1      38.918  22.675  26.282  1.00  0.00     0.040 A 
ATOM     43  C   UNL A   1      40.874  22.131  27.585  1.00  0.00     0.040 A 
ATOM     44  F   UNL A   1      41.933  23.807  28.840  1.00  0.00    -0.206 F 
ATOM     45  C   UNL A   1      39.868  21.742  26.706  1.00  0.00     0.006 A 
ENDBRANCH  24  38
BRANCH  25  46
ATOM     46  C   UNL A   1      43.747  30.157  33.864  1.00  0.00     0.057 A 
ATOM     47  C   UNL A   1      42.996  29.347  34.728  1.00  0.00     0.134 A 
ATOM     48  C   UNL A   1      44.779  30.893  34.474  1.00  0.00     0.134 A 
ATOM     49  F   UNL A   1      42.073  28.492  34.272  1.00  0.00    -0.206 F 
ATOM     50  C   UNL A   1      43.165  29.374  36.119  1.00  0.00     0.040 A 
ATOM     51  C   UNL A   1      44.982  30.906  35.859  1.00  0.00     0.040 A 
ATOM     52  F   UNL A   1      45.631  31.607  33.723  1.00  0.00    -0.206 F 
ATOM     53  C   UNL A   1      44.149  30.169  36.692  1.00  0.00     0.006 A 
ENDBRANCH  25  46
BRANCH  37  54
ATOM     54  C   UNL A   1      44.929  29.537  27.525  1.00  0.00     0.057 A 
ATOM     55  C   UNL A   1      44.388  30.771  27.142  1.00  0.00     0.134 A 
ATOM     56  C   UNL A   1      46.307  29.358  27.367  1.00  0.00     0.134 A 
ATOM     57  F   UNL A   1      43.078  31.029  27.289  1.00  0.00    -0.206 F 
ATOM     58  C   UNL A   1      45.185  31.775  26.588  1.00  0.00     0.040 A 
ATOM     59  C   UNL A   1      47.118  30.364  26.844  1.00  0.00     0.040 A 
ATOM     60  F   UNL A   1      46.886  28.195  27.707  1.00  0.00    -0.206 F 
ATOM     61  C   UNL A   1      46.555  31.573  26.441  1.00  0.00     0.006 A 
ENDBRANCH  37  54
ENDBRANCH  11  12
ENDBRANCH   4   6
ENDBRANCH   3   4
ENDBRANCH   2   3
ENDBRANCH   1   2
BRANCH   1  62
ATOM     62  O   UNL A   1      31.353  28.175  25.503  1.00  0.00    -0.462 OA
BRANCH  62  63
ATOM     63  C   UNL A   1      30.923  27.498  24.408  1.00  0.00     0.309 C 
ATOM     64  O   UNL A   1      30.919  27.939  23.269  1.00  0.00    -0.252 OA
BRANCH  63  65
ATOM     65  C   UNL A   1      30.320  26.156  24.831  1.00  0.00     0.102 C 
ATOM     66  C   UNL A   1      31.015  25.509  26.006  1.00  0.00     0.032 C 
ATOM     67  C   UNL A   1      30.282  25.107  23.750  1.00  0.00     0.032 C 
ATOM     68  C   UNL A   1      32.395  24.953  25.774  1.00  0.00     0.103 C 
ATOM     69  C   UNL A   1      31.682  24.644  23.386  1.00  0.00     0.103 C 
ATOM     70  N   UNL A   1      32.496  24.151  24.539  1.00  0.00    -0.198 NA
BRANCH  70  71
ATOM     71  S   UNL A   1      34.181  23.889  24.178  1.00  0.00     0.243 S 
ATOM     72  O   UNL A   1      34.380  24.108  22.756  1.00  0.00    -0.207 OA
ATOM     73  O   UNL A   1      34.958  24.603  25.163  1.00  0.00    -0.207 OA
BRANCH  71  74
ATOM     74  C   UNL A   1      34.365  22.157  24.493  1.00  0.00     0.084 A 
ATOM     75  C   UNL A   1      35.585  21.688  24.975  1.00  0.00     0.024 A 
ATOM     76  C   UNL A   1      33.308  21.293  24.185  1.00  0.00     0.043 A 
ATOM     77  C   UNL A   1      35.848  20.323  24.984  1.00  0.00     0.031 A 
ATOM     78  C   UNL A   1      33.569  19.920  24.273  1.00  0.00     0.059 A 
ATOM     79  C   UNL A   1      34.829  19.422  24.630  1.00  0.00     0.085 A 
ATOM     80  S   UNL A   1      32.515  18.589  23.970  1.00  0.00    -0.077 S 
ATOM     81  N   UNL A   1      34.954  18.047  24.606  1.00  0.00    -0.203 NA
ATOM     82  C   UNL A   1      33.800  17.530  24.289  1.00  0.00     0.271 A 
BRANCH  82  83
ATOM     83  O   UNL A   1      33.689  16.218  24.235  1.00  0.00    -0.486 OA
ATOM     84  H   UNL A   1      32.853  15.826  24.076  1.00  0.00     0.296 HD
ENDBRANCH  82  83
ENDBRANCH  71  74
ENDBRANCH  70  71
ENDBRANCH  63  65
ENDBRANCH  62  63
ENDBRANCH   1  62
TORSDOF 14
ENDMDL
