MODEL 1
REMARK VINA RESULT:     -12.9      0.000      0.000
REMARK SMILES O=C1C[C@@H](C(=O)OCCOC(=O)c2ccc(-c3c4nc(c(-c5c(F)cccc5F)c5ccc([nH]5)c(-c5c(F)cccc5F)c5nc(c(-c6c(F)cccc6F)c6ccc3[nH]6)C=C5)C=C4)cc2)C2(CC[NH+](Cc3c[nH]nc3-c3ccc(Cl)cc3)CC2)N1
REMARK SMILES IDX 8 1 7 2 5 3 6 4 4 5 1 6 2 7 3 8 86 9 67 10 68 12 85 13 69 14
REMARK SMILES IDX 84 15 70 16 71 18 72 19 73 20 76 21 74 22 75 23 77 25 78 26
REMARK SMILES IDX 83 27 79 28 82 29 80 30 81 31 9 32 10 33 11 34 12 35 13 36
REMARK SMILES IDX 14 37 66 38 15 39 65 40 16 41 17 42 18 43 59 44 19 45 64 46
REMARK SMILES IDX 58 47 60 48 20 49 63 50 57 51 56 52 21 54 47 55 30 56 46 57
REMARK SMILES IDX 31 58 34 59 45 60 61 61 32 62 33 63 44 65 62 66 35 67 22 68
REMARK SMILES IDX 23 69 28 70 24 71 25 72 27 73 29 74 26 75 48 76 49 77 54 78
REMARK SMILES IDX 50 79 51 80 53 81 55 82 52 83 36 84 37 85 42 86 38 87 39 88
REMARK SMILES IDX 41 89 43 90 40 91
REMARK H PARENT 86 11 70 17 74 24 60 53 34 64
REMARK Flexibility Score: inf
ROOT
ATOM      1  C   UNL A   1      35.087  20.988  24.595  1.00  0.00     0.274 C 
ENDROOT
BRANCH   1   2
ATOM      2  O   UNL A   1      34.025  20.226  25.208  1.00  0.00    -0.462 OA
BRANCH   2   3
ATOM      3  C   UNL A   1      32.847  20.876  25.342  1.00  0.00     0.311 C 
ATOM      4  O   UNL A   1      31.749  20.349  25.185  1.00  0.00    -0.252 OA
BRANCH   3   5
ATOM      5  C   UNL A   1      32.952  22.358  25.653  1.00  0.00     0.134 C 
ATOM      6  O   UNL A   1      30.032  23.188  27.513  1.00  0.00    -0.275 OA
ATOM      7  C   UNL A   1      30.964  23.090  26.742  1.00  0.00     0.221 C 
ATOM      8  C   UNL A   1      32.327  22.532  27.051  1.00  0.00     0.117 C 
ATOM      9  N   UNL A   1      30.968  23.528  25.440  1.00  0.00    -0.349 N 
ATOM     10  C   UNL A   1      32.272  23.451  24.795  1.00  0.00     0.064 C 
ATOM     11  H   UNL A   1      30.163  23.864  24.983  1.00  0.00     0.164 HD
ATOM     12  C   UNL A   1      32.075  23.200  23.293  1.00  0.00     0.091 C 
ATOM     13  C   UNL A   1      32.991  24.820  25.036  1.00  0.00     0.091 C 
ATOM     14  C   UNL A   1      33.251  23.599  22.415  1.00  0.00     0.264 C 
ATOM     15  C   UNL A   1      34.034  25.236  23.991  1.00  0.00     0.264 C 
ATOM     16  N   UNL A   1      33.679  24.967  22.609  1.00  0.00    -0.331 N 
ATOM     17  H   UNL A   1      34.570  25.065  22.122  1.00  0.00     0.348 HD
BRANCH  16  18
ATOM     18  C   UNL A   1      32.979  25.999  21.834  1.00  0.00     0.303 C 
BRANCH  18  19
ATOM     19  C   UNL A   1      33.100  27.391  22.362  1.00  0.00     0.052 A 
ATOM     20  C   UNL A   1      34.210  28.211  22.257  1.00  0.00     0.115 A 
ATOM     21  C   UNL A   1      32.104  28.245  22.952  1.00  0.00     0.101 A 
ATOM     22  N   UNL A   1      33.906  29.367  22.897  1.00  0.00    -0.285 N 
ATOM     23  N   UNL A   1      32.639  29.424  23.311  1.00  0.00    -0.175 NA
ATOM     24  H   UNL A   1      34.557  30.092  23.042  1.00  0.00     0.189 HD
BRANCH  21  25
ATOM     25  C   UNL A   1      30.667  28.038  23.147  1.00  0.00     0.003 A 
ATOM     26  C   UNL A   1      29.784  29.064  22.779  1.00  0.00     0.012 A 
ATOM     27  C   UNL A   1      30.143  26.886  23.741  1.00  0.00     0.012 A 
ATOM     28  C   UNL A   1      28.407  28.933  22.985  1.00  0.00     0.021 A 
ATOM     29  C   UNL A   1      28.765  26.749  23.946  1.00  0.00     0.021 A 
ATOM     30  C   UNL A   1      27.903  27.773  23.566  1.00  0.00     0.041 A 
ATOM     31  Cl  UNL A   1      26.212  27.611  23.831  1.00  0.00    -0.084 Cl
ENDBRANCH  21  25
ENDBRANCH  18  19
ENDBRANCH  16  18
ENDBRANCH   3   5
ENDBRANCH   2   3
ENDBRANCH   1   2
BRANCH   1  32
ATOM     32  C   UNL A   1      36.462  20.481  25.035  1.00  0.00     0.275 C 
BRANCH  32  33
ATOM     33  O   UNL A   1      37.165  21.498  25.778  1.00  0.00    -0.458 OA
BRANCH  33  34
ATOM     34  C   UNL A   1      38.493  21.297  25.933  1.00  0.00     0.338 C 
ATOM     35  O   UNL A   1      39.132  20.311  25.606  1.00  0.00    -0.246 OA
BRANCH  34  36
ATOM     36  C   UNL A   1      39.142  22.485  26.524  1.00  0.00     0.060 A 
ATOM     37  C   UNL A   1      38.734  23.771  26.164  1.00  0.00     0.016 A 
ATOM     38  C   UNL A   1      40.288  22.314  27.299  1.00  0.00     0.016 A 
ATOM     39  C   UNL A   1      39.509  24.876  26.506  1.00  0.00     0.010 A 
ATOM     40  C   UNL A   1      41.005  23.433  27.734  1.00  0.00     0.010 A 
ATOM     41  C   UNL A   1      40.634  24.725  27.326  1.00  0.00    -0.014 A 
BRANCH  41  42
ATOM     42  C   UNL A   1      41.388  25.912  27.814  1.00  0.00     0.031 A 
ATOM     43  C   UNL A   1      40.712  26.978  28.630  1.00  0.00     0.074 A 
ATOM     44  C   UNL A   1      42.678  26.063  27.458  1.00  0.00     0.049 A 
ATOM     45  N   UNL A   1      41.149  28.169  28.957  1.00  0.00    -0.248 NA
ATOM     46  C   UNL A   1      39.365  26.673  29.135  1.00  0.00     0.031 C 
ATOM     47  C   UNL A   1      43.459  25.101  26.678  1.00  0.00     0.029 A 
ATOM     48  N   UNL A   1      43.554  27.097  27.682  1.00  0.00    -0.354 N 
ATOM     49  C   UNL A   1      40.114  28.776  29.658  1.00  0.00     0.074 A 
ATOM     50  C   UNL A   1      39.028  27.818  29.712  1.00  0.00     0.031 C 
ATOM     51  C   UNL A   1      44.694  25.584  26.491  1.00  0.00     0.029 A 
ATOM     52  C   UNL A   1      44.767  26.923  27.063  1.00  0.00     0.049 A 
ATOM     53  H   UNL A   1      43.333  27.883  28.232  1.00  0.00     0.167 HD
ATOM     54  C   UNL A   1      40.075  30.019  30.198  1.00  0.00     0.037 A 
ATOM     55  C   UNL A   1      45.808  27.762  26.914  1.00  0.00     0.037 A 
ATOM     56  C   UNL A   1      41.173  30.953  30.171  1.00  0.00     0.049 A 
ATOM     57  C   UNL A   1      45.733  29.140  27.495  1.00  0.00     0.074 A 
ATOM     58  C   UNL A   1      41.249  32.213  30.744  1.00  0.00     0.029 A 
ATOM     59  N   UNL A   1      42.384  30.737  29.532  1.00  0.00    -0.354 N 
ATOM     60  N   UNL A   1      44.752  29.703  28.155  1.00  0.00    -0.248 NA
ATOM     61  C   UNL A   1      46.905  30.004  27.301  1.00  0.00     0.031 C 
ATOM     62  C   UNL A   1      42.486  32.775  30.410  1.00  0.00     0.029 A 
ATOM     63  C   UNL A   1      43.202  31.848  29.671  1.00  0.00     0.049 A 
ATOM     64  H   UNL A   1      42.628  29.913  29.049  1.00  0.00     0.167 HD
ATOM     65  C   UNL A   1      45.188  30.983  28.464  1.00  0.00     0.074 A 
ATOM     66  C   UNL A   1      46.531  31.107  27.935  1.00  0.00     0.031 C 
ATOM     67  C   UNL A   1      44.532  31.967  29.127  1.00  0.00     0.037 A 
BRANCH  54  68
ATOM     68  C   UNL A   1      38.789  30.460  30.836  1.00  0.00     0.057 A 
ATOM     69  C   UNL A   1      37.792  31.138  30.124  1.00  0.00     0.134 A 
ATOM     70  C   UNL A   1      38.532  30.167  32.183  1.00  0.00     0.134 A 
ATOM     71  F   UNL A   1      37.976  31.457  28.833  1.00  0.00    -0.206 F 
ATOM     72  C   UNL A   1      36.597  31.530  30.733  1.00  0.00     0.040 A 
ATOM     73  C   UNL A   1      37.331  30.532  32.795  1.00  0.00     0.040 A 
ATOM     74  F   UNL A   1      39.440  29.513  32.923  1.00  0.00    -0.206 F 
ATOM     75  C   UNL A   1      36.362  31.221  32.071  1.00  0.00     0.006 A 
ENDBRANCH  54  68
BRANCH  55  76
ATOM     76  C   UNL A   1      46.990  27.313  26.141  1.00  0.00     0.057 A 
ATOM     77  C   UNL A   1      48.044  26.637  26.762  1.00  0.00     0.134 A 
ATOM     78  C   UNL A   1      47.061  27.492  24.753  1.00  0.00     0.134 A 
ATOM     79  F   UNL A   1      48.037  26.452  28.090  1.00  0.00    -0.206 F 
ATOM     80  C   UNL A   1      49.129  26.151  26.031  1.00  0.00     0.040 A 
ATOM     81  C   UNL A   1      48.127  26.990  24.006  1.00  0.00     0.040 A 
ATOM     82  F   UNL A   1      46.074  28.123  24.100  1.00  0.00    -0.206 F 
ATOM     83  C   UNL A   1      49.165  26.318  24.647  1.00  0.00     0.006 A 
ENDBRANCH  55  76
BRANCH  67  84
ATOM     84  C   UNL A   1      45.270  33.256  29.330  1.00  0.00     0.057 A 
ATOM     85  C   UNL A   1      46.110  33.458  30.433  1.00  0.00     0.134 A 
ATOM     86  C   UNL A   1      45.153  34.301  28.405  1.00  0.00     0.134 A 
ATOM     87  F   UNL A   1      46.252  32.502  31.364  1.00  0.00    -0.206 F 
ATOM     88  C   UNL A   1      46.788  34.665  30.621  1.00  0.00     0.040 A 
ATOM     89  C   UNL A   1      45.843  35.502  28.570  1.00  0.00     0.040 A 
ATOM     90  F   UNL A   1      44.367  34.170  27.325  1.00  0.00    -0.206 F 
ATOM     91  C   UNL A   1      46.660  35.688  29.684  1.00  0.00     0.006 A 
ENDBRANCH  67  84
ENDBRANCH  41  42
ENDBRANCH  34  36
ENDBRANCH  33  34
ENDBRANCH  32  33
ENDBRANCH   1  32
TORSDOF 14
ENDMDL
MODEL 2
REMARK VINA RESULT:     -12.8      5.919     10.857
REMARK SMILES O=C1C[C@@H](C(=O)OCCOC(=O)c2ccc(-c3c4nc(c(-c5c(F)cccc5F)c5ccc([nH]5)c(-c5c(F)cccc5F)c5nc(c(-c6c(F)cccc6F)c6ccc3[nH]6)C=C5)C=C4)cc2)C2(CC[NH+](Cc3c[nH]nc3-c3ccc(Cl)cc3)CC2)N1
REMARK SMILES IDX 8 1 7 2 5 3 6 4 4 5 1 6 2 7 3 8 86 9 67 10 68 12 85 13 69 14
REMARK SMILES IDX 84 15 70 16 71 18 72 19 73 20 76 21 74 22 75 23 77 25 78 26
REMARK SMILES IDX 83 27 79 28 82 29 80 30 81 31 9 32 10 33 11 34 12 35 13 36
REMARK SMILES IDX 14 37 66 38 15 39 65 40 16 41 17 42 18 43 59 44 19 45 64 46
REMARK SMILES IDX 58 47 60 48 20 49 63 50 57 51 56 52 21 54 47 55 30 56 46 57
REMARK SMILES IDX 31 58 34 59 45 60 61 61 32 62 33 63 44 65 62 66 35 67 22 68
REMARK SMILES IDX 23 69 28 70 24 71 25 72 27 73 29 74 26 75 48 76 49 77 54 78
REMARK SMILES IDX 50 79 51 80 53 81 55 82 52 83 36 84 37 85 42 86 38 87 39 88
REMARK SMILES IDX 41 89 43 90 40 91
REMARK H PARENT 86 11 70 17 74 24 60 53 34 64
REMARK Flexibility Score: inf
ROOT
ATOM      1  C   UNL A   1      33.452  34.348  28.262  1.00  0.00     0.274 C 
ENDROOT
BRANCH   1   2
ATOM      2  O   UNL A   1      33.446  34.210  29.699  1.00  0.00    -0.462 OA
BRANCH   2   3
ATOM      3  C   UNL A   1      32.961  35.270  30.382  1.00  0.00     0.311 C 
ATOM      4  O   UNL A   1      32.347  36.200  29.865  1.00  0.00    -0.252 OA
BRANCH   3   5
ATOM      5  C   UNL A   1      33.273  35.288  31.868  1.00  0.00     0.134 C 
ATOM      6  O   UNL A   1      33.679  38.712  32.754  1.00  0.00    -0.275 OA
ATOM      7  C   UNL A   1      33.752  37.517  32.560  1.00  0.00     0.221 C 
ATOM      8  C   UNL A   1      32.598  36.561  32.416  1.00  0.00     0.117 C 
ATOM      9  N   UNL A   1      34.917  36.792  32.489  1.00  0.00    -0.349 N 
ATOM     10  C   UNL A   1      34.714  35.351  32.429  1.00  0.00     0.064 C 
ATOM     11  H   UNL A   1      35.809  37.208  32.480  1.00  0.00     0.164 HD
ATOM     12  C   UNL A   1      35.853  34.716  31.618  1.00  0.00     0.091 C 
ATOM     13  C   UNL A   1      34.719  34.818  33.900  1.00  0.00     0.091 C 
ATOM     14  C   UNL A   1      36.084  33.237  31.884  1.00  0.00     0.264 C 
ATOM     15  C   UNL A   1      35.153  33.360  34.096  1.00  0.00     0.264 C 
ATOM     16  N   UNL A   1      36.274  32.924  33.284  1.00  0.00    -0.331 N 
ATOM     17  H   UNL A   1      36.231  31.907  33.363  1.00  0.00     0.348 HD
BRANCH  16  18
ATOM     18  C   UNL A   1      37.637  33.051  33.815  1.00  0.00     0.303 C 
BRANCH  18  19
ATOM     19  C   UNL A   1      37.974  32.133  34.945  1.00  0.00     0.052 A 
ATOM     20  C   UNL A   1      37.791  32.395  36.291  1.00  0.00     0.115 A 
ATOM     21  C   UNL A   1      38.413  30.764  34.923  1.00  0.00     0.101 A 
ATOM     22  N   UNL A   1      38.258  31.317  36.968  1.00  0.00    -0.285 N 
ATOM     23  N   UNL A   1      38.623  30.311  36.171  1.00  0.00    -0.175 NA
ATOM     24  H   UNL A   1      38.322  31.281  37.950  1.00  0.00     0.189 HD
BRANCH  21  25
ATOM     25  C   UNL A   1      38.592  29.839  33.802  1.00  0.00     0.003 A 
ATOM     26  C   UNL A   1      37.486  29.540  32.993  1.00  0.00     0.012 A 
ATOM     27  C   UNL A   1      39.805  29.194  33.541  1.00  0.00     0.012 A 
ATOM     28  C   UNL A   1      37.595  28.629  31.937  1.00  0.00     0.021 A 
ATOM     29  C   UNL A   1      39.921  28.285  32.483  1.00  0.00     0.021 A 
ATOM     30  C   UNL A   1      38.815  28.008  31.685  1.00  0.00     0.041 A 
ATOM     31  Cl  UNL A   1      38.952  26.880  30.394  1.00  0.00    -0.084 Cl
ENDBRANCH  21  25
ENDBRANCH  18  19
ENDBRANCH  16  18
ENDBRANCH   3   5
ENDBRANCH   2   3
ENDBRANCH   1   2
BRANCH   1  32
ATOM     32  C   UNL A   1      32.927  33.083  27.578  1.00  0.00     0.275 C 
BRANCH  32  33
ATOM     33  O   UNL A   1      33.371  31.904  28.280  1.00  0.00    -0.458 OA
BRANCH  33  34
ATOM     34  C   UNL A   1      34.083  31.020  27.545  1.00  0.00     0.338 C 
ATOM     35  O   UNL A   1      33.720  30.442  26.534  1.00  0.00    -0.246 OA
BRANCH  34  36
ATOM     36  C   UNL A   1      35.445  30.854  28.090  1.00  0.00     0.060 A 
ATOM     37  C   UNL A   1      36.246  31.968  28.354  1.00  0.00     0.016 A 
ATOM     38  C   UNL A   1      35.994  29.575  28.164  1.00  0.00     0.016 A 
ATOM     39  C   UNL A   1      37.606  31.813  28.609  1.00  0.00     0.010 A 
ATOM     40  C   UNL A   1      37.334  29.415  28.528  1.00  0.00     0.010 A 
ATOM     41  C   UNL A   1      38.160  30.532  28.734  1.00  0.00    -0.014 A 
BRANCH  41  42
ATOM     42  C   UNL A   1      39.579  30.352  29.146  1.00  0.00     0.031 A 
ATOM     43  C   UNL A   1      40.427  29.262  28.552  1.00  0.00     0.074 A 
ATOM     44  C   UNL A   1      40.086  31.136  30.116  1.00  0.00     0.049 A 
ATOM     45  N   UNL A   1      41.601  28.826  28.937  1.00  0.00    -0.248 NA
ATOM     46  C   UNL A   1      39.880  28.562  27.380  1.00  0.00     0.031 C 
ATOM     47  C   UNL A   1      39.377  32.238  30.771  1.00  0.00     0.029 A 
ATOM     48  N   UNL A   1      41.308  31.110  30.742  1.00  0.00    -0.354 N 
ATOM     49  C   UNL A   1      41.910  27.768  28.092  1.00  0.00     0.074 A 
ATOM     50  C   UNL A   1      40.801  27.630  27.171  1.00  0.00     0.031 C 
ATOM     51  C   UNL A   1      40.173  32.784  31.700  1.00  0.00     0.029 A 
ATOM     52  C   UNL A   1      41.413  32.019  31.765  1.00  0.00     0.049 A 
ATOM     53  H   UNL A   1      42.036  30.501  30.482  1.00  0.00     0.167 HD
ATOM     54  C   UNL A   1      43.015  26.982  28.094  1.00  0.00     0.037 A 
ATOM     55  C   UNL A   1      42.367  32.190  32.698  1.00  0.00     0.037 A 
ATOM     56  C   UNL A   1      44.131  27.148  28.992  1.00  0.00     0.049 A 
ATOM     57  C   UNL A   1      43.566  31.294  32.698  1.00  0.00     0.074 A 
ATOM     58  C   UNL A   1      45.321  26.439  29.030  1.00  0.00     0.029 A 
ATOM     59  N   UNL A   1      44.195  28.081  30.015  1.00  0.00    -0.354 N 
ATOM     60  N   UNL A   1      43.850  30.297  31.896  1.00  0.00    -0.248 NA
ATOM     61  C   UNL A   1      44.573  31.536  33.739  1.00  0.00     0.031 C 
ATOM     62  C   UNL A   1      46.082  26.912  30.105  1.00  0.00     0.029 A 
ATOM     63  C   UNL A   1      45.389  27.949  30.708  1.00  0.00     0.049 A 
ATOM     64  H   UNL A   1      43.494  28.742  30.220  1.00  0.00     0.167 HD
ATOM     65  C   UNL A   1      45.070  29.799  32.328  1.00  0.00     0.074 A 
ATOM     66  C   UNL A   1      45.482  30.615  33.452  1.00  0.00     0.031 C 
ATOM     67  C   UNL A   1      45.783  28.756  31.835  1.00  0.00     0.037 A 
BRANCH  54  68
ATOM     68  C   UNL A   1      43.060  25.843  27.116  1.00  0.00     0.057 A 
ATOM     69  C   UNL A   1      42.478  24.599  27.386  1.00  0.00     0.134 A 
ATOM     70  C   UNL A   1      43.668  26.011  25.864  1.00  0.00     0.134 A 
ATOM     71  F   UNL A   1      41.886  24.367  28.568  1.00  0.00    -0.206 F 
ATOM     72  C   UNL A   1      42.520  23.555  26.458  1.00  0.00     0.040 A 
ATOM     73  C   UNL A   1      43.695  24.984  24.919  1.00  0.00     0.040 A 
ATOM     74  F   UNL A   1      44.239  27.180  25.535  1.00  0.00    -0.206 F 
ATOM     75  C   UNL A   1      43.125  23.748  25.218  1.00  0.00     0.006 A 
ENDBRANCH  54  68
BRANCH  55  76
ATOM     76  C   UNL A   1      42.187  33.240  33.729  1.00  0.00     0.057 A 
ATOM     77  C   UNL A   1      42.444  34.583  33.444  1.00  0.00     0.134 A 
ATOM     78  C   UNL A   1      41.692  32.929  35.003  1.00  0.00     0.134 A 
ATOM     79  F   UNL A   1      42.935  34.937  32.246  1.00  0.00    -0.206 F 
ATOM     80  C   UNL A   1      42.213  35.585  34.387  1.00  0.00     0.040 A 
ATOM     81  C   UNL A   1      41.432  33.923  35.947  1.00  0.00     0.040 A 
ATOM     82  F   UNL A   1      41.416  31.658  35.330  1.00  0.00    -0.206 F 
ATOM     83  C   UNL A   1      41.694  35.256  35.639  1.00  0.00     0.006 A 
ENDBRANCH  55  76
BRANCH  67  84
ATOM     84  C   UNL A   1      47.092  28.455  32.502  1.00  0.00     0.057 A 
ATOM     85  C   UNL A   1      47.188  27.541  33.558  1.00  0.00     0.134 A 
ATOM     86  C   UNL A   1      48.272  29.075  32.072  1.00  0.00     0.134 A 
ATOM     87  F   UNL A   1      46.091  26.927  34.028  1.00  0.00    -0.206 F 
ATOM     88  C   UNL A   1      48.409  27.272  34.181  1.00  0.00     0.040 A 
ATOM     89  C   UNL A   1      49.502  28.797  32.671  1.00  0.00     0.040 A 
ATOM     90  F   UNL A   1      48.250  29.958  31.062  1.00  0.00    -0.206 F 
ATOM     91  C   UNL A   1      49.571  27.896  33.732  1.00  0.00     0.006 A 
ENDBRANCH  67  84
ENDBRANCH  41  42
ENDBRANCH  34  36
ENDBRANCH  33  34
ENDBRANCH  32  33
ENDBRANCH   1  32
TORSDOF 14
ENDMDL
MODEL 3
REMARK VINA RESULT:     -12.6      5.853     10.266
REMARK SMILES O=C1C[C@@H](C(=O)OCCOC(=O)c2ccc(-c3c4nc(c(-c5c(F)cccc5F)c5ccc([nH]5)c(-c5c(F)cccc5F)c5nc(c(-c6c(F)cccc6F)c6ccc3[nH]6)C=C5)C=C4)cc2)C2(CC[NH+](Cc3c[nH]nc3-c3ccc(Cl)cc3)CC2)N1
REMARK SMILES IDX 8 1 7 2 5 3 6 4 4 5 1 6 2 7 3 8 86 9 67 10 68 12 85 13 69 14
REMARK SMILES IDX 84 15 70 16 71 18 72 19 73 20 76 21 74 22 75 23 77 25 78 26
REMARK SMILES IDX 83 27 79 28 82 29 80 30 81 31 9 32 10 33 11 34 12 35 13 36
REMARK SMILES IDX 14 37 66 38 15 39 65 40 16 41 17 42 18 43 59 44 19 45 64 46
REMARK SMILES IDX 58 47 60 48 20 49 63 50 57 51 56 52 21 54 47 55 30 56 46 57
REMARK SMILES IDX 31 58 34 59 45 60 61 61 32 62 33 63 44 65 62 66 35 67 22 68
REMARK SMILES IDX 23 69 28 70 24 71 25 72 27 73 29 74 26 75 48 76 49 77 54 78
REMARK SMILES IDX 50 79 51 80 53 81 55 82 52 83 36 84 37 85 42 86 38 87 39 88
REMARK SMILES IDX 41 89 43 90 40 91
REMARK H PARENT 86 11 70 17 74 24 60 53 34 64
REMARK Flexibility Score: inf
ROOT
ATOM      1  C   UNL A   1      34.080  33.426  28.344  1.00  0.00     0.274 C 
ENDROOT
BRANCH   1   2
ATOM      2  O   UNL A   1      34.415  34.589  29.131  1.00  0.00    -0.462 OA
BRANCH   2   3
ATOM      3  C   UNL A   1      33.369  35.220  29.709  1.00  0.00     0.311 C 
ATOM      4  O   UNL A   1      32.531  35.873  29.091  1.00  0.00    -0.252 OA
BRANCH   3   5
ATOM      5  C   UNL A   1      33.306  35.127  31.223  1.00  0.00     0.134 C 
ATOM      6  O   UNL A   1      33.379  38.478  32.424  1.00  0.00    -0.275 OA
ATOM      7  C   UNL A   1      33.533  37.302  32.169  1.00  0.00     0.221 C 
ATOM      8  C   UNL A   1      32.480  36.347  31.678  1.00  0.00     0.117 C 
ATOM      9  N   UNL A   1      34.702  36.598  32.336  1.00  0.00    -0.349 N 
ATOM     10  C   UNL A   1      34.563  35.164  32.125  1.00  0.00     0.064 C 
ATOM     11  H   UNL A   1      35.556  37.024  32.577  1.00  0.00     0.164 HD
ATOM     12  C   UNL A   1      35.885  34.606  31.577  1.00  0.00     0.091 C 
ATOM     13  C   UNL A   1      34.224  34.520  33.510  1.00  0.00     0.091 C 
ATOM     14  C   UNL A   1      36.088  33.113  31.786  1.00  0.00     0.264 C 
ATOM     15  C   UNL A   1      34.640  33.056  33.703  1.00  0.00     0.264 C 
ATOM     16  N   UNL A   1      35.938  32.696  33.163  1.00  0.00    -0.331 N 
ATOM     17  H   UNL A   1      35.908  31.677  33.156  1.00  0.00     0.348 HD
BRANCH  16  18
ATOM     18  C   UNL A   1      37.126  32.798  34.021  1.00  0.00     0.303 C 
BRANCH  18  19
ATOM     19  C   UNL A   1      38.148  31.725  33.832  1.00  0.00     0.052 A 
ATOM     20  C   UNL A   1      38.103  30.451  34.371  1.00  0.00     0.115 A 
ATOM     21  C   UNL A   1      39.301  31.689  32.974  1.00  0.00     0.101 A 
ATOM     22  N   UNL A   1      39.237  29.819  33.979  1.00  0.00    -0.285 N 
ATOM     23  N   UNL A   1      39.970  30.533  33.123  1.00  0.00    -0.175 NA
ATOM     24  H   UNL A   1      39.494  28.923  34.296  1.00  0.00     0.189 HD
BRANCH  21  25
ATOM     25  C   UNL A   1      39.780  32.654  31.982  1.00  0.00     0.003 A 
ATOM     26  C   UNL A   1      39.074  32.787  30.777  1.00  0.00     0.012 A 
ATOM     27  C   UNL A   1      40.947  33.404  32.159  1.00  0.00     0.012 A 
ATOM     28  C   UNL A   1      39.515  33.662  29.780  1.00  0.00     0.021 A 
ATOM     29  C   UNL A   1      41.390  34.285  31.165  1.00  0.00     0.021 A 
ATOM     30  C   UNL A   1      40.671  34.410  29.980  1.00  0.00     0.041 A 
ATOM     31  Cl  UNL A   1      41.224  35.480  28.753  1.00  0.00    -0.084 Cl
ENDBRANCH  21  25
ENDBRANCH  18  19
ENDBRANCH  16  18
ENDBRANCH   3   5
ENDBRANCH   2   3
ENDBRANCH   1   2
BRANCH   1  32
ATOM     32  C   UNL A   1      35.329  32.617  27.986  1.00  0.00     0.275 C 
BRANCH  32  33
ATOM     33  O   UNL A   1      35.643  31.676  29.033  1.00  0.00    -0.458 OA
BRANCH  33  34
ATOM     34  C   UNL A   1      35.607  30.372  28.677  1.00  0.00     0.338 C 
ATOM     35  O   UNL A   1      34.624  29.721  28.366  1.00  0.00    -0.246 OA
BRANCH  34  36
ATOM     36  C   UNL A   1      36.965  29.794  28.647  1.00  0.00     0.060 A 
ATOM     37  C   UNL A   1      37.621  29.456  29.833  1.00  0.00     0.016 A 
ATOM     38  C   UNL A   1      37.660  29.760  27.439  1.00  0.00     0.016 A 
ATOM     39  C   UNL A   1      38.983  29.167  29.827  1.00  0.00     0.010 A 
ATOM     40  C   UNL A   1      39.000  29.363  27.420  1.00  0.00     0.010 A 
ATOM     41  C   UNL A   1      39.682  29.081  28.616  1.00  0.00    -0.014 A 
BRANCH  41  42
ATOM     42  C   UNL A   1      41.101  28.635  28.584  1.00  0.00     0.031 A 
ATOM     43  C   UNL A   1      42.228  29.619  28.730  1.00  0.00     0.074 A 
ATOM     44  C   UNL A   1      41.377  27.337  28.353  1.00  0.00     0.049 A 
ATOM     45  N   UNL A   1      43.509  29.445  28.517  1.00  0.00    -0.248 NA
ATOM     46  C   UNL A   1      41.868  30.980  29.156  1.00  0.00     0.031 C 
ATOM     47  C   UNL A   1      40.381  26.274  28.203  1.00  0.00     0.029 A 
ATOM     48  N   UNL A   1      42.577  26.694  28.174  1.00  0.00    -0.354 N 
ATOM     49  C   UNL A   1      44.102  30.684  28.731  1.00  0.00     0.074 A 
ATOM     50  C   UNL A   1      43.040  31.599  29.094  1.00  0.00     0.031 C 
ATOM     51  C   UNL A   1      41.006  25.114  27.961  1.00  0.00     0.029 A 
ATOM     52  C   UNL A   1      42.438  25.366  27.853  1.00  0.00     0.049 A 
ATOM     53  H   UNL A   1      43.449  27.141  28.268  1.00  0.00     0.167 HD
ATOM     54  C   UNL A   1      45.411  31.022  28.627  1.00  0.00     0.037 A 
ATOM     55  C   UNL A   1      43.345  24.456  27.456  1.00  0.00     0.037 A 
ATOM     56  C   UNL A   1      46.467  30.097  28.299  1.00  0.00     0.049 A 
ATOM     57  C   UNL A   1      44.781  24.858  27.320  1.00  0.00     0.074 A 
ATOM     58  C   UNL A   1      47.831  30.334  28.228  1.00  0.00     0.029 A 
ATOM     59  N   UNL A   1      46.282  28.761  27.979  1.00  0.00    -0.354 N 
ATOM     60  N   UNL A   1      45.331  26.029  27.525  1.00  0.00    -0.248 NA
ATOM     61  C   UNL A   1      45.721  23.817  26.888  1.00  0.00     0.031 C 
ATOM     62  C   UNL A   1      48.463  29.154  27.821  1.00  0.00     0.029 A 
ATOM     63  C   UNL A   1      47.500  28.168  27.684  1.00  0.00     0.049 A 
ATOM     64  H   UNL A   1      45.411  28.300  27.965  1.00  0.00     0.167 HD
ATOM     65  C   UNL A   1      46.682  25.866  27.256  1.00  0.00     0.074 A 
ATOM     66  C   UNL A   1      46.871  24.476  26.890  1.00  0.00     0.031 C 
ATOM     67  C   UNL A   1      47.675  26.787  27.306  1.00  0.00     0.037 A 
BRANCH  54  68
ATOM     68  C   UNL A   1      45.775  32.465  28.832  1.00  0.00     0.057 A 
ATOM     69  C   UNL A   1      46.139  32.976  30.083  1.00  0.00     0.134 A 
ATOM     70  C   UNL A   1      45.796  33.349  27.743  1.00  0.00     0.134 A 
ATOM     71  F   UNL A   1      46.133  32.187  31.169  1.00  0.00    -0.206 F 
ATOM     72  C   UNL A   1      46.486  34.320  30.251  1.00  0.00     0.040 A 
ATOM     73  C   UNL A   1      46.165  34.687  27.894  1.00  0.00     0.040 A 
ATOM     74  F   UNL A   1      45.467  32.924  26.514  1.00  0.00    -0.206 F 
ATOM     75  C   UNL A   1      46.505  35.177  29.153  1.00  0.00     0.006 A 
ENDBRANCH  54  68
BRANCH  55  76
ATOM     76  C   UNL A   1      42.892  23.085  27.123  1.00  0.00     0.057 A 
ATOM     77  C   UNL A   1      42.569  22.168  28.126  1.00  0.00     0.134 A 
ATOM     78  C   UNL A   1      42.711  22.683  25.792  1.00  0.00     0.134 A 
ATOM     79  F   UNL A   1      42.738  22.493  29.417  1.00  0.00    -0.206 F 
ATOM     80  C   UNL A   1      42.077  20.898  27.822  1.00  0.00     0.040 A 
ATOM     81  C   UNL A   1      42.197  21.426  25.474  1.00  0.00     0.040 A 
ATOM     82  F   UNL A   1      42.994  23.524  24.787  1.00  0.00    -0.206 F 
ATOM     83  C   UNL A   1      41.879  20.530  26.492  1.00  0.00     0.006 A 
ENDBRANCH  55  76
BRANCH  67  84
ATOM     84  C   UNL A   1      49.059  26.311  26.975  1.00  0.00     0.057 A 
ATOM     85  C   UNL A   1      49.588  26.426  25.683  1.00  0.00     0.134 A 
ATOM     86  C   UNL A   1      49.876  25.747  27.962  1.00  0.00     0.134 A 
ATOM     87  F   UNL A   1      48.849  26.943  24.689  1.00  0.00    -0.206 F 
ATOM     88  C   UNL A   1      50.873  25.973  25.379  1.00  0.00     0.040 A 
ATOM     89  C   UNL A   1      51.170  25.312  27.676  1.00  0.00     0.040 A 
ATOM     90  F   UNL A   1      49.430  25.612  29.221  1.00  0.00    -0.206 F 
ATOM     91  C   UNL A   1      51.670  25.420  26.380  1.00  0.00     0.006 A 
ENDBRANCH  67  84
ENDBRANCH  41  42
ENDBRANCH  34  36
ENDBRANCH  33  34
ENDBRANCH  32  33
ENDBRANCH   1  32
TORSDOF 14
ENDMDL
