MODEL 1
REMARK VINA RESULT:     -11.2      0.000      0.000
REMARK SMILES C[C@H]1CCC[C@H](S[C@@H]2CCC[C@]([NH3+])(C(=O)OCCOC(=O)c3ccc(-c4c5nc(c(-c6c(F)cccc6F)c6ccc([nH]6)c(-c6c(F)cccc6F)c6nc(c(-c7c(F)cccc7F)c7ccc4[nH]7)C=C6)C=C5)cc3)C2)C1
REMARK SMILES IDX 17 1 16 2 14 3 15 4 12 5 8 6 9 7 76 8 10 9 11 10 7 11 6 12
REMARK SMILES IDX 1 13 2 14 3 15 77 16 4 17 5 18 13 19 18 23 19 24 20 25 21 26
REMARK SMILES IDX 22 27 23 28 75 29 24 30 74 31 25 32 26 33 27 34 68 35 28 36
REMARK SMILES IDX 73 37 67 38 69 39 29 40 72 41 66 42 65 43 30 45 56 46 39 47
REMARK SMILES IDX 55 48 40 49 43 50 54 51 70 52 41 53 42 54 53 56 71 57 44 58
REMARK SMILES IDX 31 59 32 60 37 61 33 62 34 63 36 64 38 65 35 66 57 67 58 68
REMARK SMILES IDX 63 69 59 70 60 71 62 72 64 73 61 74 45 75 46 76 51 77 47 78
REMARK SMILES IDX 48 79 50 80 52 81 49 82
REMARK H PARENT 13 20 13 21 13 22 69 44 43 55
REMARK Flexibility Score: inf
ROOT
ATOM      1  C   UNL A   1      31.334  31.843  26.612  1.00  0.00     0.274 C 
ENDROOT
BRANCH   1   2
ATOM      2  O   UNL A   1      32.094  30.844  25.896  1.00  0.00    -0.457 OA
BRANCH   2   3
ATOM      3  C   UNL A   1      31.967  29.555  26.328  1.00  0.00     0.368 C 
ATOM      4  O   UNL A   1      31.795  29.246  27.502  1.00  0.00    -0.245 OA
BRANCH   3   5
ATOM      5  C   UNL A   1      32.083  28.507  25.169  1.00  0.00     0.193 C 
ATOM      6  C   UNL A   1      32.501  25.901  25.064  1.00  0.00     0.053 C 
ATOM      7  C   UNL A   1      33.798  26.141  24.308  1.00  0.00     0.015 C 
ATOM      8  C   UNL A   1      31.861  27.098  25.756  1.00  0.00     0.095 C 
ATOM      9  C   UNL A   1      33.810  27.490  23.594  1.00  0.00     0.008 C 
ATOM     10  C   UNL A   1      33.482  28.635  24.550  1.00  0.00     0.081 C 
BRANCH   6  11
ATOM     11  S   UNL A   1      32.472  24.382  26.142  1.00  0.00    -0.155 SA
BRANCH  11  12
ATOM     12  C   UNL A   1      33.766  23.134  25.621  1.00  0.00     0.047 C 
ATOM     13  C   UNL A   1      37.630  23.840  25.812  1.00  0.00     0.007 C 
ATOM     14  C   UNL A   1      36.226  23.849  25.206  1.00  0.00    -0.013 C 
ATOM     15  C   UNL A   1      36.199  23.134  23.859  1.00  0.00     0.003 C 
ATOM     16  C   UNL A   1      35.197  23.258  26.173  1.00  0.00     0.017 C 
ATOM     17  C   UNL A   1      34.800  23.151  23.258  1.00  0.00     0.001 C 
ATOM     18  C   UNL A   1      33.730  22.591  24.192  1.00  0.00     0.014 C 
ENDBRANCH  11  12
ENDBRANCH   6  11
BRANCH   5  19
ATOM     19  N   UNL A   1      31.056  28.749  24.120  1.00  0.00    -0.343 N 
ATOM     20  H   UNL A   1      31.073  27.985  23.446  1.00  0.00     0.345 HD
ATOM     21  H   UNL A   1      31.258  29.628  23.644  1.00  0.00     0.345 HD
ATOM     22  H   UNL A   1      30.134  28.801  24.553  1.00  0.00     0.345 HD
ENDBRANCH   5  19
ENDBRANCH   3   5
ENDBRANCH   2   3
ENDBRANCH   1   2
BRANCH   1  23
ATOM     23  C   UNL A   1      32.116  33.153  26.757  1.00  0.00     0.275 C 
BRANCH  23  24
ATOM     24  O   UNL A   1      32.139  33.627  28.120  1.00  0.00    -0.458 OA
BRANCH  24  25
ATOM     25  C   UNL A   1      33.138  34.495  28.396  1.00  0.00     0.338 C 
ATOM     26  O   UNL A   1      33.044  35.706  28.524  1.00  0.00    -0.246 OA
BRANCH  25  27
ATOM     27  C   UNL A   1      34.379  33.769  28.720  1.00  0.00     0.060 A 
ATOM     28  C   UNL A   1      34.208  32.502  29.264  1.00  0.00     0.016 A 
ATOM     29  C   UNL A   1      35.657  34.320  28.644  1.00  0.00     0.016 A 
ATOM     30  C   UNL A   1      35.273  31.787  29.782  1.00  0.00     0.010 A 
ATOM     31  C   UNL A   1      36.751  33.579  29.128  1.00  0.00     0.010 A 
ATOM     32  C   UNL A   1      36.559  32.311  29.705  1.00  0.00    -0.014 A 
BRANCH  32  33
ATOM     33  C   UNL A   1      37.650  31.535  30.332  1.00  0.00     0.031 A 
ATOM     34  C   UNL A   1      37.900  31.686  31.800  1.00  0.00     0.074 A 
ATOM     35  C   UNL A   1      38.313  30.599  29.629  1.00  0.00     0.049 A 
ATOM     36  N   UNL A   1      38.858  31.182  32.533  1.00  0.00    -0.248 NA
ATOM     37  C   UNL A   1      36.930  32.502  32.546  1.00  0.00     0.031 C 
ATOM     38  C   UNL A   1      38.041  30.235  28.239  1.00  0.00     0.029 A 
ATOM     39  N   UNL A   1      39.339  29.766  29.998  1.00  0.00    -0.354 N 
ATOM     40  C   UNL A   1      38.633  31.653  33.817  1.00  0.00     0.074 A 
ATOM     41  C   UNL A   1      37.434  32.463  33.771  1.00  0.00     0.031 C 
ATOM     42  C   UNL A   1      38.877  29.248  27.873  1.00  0.00     0.029 A 
ATOM     43  C   UNL A   1      39.784  28.957  28.980  1.00  0.00     0.049 A 
ATOM     44  H   UNL A   1      39.720  29.750  30.905  1.00  0.00     0.167 HD
ATOM     45  C   UNL A   1      39.378  31.448  34.928  1.00  0.00     0.037 A 
ATOM     46  C   UNL A   1      40.832  28.112  28.942  1.00  0.00     0.037 A 
ATOM     47  C   UNL A   1      40.561  30.631  34.965  1.00  0.00     0.049 A 
ATOM     48  C   UNL A   1      41.711  27.983  30.158  1.00  0.00     0.074 A 
ATOM     49  C   UNL A   1      41.428  30.411  36.021  1.00  0.00     0.029 A 
ATOM     50  N   UNL A   1      41.038  29.893  33.893  1.00  0.00    -0.354 N 
ATOM     51  N   UNL A   1      41.564  28.519  31.346  1.00  0.00    -0.248 NA
ATOM     52  C   UNL A   1      42.920  27.158  30.020  1.00  0.00     0.031 C 
ATOM     53  C   UNL A   1      42.451  29.568  35.574  1.00  0.00     0.029 A 
ATOM     54  C   UNL A   1      42.197  29.230  34.255  1.00  0.00     0.049 A 
ATOM     55  H   UNL A   1      40.614  29.847  33.005  1.00  0.00     0.167 HD
ATOM     56  C   UNL A   1      42.645  28.082  32.100  1.00  0.00     0.074 A 
ATOM     57  C   UNL A   1      43.436  27.226  31.240  1.00  0.00     0.031 C 
ATOM     58  C   UNL A   1      42.959  28.368  33.386  1.00  0.00     0.037 A 
BRANCH  45  59
ATOM     59  C   UNL A   1      38.976  32.194  36.162  1.00  0.00     0.057 A 
ATOM     60  C   UNL A   1      38.142  31.638  37.138  1.00  0.00     0.134 A 
ATOM     61  C   UNL A   1      39.429  33.505  36.364  1.00  0.00     0.134 A 
ATOM     62  F   UNL A   1      37.656  30.396  36.990  1.00  0.00    -0.206 F 
ATOM     63  C   UNL A   1      37.752  32.368  38.262  1.00  0.00     0.040 A 
ATOM     64  C   UNL A   1      39.063  34.238  37.493  1.00  0.00     0.040 A 
ATOM     65  F   UNL A   1      40.228  34.095  35.462  1.00  0.00    -0.206 F 
ATOM     66  C   UNL A   1      38.216  33.671  38.443  1.00  0.00     0.006 A 
ENDBRANCH  45  59
BRANCH  46  67
ATOM     67  C   UNL A   1      41.154  27.365  27.698  1.00  0.00     0.057 A 
ATOM     68  C   UNL A   1      40.666  26.072  27.482  1.00  0.00     0.134 A 
ATOM     69  C   UNL A   1      41.991  27.909  26.716  1.00  0.00     0.134 A 
ATOM     70  F   UNL A   1      39.884  25.483  28.399  1.00  0.00    -0.206 F 
ATOM     71  C   UNL A   1      41.006  25.342  26.340  1.00  0.00     0.040 A 
ATOM     72  C   UNL A   1      42.319  27.201  25.558  1.00  0.00     0.040 A 
ATOM     73  F   UNL A   1      42.501  29.141  26.864  1.00  0.00    -0.206 F 
ATOM     74  C   UNL A   1      41.832  25.909  25.372  1.00  0.00     0.006 A 
ENDBRANCH  46  67
BRANCH  58  75
ATOM     75  C   UNL A   1      44.185  27.722  33.957  1.00  0.00     0.057 A 
ATOM     76  C   UNL A   1      45.436  28.351  33.920  1.00  0.00     0.134 A 
ATOM     77  C   UNL A   1      44.100  26.483  34.606  1.00  0.00     0.134 A 
ATOM     78  F   UNL A   1      45.585  29.532  33.302  1.00  0.00    -0.206 F 
ATOM     79  C   UNL A   1      46.562  27.765  34.501  1.00  0.00     0.040 A 
ATOM     80  C   UNL A   1      45.214  25.898  35.209  1.00  0.00     0.040 A 
ATOM     81  F   UNL A   1      42.928  25.834  34.682  1.00  0.00    -0.206 F 
ATOM     82  C   UNL A   1      46.450  26.539  35.154  1.00  0.00     0.006 A 
ENDBRANCH  58  75
ENDBRANCH  32  33
ENDBRANCH  25  27
ENDBRANCH  24  25
ENDBRANCH  23  24
ENDBRANCH   1  23
TORSDOF 14
ENDMDL
MODEL 2
REMARK VINA RESULT:     -11.1      1.448      6.678
REMARK SMILES C[C@H]1CCC[C@H](S[C@@H]2CCC[C@]([NH3+])(C(=O)OCCOC(=O)c3ccc(-c4c5nc(c(-c6c(F)cccc6F)c6ccc([nH]6)c(-c6c(F)cccc6F)c6nc(c(-c7c(F)cccc7F)c7ccc4[nH]7)C=C6)C=C5)cc3)C2)C1
REMARK SMILES IDX 17 1 16 2 14 3 15 4 12 5 8 6 9 7 76 8 10 9 11 10 7 11 6 12
REMARK SMILES IDX 1 13 2 14 3 15 77 16 4 17 5 18 13 19 18 23 19 24 20 25 21 26
REMARK SMILES IDX 22 27 23 28 75 29 24 30 74 31 25 32 26 33 27 34 68 35 28 36
REMARK SMILES IDX 73 37 67 38 69 39 29 40 72 41 66 42 65 43 30 45 56 46 39 47
REMARK SMILES IDX 55 48 40 49 43 50 54 51 70 52 41 53 42 54 53 56 71 57 44 58
REMARK SMILES IDX 31 59 32 60 37 61 33 62 34 63 36 64 38 65 35 66 57 67 58 68
REMARK SMILES IDX 63 69 59 70 60 71 62 72 64 73 61 74 45 75 46 76 51 77 47 78
REMARK SMILES IDX 48 79 50 80 52 81 49 82
REMARK H PARENT 13 20 13 21 13 22 69 44 43 55
REMARK Flexibility Score: inf
ROOT
ATOM      1  C   UNL A   1      32.229  28.730  25.165  1.00  0.00     0.274 C 
ENDROOT
BRANCH   1   2
ATOM      2  O   UNL A   1      31.118  27.806  25.122  1.00  0.00    -0.457 OA
BRANCH   2   3
ATOM      3  C   UNL A   1      31.057  26.879  26.123  1.00  0.00     0.368 C 
ATOM      4  O   UNL A   1      31.380  27.111  27.283  1.00  0.00    -0.245 OA
BRANCH   3   5
ATOM      5  C   UNL A   1      30.548  25.481  25.633  1.00  0.00     0.193 C 
ATOM      6  C   UNL A   1      31.641  23.086  25.414  1.00  0.00     0.053 C 
ATOM      7  C   UNL A   1      31.439  23.133  23.907  1.00  0.00     0.015 C 
ATOM      8  C   UNL A   1      31.494  24.394  26.182  1.00  0.00     0.095 C 
ATOM      9  C   UNL A   1      30.328  24.098  23.502  1.00  0.00     0.008 C 
ATOM     10  C   UNL A   1      30.545  25.487  24.097  1.00  0.00     0.081 C 
BRANCH   6  11
ATOM     11  S   UNL A   1      33.113  22.104  25.995  1.00  0.00    -0.155 SA
BRANCH  11  12
ATOM     12  C   UNL A   1      34.603  22.365  24.891  1.00  0.00     0.047 C 
ATOM     13  C   UNL A   1      37.786  20.058  25.001  1.00  0.00     0.007 C 
ATOM     14  C   UNL A   1      36.870  21.213  25.408  1.00  0.00    -0.013 C 
ATOM     15  C   UNL A   1      37.577  22.557  25.268  1.00  0.00     0.003 C 
ATOM     16  C   UNL A   1      35.557  21.188  24.623  1.00  0.00     0.017 C 
ATOM     17  C   UNL A   1      36.662  23.703  25.680  1.00  0.00     0.001 C 
ATOM     18  C   UNL A   1      35.326  23.711  24.941  1.00  0.00     0.014 C 
ENDBRANCH  11  12
ENDBRANCH   6  11
BRANCH   5  19
ATOM     19  N   UNL A   1      29.172  25.206  26.126  1.00  0.00    -0.343 N 
ATOM     20  H   UNL A   1      29.221  24.806  27.062  1.00  0.00     0.345 HD
ATOM     21  H   UNL A   1      28.712  24.547  25.498  1.00  0.00     0.345 HD
ATOM     22  H   UNL A   1      28.642  26.076  26.155  1.00  0.00     0.345 HD
ENDBRANCH   5  19
ENDBRANCH   3   5
ENDBRANCH   2   3
ENDBRANCH   1   2
BRANCH   1  23
ATOM     23  C   UNL A   1      31.793  30.117  25.653  1.00  0.00     0.275 C 
BRANCH  23  24
ATOM     24  O   UNL A   1      32.234  30.384  27.001  1.00  0.00    -0.458 OA
BRANCH  24  25
ATOM     25  C   UNL A   1      32.870  31.566  27.160  1.00  0.00     0.338 C 
ATOM     26  O   UNL A   1      32.391  32.681  27.029  1.00  0.00    -0.246 OA
BRANCH  25  27
ATOM     27  C   UNL A   1      34.221  31.356  27.710  1.00  0.00     0.060 A 
ATOM     28  C   UNL A   1      34.524  30.050  28.074  1.00  0.00     0.016 A 
ATOM     29  C   UNL A   1      35.120  32.379  28.003  1.00  0.00     0.016 A 
ATOM     30  C   UNL A   1      35.680  29.741  28.769  1.00  0.00     0.010 A 
ATOM     31  C   UNL A   1      36.319  32.066  28.669  1.00  0.00     0.010 A 
ATOM     32  C   UNL A   1      36.598  30.744  29.061  1.00  0.00    -0.014 A 
BRANCH  32  33
ATOM     33  C   UNL A   1      37.784  30.371  29.862  1.00  0.00     0.031 A 
ATOM     34  C   UNL A   1      38.865  29.555  29.226  1.00  0.00     0.074 A 
ATOM     35  C   UNL A   1      37.960  30.878  31.096  1.00  0.00     0.049 A 
ATOM     36  N   UNL A   1      39.937  29.036  29.765  1.00  0.00    -0.248 NA
ATOM     37  C   UNL A   1      38.728  29.304  27.782  1.00  0.00     0.031 C 
ATOM     38  C   UNL A   1      37.063  31.825  31.758  1.00  0.00     0.029 A 
ATOM     39  N   UNL A   1      38.969  30.683  32.005  1.00  0.00    -0.354 N 
ATOM     40  C   UNL A   1      40.581  28.361  28.739  1.00  0.00     0.074 A 
ATOM     41  C   UNL A   1      39.795  28.556  27.540  1.00  0.00     0.031 C 
ATOM     42  C   UNL A   1      37.565  32.133  32.966  1.00  0.00     0.029 A 
ATOM     43  C   UNL A   1      38.782  31.356  33.188  1.00  0.00     0.049 A 
ATOM     44  H   UNL A   1      39.753  30.115  31.826  1.00  0.00     0.167 HD
ATOM     45  C   UNL A   1      41.713  27.623  28.804  1.00  0.00     0.037 A 
ATOM     46  C   UNL A   1      39.493  31.311  34.331  1.00  0.00     0.037 A 
ATOM     47  C   UNL A   1      42.493  27.447  29.999  1.00  0.00     0.049 A 
ATOM     48  C   UNL A   1      40.687  30.397  34.412  1.00  0.00     0.074 A 
ATOM     49  C   UNL A   1      43.619  26.665  30.191  1.00  0.00     0.029 A 
ATOM     50  N   UNL A   1      42.227  28.072  31.208  1.00  0.00    -0.354 N 
ATOM     51  N   UNL A   1      41.235  29.666  33.472  1.00  0.00    -0.248 NA
ATOM     52  C   UNL A   1      41.344  30.277  35.722  1.00  0.00     0.031 C 
ATOM     53  C   UNL A   1      44.011  26.788  31.527  1.00  0.00     0.029 A 
ATOM     54  C   UNL A   1      43.156  27.680  32.156  1.00  0.00     0.049 A 
ATOM     55  H   UNL A   1      41.488  28.701  31.369  1.00  0.00     0.167 HD
ATOM     56  C   UNL A   1      42.308  29.016  34.068  1.00  0.00     0.074 A 
ATOM     57  C   UNL A   1      42.344  29.449  35.449  1.00  0.00     0.031 C 
ATOM     58  C   UNL A   1      43.183  28.137  33.522  1.00  0.00     0.037 A 
BRANCH  45  59
ATOM     59  C   UNL A   1      42.113  26.885  27.565  1.00  0.00     0.057 A 
ATOM     60  C   UNL A   1      42.877  27.476  26.552  1.00  0.00     0.134 A 
ATOM     61  C   UNL A   1      41.708  25.556  27.382  1.00  0.00     0.134 A 
ATOM     62  F   UNL A   1      43.275  28.753  26.658  1.00  0.00    -0.206 F 
ATOM     63  C   UNL A   1      43.206  26.778  25.389  1.00  0.00     0.040 A 
ATOM     64  C   UNL A   1      42.048  24.841  26.233  1.00  0.00     0.040 A 
ATOM     65  F   UNL A   1      40.970  24.935  28.314  1.00  0.00    -0.206 F 
ATOM     66  C   UNL A   1      42.794  25.455  25.229  1.00  0.00     0.006 A 
ENDBRANCH  45  59
BRANCH  46  67
ATOM     67  C   UNL A   1      39.068  32.101  35.516  1.00  0.00     0.057 A 
ATOM     68  C   UNL A   1      38.223  31.554  36.487  1.00  0.00     0.134 A 
ATOM     69  C   UNL A   1      39.463  33.434  35.684  1.00  0.00     0.134 A 
ATOM     70  F   UNL A   1      37.785  30.292  36.368  1.00  0.00    -0.206 F 
ATOM     71  C   UNL A   1      37.776  32.306  37.576  1.00  0.00     0.040 A 
ATOM     72  C   UNL A   1      39.044  34.189  36.781  1.00  0.00     0.040 A 
ATOM     73  F   UNL A   1      40.265  34.023  34.785  1.00  0.00    -0.206 F 
ATOM     74  C   UNL A   1      38.191  33.627  37.727  1.00  0.00     0.006 A 
ENDBRANCH  46  67
BRANCH  58  75
ATOM     75  C   UNL A   1      44.275  27.614  34.405  1.00  0.00     0.057 A 
ATOM     76  C   UNL A   1      44.135  26.419  35.122  1.00  0.00     0.134 A 
ATOM     77  C   UNL A   1      45.503  28.282  34.488  1.00  0.00     0.134 A 
ATOM     78  F   UNL A   1      42.979  25.740  35.093  1.00  0.00    -0.206 F 
ATOM     79  C   UNL A   1      45.177  25.911  35.901  1.00  0.00     0.040 A 
ATOM     80  C   UNL A   1      46.559  27.773  35.246  1.00  0.00     0.040 A 
ATOM     81  F   UNL A   1      45.703  29.427  33.819  1.00  0.00    -0.206 F 
ATOM     82  C   UNL A   1      46.396  26.585  35.957  1.00  0.00     0.006 A 
ENDBRANCH  58  75
ENDBRANCH  32  33
ENDBRANCH  25  27
ENDBRANCH  24  25
ENDBRANCH  23  24
ENDBRANCH   1  23
TORSDOF 14
ENDMDL
MODEL 3
REMARK VINA RESULT:     -11.1      4.331      7.677
REMARK SMILES C[C@H]1CCC[C@H](S[C@@H]2CCC[C@]([NH3+])(C(=O)OCCOC(=O)c3ccc(-c4c5nc(c(-c6c(F)cccc6F)c6ccc([nH]6)c(-c6c(F)cccc6F)c6nc(c(-c7c(F)cccc7F)c7ccc4[nH]7)C=C6)C=C5)cc3)C2)C1
REMARK SMILES IDX 17 1 16 2 14 3 15 4 12 5 8 6 9 7 76 8 10 9 11 10 7 11 6 12
REMARK SMILES IDX 1 13 2 14 3 15 77 16 4 17 5 18 13 19 18 23 19 24 20 25 21 26
REMARK SMILES IDX 22 27 23 28 75 29 24 30 74 31 25 32 26 33 27 34 68 35 28 36
REMARK SMILES IDX 73 37 67 38 69 39 29 40 72 41 66 42 65 43 30 45 56 46 39 47
REMARK SMILES IDX 55 48 40 49 43 50 54 51 70 52 41 53 42 54 53 56 71 57 44 58
REMARK SMILES IDX 31 59 32 60 37 61 33 62 34 63 36 64 38 65 35 66 57 67 58 68
REMARK SMILES IDX 63 69 59 70 60 71 62 72 64 73 61 74 45 75 46 76 51 77 47 78
REMARK SMILES IDX 48 79 50 80 52 81 49 82
REMARK H PARENT 13 20 13 21 13 22 69 44 43 55
REMARK Flexibility Score: inf
ROOT
ATOM      1  C   UNL A   1      34.570  21.225  25.998  1.00  0.00     0.274 C 
ENDROOT
BRANCH   1   2
ATOM      2  O   UNL A   1      33.695  22.007  25.154  1.00  0.00    -0.457 OA
BRANCH   2   3
ATOM      3  C   UNL A   1      33.775  23.364  25.283  1.00  0.00     0.368 C 
ATOM      4  O   UNL A   1      33.591  23.956  26.341  1.00  0.00    -0.245 OA
BRANCH   3   5
ATOM      5  C   UNL A   1      34.106  24.090  23.935  1.00  0.00     0.193 C 
ATOM      6  C   UNL A   1      33.814  26.558  23.040  1.00  0.00     0.053 C 
ATOM      7  C   UNL A   1      32.868  26.053  21.961  1.00  0.00     0.015 C 
ATOM      8  C   UNL A   1      34.136  25.610  24.190  1.00  0.00     0.095 C 
ATOM      9  C   UNL A   1      33.081  24.574  21.651  1.00  0.00     0.008 C 
ATOM     10  C   UNL A   1      33.019  23.720  22.916  1.00  0.00     0.081 C 
BRANCH   6  11
ATOM     11  S   UNL A   1      33.492  28.290  23.642  1.00  0.00    -0.155 SA
BRANCH  11  12
ATOM     12  C   UNL A   1      31.744  28.491  24.283  1.00  0.00     0.047 C 
ATOM     13  C   UNL A   1      29.681  25.536  25.856  1.00  0.00     0.007 C 
ATOM     14  C   UNL A   1      30.242  26.426  24.747  1.00  0.00    -0.013 C 
ATOM     15  C   UNL A   1      29.124  27.065  23.929  1.00  0.00     0.003 C 
ATOM     16  C   UNL A   1      31.197  27.482  25.308  1.00  0.00     0.017 C 
ATOM     17  C   UNL A   1      29.688  27.946  22.822  1.00  0.00     0.001 C 
ATOM     18  C   UNL A   1      30.666  29.005  23.327  1.00  0.00     0.014 C 
ENDBRANCH  11  12
ENDBRANCH   6  11
BRANCH   5  19
ATOM     19  N   UNL A   1      35.434  23.671  23.411  1.00  0.00    -0.343 N 
ATOM     20  H   UNL A   1      35.436  22.663  23.259  1.00  0.00     0.345 HD
ATOM     21  H   UNL A   1      36.158  23.915  24.087  1.00  0.00     0.345 HD
ATOM     22  H   UNL A   1      35.616  24.149  22.529  1.00  0.00     0.345 HD
ENDBRANCH   5  19
ENDBRANCH   3   5
ENDBRANCH   2   3
ENDBRANCH   1   2
BRANCH   1  23
ATOM     23  C   UNL A   1      35.767  20.673  25.216  1.00  0.00     0.275 C 
BRANCH  23  24
ATOM     24  O   UNL A   1      36.843  21.629  25.119  1.00  0.00    -0.458 OA
BRANCH  24  25
ATOM     25  C   UNL A   1      38.045  21.167  25.531  1.00  0.00     0.338 C 
ATOM     26  O   UNL A   1      38.536  20.077  25.283  1.00  0.00    -0.246 OA
BRANCH  25  27
ATOM     27  C   UNL A   1      38.812  22.237  26.192  1.00  0.00     0.060 A 
ATOM     28  C   UNL A   1      38.382  23.532  25.930  1.00  0.00     0.016 A 
ATOM     29  C   UNL A   1      39.982  22.034  26.921  1.00  0.00     0.016 A 
ATOM     30  C   UNL A   1      39.116  24.634  26.333  1.00  0.00     0.010 A 
ATOM     31  C   UNL A   1      40.709  23.150  27.373  1.00  0.00     0.010 A 
ATOM     32  C   UNL A   1      40.279  24.455  27.073  1.00  0.00    -0.014 A 
BRANCH  32  33
ATOM     33  C   UNL A   1      41.058  25.663  27.421  1.00  0.00     0.031 A 
ATOM     34  C   UNL A   1      40.453  26.681  28.337  1.00  0.00     0.074 A 
ATOM     35  C   UNL A   1      42.344  25.778  27.042  1.00  0.00     0.049 A 
ATOM     36  N   UNL A   1      40.914  27.850  28.694  1.00  0.00    -0.248 NA
ATOM     37  C   UNL A   1      39.162  26.324  28.945  1.00  0.00     0.031 C 
ATOM     38  C   UNL A   1      43.100  24.771  26.296  1.00  0.00     0.029 A 
ATOM     39  N   UNL A   1      43.250  26.787  27.253  1.00  0.00    -0.354 N 
ATOM     40  C   UNL A   1      39.952  28.389  29.534  1.00  0.00     0.074 A 
ATOM     41  C   UNL A   1      38.893  27.411  29.655  1.00  0.00     0.031 C 
ATOM     42  C   UNL A   1      44.357  25.212  26.117  1.00  0.00     0.029 A 
ATOM     43  C   UNL A   1      44.475  26.556  26.676  1.00  0.00     0.049 A 
ATOM     44  H   UNL A   1      43.041  27.599  27.769  1.00  0.00     0.167 HD
ATOM     45  C   UNL A   1      39.945  29.605  30.129  1.00  0.00     0.037 A 
ATOM     46  C   UNL A   1      45.551  27.361  26.577  1.00  0.00     0.037 A 
ATOM     47  C   UNL A   1      41.009  30.565  30.012  1.00  0.00     0.049 A 
ATOM     48  C   UNL A   1      45.478  28.751  27.153  1.00  0.00     0.074 A 
ATOM     49  C   UNL A   1      41.072  31.853  30.517  1.00  0.00     0.029 A 
ATOM     50  N   UNL A   1      42.203  30.336  29.345  1.00  0.00    -0.354 N 
ATOM     51  N   UNL A   1      44.519  29.306  27.854  1.00  0.00    -0.248 NA
ATOM     52  C   UNL A   1      46.623  29.637  26.897  1.00  0.00     0.031 C 
ATOM     53  C   UNL A   1      42.291  32.415  30.122  1.00  0.00     0.029 A 
ATOM     54  C   UNL A   1      43.003  31.463  29.409  1.00  0.00     0.049 A 
ATOM     55  H   UNL A   1      42.445  29.496  28.893  1.00  0.00     0.167 HD
ATOM     56  C   UNL A   1      44.951  30.595  28.139  1.00  0.00     0.074 A 
ATOM     57  C   UNL A   1      46.265  30.737  27.546  1.00  0.00     0.031 C 
ATOM     58  C   UNL A   1      44.316  31.575  28.825  1.00  0.00     0.037 A 
BRANCH  45  59
ATOM     59  C   UNL A   1      38.707  29.986  30.879  1.00  0.00     0.057 A 
ATOM     60  C   UNL A   1      37.629  30.636  30.268  1.00  0.00     0.134 A 
ATOM     61  C   UNL A   1      38.605  29.704  32.248  1.00  0.00     0.134 A 
ATOM     62  F   UNL A   1      37.676  30.955  28.966  1.00  0.00    -0.206 F 
ATOM     63  C   UNL A   1      36.500  31.014  30.998  1.00  0.00     0.040 A 
ATOM     64  C   UNL A   1      37.474  30.058  32.984  1.00  0.00     0.040 A 
ATOM     65  F   UNL A   1      39.607  29.086  32.892  1.00  0.00    -0.206 F 
ATOM     66  C   UNL A   1      36.419  30.720  32.360  1.00  0.00     0.006 A 
ENDBRANCH  45  59
BRANCH  46  67
ATOM     67  C   UNL A   1      46.769  26.908  25.856  1.00  0.00     0.057 A 
ATOM     68  C   UNL A   1      47.749  26.144  26.498  1.00  0.00     0.134 A 
ATOM     69  C   UNL A   1      47.001  27.263  24.521  1.00  0.00     0.134 A 
ATOM     70  F   UNL A   1      47.600  25.798  27.785  1.00  0.00    -0.206 F 
ATOM     71  C   UNL A   1      48.922  25.759  25.844  1.00  0.00     0.040 A 
ATOM     72  C   UNL A   1      48.157  26.862  23.848  1.00  0.00     0.040 A 
ATOM     73  F   UNL A   1      46.106  28.002  23.849  1.00  0.00    -0.206 F 
ATOM     74  C   UNL A   1      49.125  26.115  24.512  1.00  0.00     0.006 A 
ENDBRANCH  46  67
BRANCH  58  75
ATOM     75  C   UNL A   1      45.044  32.873  29.007  1.00  0.00     0.057 A 
ATOM     76  C   UNL A   1      45.928  33.080  30.073  1.00  0.00     0.134 A 
ATOM     77  C   UNL A   1      44.906  33.903  28.068  1.00  0.00     0.134 A 
ATOM     78  F   UNL A   1      46.094  32.137  31.012  1.00  0.00    -0.206 F 
ATOM     79  C   UNL A   1      46.642  34.273  30.205  1.00  0.00     0.040 A 
ATOM     80  C   UNL A   1      45.630  35.090  28.177  1.00  0.00     0.040 A 
ATOM     81  F   UNL A   1      44.080  33.762  27.020  1.00  0.00    -0.206 F 
ATOM     82  C   UNL A   1      46.499  35.278  29.250  1.00  0.00     0.006 A 
ENDBRANCH  58  75
ENDBRANCH  32  33
ENDBRANCH  25  27
ENDBRANCH  24  25
ENDBRANCH  23  24
ENDBRANCH   1  23
TORSDOF 14
ENDMDL
