MODEL 1
REMARK VINA RESULT:     -11.0      0.000      0.000
REMARK SMILES C[C@@H](Cc1cnn(-c2ccccc2)n1)C(=O)OCCOC(=O)c1ccc(-c2c3nc(c(-c4c(F)cccc4F)c4ccc([nH]4)c(-c4c(F)cccc4F)c4nc(c(-c5c(F)cccc5F)c5ccc2[nH]5)C=C4)C=C3)cc1
REMARK SMILES IDX 18 1 17 2 15 3 16 4 2 5 1 6 3 7 4 8 5 9 14 10 6 11 7 12 8 13
REMARK SMILES IDX 9 14 13 15 10 16 12 17 11 18 19 19 20 20 21 21 22 22 23 23
REMARK SMILES IDX 24 24 76 25 25 26 75 27 26 28 27 29 28 30 69 31 29 32 74 33
REMARK SMILES IDX 68 34 70 35 30 36 73 37 67 38 66 39 31 41 57 42 40 43 56 44
REMARK SMILES IDX 41 45 44 46 55 47 71 48 42 49 43 50 54 52 72 53 45 54 32 55
REMARK SMILES IDX 33 56 38 57 34 58 35 59 37 60 39 61 36 62 58 63 59 64 64 65
REMARK SMILES IDX 60 66 61 67 63 68 65 69 62 70 46 71 47 72 52 73 48 74 49 75
REMARK SMILES IDX 51 76 53 77 50 78
REMARK H PARENT 70 40 44 51
REMARK Flexibility Score: inf
ROOT
ATOM      1  C   UNL A   1      42.746  18.292  26.134  1.00  0.00     0.274 C 
ENDROOT
BRANCH   1   2
ATOM      2  O   UNL A   1      42.202  19.354  26.930  1.00  0.00    -0.462 OA
BRANCH   2   3
ATOM      3  C   UNL A   1      40.986  19.843  26.580  1.00  0.00     0.309 C 
ATOM      4  O   UNL A   1      40.198  19.279  25.829  1.00  0.00    -0.252 OA
BRANCH   3   5
ATOM      5  C   UNL A   1      40.721  21.228  27.146  1.00  0.00     0.102 C 
ATOM      6  C   UNL A   1      41.809  21.765  28.075  1.00  0.00     0.020 C 
BRANCH   5   7
ATOM      7  C   UNL A   1      40.318  22.187  26.020  1.00  0.00     0.075 C 
BRANCH   7   8
ATOM      8  C   UNL A   1      38.873  22.545  25.917  1.00  0.00     0.084 A 
ATOM      9  C   UNL A   1      38.211  23.687  26.394  1.00  0.00     0.161 A 
ATOM     10  N   UNL A   1      37.988  21.768  25.288  1.00  0.00    -0.153 NA
ATOM     11  N   UNL A   1      36.928  23.667  26.026  1.00  0.00    -0.157 NA
ATOM     12  N   UNL A   1      36.829  22.452  25.423  1.00  0.00    -0.151 N 
BRANCH  12  13
ATOM     13  C   UNL A   1      35.600  21.919  24.970  1.00  0.00     0.086 A 
ATOM     14  C   UNL A   1      35.282  20.582  25.232  1.00  0.00     0.030 A 
ATOM     15  C   UNL A   1      34.705  22.733  24.259  1.00  0.00     0.030 A 
ATOM     16  C   UNL A   1      34.055  20.070  24.808  1.00  0.00     0.002 A 
ATOM     17  C   UNL A   1      33.503  22.198  23.794  1.00  0.00     0.002 A 
ATOM     18  C   UNL A   1      33.174  20.873  24.080  1.00  0.00     0.000 A 
ENDBRANCH  12  13
ENDBRANCH   7   8
ENDBRANCH   5   7
ENDBRANCH   3   5
ENDBRANCH   2   3
ENDBRANCH   1   2
BRANCH   1  19
ATOM     19  C   UNL A   1      43.732  18.824  25.107  1.00  0.00     0.275 C 
BRANCH  19  20
ATOM     20  O   UNL A   1      43.693  20.249  25.025  1.00  0.00    -0.458 OA
BRANCH  20  21
ATOM     21  C   UNL A   1      44.912  20.824  24.922  1.00  0.00     0.338 C 
ATOM     22  O   UNL A   1      45.983  20.267  24.773  1.00  0.00    -0.246 OA
BRANCH  21  23
ATOM     23  C   UNL A   1      44.825  22.249  25.242  1.00  0.00     0.060 A 
ATOM     24  C   UNL A   1      45.620  22.719  26.291  1.00  0.00     0.016 A 
ATOM     25  C   UNL A   1      43.780  23.013  24.705  1.00  0.00     0.016 A 
ATOM     26  C   UNL A   1      45.286  23.917  26.887  1.00  0.00     0.010 A 
ATOM     27  C   UNL A   1      43.439  24.201  25.311  1.00  0.00     0.010 A 
ATOM     28  C   UNL A   1      44.163  24.615  26.428  1.00  0.00    -0.014 A 
BRANCH  28  29
ATOM     29  C   UNL A   1      43.837  25.863  27.086  1.00  0.00     0.031 A 
ATOM     30  C   UNL A   1      44.798  26.956  26.818  1.00  0.00     0.074 A 
ATOM     31  C   UNL A   1      42.704  26.063  27.782  1.00  0.00     0.049 A 
ATOM     32  N   UNL A   1      45.550  27.575  27.663  1.00  0.00    -0.248 NA
ATOM     33  C   UNL A   1      45.027  27.328  25.413  1.00  0.00     0.031 C 
ATOM     34  C   UNL A   1      41.528  25.196  27.862  1.00  0.00     0.029 A 
ATOM     35  N   UNL A   1      42.333  27.165  28.490  1.00  0.00    -0.354 N 
ATOM     36  C   UNL A   1      46.222  28.545  26.927  1.00  0.00     0.074 A 
ATOM     37  C   UNL A   1      45.979  28.250  25.540  1.00  0.00     0.031 C 
ATOM     38  C   UNL A   1      40.504  25.893  28.405  1.00  0.00     0.029 A 
ATOM     39  C   UNL A   1      40.988  27.202  28.816  1.00  0.00     0.049 A 
ATOM     40  H   UNL A   1      42.967  27.873  28.748  1.00  0.00     0.167 HD
ATOM     41  C   UNL A   1      46.734  29.652  27.526  1.00  0.00     0.037 A 
ATOM     42  C   UNL A   1      40.315  28.263  29.324  1.00  0.00     0.037 A 
ATOM     43  C   UNL A   1      46.910  29.451  28.942  1.00  0.00     0.049 A 
ATOM     44  C   UNL A   1      41.308  29.208  29.893  1.00  0.00     0.074 A 
ATOM     45  C   UNL A   1      47.615  28.551  29.718  1.00  0.00     0.029 A 
ATOM     46  N   UNL A   1      46.024  30.061  29.794  1.00  0.00    -0.354 N 
ATOM     47  N   UNL A   1      41.984  29.000  30.986  1.00  0.00    -0.248 NA
ATOM     48  C   UNL A   1      41.836  30.252  29.026  1.00  0.00     0.031 C 
ATOM     49  C   UNL A   1      46.806  28.336  30.871  1.00  0.00     0.029 A 
ATOM     50  C   UNL A   1      45.674  29.143  30.747  1.00  0.00     0.049 A 
ATOM     51  H   UNL A   1      45.700  30.988  29.731  1.00  0.00     0.167 HD
ATOM     52  C   UNL A   1      43.229  29.557  30.743  1.00  0.00     0.074 A 
ATOM     53  C   UNL A   1      43.038  30.421  29.584  1.00  0.00     0.031 C 
ATOM     54  C   UNL A   1      44.354  29.048  31.325  1.00  0.00     0.037 A 
BRANCH  41  55
ATOM     55  C   UNL A   1      46.709  31.026  26.900  1.00  0.00     0.057 A 
ATOM     56  C   UNL A   1      47.885  31.798  26.906  1.00  0.00     0.134 A 
ATOM     57  C   UNL A   1      45.532  31.734  26.577  1.00  0.00     0.134 A 
ATOM     58  F   UNL A   1      49.071  31.246  27.204  1.00  0.00    -0.206 F 
ATOM     59  C   UNL A   1      47.875  33.183  26.701  1.00  0.00     0.040 A 
ATOM     60  C   UNL A   1      45.520  33.107  26.317  1.00  0.00     0.040 A 
ATOM     61  F   UNL A   1      44.320  31.169  26.594  1.00  0.00    -0.206 F 
ATOM     62  C   UNL A   1      46.688  33.844  26.416  1.00  0.00     0.006 A 
ENDBRANCH  41  55
BRANCH  42  63
ATOM     63  C   UNL A   1      38.894  28.638  29.159  1.00  0.00     0.057 A 
ATOM     64  C   UNL A   1      38.019  28.647  30.255  1.00  0.00     0.134 A 
ATOM     65  C   UNL A   1      38.420  29.253  27.988  1.00  0.00     0.134 A 
ATOM     66  F   UNL A   1      38.392  28.118  31.431  1.00  0.00    -0.206 F 
ATOM     67  C   UNL A   1      36.761  29.258  30.200  1.00  0.00     0.040 A 
ATOM     68  C   UNL A   1      37.161  29.855  27.914  1.00  0.00     0.040 A 
ATOM     69  F   UNL A   1      39.198  29.370  26.902  1.00  0.00    -0.206 F 
ATOM     70  C   UNL A   1      36.332  29.874  29.028  1.00  0.00     0.006 A 
ENDBRANCH  42  63
BRANCH  54  71
ATOM     71  C   UNL A   1      44.185  28.111  32.486  1.00  0.00     0.057 A 
ATOM     72  C   UNL A   1      43.978  26.730  32.362  1.00  0.00     0.134 A 
ATOM     73  C   UNL A   1      44.370  28.612  33.780  1.00  0.00     0.134 A 
ATOM     74  F   UNL A   1      43.897  26.141  31.161  1.00  0.00    -0.206 F 
ATOM     75  C   UNL A   1      43.905  25.895  33.482  1.00  0.00     0.040 A 
ATOM     76  C   UNL A   1      44.337  27.784  34.904  1.00  0.00     0.040 A 
ATOM     77  F   UNL A   1      44.629  29.916  33.971  1.00  0.00    -0.206 F 
ATOM     78  C   UNL A   1      44.089  26.422  34.758  1.00  0.00     0.006 A 
ENDBRANCH  54  71
ENDBRANCH  28  29
ENDBRANCH  21  23
ENDBRANCH  20  21
ENDBRANCH  19  20
ENDBRANCH   1  19
TORSDOF 14
ENDMDL
MODEL 2
REMARK VINA RESULT:     -10.4      5.005     10.723
REMARK SMILES C[C@@H](Cc1cnn(-c2ccccc2)n1)C(=O)OCCOC(=O)c1ccc(-c2c3nc(c(-c4c(F)cccc4F)c4ccc([nH]4)c(-c4c(F)cccc4F)c4nc(c(-c5c(F)cccc5F)c5ccc2[nH]5)C=C4)C=C3)cc1
REMARK SMILES IDX 18 1 17 2 15 3 16 4 2 5 1 6 3 7 4 8 5 9 14 10 6 11 7 12 8 13
REMARK SMILES IDX 9 14 13 15 10 16 12 17 11 18 19 19 20 20 21 21 22 22 23 23
REMARK SMILES IDX 24 24 76 25 25 26 75 27 26 28 27 29 28 30 69 31 29 32 74 33
REMARK SMILES IDX 68 34 70 35 30 36 73 37 67 38 66 39 31 41 57 42 40 43 56 44
REMARK SMILES IDX 41 45 44 46 55 47 71 48 42 49 43 50 54 52 72 53 45 54 32 55
REMARK SMILES IDX 33 56 38 57 34 58 35 59 37 60 39 61 36 62 58 63 59 64 64 65
REMARK SMILES IDX 60 66 61 67 63 68 65 69 62 70 46 71 47 72 52 73 48 74 49 75
REMARK SMILES IDX 51 76 53 77 50 78
REMARK H PARENT 70 40 44 51
REMARK Flexibility Score: inf
ROOT
ATOM      1  C   UNL A   1      33.926  34.835  29.225  1.00  0.00     0.274 C 
ENDROOT
BRANCH   1   2
ATOM      2  O   UNL A   1      33.000  34.961  30.313  1.00  0.00    -0.462 OA
BRANCH   2   3
ATOM      3  C   UNL A   1      33.092  36.066  31.094  1.00  0.00     0.309 C 
ATOM      4  O   UNL A   1      32.538  37.135  30.857  1.00  0.00    -0.252 OA
BRANCH   3   5
ATOM      5  C   UNL A   1      34.037  35.884  32.269  1.00  0.00     0.102 C 
ATOM      6  C   UNL A   1      33.880  36.911  33.390  1.00  0.00     0.020 C 
BRANCH   5   7
ATOM      7  C   UNL A   1      34.015  34.425  32.739  1.00  0.00     0.075 C 
BRANCH   7   8
ATOM      8  C   UNL A   1      35.271  33.638  32.571  1.00  0.00     0.084 A 
ATOM      9  C   UNL A   1      35.549  32.324  32.980  1.00  0.00     0.161 A 
ATOM     10  N   UNL A   1      36.343  34.128  31.944  1.00  0.00    -0.153 NA
ATOM     11  N   UNL A   1      36.766  31.958  32.568  1.00  0.00    -0.157 NA
ATOM     12  N   UNL A   1      37.230  33.109  32.011  1.00  0.00    -0.151 N 
BRANCH  12  13
ATOM     13  C   UNL A   1      38.555  33.252  31.537  1.00  0.00     0.086 A 
ATOM     14  C   UNL A   1      39.546  32.359  31.961  1.00  0.00     0.030 A 
ATOM     15  C   UNL A   1      38.870  34.287  30.645  1.00  0.00     0.030 A 
ATOM     16  C   UNL A   1      40.844  32.486  31.467  1.00  0.00     0.002 A 
ATOM     17  C   UNL A   1      40.183  34.438  30.196  1.00  0.00     0.002 A 
ATOM     18  C   UNL A   1      41.165  33.531  30.597  1.00  0.00     0.000 A 
ENDBRANCH  12  13
ENDBRANCH   7   8
ENDBRANCH   5   7
ENDBRANCH   3   5
ENDBRANCH   2   3
ENDBRANCH   1   2
BRANCH   1  19
ATOM     19  C   UNL A   1      33.871  33.445  28.615  1.00  0.00     0.275 C 
BRANCH  19  20
ATOM     20  O   UNL A   1      34.721  32.529  29.308  1.00  0.00    -0.458 OA
BRANCH  20  21
ATOM     21  C   UNL A   1      35.157  31.503  28.544  1.00  0.00     0.338 C 
ATOM     22  O   UNL A   1      34.577  30.976  27.612  1.00  0.00    -0.246 OA
BRANCH  21  23
ATOM     23  C   UNL A   1      36.368  30.923  29.123  1.00  0.00     0.060 A 
ATOM     24  C   UNL A   1      37.593  31.461  28.716  1.00  0.00     0.016 A 
ATOM     25  C   UNL A   1      36.286  29.710  29.818  1.00  0.00     0.016 A 
ATOM     26  C   UNL A   1      38.737  30.713  28.901  1.00  0.00     0.010 A 
ATOM     27  C   UNL A   1      37.427  28.957  29.988  1.00  0.00     0.010 A 
ATOM     28  C   UNL A   1      38.631  29.444  29.483  1.00  0.00    -0.014 A 
BRANCH  28  29
ATOM     29  C   UNL A   1      39.852  28.683  29.650  1.00  0.00     0.031 A 
ATOM     30  C   UNL A   1      40.336  28.619  31.047  1.00  0.00     0.074 A 
ATOM     31  C   UNL A   1      40.439  27.989  28.658  1.00  0.00     0.049 A 
ATOM     32  N   UNL A   1      41.443  29.076  31.524  1.00  0.00    -0.248 NA
ATOM     33  C   UNL A   1      39.418  28.072  32.058  1.00  0.00     0.031 C 
ATOM     34  C   UNL A   1      39.911  27.698  27.325  1.00  0.00     0.029 A 
ATOM     35  N   UNL A   1      41.613  27.302  28.691  1.00  0.00    -0.354 N 
ATOM     36  C   UNL A   1      41.451  28.717  32.868  1.00  0.00     0.074 A 
ATOM     37  C   UNL A   1      40.128  28.241  33.173  1.00  0.00     0.031 C 
ATOM     38  C   UNL A   1      40.664  26.730  26.756  1.00  0.00     0.029 A 
ATOM     39  C   UNL A   1      41.787  26.428  27.631  1.00  0.00     0.049 A 
ATOM     40  H   UNL A   1      42.281  27.418  29.405  1.00  0.00     0.167 HD
ATOM     41  C   UNL A   1      42.614  28.622  33.563  1.00  0.00     0.037 A 
ATOM     42  C   UNL A   1      42.749  25.479  27.524  1.00  0.00     0.037 A 
ATOM     43  C   UNL A   1      43.673  29.360  32.922  1.00  0.00     0.049 A 
ATOM     44  C   UNL A   1      43.836  25.817  28.476  1.00  0.00     0.074 A 
ATOM     45  C   UNL A   1      43.855  30.678  32.552  1.00  0.00     0.029 A 
ATOM     46  N   UNL A   1      44.641  28.650  32.258  1.00  0.00    -0.354 N 
ATOM     47  N   UNL A   1      44.669  26.806  28.325  1.00  0.00    -0.248 NA
ATOM     48  C   UNL A   1      43.766  25.265  29.821  1.00  0.00     0.031 C 
ATOM     49  C   UNL A   1      44.608  30.626  31.342  1.00  0.00     0.029 A 
ATOM     50  C   UNL A   1      44.869  29.284  31.067  1.00  0.00     0.049 A 
ATOM     51  H   UNL A   1      45.090  27.835  32.579  1.00  0.00     0.167 HD
ATOM     52  C   UNL A   1      44.893  27.278  29.609  1.00  0.00     0.074 A 
ATOM     53  C   UNL A   1      44.420  26.217  30.490  1.00  0.00     0.031 C 
ATOM     54  C   UNL A   1      45.175  28.594  29.835  1.00  0.00     0.037 A 
BRANCH  41  55
ATOM     55  C   UNL A   1      42.882  27.556  34.599  1.00  0.00     0.057 A 
ATOM     56  C   UNL A   1      43.131  26.239  34.171  1.00  0.00     0.134 A 
ATOM     57  C   UNL A   1      42.606  27.694  35.975  1.00  0.00     0.134 A 
ATOM     58  F   UNL A   1      43.401  25.972  32.884  1.00  0.00    -0.206 F 
ATOM     59  C   UNL A   1      43.020  25.138  35.027  1.00  0.00     0.040 A 
ATOM     60  C   UNL A   1      42.546  26.605  36.849  1.00  0.00     0.040 A 
ATOM     61  F   UNL A   1      42.278  28.863  36.534  1.00  0.00    -0.206 F 
ATOM     62  C   UNL A   1      42.716  25.317  36.370  1.00  0.00     0.006 A 
ENDBRANCH  41  55
BRANCH  42  63
ATOM     63  C   UNL A   1      42.706  24.176  26.826  1.00  0.00     0.057 A 
ATOM     64  C   UNL A   1      43.427  23.970  25.641  1.00  0.00     0.134 A 
ATOM     65  C   UNL A   1      42.182  23.024  27.437  1.00  0.00     0.134 A 
ATOM     66  F   UNL A   1      43.999  25.001  25.001  1.00  0.00    -0.206 F 
ATOM     67  C   UNL A   1      43.640  22.692  25.110  1.00  0.00     0.040 A 
ATOM     68  C   UNL A   1      42.375  21.743  26.912  1.00  0.00     0.040 A 
ATOM     69  F   UNL A   1      41.540  23.092  28.612  1.00  0.00    -0.206 F 
ATOM     70  C   UNL A   1      43.122  21.571  25.753  1.00  0.00     0.006 A 
ENDBRANCH  42  63
BRANCH  54  71
ATOM     71  C   UNL A   1      45.578  29.441  28.663  1.00  0.00     0.057 A 
ATOM     72  C   UNL A   1      44.674  30.113  27.827  1.00  0.00     0.134 A 
ATOM     73  C   UNL A   1      46.939  29.688  28.454  1.00  0.00     0.134 A 
ATOM     74  F   UNL A   1      43.350  30.025  28.016  1.00  0.00    -0.206 F 
ATOM     75  C   UNL A   1      45.112  30.951  26.796  1.00  0.00     0.040 A 
ATOM     76  C   UNL A   1      47.389  30.552  27.452  1.00  0.00     0.040 A 
ATOM     77  F   UNL A   1      47.860  29.124  29.252  1.00  0.00    -0.206 F 
ATOM     78  C   UNL A   1      46.473  31.176  26.609  1.00  0.00     0.006 A 
ENDBRANCH  54  71
ENDBRANCH  28  29
ENDBRANCH  21  23
ENDBRANCH  20  21
ENDBRANCH  19  20
ENDBRANCH   1  19
TORSDOF 14
ENDMDL
MODEL 3
REMARK VINA RESULT:     -10.3      5.141     10.817
REMARK SMILES C[C@@H](Cc1cnn(-c2ccccc2)n1)C(=O)OCCOC(=O)c1ccc(-c2c3nc(c(-c4c(F)cccc4F)c4ccc([nH]4)c(-c4c(F)cccc4F)c4nc(c(-c5c(F)cccc5F)c5ccc2[nH]5)C=C4)C=C3)cc1
REMARK SMILES IDX 18 1 17 2 15 3 16 4 2 5 1 6 3 7 4 8 5 9 14 10 6 11 7 12 8 13
REMARK SMILES IDX 9 14 13 15 10 16 12 17 11 18 19 19 20 20 21 21 22 22 23 23
REMARK SMILES IDX 24 24 76 25 25 26 75 27 26 28 27 29 28 30 69 31 29 32 74 33
REMARK SMILES IDX 68 34 70 35 30 36 73 37 67 38 66 39 31 41 57 42 40 43 56 44
REMARK SMILES IDX 41 45 44 46 55 47 71 48 42 49 43 50 54 52 72 53 45 54 32 55
REMARK SMILES IDX 33 56 38 57 34 58 35 59 37 60 39 61 36 62 58 63 59 64 64 65
REMARK SMILES IDX 60 66 61 67 63 68 65 69 62 70 46 71 47 72 52 73 48 74 49 75
REMARK SMILES IDX 51 76 53 77 50 78
REMARK H PARENT 70 40 44 51
REMARK Flexibility Score: inf
ROOT
ATOM      1  C   UNL A   1      33.625  35.056  29.121  1.00  0.00     0.274 C 
ENDROOT
BRANCH   1   2
ATOM      2  O   UNL A   1      32.740  34.978  30.247  1.00  0.00    -0.462 OA
BRANCH   2   3
ATOM      3  C   UNL A   1      32.804  35.971  31.168  1.00  0.00     0.309 C 
ATOM      4  O   UNL A   1      32.157  37.012  31.116  1.00  0.00    -0.252 OA
BRANCH   3   5
ATOM      5  C   UNL A   1      33.840  35.710  32.248  1.00  0.00     0.102 C 
ATOM      6  C   UNL A   1      34.026  36.847  33.252  1.00  0.00     0.020 C 
BRANCH   5   7
ATOM      7  C   UNL A   1      33.601  34.336  32.884  1.00  0.00     0.075 C 
BRANCH   7   8
ATOM      8  C   UNL A   1      34.721  33.353  32.818  1.00  0.00     0.084 A 
ATOM      9  C   UNL A   1      34.844  32.209  32.014  1.00  0.00     0.161 A 
ATOM     10  N   UNL A   1      35.826  33.478  33.557  1.00  0.00    -0.153 NA
ATOM     11  N   UNL A   1      36.039  31.640  32.196  1.00  0.00    -0.157 NA
ATOM     12  N   UNL A   1      36.564  32.405  33.192  1.00  0.00    -0.151 N 
BRANCH  12  13
ATOM     13  C   UNL A   1      37.794  32.105  33.821  1.00  0.00     0.086 A 
ATOM     14  C   UNL A   1      37.802  31.581  35.119  1.00  0.00     0.030 A 
ATOM     15  C   UNL A   1      39.000  32.334  33.142  1.00  0.00     0.030 A 
ATOM     16  C   UNL A   1      39.018  31.259  35.722  1.00  0.00     0.002 A 
ATOM     17  C   UNL A   1      40.213  32.058  33.774  1.00  0.00     0.002 A 
ATOM     18  C   UNL A   1      40.221  31.509  35.057  1.00  0.00     0.000 A 
ENDBRANCH  12  13
ENDBRANCH   7   8
ENDBRANCH   5   7
ENDBRANCH   3   5
ENDBRANCH   2   3
ENDBRANCH   1   2
BRANCH   1  19
ATOM     19  C   UNL A   1      33.685  33.732  28.376  1.00  0.00     0.275 C 
BRANCH  19  20
ATOM     20  O   UNL A   1      34.969  33.118  28.491  1.00  0.00    -0.458 OA
BRANCH  20  21
ATOM     21  C   UNL A   1      35.012  31.850  28.025  1.00  0.00     0.338 C 
ATOM     22  O   UNL A   1      34.187  31.289  27.329  1.00  0.00    -0.246 OA
BRANCH  21  23
ATOM     23  C   UNL A   1      36.110  31.118  28.658  1.00  0.00     0.060 A 
ATOM     24  C   UNL A   1      37.284  31.829  28.922  1.00  0.00     0.016 A 
ATOM     25  C   UNL A   1      36.061  29.719  28.717  1.00  0.00     0.016 A 
ATOM     26  C   UNL A   1      38.451  31.123  29.127  1.00  0.00     0.010 A 
ATOM     27  C   UNL A   1      37.229  29.016  28.907  1.00  0.00     0.010 A 
ATOM     28  C   UNL A   1      38.420  29.725  29.059  1.00  0.00    -0.014 A 
BRANCH  28  29
ATOM     29  C   UNL A   1      39.667  29.018  29.268  1.00  0.00     0.031 A 
ATOM     30  C   UNL A   1      40.013  28.814  30.692  1.00  0.00     0.074 A 
ATOM     31  C   UNL A   1      40.394  28.483  28.272  1.00  0.00     0.049 A 
ATOM     32  N   UNL A   1      41.034  29.272  31.333  1.00  0.00    -0.248 NA
ATOM     33  C   UNL A   1      39.038  28.099  31.530  1.00  0.00     0.031 C 
ATOM     34  C   UNL A   1      40.023  28.325  26.865  1.00  0.00     0.029 A 
ATOM     35  N   UNL A   1      41.604  27.863  28.351  1.00  0.00    -0.354 N 
ATOM     36  C   UNL A   1      40.932  28.754  32.620  1.00  0.00     0.074 A 
ATOM     37  C   UNL A   1      39.620  28.172  32.727  1.00  0.00     0.031 C 
ATOM     38  C   UNL A   1      40.893  27.475  26.274  1.00  0.00     0.029 A 
ATOM     39  C   UNL A   1      41.941  27.133  27.223  1.00  0.00     0.049 A 
ATOM     40  H   UNL A   1      42.188  27.929  29.141  1.00  0.00     0.167 HD
ATOM     41  C   UNL A   1      42.024  28.641  33.421  1.00  0.00     0.037 A 
ATOM     42  C   UNL A   1      42.971  26.259  27.112  1.00  0.00     0.037 A 
ATOM     43  C   UNL A   1      43.089  29.508  32.984  1.00  0.00     0.049 A 
ATOM     44  C   UNL A   1      43.932  26.540  28.207  1.00  0.00     0.074 A 
ATOM     45  C   UNL A   1      43.218  30.870  32.788  1.00  0.00     0.029 A 
ATOM     46  N   UNL A   1      44.164  28.938  32.350  1.00  0.00    -0.354 N 
ATOM     47  N   UNL A   1      44.708  27.585  28.259  1.00  0.00    -0.248 NA
ATOM     48  C   UNL A   1      43.766  25.827  29.465  1.00  0.00     0.031 C 
ATOM     49  C   UNL A   1      44.088  31.006  31.667  1.00  0.00     0.029 A 
ATOM     50  C   UNL A   1      44.466  29.723  31.270  1.00  0.00     0.049 A 
ATOM     51  H   UNL A   1      44.633  28.117  32.623  1.00  0.00     0.167 HD
ATOM     52  C   UNL A   1      44.771  27.911  29.605  1.00  0.00     0.074 A 
ATOM     53  C   UNL A   1      44.285  26.727  30.304  1.00  0.00     0.031 C 
ATOM     54  C   UNL A   1      44.939  29.204  30.008  1.00  0.00     0.037 A 
BRANCH  41  55
ATOM     55  C   UNL A   1      42.259  27.475  34.351  1.00  0.00     0.057 A 
ATOM     56  C   UNL A   1      41.985  27.633  35.722  1.00  0.00     0.134 A 
ATOM     57  C   UNL A   1      43.017  26.332  34.022  1.00  0.00     0.134 A 
ATOM     58  F   UNL A   1      41.278  28.683  36.167  1.00  0.00    -0.206 F 
ATOM     59  C   UNL A   1      42.506  26.773  36.695  1.00  0.00     0.040 A 
ATOM     60  C   UNL A   1      43.495  25.437  34.982  1.00  0.00     0.040 A 
ATOM     61  F   UNL A   1      43.424  26.069  32.776  1.00  0.00    -0.206 F 
ATOM     62  C   UNL A   1      43.273  25.676  36.328  1.00  0.00     0.006 A 
ENDBRANCH  41  55
BRANCH  42  63
ATOM     63  C   UNL A   1      43.086  25.048  26.270  1.00  0.00     0.057 A 
ATOM     64  C   UNL A   1      44.108  24.928  25.318  1.00  0.00     0.134 A 
ATOM     65  C   UNL A   1      42.370  23.874  26.557  1.00  0.00     0.134 A 
ATOM     66  F   UNL A   1      44.875  25.983  25.001  1.00  0.00    -0.206 F 
ATOM     67  C   UNL A   1      44.422  23.706  24.710  1.00  0.00     0.040 A 
ATOM     68  C   UNL A   1      42.662  22.650  25.949  1.00  0.00     0.040 A 
ATOM     69  F   UNL A   1      41.420  23.854  27.504  1.00  0.00    -0.206 F 
ATOM     70  C   UNL A   1      43.703  22.559  25.034  1.00  0.00     0.006 A 
ENDBRANCH  42  63
BRANCH  54  71
ATOM     71  C   UNL A   1      45.398  30.206  28.989  1.00  0.00     0.057 A 
ATOM     72  C   UNL A   1      46.743  30.477  28.697  1.00  0.00     0.134 A 
ATOM     73  C   UNL A   1      44.437  30.824  28.181  1.00  0.00     0.134 A 
ATOM     74  F   UNL A   1      47.736  29.852  29.344  1.00  0.00    -0.206 F 
ATOM     75  C   UNL A   1      47.109  31.366  27.682  1.00  0.00     0.040 A 
ATOM     76  C   UNL A   1      44.790  31.684  27.139  1.00  0.00     0.040 A 
ATOM     77  F   UNL A   1      43.131  30.568  28.365  1.00  0.00    -0.206 F 
ATOM     78  C   UNL A   1      46.130  31.969  26.896  1.00  0.00     0.006 A 
ENDBRANCH  54  71
ENDBRANCH  28  29
ENDBRANCH  21  23
ENDBRANCH  20  21
ENDBRANCH  19  20
ENDBRANCH   1  19
TORSDOF 14
ENDMDL
