MODEL 1
REMARK VINA RESULT:     -13.2      0.000      0.000
REMARK SMILES Cc1cc2c(=O)cc(-c3ccc(F)cc3)oc2c(C(=O)OCCOC(=O)c2ccc(-c3c4nc(c(-c5c(F)cccc5F)c5ccc([nH]5)c(-c5c(F)cccc5F)c5nc(c(-c6c(F)cccc6F)c6ccc3[nH]6)C=C5)C=C4)cc2)c1C
REMARK SMILES IDX 23 1 22 2 21 3 19 4 20 5 18 6 1 7 2 8 3 9 81 10 4 11 82 12
REMARK SMILES IDX 5 13 17 14 6 15 7 16 16 17 8 18 9 19 10 20 15 21 11 22 14 23
REMARK SMILES IDX 12 24 13 25 24 26 25 27 26 28 27 29 28 30 80 31 29 32 79 33
REMARK SMILES IDX 30 34 31 35 32 36 73 37 33 38 78 39 72 40 74 41 34 42 77 43
REMARK SMILES IDX 71 44 70 45 35 47 61 48 44 49 60 50 45 51 48 52 59 53 75 54
REMARK SMILES IDX 46 55 47 56 58 58 76 59 49 60 36 61 37 62 42 63 38 64 39 65
REMARK SMILES IDX 41 66 43 67 40 68 62 69 63 70 68 71 64 72 65 73 67 74 69 75
REMARK SMILES IDX 66 76 50 77 51 78 56 79 52 80 53 81 55 82 57 83 54 84
REMARK H PARENT 74 46 48 57
REMARK Flexibility Score: inf
ROOT
ATOM      1  C   UNL A   1      33.438  29.233  24.026  1.00  0.00     0.275 C 
ENDROOT
BRANCH   1   2
ATOM      2  C   UNL A   1      33.898  27.840  23.571  1.00  0.00     0.275 C 
BRANCH   2   3
ATOM      3  O   UNL A   1      33.531  27.604  22.184  1.00  0.00    -0.458 OA
BRANCH   3   4
ATOM      4  C   UNL A   1      32.971  26.403  21.871  1.00  0.00     0.342 C 
ATOM      5  O   UNL A   1      33.092  25.808  20.813  1.00  0.00    -0.246 OA
BRANCH   4   6
ATOM      6  C   UNL A   1      32.041  25.947  22.938  1.00  0.00     0.106 A 
ATOM      7  C   UNL A   1      28.378  26.674  23.837  1.00  0.00     0.044 C 
ATOM      8  C   UNL A   1      29.754  26.061  23.777  1.00  0.00    -0.046 A 
ATOM      9  C   UNL A   1      30.003  24.882  24.509  1.00  0.00     0.019 A 
ATOM     10  C   UNL A   1      30.799  26.644  23.034  1.00  0.00    -0.030 A 
ATOM     11  C   UNL A   1      31.264  24.265  24.496  1.00  0.00     0.066 A 
ATOM     12  C   UNL A   1      30.616  27.985  22.349  1.00  0.00     0.046 C 
ATOM     13  C   UNL A   1      31.548  23.081  25.338  1.00  0.00     0.193 A 
ATOM     14  C   UNL A   1      32.276  24.761  23.688  1.00  0.00     0.153 A 
ATOM     15  O   UNL A   1      30.649  22.465  25.896  1.00  0.00    -0.289 OA
ATOM     16  C   UNL A   1      32.978  22.715  25.537  1.00  0.00     0.100 A 
ATOM     17  O   UNL A   1      33.472  24.072  23.621  1.00  0.00    -0.455 OA
ATOM     18  C   UNL A   1      33.883  23.252  24.710  1.00  0.00     0.138 A 
BRANCH  18  19
ATOM     19  C   UNL A   1      35.407  23.005  24.772  1.00  0.00     0.018 A 
ATOM     20  C   UNL A   1      36.143  21.353  24.609  1.00  0.00     0.015 A 
ATOM     21  C   UNL A   1      36.317  24.256  25.680  1.00  0.00     0.015 A 
ATOM     22  C   UNL A   1      37.911  21.005  25.119  1.00  0.00     0.040 A 
ATOM     23  C   UNL A   1      37.903  23.866  26.476  1.00  0.00     0.040 A 
ATOM     24  C   UNL A   1      38.808  22.320  26.072  1.00  0.00     0.123 A 
ATOM     25  F   UNL A   1      39.977  22.065  26.671  1.00  0.00    -0.207 F 
ENDBRANCH  18  19
ENDBRANCH   4   6
ENDBRANCH   3   4
ENDBRANCH   2   3
ENDBRANCH   1   2
BRANCH   1  26
ATOM     26  O   UNL A   1      32.415  29.059  25.010  1.00  0.00    -0.458 OA
BRANCH  26  27
ATOM     27  C   UNL A   1      32.206  30.161  25.749  1.00  0.00     0.338 C 
ATOM     28  O   UNL A   1      31.294  30.969  25.682  1.00  0.00    -0.246 OA
BRANCH  27  29
ATOM     29  C   UNL A   1      33.124  30.086  26.878  1.00  0.00     0.060 A 
ATOM     30  C   UNL A   1      33.676  28.902  27.240  1.00  0.00     0.016 A 
ATOM     31  C   UNL A   1      33.676  31.239  27.371  1.00  0.00     0.016 A 
ATOM     32  C   UNL A   1      34.876  28.960  27.966  1.00  0.00     0.010 A 
ATOM     33  C   UNL A   1      35.065  31.192  27.590  1.00  0.00     0.010 A 
ATOM     34  C   UNL A   1      35.950  30.139  28.133  1.00  0.00    -0.014 A 
BRANCH  34  35
ATOM     35  C   UNL A   1      37.940  30.124  28.922  1.00  0.00     0.031 A 
ATOM     36  C   UNL A   1      38.536  30.396  30.645  1.00  0.00     0.074 A 
ATOM     37  C   UNL A   1      39.285  29.527  28.481  1.00  0.00     0.049 A 
ATOM     38  N   UNL A   1      39.727  30.821  31.096  1.00  0.00    -0.248 NA
ATOM     39  C   UNL A   1      37.685  30.262  31.872  1.00  0.00     0.031 C 
ATOM     40  C   UNL A   1      39.681  28.993  27.119  1.00  0.00     0.029 A 
ATOM     41  N   UNL A   1      40.393  28.970  29.203  1.00  0.00    -0.354 N 
ATOM     42  C   UNL A   1      39.475  31.311  32.401  1.00  0.00     0.074 A 
ATOM     43  C   UNL A   1      38.039  31.392  32.466  1.00  0.00     0.031 C 
ATOM     44  C   UNL A   1      40.560  28.005  27.191  1.00  0.00     0.029 A 
ATOM     45  C   UNL A   1      41.134  27.994  28.502  1.00  0.00     0.049 A 
ATOM     46  H   UNL A   1      40.620  29.249  30.119  1.00  0.00     0.167 HD
ATOM     47  C   UNL A   1      40.131  31.353  33.605  1.00  0.00     0.037 A 
ATOM     48  C   UNL A   1      42.182  27.157  28.722  1.00  0.00     0.037 A 
ATOM     49  C   UNL A   1      41.330  30.636  33.938  1.00  0.00     0.049 A 
ATOM     50  C   UNL A   1      42.905  27.181  30.023  1.00  0.00     0.074 A 
ATOM     51  C   UNL A   1      42.002  30.594  35.153  1.00  0.00     0.029 A 
ATOM     52  N   UNL A   1      41.933  29.700  33.122  1.00  0.00    -0.354 N 
ATOM     53  N   UNL A   1      42.622  27.866  31.094  1.00  0.00    -0.248 NA
ATOM     54  C   UNL A   1      44.109  26.339  30.135  1.00  0.00     0.031 C 
ATOM     55  C   UNL A   1      43.025  29.644  35.063  1.00  0.00     0.029 A 
ATOM     56  C   UNL A   1      42.973  29.084  33.803  1.00  0.00     0.049 A 
ATOM     57  H   UNL A   1      41.666  29.501  32.195  1.00  0.00     0.167 HD
ATOM     58  C   UNL A   1      43.610  27.542  32.006  1.00  0.00     0.074 A 
ATOM     59  C   UNL A   1      44.462  26.549  31.393  1.00  0.00     0.031 C 
ATOM     60  C   UNL A   1      43.807  28.067  33.235  1.00  0.00     0.037 A 
BRANCH  47  61
ATOM     61  C   UNL A   1      39.471  32.136  34.747  1.00  0.00     0.057 A 
ATOM     62  C   UNL A   1      39.649  33.524  34.816  1.00  0.00     0.134 A 
ATOM     63  C   UNL A   1      38.640  31.565  35.728  1.00  0.00     0.134 A 
ATOM     64  F   UNL A   1      40.506  34.141  33.988  1.00  0.00    -0.206 F 
ATOM     65  C   UNL A   1      38.953  34.315  35.737  1.00  0.00     0.040 A 
ATOM     66  C   UNL A   1      37.886  32.350  36.608  1.00  0.00     0.040 A 
ATOM     67  F   UNL A   1      38.450  30.236  35.775  1.00  0.00    -0.206 F 
ATOM     68  C   UNL A   1      38.033  33.733  36.605  1.00  0.00     0.006 A 
ENDBRANCH  47  61
BRANCH  48  69
ATOM     69  C   UNL A   1      42.675  26.202  27.647  1.00  0.00     0.057 A 
ATOM     70  C   UNL A   1      43.676  26.558  26.727  1.00  0.00     0.134 A 
ATOM     71  C   UNL A   1      42.160  24.899  27.523  1.00  0.00     0.134 A 
ATOM     72  F   UNL A   1      44.231  27.778  26.770  1.00  0.00    -0.206 F 
ATOM     73  C   UNL A   1      44.096  25.696  25.706  1.00  0.00     0.040 A 
ATOM     74  C   UNL A   1      42.613  24.007  26.542  1.00  0.00     0.040 A 
ATOM     75  F   UNL A   1      41.235  24.455  28.387  1.00  0.00    -0.206 F 
ATOM     76  C   UNL A   1      43.572  24.411  25.618  1.00  0.00     0.006 A 
ENDBRANCH  48  69
BRANCH  60  77
ATOM     77  C   UNL A   1      44.971  27.548  34.009  1.00  0.00     0.057 A 
ATOM     78  C   UNL A   1      46.216  28.182  33.946  1.00  0.00     0.134 A 
ATOM     79  C   UNL A   1      44.847  26.428  34.839  1.00  0.00     0.134 A 
ATOM     80  F   UNL A   1      46.392  29.264  33.173  1.00  0.00    -0.206 F 
ATOM     81  C   UNL A   1      47.301  27.717  34.686  1.00  0.00     0.040 A 
ATOM     82  C   UNL A   1      45.918  25.970  35.605  1.00  0.00     0.040 A 
ATOM     83  F   UNL A   1      43.669  25.798  34.960  1.00  0.00    -0.206 F 
ATOM     84  C   UNL A   1      47.151  26.612  35.524  1.00  0.00     0.006 A 
ENDBRANCH  60  77
ENDBRANCH  34  35
ENDBRANCH  27  29
ENDBRANCH  26  27
ENDBRANCH   1  26
TORSDOF 12
ENDMDL
MODEL 2
REMARK VINA RESULT:     -13.1      2.170      4.426
REMARK SMILES Cc1cc2c(=O)cc(-c3ccc(F)cc3)oc2c(C(=O)OCCOC(=O)c2ccc(-c3c4nc(c(-c5c(F)cccc5F)c5ccc([nH]5)c(-c5c(F)cccc5F)c5nc(c(-c6c(F)cccc6F)c6ccc3[nH]6)C=C5)C=C4)cc2)c1C
REMARK SMILES IDX 23 1 22 2 21 3 19 4 20 5 18 6 1 7 2 8 3 9 81 10 4 11 82 12
REMARK SMILES IDX 5 13 17 14 6 15 7 16 16 17 8 18 9 19 10 20 15 21 11 22 14 23
REMARK SMILES IDX 12 24 13 25 24 26 25 27 26 28 27 29 28 30 80 31 29 32 79 33
REMARK SMILES IDX 30 34 31 35 32 36 73 37 33 38 78 39 72 40 74 41 34 42 77 43
REMARK SMILES IDX 71 44 70 45 35 47 61 48 44 49 60 50 45 51 48 52 59 53 75 54
REMARK SMILES IDX 46 55 47 56 58 58 76 59 49 60 36 61 37 62 42 63 38 64 39 65
REMARK SMILES IDX 41 66 43 67 40 68 62 69 63 70 68 71 64 72 65 73 67 74 69 75
REMARK SMILES IDX 66 76 50 77 51 78 56 79 52 80 53 81 55 82 57 83 54 84
REMARK H PARENT 74 46 48 57
REMARK Flexibility Score: inf
ROOT
ATOM      1  C   UNL A   1      31.126  27.386  27.013  1.00  0.00     0.275 C 
ENDROOT
BRANCH   1   2
ATOM      2  C   UNL A   1      32.184  26.314  26.711  1.00  0.00     0.275 C 
BRANCH   2   3
ATOM      3  O   UNL A   1      31.770  25.021  27.230  1.00  0.00    -0.458 OA
BRANCH   3   4
ATOM      4  C   UNL A   1      31.450  24.049  26.332  1.00  0.00     0.342 C 
ATOM      5  O   UNL A   1      30.572  23.212  26.462  1.00  0.00    -0.246 OA
BRANCH   4   6
ATOM      6  C   UNL A   1      32.415  24.019  25.202  1.00  0.00     0.106 A 
ATOM      7  C   UNL A   1      35.425  21.825  24.262  1.00  0.00     0.044 C 
ATOM      8  C   UNL A   1      34.294  22.821  24.211  1.00  0.00    -0.046 A 
ATOM      9  C   UNL A   1      34.006  23.456  22.986  1.00  0.00     0.019 A 
ATOM     10  C   UNL A   1      33.538  23.151  25.353  1.00  0.00    -0.030 A 
ATOM     11  C   UNL A   1      32.967  24.394  22.875  1.00  0.00     0.066 A 
ATOM     12  C   UNL A   1      33.905  22.601  26.718  1.00  0.00     0.046 C 
ATOM     13  C   UNL A   1      32.727  25.127  21.611  1.00  0.00     0.193 A 
ATOM     14  C   UNL A   1      32.142  24.655  23.959  1.00  0.00     0.153 A 
ATOM     15  O   UNL A   1      33.265  24.788  20.565  1.00  0.00    -0.289 OA
ATOM     16  C   UNL A   1      31.861  26.337  21.681  1.00  0.00     0.100 A 
ATOM     17  O   UNL A   1      31.068  25.507  23.788  1.00  0.00    -0.455 OA
ATOM     18  C   UNL A   1      31.105  26.505  22.773  1.00  0.00     0.138 A 
BRANCH  18  19
ATOM     19  C   UNL A   1      30.162  27.701  23.031  1.00  0.00     0.018 A 
ATOM     20  C   UNL A   1      28.383  27.502  23.336  1.00  0.00     0.015 A 
ATOM     21  C   UNL A   1      30.738  29.253  22.340  1.00  0.00     0.015 A 
ATOM     22  C   UNL A   1      27.192  28.941  23.207  1.00  0.00     0.040 A 
ATOM     23  C   UNL A   1      29.569  30.569  21.892  1.00  0.00     0.040 A 
ATOM     24  C   UNL A   1      27.826  30.521  22.470  1.00  0.00     0.123 A 
ATOM     25  F   UNL A   1      26.990  31.510  22.128  1.00  0.00    -0.207 F 
ENDBRANCH  18  19
ENDBRANCH   4   6
ENDBRANCH   3   4
ENDBRANCH   2   3
ENDBRANCH   1   2
BRANCH   1  26
ATOM     26  O   UNL A   1      31.806  28.565  27.450  1.00  0.00    -0.458 OA
BRANCH  26  27
ATOM     27  C   UNL A   1      31.950  29.478  26.475  1.00  0.00     0.338 C 
ATOM     28  O   UNL A   1      31.093  30.008  25.787  1.00  0.00    -0.246 OA
BRANCH  27  29
ATOM     29  C   UNL A   1      33.320  29.969  26.562  1.00  0.00     0.060 A 
ATOM     30  C   UNL A   1      33.632  30.993  27.393  1.00  0.00     0.016 A 
ATOM     31  C   UNL A   1      34.338  29.205  26.058  1.00  0.00     0.016 A 
ATOM     32  C   UNL A   1      34.973  31.089  27.801  1.00  0.00     0.010 A 
ATOM     33  C   UNL A   1      35.451  29.057  26.905  1.00  0.00     0.010 A 
ATOM     34  C   UNL A   1      36.154  30.004  27.796  1.00  0.00    -0.014 A 
BRANCH  34  35
ATOM     35  C   UNL A   1      38.075  30.018  28.742  1.00  0.00     0.031 A 
ATOM     36  C   UNL A   1      38.533  30.360  30.495  1.00  0.00     0.074 A 
ATOM     37  C   UNL A   1      39.449  29.403  28.435  1.00  0.00     0.049 A 
ATOM     38  N   UNL A   1      39.685  30.802  31.022  1.00  0.00    -0.248 NA
ATOM     39  C   UNL A   1      37.585  30.277  31.654  1.00  0.00     0.031 C 
ATOM     40  C   UNL A   1      39.950  28.815  27.131  1.00  0.00     0.029 A 
ATOM     41  N   UNL A   1      40.493  28.875  29.264  1.00  0.00    -0.354 N 
ATOM     42  C   UNL A   1      39.332  31.345  32.282  1.00  0.00     0.074 A 
ATOM     43  C   UNL A   1      37.896  31.429  32.229  1.00  0.00     0.031 C 
ATOM     44  C   UNL A   1      40.816  27.830  27.313  1.00  0.00     0.029 A 
ATOM     45  C   UNL A   1      41.283  27.871  28.665  1.00  0.00     0.049 A 
ATOM     46  H   UNL A   1      40.647  29.190  30.184  1.00  0.00     0.167 HD
ATOM     47  C   UNL A   1      39.890  31.434  33.532  1.00  0.00     0.037 A 
ATOM     48  C   UNL A   1      42.307  27.042  29.002  1.00  0.00     0.037 A 
ATOM     49  C   UNL A   1      41.056  30.731  33.988  1.00  0.00     0.049 A 
ATOM     50  C   UNL A   1      42.925  27.119  30.353  1.00  0.00     0.074 A 
ATOM     51  C   UNL A   1      41.629  30.737  35.254  1.00  0.00     0.029 A 
ATOM     52  N   UNL A   1      41.718  29.762  33.261  1.00  0.00    -0.354 N 
ATOM     53  N   UNL A   1      42.559  27.847  31.370  1.00  0.00    -0.248 NA
ATOM     54  C   UNL A   1      44.112  26.281  30.596  1.00  0.00     0.031 C 
ATOM     55  C   UNL A   1      42.652  29.783  35.285  1.00  0.00     0.029 A 
ATOM     56  C   UNL A   1      42.698  29.172  34.048  1.00  0.00     0.049 A 
ATOM     57  H   UNL A   1      41.525  29.525  32.325  1.00  0.00     0.167 HD
ATOM     58  C   UNL A   1      43.470  27.559  32.371  1.00  0.00     0.074 A 
ATOM     59  C   UNL A   1      44.364  26.541  31.868  1.00  0.00     0.031 C 
ATOM     60  C   UNL A   1      43.571  28.133  33.589  1.00  0.00     0.037 A 
BRANCH  47  61
ATOM     61  C   UNL A   1      39.144  32.264  34.585  1.00  0.00     0.057 A 
ATOM     62  C   UNL A   1      38.358  31.608  35.541  1.00  0.00     0.134 A 
ATOM     63  C   UNL A   1      39.227  33.664  34.700  1.00  0.00     0.134 A 
ATOM     64  F   UNL A   1      38.136  30.289  35.448  1.00  0.00    -0.206 F 
ATOM     65  C   UNL A   1      37.779  32.290  36.617  1.00  0.00     0.040 A 
ATOM     66  C   UNL A   1      38.712  34.347  35.807  1.00  0.00     0.040 A 
ATOM     67  F   UNL A   1      39.915  34.385  33.799  1.00  0.00    -0.206 F 
ATOM     68  C   UNL A   1      37.995  33.656  36.778  1.00  0.00     0.006 A 
ENDBRANCH  47  61
BRANCH  48  69
ATOM     69  C   UNL A   1      42.881  26.044  28.009  1.00  0.00     0.057 A 
ATOM     70  C   UNL A   1      43.927  26.374  27.130  1.00  0.00     0.134 A 
ATOM     71  C   UNL A   1      42.398  24.726  27.924  1.00  0.00     0.134 A 
ATOM     72  F   UNL A   1      44.456  27.607  27.141  1.00  0.00    -0.206 F 
ATOM     73  C   UNL A   1      44.423  25.471  26.182  1.00  0.00     0.040 A 
ATOM     74  C   UNL A   1      42.925  23.794  27.019  1.00  0.00     0.040 A 
ATOM     75  F   UNL A   1      41.432  24.307  28.754  1.00  0.00    -0.206 F 
ATOM     76  C   UNL A   1      43.929  24.172  26.132  1.00  0.00     0.006 A 
ENDBRANCH  48  69
BRANCH  60  77
ATOM     77  C   UNL A   1      44.667  27.645  34.474  1.00  0.00     0.057 A 
ATOM     78  C   UNL A   1      45.918  28.271  34.481  1.00  0.00     0.134 A 
ATOM     79  C   UNL A   1      44.471  26.563  35.341  1.00  0.00     0.134 A 
ATOM     80  F   UNL A   1      46.161  29.317  33.677  1.00  0.00    -0.206 F 
ATOM     81  C   UNL A   1      46.939  27.835  35.323  1.00  0.00     0.040 A 
ATOM     82  C   UNL A   1      45.475  26.136  36.207  1.00  0.00     0.040 A 
ATOM     83  F   UNL A   1      43.282  25.943  35.396  1.00  0.00    -0.206 F 
ATOM     84  C   UNL A   1      46.716  26.770  36.195  1.00  0.00     0.006 A 
ENDBRANCH  60  77
ENDBRANCH  34  35
ENDBRANCH  27  29
ENDBRANCH  26  27
ENDBRANCH   1  26
TORSDOF 12
ENDMDL
MODEL 3
REMARK VINA RESULT:     -13.0      3.755      7.998
REMARK SMILES Cc1cc2c(=O)cc(-c3ccc(F)cc3)oc2c(C(=O)OCCOC(=O)c2ccc(-c3c4nc(c(-c5c(F)cccc5F)c5ccc([nH]5)c(-c5c(F)cccc5F)c5nc(c(-c6c(F)cccc6F)c6ccc3[nH]6)C=C5)C=C4)cc2)c1C
REMARK SMILES IDX 23 1 22 2 21 3 19 4 20 5 18 6 1 7 2 8 3 9 81 10 4 11 82 12
REMARK SMILES IDX 5 13 17 14 6 15 7 16 16 17 8 18 9 19 10 20 15 21 11 22 14 23
REMARK SMILES IDX 12 24 13 25 24 26 25 27 26 28 27 29 28 30 80 31 29 32 79 33
REMARK SMILES IDX 30 34 31 35 32 36 73 37 33 38 78 39 72 40 74 41 34 42 77 43
REMARK SMILES IDX 71 44 70 45 35 47 61 48 44 49 60 50 45 51 48 52 59 53 75 54
REMARK SMILES IDX 46 55 47 56 58 58 76 59 49 60 36 61 37 62 42 63 38 64 39 65
REMARK SMILES IDX 41 66 43 67 40 68 62 69 63 70 68 71 64 72 65 73 67 74 69 75
REMARK SMILES IDX 66 76 50 77 51 78 56 79 52 80 53 81 55 82 57 83 54 84
REMARK H PARENT 74 46 48 57
REMARK Flexibility Score: inf
ROOT
ATOM      1  C   UNL A   1      35.480  22.884  23.189  1.00  0.00     0.275 C 
ENDROOT
BRANCH   1   2
ATOM      2  C   UNL A   1      34.908  24.259  23.567  1.00  0.00     0.275 C 
BRANCH   2   3
ATOM      3  O   UNL A   1      34.443  24.965  22.384  1.00  0.00    -0.458 OA
BRANCH   3   4
ATOM      4  C   UNL A   1      33.124  25.300  22.322  1.00  0.00     0.342 C 
ATOM      5  O   UNL A   1      32.492  25.544  21.308  1.00  0.00    -0.246 OA
BRANCH   4   6
ATOM      6  C   UNL A   1      32.551  25.490  23.681  1.00  0.00     0.106 A 
ATOM      7  C   UNL A   1      31.436  28.523  25.756  1.00  0.00     0.044 C 
ATOM      8  C   UNL A   1      31.656  27.116  25.262  1.00  0.00    -0.046 A 
ATOM      9  C   UNL A   1      31.036  26.053  25.949  1.00  0.00     0.019 A 
ATOM     10  C   UNL A   1      32.479  26.834  24.154  1.00  0.00    -0.030 A 
ATOM     11  C   UNL A   1      31.204  24.721  25.539  1.00  0.00     0.066 A 
ATOM     12  C   UNL A   1      33.278  27.931  23.476  1.00  0.00     0.046 C 
ATOM     13  C   UNL A   1      30.628  23.600  26.317  1.00  0.00     0.193 A 
ATOM     14  C   UNL A   1      31.923  24.428  24.390  1.00  0.00     0.153 A 
ATOM     15  O   UNL A   1      29.806  23.795  27.203  1.00  0.00    -0.289 OA
ATOM     16  C   UNL A   1      31.144  22.234  26.026  1.00  0.00     0.100 A 
ATOM     17  O   UNL A   1      31.984  23.117  23.959  1.00  0.00    -0.455 OA
ATOM     18  C   UNL A   1      31.834  22.052  24.893  1.00  0.00     0.138 A 
BRANCH  18  19
ATOM     19  C   UNL A   1      32.459  20.717  24.432  1.00  0.00     0.018 A 
ATOM     20  C   UNL A   1      32.067  19.947  22.835  1.00  0.00     0.015 A 
ATOM     21  C   UNL A   1      33.007  19.660  25.774  1.00  0.00     0.015 A 
ATOM     22  C   UNL A   1      32.469  18.153  22.478  1.00  0.00     0.040 A 
ATOM     23  C   UNL A   1      33.102  17.858  25.567  1.00  0.00     0.040 A 
ATOM     24  C   UNL A   1      33.014  17.093  23.899  1.00  0.00     0.123 A 
ATOM     25  F   UNL A   1      33.094  15.762  23.779  1.00  0.00    -0.207 F 
ENDBRANCH  18  19
ENDBRANCH   4   6
ENDBRANCH   3   4
ENDBRANCH   2   3
ENDBRANCH   1   2
BRANCH   1  26
ATOM     26  O   UNL A   1      36.825  22.819  23.670  1.00  0.00    -0.458 OA
BRANCH  26  27
ATOM     27  C   UNL A   1      37.035  21.782  24.498  1.00  0.00     0.338 C 
ATOM     28  O   UNL A   1      36.951  20.587  24.268  1.00  0.00    -0.246 OA
BRANCH  27  29
ATOM     29  C   UNL A   1      37.682  22.322  25.687  1.00  0.00     0.060 A 
ATOM     30  C   UNL A   1      38.957  21.979  25.993  1.00  0.00     0.016 A 
ATOM     31  C   UNL A   1      37.131  23.408  26.315  1.00  0.00     0.016 A 
ATOM     32  C   UNL A   1      39.670  22.867  26.815  1.00  0.00     0.010 A 
ATOM     33  C   UNL A   1      38.035  24.435  26.639  1.00  0.00     0.010 A 
ATOM     34  C   UNL A   1      39.417  24.413  27.163  1.00  0.00    -0.014 A 
BRANCH  34  35
ATOM     35  C   UNL A   1      40.680  25.862  28.104  1.00  0.00     0.031 A 
ATOM     36  C   UNL A   1      42.336  26.499  27.603  1.00  0.00     0.074 A 
ATOM     37  C   UNL A   1      40.470  27.009  29.104  1.00  0.00     0.049 A 
ATOM     38  N   UNL A   1      43.319  27.039  28.340  1.00  0.00    -0.248 NA
ATOM     39  C   UNL A   1      42.898  26.412  26.215  1.00  0.00     0.031 C 
ATOM     40  C   UNL A   1      39.277  27.274  30.001  1.00  0.00     0.029 A 
ATOM     41  N   UNL A   1      41.078  28.300  29.257  1.00  0.00    -0.354 N 
ATOM     42  C   UNL A   1      44.494  26.880  27.564  1.00  0.00     0.074 A 
ATOM     43  C   UNL A   1      44.101  25.956  26.532  1.00  0.00     0.031 C 
ATOM     44  C   UNL A   1      39.075  28.565  30.219  1.00  0.00     0.029 A 
ATOM     45  C   UNL A   1      40.253  29.285  29.842  1.00  0.00     0.049 A 
ATOM     46  H   UNL A   1      42.003  28.484  28.976  1.00  0.00     0.167 HD
ATOM     47  C   UNL A   1      45.649  27.582  27.329  1.00  0.00     0.037 A 
ATOM     48  C   UNL A   1      40.306  30.609  30.148  1.00  0.00     0.037 A 
ATOM     49  C   UNL A   1      45.905  28.940  27.720  1.00  0.00     0.049 A 
ATOM     50  C   UNL A   1      41.546  31.391  29.897  1.00  0.00     0.074 A 
ATOM     51  C   UNL A   1      47.027  29.717  27.459  1.00  0.00     0.029 A 
ATOM     52  N   UNL A   1      44.969  29.779  28.289  1.00  0.00    -0.354 N 
ATOM     53  N   UNL A   1      42.643  31.003  29.310  1.00  0.00    -0.248 NA
ATOM     54  C   UNL A   1      41.567  32.784  30.375  1.00  0.00     0.031 C 
ATOM     55  C   UNL A   1      46.774  31.024  27.889  1.00  0.00     0.029 A 
ATOM     56  C   UNL A   1      45.490  31.061  28.396  1.00  0.00     0.049 A 
ATOM     57  H   UNL A   1      44.067  29.509  28.577  1.00  0.00     0.167 HD
ATOM     58  C   UNL A   1      43.485  32.101  29.350  1.00  0.00     0.074 A 
ATOM     59  C   UNL A   1      42.754  33.190  29.955  1.00  0.00     0.031 C 
ATOM     60  C   UNL A   1      44.774  32.169  28.952  1.00  0.00     0.037 A 
BRANCH  47  61
ATOM     61  C   UNL A   1      46.726  26.910  26.468  1.00  0.00     0.057 A 
ATOM     62  C   UNL A   1      46.787  27.200  25.099  1.00  0.00     0.134 A 
ATOM     63  C   UNL A   1      47.713  26.039  26.966  1.00  0.00     0.134 A 
ATOM     64  F   UNL A   1      45.827  27.934  24.517  1.00  0.00    -0.206 F 
ATOM     65  C   UNL A   1      47.835  26.743  24.292  1.00  0.00     0.040 A 
ATOM     66  C   UNL A   1      48.803  25.633  26.186  1.00  0.00     0.040 A 
ATOM     67  F   UNL A   1      47.706  25.661  28.255  1.00  0.00    -0.206 F 
ATOM     68  C   UNL A   1      48.871  25.996  24.846  1.00  0.00     0.006 A 
ENDBRANCH  47  61
BRANCH  48  69
ATOM     69  C   UNL A   1      39.125  31.323  30.786  1.00  0.00     0.057 A 
ATOM     70  C   UNL A   1      38.095  31.901  30.024  1.00  0.00     0.134 A 
ATOM     71  C   UNL A   1      38.996  31.436  32.181  1.00  0.00     0.134 A 
ATOM     72  F   UNL A   1      38.129  31.840  28.685  1.00  0.00    -0.206 F 
ATOM     73  C   UNL A   1      37.033  32.601  30.609  1.00  0.00     0.040 A 
ATOM     74  C   UNL A   1      37.908  32.084  32.781  1.00  0.00     0.040 A 
ATOM     75  F   UNL A   1      39.907  30.874  32.990  1.00  0.00    -0.206 F 
ATOM     76  C   UNL A   1      36.931  32.686  31.993  1.00  0.00     0.006 A 
ENDBRANCH  48  69
BRANCH  60  77
ATOM     77  C   UNL A   1      45.462  33.481  29.128  1.00  0.00     0.057 A 
ATOM     78  C   UNL A   1      46.188  33.761  30.290  1.00  0.00     0.134 A 
ATOM     79  C   UNL A   1      45.423  34.459  28.127  1.00  0.00     0.134 A 
ATOM     80  F   UNL A   1      46.266  32.859  31.280  1.00  0.00    -0.206 F 
ATOM     81  C   UNL A   1      46.854  34.974  30.450  1.00  0.00     0.040 A 
ATOM     82  C   UNL A   1      46.108  35.665  28.265  1.00  0.00     0.040 A 
ATOM     83  F   UNL A   1      44.766  34.232  26.980  1.00  0.00    -0.206 F 
ATOM     84  C   UNL A   1      46.821  35.927  29.432  1.00  0.00     0.006 A 
ENDBRANCH  60  77
ENDBRANCH  34  35
ENDBRANCH  27  29
ENDBRANCH  26  27
ENDBRANCH   1  26
TORSDOF 12
ENDMDL
