MODEL 1
REMARK VINA RESULT:     -11.6      0.000      0.000
REMARK SMILES CC(C)CSc1cc2c(cc1Cl)C=C(C(=O)OCCOC(=O)c1ccc(-c3c4nc(c(-c5c(F)cccc5F)c5ccc([nH]5)c(-c5c(F)cccc5F)c5nc(c(-c6c(F)cccc6F)c6ccc3[nH]6)C=C5)C=C4)cc1)[C@H](C(F)(F)F)O2
REMARK SMILES IDX 18 1 17 2 15 3 16 4 14 5 6 6 7 7 11 8 8 9 10 10 12 11 9 12
REMARK SMILES IDX 82 13 13 14 77 15 5 16 4 17 2 18 1 19 3 20 78 21 79 22 80 23
REMARK SMILES IDX 81 24 19 25 20 26 21 27 22 28 23 29 24 30 76 31 25 32 75 33
REMARK SMILES IDX 26 34 27 35 28 36 69 37 29 38 74 39 68 40 70 41 30 42 73 43
REMARK SMILES IDX 67 44 66 45 31 47 57 48 40 49 56 50 41 51 44 52 55 53 71 54
REMARK SMILES IDX 42 55 43 56 54 58 72 59 45 60 32 61 33 62 38 63 34 64 35 65
REMARK SMILES IDX 37 66 39 67 36 68 58 69 59 70 64 71 60 72 61 73 63 74 65 75
REMARK SMILES IDX 62 76 46 77 47 78 52 79 48 80 49 81 51 82 53 83 50 84
REMARK H PARENT 70 46 44 57
REMARK Flexibility Score: inf
ROOT
ATOM      1  C   UNL A   1      35.207  20.438  25.023  1.00  0.00     0.275 C 
ENDROOT
BRANCH   1   2
ATOM      2  O   UNL A   1      35.059  21.731  25.650  1.00  0.00    -0.459 OA
BRANCH   2   3
ATOM      3  C   UNL A   1      34.068  21.858  26.555  1.00  0.00     0.338 C 
ATOM      4  O   UNL A   1      33.844  21.108  27.493  1.00  0.00    -0.246 OA
BRANCH   3   5
ATOM      5  C   UNL A   1      33.337  23.122  26.342  1.00  0.00     0.087 C 
ATOM      6  C   UNL A   1      32.285  27.944  25.382  1.00  0.00     0.030 A 
ATOM      7  C   UNL A   1      31.679  26.949  26.180  1.00  0.00     0.063 A 
ATOM      8  C   UNL A   1      33.343  27.575  24.537  1.00  0.00     0.055 A 
ATOM      9  C   UNL A   1      32.199  25.656  26.227  1.00  0.00     0.129 A 
ATOM     10  C   UNL A   1      33.904  26.302  24.640  1.00  0.00     0.033 A 
ATOM     11  Cl  UNL A   1      34.010  28.609  23.323  1.00  0.00    -0.083 Cl
ATOM     12  C   UNL A   1      33.359  25.367  25.521  1.00  0.00     0.019 A 
ATOM     13  O   UNL A   1      31.588  24.739  27.041  1.00  0.00    -0.475 OA
ATOM     14  C   UNL A   1      34.032  24.112  25.770  1.00  0.00     0.027 C 
ATOM     15  C   UNL A   1      31.926  23.323  26.830  1.00  0.00     0.316 C 
BRANCH   6  16
ATOM     16  S   UNL A   1      31.636  29.601  25.580  1.00  0.00    -0.124 SA
BRANCH  16  17
ATOM     17  C   UNL A   1      33.102  30.588  26.101  1.00  0.00     0.078 C 
BRANCH  17  18
ATOM     18  C   UNL A   1      33.735  30.267  27.470  1.00  0.00    -0.007 C 
ATOM     19  C   UNL A   1      34.928  29.312  27.405  1.00  0.00     0.008 C 
ATOM     20  C   UNL A   1      34.207  31.580  28.112  1.00  0.00     0.008 C 
ENDBRANCH  17  18
ENDBRANCH  16  17
ENDBRANCH   6  16
BRANCH  15  21
ATOM     21  C   UNL A   1      30.838  22.638  25.985  1.00  0.00     0.430 C 
ATOM     22  F   UNL A   1      29.694  22.440  26.674  1.00  0.00    -0.167 F 
ATOM     23  F   UNL A   1      30.539  23.353  24.875  1.00  0.00    -0.167 F 
ATOM     24  F   UNL A   1      31.257  21.425  25.543  1.00  0.00    -0.167 F 
ENDBRANCH  15  21
ENDBRANCH   3   5
ENDBRANCH   2   3
ENDBRANCH   1   2
BRANCH   1  25
ATOM     25  C   UNL A   1      36.678  20.018  24.984  1.00  0.00     0.275 C 
BRANCH  25  26
ATOM     26  O   UNL A   1      37.524  21.113  25.380  1.00  0.00    -0.458 OA
BRANCH  26  27
ATOM     27  C   UNL A   1      38.761  20.774  25.809  1.00  0.00     0.338 C 
ATOM     28  O   UNL A   1      39.315  19.691  25.717  1.00  0.00    -0.246 OA
BRANCH  27  29
ATOM     29  C   UNL A   1      39.433  21.978  26.313  1.00  0.00     0.060 A 
ATOM     30  C   UNL A   1      40.635  21.919  27.008  1.00  0.00     0.016 A 
ATOM     31  C   UNL A   1      38.866  23.208  25.996  1.00  0.00     0.016 A 
ATOM     32  C   UNL A   1      41.244  23.116  27.412  1.00  0.00     0.010 A 
ATOM     33  C   UNL A   1      39.525  24.394  26.298  1.00  0.00     0.010 A 
ATOM     34  C   UNL A   1      40.703  24.367  27.051  1.00  0.00    -0.014 A 
BRANCH  34  35
ATOM     35  C   UNL A   1      41.336  25.644  27.487  1.00  0.00     0.031 A 
ATOM     36  C   UNL A   1      42.737  25.999  27.046  1.00  0.00     0.074 A 
ATOM     37  C   UNL A   1      40.669  26.477  28.311  1.00  0.00     0.049 A 
ATOM     38  N   UNL A   1      43.445  27.070  27.313  1.00  0.00    -0.248 NA
ATOM     39  C   UNL A   1      43.454  25.006  26.230  1.00  0.00     0.031 C 
ATOM     40  C   UNL A   1      39.351  26.222  28.890  1.00  0.00     0.029 A 
ATOM     41  N   UNL A   1      41.009  27.717  28.794  1.00  0.00    -0.354 N 
ATOM     42  C   UNL A   1      44.686  26.866  26.721  1.00  0.00     0.074 A 
ATOM     43  C   UNL A   1      44.661  25.542  26.140  1.00  0.00     0.031 C 
ATOM     44  C   UNL A   1      38.964  27.295  29.597  1.00  0.00     0.029 A 
ATOM     45  C   UNL A   1      40.019  28.302  29.547  1.00  0.00     0.049 A 
ATOM     46  H   UNL A   1      41.878  28.145  28.619  1.00  0.00     0.167 HD
ATOM     47  C   UNL A   1      45.740  27.712  26.631  1.00  0.00     0.037 A 
ATOM     48  C   UNL A   1      39.961  29.522  30.113  1.00  0.00     0.037 A 
ATOM     49  C   UNL A   1      45.751  29.051  27.158  1.00  0.00     0.049 A 
ATOM     50  C   UNL A   1      41.118  30.467  29.953  1.00  0.00     0.074 A 
ATOM     51  C   UNL A   1      46.737  30.016  27.050  1.00  0.00     0.029 A 
ATOM     52  N   UNL A   1      44.716  29.615  27.887  1.00  0.00    -0.354 N 
ATOM     53  N   UNL A   1      42.251  30.289  29.317  1.00  0.00    -0.248 NA
ATOM     54  C   UNL A   1      40.984  31.788  30.582  1.00  0.00     0.031 C 
ATOM     55  C   UNL A   1      46.308  31.158  27.735  1.00  0.00     0.029 A 
ATOM     56  C   UNL A   1      45.042  30.913  28.243  1.00  0.00     0.049 A 
ATOM     57  H   UNL A   1      43.874  29.161  28.118  1.00  0.00     0.167 HD
ATOM     58  C   UNL A   1      42.955  31.478  29.453  1.00  0.00     0.074 A 
ATOM     59  C   UNL A   1      42.112  32.378  30.214  1.00  0.00     0.031 C 
ATOM     60  C   UNL A   1      44.189  31.796  28.995  1.00  0.00     0.037 A 
BRANCH  47  61
ATOM     61  C   UNL A   1      46.961  27.218  25.907  1.00  0.00     0.057 A 
ATOM     62  C   UNL A   1      47.107  27.410  24.528  1.00  0.00     0.134 A 
ATOM     63  C   UNL A   1      47.988  26.537  26.575  1.00  0.00     0.134 A 
ATOM     64  F   UNL A   1      46.158  28.045  23.823  1.00  0.00    -0.206 F 
ATOM     65  C   UNL A   1      48.235  26.953  23.843  1.00  0.00     0.040 A 
ATOM     66  C   UNL A   1      49.133  26.100  25.906  1.00  0.00     0.040 A 
ATOM     67  F   UNL A   1      47.916  26.328  27.898  1.00  0.00    -0.206 F 
ATOM     68  C   UNL A   1      49.257  26.305  24.534  1.00  0.00     0.006 A 
ENDBRANCH  47  61
BRANCH  48  69
ATOM     69  C   UNL A   1      38.738  29.947  30.838  1.00  0.00     0.057 A 
ATOM     70  C   UNL A   1      38.596  29.757  32.217  1.00  0.00     0.134 A 
ATOM     71  C   UNL A   1      37.681  30.568  30.160  1.00  0.00     0.134 A 
ATOM     72  F   UNL A   1      39.569  29.163  32.922  1.00  0.00    -0.206 F 
ATOM     73  C   UNL A   1      37.446  30.166  32.895  1.00  0.00     0.040 A 
ATOM     74  C   UNL A   1      36.537  31.002  30.828  1.00  0.00     0.040 A 
ATOM     75  F   UNL A   1      37.769  30.794  28.840  1.00  0.00    -0.206 F 
ATOM     76  C   UNL A   1      36.415  30.797  32.201  1.00  0.00     0.006 A 
ENDBRANCH  48  69
BRANCH  60  77
ATOM     77  C   UNL A   1      44.688  33.179  29.286  1.00  0.00     0.057 A 
ATOM     78  C   UNL A   1      44.428  34.233  28.401  1.00  0.00     0.134 A 
ATOM     79  C   UNL A   1      45.443  33.464  30.430  1.00  0.00     0.134 A 
ATOM     80  F   UNL A   1      43.716  34.023  27.282  1.00  0.00    -0.206 F 
ATOM     81  C   UNL A   1      44.900  35.523  28.646  1.00  0.00     0.040 A 
ATOM     82  C   UNL A   1      45.900  34.755  30.697  1.00  0.00     0.040 A 
ATOM     83  F   UNL A   1      45.713  32.500  31.323  1.00  0.00    -0.206 F 
ATOM     84  C   UNL A   1      45.633  35.787  29.801  1.00  0.00     0.006 A 
ENDBRANCH  60  77
ENDBRANCH  34  35
ENDBRANCH  27  29
ENDBRANCH  26  27
ENDBRANCH  25  26
ENDBRANCH   1  25
TORSDOF 15
ENDMDL
MODEL 2
REMARK VINA RESULT:     -11.4      4.039      8.942
REMARK SMILES CC(C)CSc1cc2c(cc1Cl)C=C(C(=O)OCCOC(=O)c1ccc(-c3c4nc(c(-c5c(F)cccc5F)c5ccc([nH]5)c(-c5c(F)cccc5F)c5nc(c(-c6c(F)cccc6F)c6ccc3[nH]6)C=C5)C=C4)cc1)[C@H](C(F)(F)F)O2
REMARK SMILES IDX 18 1 17 2 15 3 16 4 14 5 6 6 7 7 11 8 8 9 10 10 12 11 9 12
REMARK SMILES IDX 82 13 13 14 77 15 5 16 4 17 2 18 1 19 3 20 78 21 79 22 80 23
REMARK SMILES IDX 81 24 19 25 20 26 21 27 22 28 23 29 24 30 76 31 25 32 75 33
REMARK SMILES IDX 26 34 27 35 28 36 69 37 29 38 74 39 68 40 70 41 30 42 73 43
REMARK SMILES IDX 67 44 66 45 31 47 57 48 40 49 56 50 41 51 44 52 55 53 71 54
REMARK SMILES IDX 42 55 43 56 54 58 72 59 45 60 32 61 33 62 38 63 34 64 35 65
REMARK SMILES IDX 37 66 39 67 36 68 58 69 59 70 64 71 60 72 61 73 63 74 65 75
REMARK SMILES IDX 62 76 46 77 47 78 52 79 48 80 49 81 51 82 53 83 50 84
REMARK H PARENT 70 46 44 57
REMARK Flexibility Score: inf
ROOT
ATOM      1  C   UNL A   1      31.131  29.764  24.629  1.00  0.00     0.275 C 
ENDROOT
BRANCH   1   2
ATOM      2  O   UNL A   1      32.042  28.647  24.709  1.00  0.00    -0.459 OA
BRANCH   2   3
ATOM      3  C   UNL A   1      32.773  28.379  23.608  1.00  0.00     0.338 C 
ATOM      4  O   UNL A   1      33.138  29.187  22.768  1.00  0.00    -0.246 OA
BRANCH   3   5
ATOM      5  C   UNL A   1      33.198  26.966  23.606  1.00  0.00     0.087 C 
ATOM      6  C   UNL A   1      34.982  22.497  25.065  1.00  0.00     0.030 A 
ATOM      7  C   UNL A   1      34.963  23.191  23.835  1.00  0.00     0.063 A 
ATOM      8  C   UNL A   1      34.264  23.029  26.147  1.00  0.00     0.055 A 
ATOM      9  C   UNL A   1      34.354  24.440  23.728  1.00  0.00     0.129 A 
ATOM     10  C   UNL A   1      33.718  24.310  26.057  1.00  0.00     0.033 A 
ATOM     11  Cl  UNL A   1      33.979  22.178  27.624  1.00  0.00    -0.083 Cl
ATOM     12  C   UNL A   1      33.810  25.027  24.863  1.00  0.00     0.019 A 
ATOM     13  O   UNL A   1      34.391  25.081  22.518  1.00  0.00    -0.475 OA
ATOM     14  C   UNL A   1      33.410  26.415  24.807  1.00  0.00     0.027 C 
ATOM     15  C   UNL A   1      33.474  26.215  22.329  1.00  0.00     0.316 C 
BRANCH   6  16
ATOM     16  S   UNL A   1      35.974  21.007  25.102  1.00  0.00    -0.124 SA
BRANCH  16  17
ATOM     17  C   UNL A   1      37.700  21.624  24.917  1.00  0.00     0.078 C 
BRANCH  17  18
ATOM     18  C   UNL A   1      38.395  22.200  26.167  1.00  0.00    -0.007 C 
ATOM     19  C   UNL A   1      39.872  21.824  26.297  1.00  0.00     0.008 C 
ATOM     20  C   UNL A   1      38.294  23.732  26.121  1.00  0.00     0.008 C 
ENDBRANCH  17  18
ENDBRANCH  16  17
ENDBRANCH   6  16
BRANCH  15  21
ATOM     21  C   UNL A   1      32.224  25.764  21.552  1.00  0.00     0.430 C 
ATOM     22  F   UNL A   1      31.243  26.691  21.564  1.00  0.00    -0.167 F 
ATOM     23  F   UNL A   1      32.513  25.478  20.260  1.00  0.00    -0.167 F 
ATOM     24  F   UNL A   1      31.710  24.625  22.078  1.00  0.00    -0.167 F 
ENDBRANCH  15  21
ENDBRANCH   3   5
ENDBRANCH   2   3
ENDBRANCH   1   2
BRANCH   1  25
ATOM     25  C   UNL A   1      31.375  30.749  25.775  1.00  0.00     0.275 C 
BRANCH  25  26
ATOM     26  O   UNL A   1      32.737  30.658  26.233  1.00  0.00    -0.458 OA
BRANCH  26  27
ATOM     27  C   UNL A   1      33.147  31.648  27.058  1.00  0.00     0.338 C 
ATOM     28  O   UNL A   1      32.599  32.716  27.276  1.00  0.00    -0.246 OA
BRANCH  27  29
ATOM     29  C   UNL A   1      34.334  31.192  27.792  1.00  0.00     0.060 A 
ATOM     30  C   UNL A   1      34.599  29.845  28.006  1.00  0.00     0.016 A 
ATOM     31  C   UNL A   1      35.246  32.159  28.199  1.00  0.00     0.016 A 
ATOM     32  C   UNL A   1      35.781  29.483  28.669  1.00  0.00     0.010 A 
ATOM     33  C   UNL A   1      36.467  31.797  28.755  1.00  0.00     0.010 A 
ATOM     34  C   UNL A   1      36.734  30.454  29.040  1.00  0.00    -0.014 A 
BRANCH  34  35
ATOM     35  C   UNL A   1      37.986  30.082  29.757  1.00  0.00     0.031 A 
ATOM     36  C   UNL A   1      38.224  30.536  31.179  1.00  0.00     0.074 A 
ATOM     37  C   UNL A   1      38.935  29.363  29.124  1.00  0.00     0.049 A 
ATOM     38  N   UNL A   1      39.245  30.299  31.966  1.00  0.00    -0.248 NA
ATOM     39  C   UNL A   1      37.200  31.403  31.785  1.00  0.00     0.031 C 
ATOM     40  C   UNL A   1      38.883  28.935  27.727  1.00  0.00     0.029 A 
ATOM     41  N   UNL A   1      40.125  28.854  29.583  1.00  0.00    -0.354 N 
ATOM     42  C   UNL A   1      38.995  31.002  33.139  1.00  0.00     0.074 A 
ATOM     43  C   UNL A   1      37.762  31.730  32.938  1.00  0.00     0.031 C 
ATOM     44  C   UNL A   1      39.957  28.176  27.457  1.00  0.00     0.029 A 
ATOM     45  C   UNL A   1      40.789  28.089  28.653  1.00  0.00     0.049 A 
ATOM     46  H   UNL A   1      40.471  29.022  30.489  1.00  0.00     0.167 HD
ATOM     47  C   UNL A   1      39.701  31.015  34.296  1.00  0.00     0.037 A 
ATOM     48  C   UNL A   1      41.927  27.379  28.762  1.00  0.00     0.037 A 
ATOM     49  C   UNL A   1      40.898  30.249  34.522  1.00  0.00     0.049 A 
ATOM     50  C   UNL A   1      42.664  27.360  30.071  1.00  0.00     0.074 A 
ATOM     51  C   UNL A   1      41.643  30.130  35.682  1.00  0.00     0.029 A 
ATOM     52  N   UNL A   1      41.520  29.463  33.564  1.00  0.00    -0.354 N 
ATOM     53  N   UNL A   1      42.368  27.964  31.197  1.00  0.00    -0.248 NA
ATOM     54  C   UNL A   1      43.892  26.554  30.127  1.00  0.00     0.031 C 
ATOM     55  C   UNL A   1      42.730  29.289  35.419  1.00  0.00     0.029 A 
ATOM     56  C   UNL A   1      42.643  28.861  34.104  1.00  0.00     0.049 A 
ATOM     57  H   UNL A   1      41.208  29.350  32.637  1.00  0.00     0.167 HD
ATOM     58  C   UNL A   1      43.359  27.595  32.098  1.00  0.00     0.074 A 
ATOM     59  C   UNL A   1      44.253  26.699  31.393  1.00  0.00     0.031 C 
ATOM     60  C   UNL A   1      43.518  27.968  33.390  1.00  0.00     0.037 A 
BRANCH  47  61
ATOM     61  C   UNL A   1      39.174  31.867  35.416  1.00  0.00     0.057 A 
ATOM     62  C   UNL A   1      39.564  33.206  35.547  1.00  0.00     0.134 A 
ATOM     63  C   UNL A   1      38.288  31.358  36.375  1.00  0.00     0.134 A 
ATOM     64  F   UNL A   1      40.417  33.757  34.670  1.00  0.00    -0.206 F 
ATOM     65  C   UNL A   1      39.084  34.008  36.585  1.00  0.00     0.040 A 
ATOM     66  C   UNL A   1      37.780  32.157  37.401  1.00  0.00     0.040 A 
ATOM     67  F   UNL A   1      37.866  30.086  36.303  1.00  0.00    -0.206 F 
ATOM     68  C   UNL A   1      38.182  33.486  37.509  1.00  0.00     0.006 A 
ENDBRANCH  47  61
BRANCH  48  69
ATOM     69  C   UNL A   1      42.414  26.575  27.613  1.00  0.00     0.057 A 
ATOM     70  C   UNL A   1      41.981  25.263  27.397  1.00  0.00     0.134 A 
ATOM     71  C   UNL A   1      43.323  27.115  26.694  1.00  0.00     0.134 A 
ATOM     72  F   UNL A   1      41.117  24.687  28.246  1.00  0.00    -0.206 F 
ATOM     73  C   UNL A   1      42.437  24.514  26.311  1.00  0.00     0.040 A 
ATOM     74  C   UNL A   1      43.768  26.387  25.591  1.00  0.00     0.040 A 
ATOM     75  F   UNL A   1      43.758  28.376  26.838  1.00  0.00    -0.206 F 
ATOM     76  C   UNL A   1      43.328  25.079  25.400  1.00  0.00     0.006 A 
ENDBRANCH  48  69
BRANCH  60  77
ATOM     77  C   UNL A   1      44.687  27.389  34.127  1.00  0.00     0.057 A 
ATOM     78  C   UNL A   1      44.570  26.172  34.810  1.00  0.00     0.134 A 
ATOM     79  C   UNL A   1      45.923  28.045  34.178  1.00  0.00     0.134 A 
ATOM     80  F   UNL A   1      43.409  25.498  34.806  1.00  0.00    -0.206 F 
ATOM     81  C   UNL A   1      45.642  25.627  35.516  1.00  0.00     0.040 A 
ATOM     82  C   UNL A   1      47.010  27.498  34.862  1.00  0.00     0.040 A 
ATOM     83  F   UNL A   1      46.103  29.207  33.532  1.00  0.00    -0.206 F 
ATOM     84  C   UNL A   1      46.869  26.288  35.538  1.00  0.00     0.006 A 
ENDBRANCH  60  77
ENDBRANCH  34  35
ENDBRANCH  27  29
ENDBRANCH  26  27
ENDBRANCH  25  26
ENDBRANCH   1  25
TORSDOF 15
ENDMDL
MODEL 3
REMARK VINA RESULT:     -11.4      2.306      2.963
REMARK SMILES CC(C)CSc1cc2c(cc1Cl)C=C(C(=O)OCCOC(=O)c1ccc(-c3c4nc(c(-c5c(F)cccc5F)c5ccc([nH]5)c(-c5c(F)cccc5F)c5nc(c(-c6c(F)cccc6F)c6ccc3[nH]6)C=C5)C=C4)cc1)[C@H](C(F)(F)F)O2
REMARK SMILES IDX 18 1 17 2 15 3 16 4 14 5 6 6 7 7 11 8 8 9 10 10 12 11 9 12
REMARK SMILES IDX 82 13 13 14 77 15 5 16 4 17 2 18 1 19 3 20 78 21 79 22 80 23
REMARK SMILES IDX 81 24 19 25 20 26 21 27 22 28 23 29 24 30 76 31 25 32 75 33
REMARK SMILES IDX 26 34 27 35 28 36 69 37 29 38 74 39 68 40 70 41 30 42 73 43
REMARK SMILES IDX 67 44 66 45 31 47 57 48 40 49 56 50 41 51 44 52 55 53 71 54
REMARK SMILES IDX 42 55 43 56 54 58 72 59 45 60 32 61 33 62 38 63 34 64 35 65
REMARK SMILES IDX 37 66 39 67 36 68 58 69 59 70 64 71 60 72 61 73 63 74 65 75
REMARK SMILES IDX 62 76 46 77 47 78 52 79 48 80 49 81 51 82 53 83 50 84
REMARK H PARENT 70 46 44 57
REMARK Flexibility Score: inf
ROOT
ATOM      1  C   UNL A   1      38.377  21.012  25.530  1.00  0.00     0.275 C 
ENDROOT
BRANCH   1   2
ATOM      2  O   UNL A   1      37.390  21.347  24.531  1.00  0.00    -0.459 OA
BRANCH   2   3
ATOM      3  C   UNL A   1      36.110  21.029  24.809  1.00  0.00     0.338 C 
ATOM      4  O   UNL A   1      35.684  19.918  25.082  1.00  0.00    -0.246 OA
BRANCH   3   5
ATOM      5  C   UNL A   1      35.280  22.247  24.868  1.00  0.00     0.087 C 
ATOM      6  C   UNL A   1      32.880  26.475  23.585  1.00  0.00     0.030 A 
ATOM      7  C   UNL A   1      33.451  25.998  24.785  1.00  0.00     0.063 A 
ATOM      8  C   UNL A   1      32.802  25.605  22.486  1.00  0.00     0.055 A 
ATOM      9  C   UNL A   1      34.042  24.737  24.843  1.00  0.00     0.129 A 
ATOM     10  C   UNL A   1      33.456  24.374  22.526  1.00  0.00     0.033 A 
ATOM     11  Cl  UNL A   1      31.908  25.950  21.047  1.00  0.00    -0.083 Cl
ATOM     12  C   UNL A   1      34.114  23.969  23.688  1.00  0.00     0.019 A 
ATOM     13  O   UNL A   1      34.606  24.337  26.025  1.00  0.00    -0.475 OA
ATOM     14  C   UNL A   1      34.942  22.785  23.690  1.00  0.00     0.027 C 
ATOM     15  C   UNL A   1      34.917  22.907  26.173  1.00  0.00     0.316 C 
BRANCH   6  16
ATOM     16  S   UNL A   1      32.346  28.184  23.603  1.00  0.00    -0.124 SA
BRANCH  16  17
ATOM     17  C   UNL A   1      31.295  28.300  25.111  1.00  0.00     0.078 C 
BRANCH  17  18
ATOM     18  C   UNL A   1      31.837  29.113  26.304  1.00  0.00    -0.007 C 
ATOM     19  C   UNL A   1      31.720  28.404  27.654  1.00  0.00     0.008 C 
ATOM     20  C   UNL A   1      33.320  29.423  26.052  1.00  0.00     0.008 C 
ENDBRANCH  17  18
ENDBRANCH  16  17
ENDBRANCH   6  16
BRANCH  15  21
ATOM     21  C   UNL A   1      33.809  22.203  26.976  1.00  0.00     0.430 C 
ATOM     22  F   UNL A   1      34.299  21.330  27.882  1.00  0.00    -0.167 F 
ATOM     23  F   UNL A   1      33.023  23.090  27.632  1.00  0.00    -0.167 F 
ATOM     24  F   UNL A   1      32.980  21.509  26.156  1.00  0.00    -0.167 F 
ENDBRANCH  15  21
ENDBRANCH   3   5
ENDBRANCH   2   3
ENDBRANCH   1   2
BRANCH   1  25
ATOM     25  C   UNL A   1      39.212  19.808  25.088  1.00  0.00     0.275 C 
BRANCH  25  26
ATOM     26  O   UNL A   1      40.103  19.400  26.142  1.00  0.00    -0.458 OA
BRANCH  26  27
ATOM     27  C   UNL A   1      41.417  19.634  25.924  1.00  0.00     0.338 C 
ATOM     28  O   UNL A   1      42.207  18.944  25.301  1.00  0.00    -0.246 OA
BRANCH  27  29
ATOM     29  C   UNL A   1      41.757  20.959  26.457  1.00  0.00     0.060 A 
ATOM     30  C   UNL A   1      42.150  22.009  25.636  1.00  0.00     0.016 A 
ATOM     31  C   UNL A   1      41.589  21.163  27.823  1.00  0.00     0.016 A 
ATOM     32  C   UNL A   1      42.407  23.261  26.212  1.00  0.00     0.010 A 
ATOM     33  C   UNL A   1      41.735  22.429  28.377  1.00  0.00     0.010 A 
ATOM     34  C   UNL A   1      42.191  23.489  27.587  1.00  0.00    -0.014 A 
BRANCH  34  35
ATOM     35  C   UNL A   1      42.474  24.812  28.212  1.00  0.00     0.031 A 
ATOM     36  C   UNL A   1      43.878  25.178  28.638  1.00  0.00     0.074 A 
ATOM     37  C   UNL A   1      41.467  25.680  28.434  1.00  0.00     0.049 A 
ATOM     38  N   UNL A   1      44.317  26.287  29.184  1.00  0.00    -0.248 NA
ATOM     39  C   UNL A   1      44.919  24.153  28.463  1.00  0.00     0.031 C 
ATOM     40  C   UNL A   1      40.053  25.426  28.160  1.00  0.00     0.029 A 
ATOM     41  N   UNL A   1      41.484  26.960  28.930  1.00  0.00    -0.354 N 
ATOM     42  C   UNL A   1      45.668  26.079  29.436  1.00  0.00     0.074 A 
ATOM     43  C   UNL A   1      45.964  24.718  29.048  1.00  0.00     0.031 C 
ATOM     44  C   UNL A   1      39.345  26.534  28.431  1.00  0.00     0.029 A 
ATOM     45  C   UNL A   1      40.250  27.566  28.925  1.00  0.00     0.049 A 
ATOM     46  H   UNL A   1      42.300  27.402  29.258  1.00  0.00     0.167 HD
ATOM     47  C   UNL A   1      46.593  26.948  29.910  1.00  0.00     0.037 A 
ATOM     48  C   UNL A   1      39.894  28.820  29.260  1.00  0.00     0.037 A 
ATOM     49  C   UNL A   1      46.317  28.321  30.244  1.00  0.00     0.049 A 
ATOM     50  C   UNL A   1      40.945  29.787  29.729  1.00  0.00     0.074 A 
ATOM     51  C   UNL A   1      47.199  29.305  30.655  1.00  0.00     0.029 A 
ATOM     52  N   UNL A   1      45.061  28.903  30.196  1.00  0.00    -0.354 N 
ATOM     53  N   UNL A   1      42.234  29.599  29.881  1.00  0.00    -0.248 NA
ATOM     54  C   UNL A   1      40.492  31.144  30.064  1.00  0.00     0.031 C 
ATOM     55  C   UNL A   1      46.470  30.479  30.878  1.00  0.00     0.029 A 
ATOM     56  C   UNL A   1      45.141  30.232  30.576  1.00  0.00     0.049 A 
ATOM     57  H   UNL A   1      44.233  28.441  29.930  1.00  0.00     0.167 HD
ATOM     58  C   UNL A   1      42.747  30.816  30.310  1.00  0.00     0.074 A 
ATOM     59  C   UNL A   1      41.634  31.741  30.373  1.00  0.00     0.031 C 
ATOM     60  C   UNL A   1      44.023  31.139  30.628  1.00  0.00     0.037 A 
BRANCH  47  61
ATOM     61  C   UNL A   1      48.000  26.442  30.065  1.00  0.00     0.057 A 
ATOM     62  C   UNL A   1      48.918  26.535  29.012  1.00  0.00     0.134 A 
ATOM     63  C   UNL A   1      48.442  25.849  31.255  1.00  0.00     0.134 A 
ATOM     64  F   UNL A   1      48.561  27.083  27.840  1.00  0.00    -0.206 F 
ATOM     65  C   UNL A   1      50.227  26.066  29.142  1.00  0.00     0.040 A 
ATOM     66  C   UNL A   1      49.756  25.402  31.406  1.00  0.00     0.040 A 
ATOM     67  F   UNL A   1      47.616  25.737  32.307  1.00  0.00    -0.206 F 
ATOM     68  C   UNL A   1      50.652  25.506  30.345  1.00  0.00     0.006 A 
ENDBRANCH  47  61
BRANCH  48  69
ATOM     69  C   UNL A   1      38.484  29.258  29.110  1.00  0.00     0.057 A 
ATOM     70  C   UNL A   1      37.594  29.258  30.190  1.00  0.00     0.134 A 
ATOM     71  C   UNL A   1      37.998  29.698  27.873  1.00  0.00     0.134 A 
ATOM     72  F   UNL A   1      37.997  28.841  31.399  1.00  0.00    -0.206 F 
ATOM     73  C   UNL A   1      36.271  29.677  30.044  1.00  0.00     0.040 A 
ATOM     74  C   UNL A   1      36.685  30.142  27.718  1.00  0.00     0.040 A 
ATOM     75  F   UNL A   1      38.810  29.739  26.805  1.00  0.00    -0.206 F 
ATOM     76  C   UNL A   1      35.815  30.128  28.806  1.00  0.00     0.006 A 
ENDBRANCH  48  69
BRANCH  60  77
ATOM     77  C   UNL A   1      44.284  32.553  31.049  1.00  0.00     0.057 A 
ATOM     78  C   UNL A   1      44.597  33.535  30.101  1.00  0.00     0.134 A 
ATOM     79  C   UNL A   1      44.244  32.940  32.395  1.00  0.00     0.134 A 
ATOM     80  F   UNL A   1      44.659  33.227  28.796  1.00  0.00    -0.206 F 
ATOM     81  C   UNL A   1      44.860  34.852  30.477  1.00  0.00     0.040 A 
ATOM     82  C   UNL A   1      44.482  34.259  32.780  1.00  0.00     0.040 A 
ATOM     83  F   UNL A   1      43.935  32.048  33.349  1.00  0.00    -0.206 F 
ATOM     84  C   UNL A   1      44.797  35.219  31.820  1.00  0.00     0.006 A 
ENDBRANCH  60  77
ENDBRANCH  34  35
ENDBRANCH  27  29
ENDBRANCH  26  27
ENDBRANCH  25  26
ENDBRANCH   1  25
TORSDOF 15
ENDMDL
