MODEL 1
REMARK VINA RESULT:     -10.9      0.000      0.000
REMARK SMILES CC(C)[C@H](C)n1c(SCC(=O)OCCOC(=O)c2ccc(-c3c4nc(c(-c5c(F)cccc5F)c5ccc([nH]5)c(-c5c(F)cccc5F)c5nc(c(-c6c(F)cccc6F)c6ccc3[nH]6)C=C5)C=C4)cc2)nc2cc(Br)cnc21
REMARK SMILES IDX 13 1 12 2 10 3 11 4 9 5 8 6 7 7 6 8 79 9 72 10 73 11 78 12
REMARK SMILES IDX 74 13 77 14 75 15 76 16 4 17 5 18 2 19 1 20 3 21 14 22 15 23
REMARK SMILES IDX 16 24 17 25 18 26 19 27 71 28 20 29 70 30 21 31 22 32 23 33
REMARK SMILES IDX 64 34 24 35 69 36 63 37 65 38 25 39 68 40 62 41 61 42 26 44
REMARK SMILES IDX 52 45 35 46 51 47 36 48 39 49 50 50 66 51 37 52 38 53 49 55
REMARK SMILES IDX 67 56 40 57 27 58 28 59 33 60 29 61 30 62 32 63 34 64 31 65
REMARK SMILES IDX 53 66 54 67 59 68 55 69 56 70 58 71 60 72 57 73 41 74 42 75
REMARK SMILES IDX 47 76 43 77 44 78 46 79 48 80 45 81
REMARK H PARENT 65 43 39 54
REMARK Flexibility Score: inf
ROOT
ATOM      1  C   UNL A   1      34.039  29.916  26.879  1.00  0.00     0.274 C 
ENDROOT
BRANCH   1   2
ATOM      2  O   UNL A   1      33.631  28.761  27.629  1.00  0.00    -0.461 OA
BRANCH   2   3
ATOM      3  C   UNL A   1      32.478  28.156  27.215  1.00  0.00     0.316 C 
ATOM      4  O   UNL A   1      31.531  27.894  27.948  1.00  0.00    -0.251 OA
BRANCH   3   5
ATOM      5  C   UNL A   1      32.492  27.902  25.719  1.00  0.00     0.200 C 
BRANCH   5   6
ATOM      6  S   UNL A   1      31.535  26.425  25.310  1.00  0.00    -0.076 SA
BRANCH   6   7
ATOM      7  C   UNL A   1      32.713  25.153  25.145  1.00  0.00     0.171 A 
ATOM      8  N   UNL A   1      33.092  24.609  23.932  1.00  0.00    -0.301 N 
ATOM      9  C   UNL A   1      34.335  24.052  24.126  1.00  0.00     0.161 A 
ATOM     10  N   UNL A   1      33.554  24.834  26.108  1.00  0.00    -0.221 NA
ATOM     11  C   UNL A   1      34.576  24.155  25.489  1.00  0.00     0.110 A 
ATOM     12  N   UNL A   1      35.133  23.483  23.200  1.00  0.00    -0.235 NA
ATOM     13  C   UNL A   1      35.772  23.616  25.980  1.00  0.00     0.049 A 
ATOM     14  C   UNL A   1      36.243  22.920  23.723  1.00  0.00     0.129 A 
ATOM     15  C   UNL A   1      36.610  22.980  25.060  1.00  0.00     0.038 A 
ATOM     16  Br  UNL A   1      38.256  22.247  25.619  1.00  0.00    -0.049 Br
BRANCH   8  17
ATOM     17  C   UNL A   1      32.311  24.555  22.692  1.00  0.00     0.091 C 
ATOM     18  C   UNL A   1      30.859  24.177  22.981  1.00  0.00     0.032 C 
BRANCH  17  19
ATOM     19  C   UNL A   1      32.378  25.837  21.812  1.00  0.00     0.006 C 
ATOM     20  C   UNL A   1      33.567  26.699  22.222  1.00  0.00     0.009 C 
ATOM     21  C   UNL A   1      32.460  25.533  20.310  1.00  0.00     0.009 C 
ENDBRANCH  17  19
ENDBRANCH   8  17
ENDBRANCH   6   7
ENDBRANCH   5   6
ENDBRANCH   3   5
ENDBRANCH   2   3
ENDBRANCH   1   2
BRANCH   1  22
ATOM     22  C   UNL A   1      34.208  31.113  27.811  1.00  0.00     0.275 C 
BRANCH  22  23
ATOM     23  O   UNL A   1      35.528  31.610  28.136  1.00  0.00    -0.458 OA
BRANCH  23  24
ATOM     24  C   UNL A   1      36.200  31.183  29.236  1.00  0.00     0.338 C 
ATOM     25  O   UNL A   1      35.970  31.466  30.383  1.00  0.00    -0.246 OA
BRANCH  24  26
ATOM     26  C   UNL A   1      37.436  30.453  28.811  1.00  0.00     0.060 A 
ATOM     27  C   UNL A   1      37.287  29.127  28.394  1.00  0.00     0.016 A 
ATOM     28  C   UNL A   1      38.724  30.968  29.037  1.00  0.00     0.016 A 
ATOM     29  C   UNL A   1      38.402  28.290  28.364  1.00  0.00     0.010 A 
ATOM     30  C   UNL A   1      39.835  30.118  29.044  1.00  0.00     0.010 A 
ATOM     31  C   UNL A   1      39.664  28.760  28.785  1.00  0.00    -0.014 A 
BRANCH  31  32
ATOM     32  C   UNL A   1      40.767  27.782  28.849  1.00  0.00     0.031 A 
ATOM     33  C   UNL A   1      41.611  28.011  30.040  1.00  0.00     0.074 A 
ATOM     34  C   UNL A   1      41.048  26.726  28.044  1.00  0.00     0.049 A 
ATOM     35  N   UNL A   1      42.859  28.342  30.090  1.00  0.00    -0.248 NA
ATOM     36  C   UNL A   1      40.911  28.000  31.333  1.00  0.00     0.031 C 
ATOM     37  C   UNL A   1      40.237  26.162  26.967  1.00  0.00     0.029 A 
ATOM     38  N   UNL A   1      42.136  25.879  28.066  1.00  0.00    -0.354 N 
ATOM     39  C   UNL A   1      43.147  28.401  31.444  1.00  0.00     0.074 A 
ATOM     40  C   UNL A   1      41.892  28.358  32.154  1.00  0.00     0.031 C 
ATOM     41  C   UNL A   1      40.781  25.006  26.532  1.00  0.00     0.029 A 
ATOM     42  C   UNL A   1      41.992  24.733  27.283  1.00  0.00     0.049 A 
ATOM     43  H   UNL A   1      42.947  26.066  28.592  1.00  0.00     0.167 HD
ATOM     44  C   UNL A   1      44.397  28.201  31.929  1.00  0.00     0.037 A 
ATOM     45  C   UNL A   1      42.748  23.601  27.284  1.00  0.00     0.037 A 
ATOM     46  C   UNL A   1      45.431  28.422  30.963  1.00  0.00     0.049 A 
ATOM     47  C   UNL A   1      44.029  23.896  27.965  1.00  0.00     0.074 A 
ATOM     48  C   UNL A   1      45.767  29.481  30.141  1.00  0.00     0.029 A 
ATOM     49  N   UNL A   1      46.138  27.346  30.490  1.00  0.00    -0.354 N 
ATOM     50  N   UNL A   1      45.048  24.487  27.414  1.00  0.00    -0.248 NA
ATOM     51  C   UNL A   1      44.066  23.813  29.417  1.00  0.00     0.031 C 
ATOM     52  C   UNL A   1      46.282  28.892  28.955  1.00  0.00     0.029 A 
ATOM     53  C   UNL A   1      46.258  27.510  29.132  1.00  0.00     0.049 A 
ATOM     54  H   UNL A   1      46.492  26.598  31.023  1.00  0.00     0.167 HD
ATOM     55  C   UNL A   1      45.602  25.239  28.435  1.00  0.00     0.074 A 
ATOM     56  C   UNL A   1      45.045  24.684  29.664  1.00  0.00     0.031 C 
ATOM     57  C   UNL A   1      46.226  26.424  28.179  1.00  0.00     0.037 A 
BRANCH  44  58
ATOM     58  C   UNL A   1      44.577  27.470  33.218  1.00  0.00     0.057 A 
ATOM     59  C   UNL A   1      44.253  26.117  33.334  1.00  0.00     0.134 A 
ATOM     60  C   UNL A   1      44.907  28.136  34.420  1.00  0.00     0.134 A 
ATOM     61  F   UNL A   1      43.844  25.418  32.266  1.00  0.00    -0.206 F 
ATOM     62  C   UNL A   1      44.298  25.458  34.567  1.00  0.00     0.040 A 
ATOM     63  C   UNL A   1      45.019  27.478  35.640  1.00  0.00     0.040 A 
ATOM     64  F   UNL A   1      45.068  29.468  34.465  1.00  0.00    -0.206 F 
ATOM     65  C   UNL A   1      44.702  26.132  35.719  1.00  0.00     0.006 A 
ENDBRANCH  44  58
BRANCH  45  66
ATOM     66  C   UNL A   1      42.412  22.210  26.870  1.00  0.00     0.057 A 
ATOM     67  C   UNL A   1      43.194  21.521  25.926  1.00  0.00     0.134 A 
ATOM     68  C   UNL A   1      41.470  21.425  27.556  1.00  0.00     0.134 A 
ATOM     69  F   UNL A   1      44.153  22.152  25.233  1.00  0.00    -0.206 F 
ATOM     70  C   UNL A   1      43.065  20.142  25.701  1.00  0.00     0.040 A 
ATOM     71  C   UNL A   1      41.315  20.052  27.325  1.00  0.00     0.040 A 
ATOM     72  F   UNL A   1      40.720  21.934  28.542  1.00  0.00    -0.206 F 
ATOM     73  C   UNL A   1      42.127  19.401  26.407  1.00  0.00     0.006 A 
ENDBRANCH  45  66
BRANCH  57  74
ATOM     74  C   UNL A   1      46.640  26.736  26.765  1.00  0.00     0.057 A 
ATOM     75  C   UNL A   1      45.819  27.351  25.806  1.00  0.00     0.134 A 
ATOM     76  C   UNL A   1      47.976  26.514  26.396  1.00  0.00     0.134 A 
ATOM     77  F   UNL A   1      44.564  27.725  26.088  1.00  0.00    -0.206 F 
ATOM     78  C   UNL A   1      46.291  27.659  24.526  1.00  0.00     0.040 A 
ATOM     79  C   UNL A   1      48.472  26.875  25.141  1.00  0.00     0.040 A 
ATOM     80  F   UNL A   1      48.841  25.977  27.272  1.00  0.00    -0.206 F 
ATOM     81  C   UNL A   1      47.622  27.436  24.193  1.00  0.00     0.006 A 
ENDBRANCH  57  74
ENDBRANCH  31  32
ENDBRANCH  24  26
ENDBRANCH  23  24
ENDBRANCH  22  23
ENDBRANCH   1  22
TORSDOF 15
ENDMDL
MODEL 2
REMARK VINA RESULT:     -10.6      1.249      2.131
REMARK SMILES CC(C)[C@H](C)n1c(SCC(=O)OCCOC(=O)c2ccc(-c3c4nc(c(-c5c(F)cccc5F)c5ccc([nH]5)c(-c5c(F)cccc5F)c5nc(c(-c6c(F)cccc6F)c6ccc3[nH]6)C=C5)C=C4)cc2)nc2cc(Br)cnc21
REMARK SMILES IDX 13 1 12 2 10 3 11 4 9 5 8 6 7 7 6 8 79 9 72 10 73 11 78 12
REMARK SMILES IDX 74 13 77 14 75 15 76 16 4 17 5 18 2 19 1 20 3 21 14 22 15 23
REMARK SMILES IDX 16 24 17 25 18 26 19 27 71 28 20 29 70 30 21 31 22 32 23 33
REMARK SMILES IDX 64 34 24 35 69 36 63 37 65 38 25 39 68 40 62 41 61 42 26 44
REMARK SMILES IDX 52 45 35 46 51 47 36 48 39 49 50 50 66 51 37 52 38 53 49 55
REMARK SMILES IDX 67 56 40 57 27 58 28 59 33 60 29 61 30 62 32 63 34 64 31 65
REMARK SMILES IDX 53 66 54 67 59 68 55 69 56 70 58 71 60 72 57 73 41 74 42 75
REMARK SMILES IDX 47 76 43 77 44 78 46 79 48 80 45 81
REMARK H PARENT 65 43 39 54
REMARK Flexibility Score: inf
ROOT
ATOM      1  C   UNL A   1      33.016  29.728  25.641  1.00  0.00     0.274 C 
ENDROOT
BRANCH   1   2
ATOM      2  O   UNL A   1      32.674  28.485  25.006  1.00  0.00    -0.461 OA
BRANCH   2   3
ATOM      3  C   UNL A   1      33.566  28.021  24.081  1.00  0.00     0.316 C 
ATOM      4  O   UNL A   1      34.188  28.732  23.300  1.00  0.00    -0.251 OA
BRANCH   3   5
ATOM      5  C   UNL A   1      33.738  26.516  24.184  1.00  0.00     0.200 C 
BRANCH   5   6
ATOM      6  S   UNL A   1      33.254  25.926  25.822  1.00  0.00    -0.076 SA
BRANCH   6   7
ATOM      7  C   UNL A   1      33.929  24.326  25.946  1.00  0.00     0.171 A 
ATOM      8  N   UNL A   1      33.263  23.179  25.556  1.00  0.00    -0.301 N 
ATOM      9  C   UNL A   1      34.230  22.230  25.314  1.00  0.00     0.161 A 
ATOM     10  N   UNL A   1      35.218  24.110  26.115  1.00  0.00    -0.221 NA
ATOM     11  C   UNL A   1      35.424  22.811  25.717  1.00  0.00     0.110 A 
ATOM     12  N   UNL A   1      34.054  20.984  24.831  1.00  0.00    -0.235 NA
ATOM     13  C   UNL A   1      36.588  22.036  25.622  1.00  0.00     0.049 A 
ATOM     14  C   UNL A   1      35.188  20.251  24.815  1.00  0.00     0.129 A 
ATOM     15  C   UNL A   1      36.445  20.723  25.165  1.00  0.00     0.038 A 
ATOM     16  Br  UNL A   1      37.956  19.610  24.976  1.00  0.00    -0.049 Br
BRANCH   8  17
ATOM     17  C   UNL A   1      31.814  22.966  25.484  1.00  0.00     0.091 C 
ATOM     18  C   UNL A   1      31.099  23.708  26.611  1.00  0.00     0.032 C 
BRANCH  17  19
ATOM     19  C   UNL A   1      31.164  23.302  24.109  1.00  0.00     0.006 C 
ATOM     20  C   UNL A   1      30.426  24.634  24.184  1.00  0.00     0.009 C 
ATOM     21  C   UNL A   1      32.178  23.343  22.957  1.00  0.00     0.009 C 
ENDBRANCH  17  19
ENDBRANCH   8  17
ENDBRANCH   6   7
ENDBRANCH   5   6
ENDBRANCH   3   5
ENDBRANCH   2   3
ENDBRANCH   1   2
BRANCH   1  22
ATOM     22  C   UNL A   1      33.605  29.464  27.024  1.00  0.00     0.275 C 
BRANCH  22  23
ATOM     23  O   UNL A   1      35.040  29.418  27.214  1.00  0.00    -0.458 OA
BRANCH  23  24
ATOM     24  C   UNL A   1      35.718  30.452  27.776  1.00  0.00     0.338 C 
ATOM     25  O   UNL A   1      35.418  31.618  27.749  1.00  0.00    -0.246 OA
BRANCH  24  26
ATOM     26  C   UNL A   1      37.043  29.965  28.275  1.00  0.00     0.060 A 
ATOM     27  C   UNL A   1      38.130  30.052  27.400  1.00  0.00     0.016 A 
ATOM     28  C   UNL A   1      37.170  29.233  29.467  1.00  0.00     0.016 A 
ATOM     29  C   UNL A   1      39.267  29.281  27.642  1.00  0.00     0.010 A 
ATOM     30  C   UNL A   1      38.294  28.431  29.688  1.00  0.00     0.010 A 
ATOM     31  C   UNL A   1      39.311  28.393  28.737  1.00  0.00    -0.014 A 
BRANCH  31  32
ATOM     32  C   UNL A   1      40.493  27.517  28.853  1.00  0.00     0.031 A 
ATOM     33  C   UNL A   1      41.307  27.876  30.033  1.00  0.00     0.074 A 
ATOM     34  C   UNL A   1      40.868  26.451  28.103  1.00  0.00     0.049 A 
ATOM     35  N   UNL A   1      42.521  28.314  30.069  1.00  0.00    -0.248 NA
ATOM     36  C   UNL A   1      40.601  27.870  31.323  1.00  0.00     0.031 C 
ATOM     37  C   UNL A   1      40.116  25.767  27.053  1.00  0.00     0.029 A 
ATOM     38  N   UNL A   1      42.024  25.701  28.170  1.00  0.00    -0.354 N 
ATOM     39  C   UNL A   1      42.794  28.465  31.420  1.00  0.00     0.074 A 
ATOM     40  C   UNL A   1      41.543  28.350  32.127  1.00  0.00     0.031 C 
ATOM     41  C   UNL A   1      40.759  24.641  26.678  1.00  0.00     0.029 A 
ATOM     42  C   UNL A   1      41.984  24.509  27.445  1.00  0.00     0.049 A 
ATOM     43  H   UNL A   1      42.813  25.983  28.687  1.00  0.00     0.167 HD
ATOM     44  C   UNL A   1      44.053  28.396  31.917  1.00  0.00     0.037 A 
ATOM     45  C   UNL A   1      42.833  23.448  27.504  1.00  0.00     0.037 A 
ATOM     46  C   UNL A   1      45.071  28.657  30.944  1.00  0.00     0.049 A 
ATOM     47  C   UNL A   1      44.080  23.885  28.172  1.00  0.00     0.074 A 
ATOM     48  C   UNL A   1      45.321  29.699  30.071  1.00  0.00     0.029 A 
ATOM     49  N   UNL A   1      45.870  27.623  30.527  1.00  0.00    -0.354 N 
ATOM     50  N   UNL A   1      45.049  24.533  27.596  1.00  0.00    -0.248 NA
ATOM     51  C   UNL A   1      44.114  23.877  29.627  1.00  0.00     0.031 C 
ATOM     52  C   UNL A   1      45.893  29.097  28.917  1.00  0.00     0.029 A 
ATOM     53  C   UNL A   1      45.985  27.729  29.163  1.00  0.00     0.049 A 
ATOM     54  H   UNL A   1      46.283  26.936  31.098  1.00  0.00     0.167 HD
ATOM     55  C   UNL A   1      45.529  25.379  28.579  1.00  0.00     0.074 A 
ATOM     56  C   UNL A   1      45.014  24.840  29.833  1.00  0.00     0.031 C 
ATOM     57  C   UNL A   1      46.053  26.599  28.266  1.00  0.00     0.037 A 
BRANCH  44  58
ATOM     58  C   UNL A   1      44.286  27.748  33.242  1.00  0.00     0.057 A 
ATOM     59  C   UNL A   1      44.849  28.457  34.304  1.00  0.00     0.134 A 
ATOM     60  C   UNL A   1      44.124  26.358  33.438  1.00  0.00     0.134 A 
ATOM     61  F   UNL A   1      45.124  29.763  34.186  1.00  0.00    -0.206 F 
ATOM     62  C   UNL A   1      45.188  27.826  35.505  1.00  0.00     0.040 A 
ATOM     63  C   UNL A   1      44.395  25.731  34.649  1.00  0.00     0.040 A 
ATOM     64  F   UNL A   1      43.756  25.545  32.435  1.00  0.00    -0.206 F 
ATOM     65  C   UNL A   1      44.942  26.466  35.688  1.00  0.00     0.006 A 
ENDBRANCH  44  58
BRANCH  45  66
ATOM     66  C   UNL A   1      42.620  22.014  27.159  1.00  0.00     0.057 A 
ATOM     67  C   UNL A   1      41.510  21.304  27.649  1.00  0.00     0.134 A 
ATOM     68  C   UNL A   1      43.351  21.364  26.151  1.00  0.00     0.134 A 
ATOM     69  F   UNL A   1      40.710  21.835  28.586  1.00  0.00    -0.206 F 
ATOM     70  C   UNL A   1      41.138  20.046  27.151  1.00  0.00     0.040 A 
ATOM     71  C   UNL A   1      43.006  20.098  25.661  1.00  0.00     0.040 A 
ATOM     72  F   UNL A   1      44.380  21.961  25.535  1.00  0.00    -0.206 F 
ATOM     73  C   UNL A   1      41.885  19.441  26.148  1.00  0.00     0.006 A 
ENDBRANCH  45  66
BRANCH  57  74
ATOM     74  C   UNL A   1      46.448  26.874  26.839  1.00  0.00     0.057 A 
ATOM     75  C   UNL A   1      45.572  27.318  25.835  1.00  0.00     0.134 A 
ATOM     76  C   UNL A   1      47.808  26.804  26.497  1.00  0.00     0.134 A 
ATOM     77  F   UNL A   1      44.274  27.544  26.081  1.00  0.00    -0.206 F 
ATOM     78  C   UNL A   1      46.023  27.606  24.542  1.00  0.00     0.040 A 
ATOM     79  C   UNL A   1      48.276  27.149  25.227  1.00  0.00     0.040 A 
ATOM     80  F   UNL A   1      48.719  26.437  27.414  1.00  0.00    -0.206 F 
ATOM     81  C   UNL A   1      47.378  27.536  24.238  1.00  0.00     0.006 A 
ENDBRANCH  57  74
ENDBRANCH  31  32
ENDBRANCH  24  26
ENDBRANCH  23  24
ENDBRANCH  22  23
ENDBRANCH   1  22
TORSDOF 15
ENDMDL
MODEL 3
REMARK VINA RESULT:     -10.4      2.211      3.248
REMARK SMILES CC(C)[C@H](C)n1c(SCC(=O)OCCOC(=O)c2ccc(-c3c4nc(c(-c5c(F)cccc5F)c5ccc([nH]5)c(-c5c(F)cccc5F)c5nc(c(-c6c(F)cccc6F)c6ccc3[nH]6)C=C5)C=C4)cc2)nc2cc(Br)cnc21
REMARK SMILES IDX 13 1 12 2 10 3 11 4 9 5 8 6 7 7 6 8 79 9 72 10 73 11 78 12
REMARK SMILES IDX 74 13 77 14 75 15 76 16 4 17 5 18 2 19 1 20 3 21 14 22 15 23
REMARK SMILES IDX 16 24 17 25 18 26 19 27 71 28 20 29 70 30 21 31 22 32 23 33
REMARK SMILES IDX 64 34 24 35 69 36 63 37 65 38 25 39 68 40 62 41 61 42 26 44
REMARK SMILES IDX 52 45 35 46 51 47 36 48 39 49 50 50 66 51 37 52 38 53 49 55
REMARK SMILES IDX 67 56 40 57 27 58 28 59 33 60 29 61 30 62 32 63 34 64 31 65
REMARK SMILES IDX 53 66 54 67 59 68 55 69 56 70 58 71 60 72 57 73 41 74 42 75
REMARK SMILES IDX 47 76 43 77 44 78 46 79 48 80 45 81
REMARK H PARENT 65 43 39 54
REMARK Flexibility Score: inf
ROOT
ATOM      1  C   UNL A   1      33.205  30.489  26.945  1.00  0.00     0.274 C 
ENDROOT
BRANCH   1   2
ATOM      2  O   UNL A   1      33.641  29.150  26.664  1.00  0.00    -0.461 OA
BRANCH   2   3
ATOM      3  C   UNL A   1      32.738  28.159  26.926  1.00  0.00     0.316 C 
ATOM      4  O   UNL A   1      31.622  28.346  27.398  1.00  0.00    -0.251 OA
BRANCH   3   5
ATOM      5  C   UNL A   1      33.266  26.801  26.501  1.00  0.00     0.200 C 
BRANCH   5   6
ATOM      6  S   UNL A   1      33.723  26.808  24.753  1.00  0.00    -0.076 SA
BRANCH   6   7
ATOM      7  C   UNL A   1      32.335  27.455  23.924  1.00  0.00     0.171 A 
ATOM      8  N   UNL A   1      31.135  26.781  23.792  1.00  0.00    -0.301 N 
ATOM      9  C   UNL A   1      30.173  27.739  23.568  1.00  0.00     0.161 A 
ATOM     10  N   UNL A   1      32.210  28.737  23.642  1.00  0.00    -0.221 NA
ATOM     11  C   UNL A   1      30.867  28.932  23.427  1.00  0.00     0.110 A 
ATOM     12  N   UNL A   1      28.842  27.555  23.463  1.00  0.00    -0.235 NA
ATOM     13  C   UNL A   1      30.124  30.085  23.141  1.00  0.00     0.049 A 
ATOM     14  C   UNL A   1      28.171  28.678  23.125  1.00  0.00     0.129 A 
ATOM     15  C   UNL A   1      28.744  29.933  22.982  1.00  0.00     0.038 A 
ATOM     16  Br  UNL A   1      27.655  31.431  22.624  1.00  0.00    -0.049 Br
BRANCH   8  17
ATOM     17  C   UNL A   1      30.918  25.331  23.804  1.00  0.00     0.091 C 
ATOM     18  C   UNL A   1      31.821  24.638  22.786  1.00  0.00     0.032 C 
BRANCH  17  19
ATOM     19  C   UNL A   1      31.047  24.655  25.200  1.00  0.00     0.006 C 
ATOM     20  C   UNL A   1      29.933  25.134  26.125  1.00  0.00     0.009 C 
ATOM     21  C   UNL A   1      31.030  23.122  25.131  1.00  0.00     0.009 C 
ENDBRANCH  17  19
ENDBRANCH   8  17
ENDBRANCH   6   7
ENDBRANCH   5   6
ENDBRANCH   3   5
ENDBRANCH   2   3
ENDBRANCH   1   2
BRANCH   1  22
ATOM     22  C   UNL A   1      34.261  31.221  27.770  1.00  0.00     0.275 C 
BRANCH  22  23
ATOM     23  O   UNL A   1      35.230  30.478  28.548  1.00  0.00    -0.458 OA
BRANCH  23  24
ATOM     24  C   UNL A   1      36.293  31.086  29.133  1.00  0.00     0.338 C 
ATOM     25  O   UNL A   1      36.293  32.130  29.733  1.00  0.00    -0.246 OA
BRANCH  24  26
ATOM     26  C   UNL A   1      37.550  30.372  28.746  1.00  0.00     0.060 A 
ATOM     27  C   UNL A   1      37.422  29.074  28.242  1.00  0.00     0.016 A 
ATOM     28  C   UNL A   1      38.823  30.861  29.084  1.00  0.00     0.016 A 
ATOM     29  C   UNL A   1      38.532  28.230  28.234  1.00  0.00     0.010 A 
ATOM     30  C   UNL A   1      39.927  30.003  29.112  1.00  0.00     0.010 A 
ATOM     31  C   UNL A   1      39.767  28.664  28.761  1.00  0.00    -0.014 A 
BRANCH  31  32
ATOM     32  C   UNL A   1      40.859  27.673  28.838  1.00  0.00     0.031 A 
ATOM     33  C   UNL A   1      41.662  27.863  30.063  1.00  0.00     0.074 A 
ATOM     34  C   UNL A   1      41.158  26.637  28.016  1.00  0.00     0.049 A 
ATOM     35  N   UNL A   1      42.910  28.181  30.166  1.00  0.00    -0.248 NA
ATOM     36  C   UNL A   1      40.916  27.825  31.330  1.00  0.00     0.031 C 
ATOM     37  C   UNL A   1      40.382  26.109  26.896  1.00  0.00     0.029 A 
ATOM     38  N   UNL A   1      42.238  25.779  28.053  1.00  0.00    -0.354 N 
ATOM     39  C   UNL A   1      43.151  28.202  31.531  1.00  0.00     0.074 A 
ATOM     40  C   UNL A   1      41.871  28.151  32.194  1.00  0.00     0.031 C 
ATOM     41  C   UNL A   1      40.931  24.960  26.450  1.00  0.00     0.029 A 
ATOM     42  C   UNL A   1      42.112  24.655  27.235  1.00  0.00     0.049 A 
ATOM     43  H   UNL A   1      43.032  25.945  28.612  1.00  0.00     0.167 HD
ATOM     44  C   UNL A   1      44.381  27.977  32.053  1.00  0.00     0.037 A 
ATOM     45  C   UNL A   1      42.858  23.518  27.232  1.00  0.00     0.037 A 
ATOM     46  C   UNL A   1      45.450  28.214  31.131  1.00  0.00     0.049 A 
ATOM     47  C   UNL A   1      44.117  23.782  27.965  1.00  0.00     0.074 A 
ATOM     48  C   UNL A   1      45.824  29.291  30.350  1.00  0.00     0.029 A 
ATOM     49  N   UNL A   1      46.164  27.144  30.654  1.00  0.00    -0.354 N 
ATOM     50  N   UNL A   1      45.160  24.378  27.467  1.00  0.00    -0.248 NA
ATOM     51  C   UNL A   1      44.102  23.660  29.415  1.00  0.00     0.031 C 
ATOM     52  C   UNL A   1      46.376  28.728  29.167  1.00  0.00     0.029 A 
ATOM     53  C   UNL A   1      46.334  27.343  29.306  1.00  0.00     0.049 A 
ATOM     54  H   UNL A   1      46.493  26.379  31.179  1.00  0.00     0.167 HD
ATOM     55  C   UNL A   1      45.683  25.097  28.526  1.00  0.00     0.074 A 
ATOM     56  C   UNL A   1      45.079  24.515  29.720  1.00  0.00     0.031 C 
ATOM     57  C   UNL A   1      46.326  26.283  28.324  1.00  0.00     0.037 A 
BRANCH  44  58
ATOM     58  C   UNL A   1      44.510  27.210  33.328  1.00  0.00     0.057 A 
ATOM     59  C   UNL A   1      44.161  25.861  33.399  1.00  0.00     0.134 A 
ATOM     60  C   UNL A   1      44.812  27.840  34.557  1.00  0.00     0.134 A 
ATOM     61  F   UNL A   1      43.774  25.196  32.301  1.00  0.00    -0.206 F 
ATOM     62  C   UNL A   1      44.157  25.170  34.615  1.00  0.00     0.040 A 
ATOM     63  C   UNL A   1      44.876  27.149  35.762  1.00  0.00     0.040 A 
ATOM     64  F   UNL A   1      44.993  29.168  34.641  1.00  0.00    -0.206 F 
ATOM     65  C   UNL A   1      44.536  25.807  35.796  1.00  0.00     0.006 A 
ENDBRANCH  44  58
BRANCH  45  66
ATOM     66  C   UNL A   1      42.525  22.141  26.769  1.00  0.00     0.057 A 
ATOM     67  C   UNL A   1      43.331  21.472  25.832  1.00  0.00     0.134 A 
ATOM     68  C   UNL A   1      41.556  21.346  27.404  1.00  0.00     0.134 A 
ATOM     69  F   UNL A   1      44.316  22.113  25.187  1.00  0.00    -0.206 F 
ATOM     70  C   UNL A   1      43.200  20.100  25.565  1.00  0.00     0.040 A 
ATOM     71  C   UNL A   1      41.398  19.981  27.130  1.00  0.00     0.040 A 
ATOM     72  F   UNL A   1      40.778  21.833  28.379  1.00  0.00    -0.206 F 
ATOM     73  C   UNL A   1      42.234  19.348  26.221  1.00  0.00     0.006 A 
ENDBRANCH  45  66
BRANCH  57  74
ATOM     74  C   UNL A   1      46.793  26.628  26.934  1.00  0.00     0.057 A 
ATOM     75  C   UNL A   1      48.056  26.309  26.410  1.00  0.00     0.134 A 
ATOM     76  C   UNL A   1      45.872  27.200  26.043  1.00  0.00     0.134 A 
ATOM     77  F   UNL A   1      48.972  25.646  27.130  1.00  0.00    -0.206 F 
ATOM     78  C   UNL A   1      48.400  26.613  25.089  1.00  0.00     0.040 A 
ATOM     79  C   UNL A   1      46.186  27.451  24.705  1.00  0.00     0.040 A 
ATOM     80  F   UNL A   1      44.624  27.488  26.450  1.00  0.00    -0.206 F 
ATOM     81  C   UNL A   1      47.462  27.172  24.228  1.00  0.00     0.006 A 
ENDBRANCH  57  74
ENDBRANCH  31  32
ENDBRANCH  24  26
ENDBRANCH  23  24
ENDBRANCH  22  23
ENDBRANCH   1  22
TORSDOF 15
ENDMDL
