MODEL 1
REMARK VINA RESULT:     -11.4      0.000      0.000
REMARK SMILES O=C(OCCOC(=O)[C@@H]1C=C[C@H](NC(=O)C2CCOCC2)C1)c1ccc(-c2c3nc(c(-c4c(F)cccc4F)c4ccc([nH]4)c(-c4c(F)cccc4F)c4nc(c(-c5c(F)cccc5F)c5ccc2[nH]5)C=C4)C=C3)cc1
REMARK SMILES IDX 4 1 3 2 2 3 1 4 23 5 24 6 76 7 25 8 75 9 26 10 27 11 28 12
REMARK SMILES IDX 69 13 29 14 74 15 68 16 70 17 30 18 73 19 67 20 66 21 31 23
REMARK SMILES IDX 57 24 40 25 56 26 41 27 44 28 55 29 71 30 42 31 43 32 54 34
REMARK SMILES IDX 72 35 45 36 32 37 33 38 38 39 34 40 35 41 37 42 39 43 36 44
REMARK SMILES IDX 58 45 59 46 64 47 60 48 61 49 63 50 65 51 62 52 46 53 47 54
REMARK SMILES IDX 52 55 48 56 49 57 51 58 53 59 50 60 5 61 6 62 7 63 8 64 9 65
REMARK SMILES IDX 10 66 22 67 11 68 12 69 13 70 14 71 15 73 16 74 17 75 21 76
REMARK SMILES IDX 18 77 20 78 19 79
REMARK H PARENT 70 22 44 33 13 72
REMARK Flexibility Score: inf
ROOT
ATOM      1  C   UNL A   1      31.359  32.286  26.844  1.00  0.00     0.275 C 
ENDROOT
BRANCH   1   2
ATOM      2  O   UNL A   1      32.268  33.404  26.940  1.00  0.00    -0.458 OA
BRANCH   2   3
ATOM      3  C   UNL A   1      32.926  33.934  27.999  1.00  0.00     0.338 C 
ATOM      4  O   UNL A   1      32.528  34.993  28.481  1.00  0.00    -0.246 OA
BRANCH   3   5
ATOM      5  C   UNL A   1      34.216  33.390  28.524  1.00  0.00     0.060 A 
ATOM      6  C   UNL A   1      35.461  34.006  28.402  1.00  0.00     0.016 A 
ATOM      7  C   UNL A   1      34.145  32.172  29.234  1.00  0.00     0.016 A 
ATOM      8  C   UNL A   1      36.582  33.493  29.059  1.00  0.00     0.010 A 
ATOM      9  C   UNL A   1      35.263  31.662  29.910  1.00  0.00     0.010 A 
ATOM     10  C   UNL A   1      36.493  32.325  29.824  1.00  0.00    -0.014 A 
BRANCH  10  11
ATOM     11  C   UNL A   1      37.749  31.710  30.314  1.00  0.00     0.031 A 
ATOM     12  C   UNL A   1      38.147  31.999  31.733  1.00  0.00     0.074 A 
ATOM     13  C   UNL A   1      38.431  30.814  29.573  1.00  0.00     0.049 A 
ATOM     14  N   UNL A   1      39.094  31.465  32.457  1.00  0.00    -0.248 NA
ATOM     15  C   UNL A   1      37.355  33.022  32.441  1.00  0.00     0.031 C 
ATOM     16  C   UNL A   1      38.116  30.431  28.195  1.00  0.00     0.029 A 
ATOM     17  N   UNL A   1      39.519  30.038  29.891  1.00  0.00    -0.354 N 
ATOM     18  C   UNL A   1      38.984  32.060  33.706  1.00  0.00     0.074 A 
ATOM     19  C   UNL A   1      37.938  33.051  33.625  1.00  0.00     0.031 C 
ATOM     20  C   UNL A   1      38.982  29.481  27.793  1.00  0.00     0.029 A 
ATOM     21  C   UNL A   1      39.913  29.190  28.881  1.00  0.00     0.049 A 
ATOM     22  H   UNL A   1      39.975  30.084  30.763  1.00  0.00     0.167 HD
ATOM     23  C   UNL A   1      39.664  31.779  34.839  1.00  0.00     0.037 A 
ATOM     24  C   UNL A   1      40.906  28.278  28.854  1.00  0.00     0.037 A 
ATOM     25  C   UNL A   1      40.718  30.811  34.917  1.00  0.00     0.049 A 
ATOM     26  C   UNL A   1      41.717  28.054  30.109  1.00  0.00     0.074 A 
ATOM     27  C   UNL A   1      41.513  30.482  35.999  1.00  0.00     0.029 A 
ATOM     28  N   UNL A   1      41.126  30.017  33.856  1.00  0.00    -0.354 N 
ATOM     29  N   UNL A   1      41.579  28.601  31.295  1.00  0.00    -0.248 NA
ATOM     30  C   UNL A   1      42.811  27.075  30.028  1.00  0.00     0.031 C 
ATOM     31  C   UNL A   1      42.431  29.514  35.578  1.00  0.00     0.029 A 
ATOM     32  C   UNL A   1      42.174  29.207  34.251  1.00  0.00     0.049 A 
ATOM     33  H   UNL A   1      40.728  30.029  32.954  1.00  0.00     0.167 HD
ATOM     34  C   UNL A   1      42.545  28.012  32.103  1.00  0.00     0.074 A 
ATOM     35  C   UNL A   1      43.244  27.048  31.280  1.00  0.00     0.031 C 
ATOM     36  C   UNL A   1      42.838  28.247  33.407  1.00  0.00     0.037 A 
BRANCH  23  37
ATOM     37  C   UNL A   1      39.277  32.551  36.064  1.00  0.00     0.057 A 
ATOM     38  C   UNL A   1      39.864  33.788  36.365  1.00  0.00     0.134 A 
ATOM     39  C   UNL A   1      38.346  32.036  36.972  1.00  0.00     0.134 A 
ATOM     40  F   UNL A   1      40.789  34.318  35.551  1.00  0.00    -0.206 F 
ATOM     41  C   UNL A   1      39.558  34.472  37.543  1.00  0.00     0.040 A 
ATOM     42  C   UNL A   1      38.015  32.723  38.141  1.00  0.00     0.040 A 
ATOM     43  F   UNL A   1      37.758  30.852  36.747  1.00  0.00    -0.206 F 
ATOM     44  C   UNL A   1      38.627  33.941  38.432  1.00  0.00     0.006 A 
ENDBRANCH  23  37
BRANCH  24  45
ATOM     45  C   UNL A   1      41.209  27.502  27.618  1.00  0.00     0.057 A 
ATOM     46  C   UNL A   1      40.705  26.209  27.416  1.00  0.00     0.134 A 
ATOM     47  C   UNL A   1      42.085  28.002  26.647  1.00  0.00     0.134 A 
ATOM     48  F   UNL A   1      39.879  25.658  28.318  1.00  0.00    -0.206 F 
ATOM     49  C   UNL A   1      41.093  25.430  26.322  1.00  0.00     0.040 A 
ATOM     50  C   UNL A   1      42.460  27.244  25.533  1.00  0.00     0.040 A 
ATOM     51  F   UNL A   1      42.606  29.231  26.772  1.00  0.00    -0.206 F 
ATOM     52  C   UNL A   1      41.975  25.948  25.377  1.00  0.00     0.006 A 
ENDBRANCH  24  45
BRANCH  36  53
ATOM     53  C   UNL A   1      43.935  27.430  34.022  1.00  0.00     0.057 A 
ATOM     54  C   UNL A   1      45.270  27.853  34.002  1.00  0.00     0.134 A 
ATOM     55  C   UNL A   1      43.644  26.232  34.688  1.00  0.00     0.134 A 
ATOM     56  F   UNL A   1      45.615  28.987  33.373  1.00  0.00    -0.206 F 
ATOM     57  C   UNL A   1      46.281  27.099  34.598  1.00  0.00     0.040 A 
ATOM     58  C   UNL A   1      44.642  25.486  35.314  1.00  0.00     0.040 A 
ATOM     59  F   UNL A   1      42.383  25.779  34.756  1.00  0.00    -0.206 F 
ATOM     60  C   UNL A   1      45.966  25.916  35.264  1.00  0.00     0.006 A 
ENDBRANCH  36  53
ENDBRANCH  10  11
ENDBRANCH   3   5
ENDBRANCH   2   3
ENDBRANCH   1   2
BRANCH   1  61
ATOM     61  C   UNL A   1      32.012  30.932  26.551  1.00  0.00     0.274 C 
BRANCH  61  62
ATOM     62  O   UNL A   1      31.485  30.310  25.377  1.00  0.00    -0.462 OA
BRANCH  62  63
ATOM     63  C   UNL A   1      32.210  29.248  24.903  1.00  0.00     0.312 C 
ATOM     64  O   UNL A   1      32.768  29.209  23.820  1.00  0.00    -0.252 OA
BRANCH  63  65
ATOM     65  C   UNL A   1      32.227  28.155  25.962  1.00  0.00     0.124 C 
ATOM     66  C   UNL A   1      33.575  27.570  26.227  1.00  0.00    -0.014 C 
ATOM     67  C   UNL A   1      31.406  26.944  25.572  1.00  0.00     0.048 C 
ATOM     68  C   UNL A   1      33.662  26.335  25.718  1.00  0.00    -0.006 C 
ATOM     69  C   UNL A   1      32.402  25.940  24.998  1.00  0.00     0.106 C 
BRANCH  69  70
ATOM     70  N   UNL A   1      32.670  26.066  23.583  1.00  0.00    -0.350 N 
ATOM     71  C   UNL A   1      33.368  25.317  22.697  1.00  0.00     0.223 C 
ATOM     72  H   UNL A   1      32.258  26.863  23.178  1.00  0.00     0.164 HD
ATOM     73  O   UNL A   1      33.655  25.864  21.625  1.00  0.00    -0.275 OA
BRANCH  71  74
ATOM     74  C   UNL A   1      33.671  23.831  22.862  1.00  0.00     0.083 C 
ATOM     75  C   UNL A   1      32.332  23.096  23.030  1.00  0.00     0.042 C 
ATOM     76  C   UNL A   1      34.768  23.411  23.845  1.00  0.00     0.042 C 
ATOM     77  C   UNL A   1      32.528  21.632  23.369  1.00  0.00     0.161 C 
ATOM     78  C   UNL A   1      34.706  21.930  24.204  1.00  0.00     0.161 C 
ATOM     79  O   UNL A   1      33.376  21.517  24.507  1.00  0.00    -0.381 OA
ENDBRANCH  71  74
ENDBRANCH  69  70
ENDBRANCH  63  65
ENDBRANCH  62  63
ENDBRANCH  61  62
ENDBRANCH   1  61
TORSDOF 13
ENDMDL
MODEL 2
REMARK VINA RESULT:     -11.3      0.299      1.136
REMARK SMILES O=C(OCCOC(=O)[C@@H]1C=C[C@H](NC(=O)C2CCOCC2)C1)c1ccc(-c2c3nc(c(-c4c(F)cccc4F)c4ccc([nH]4)c(-c4c(F)cccc4F)c4nc(c(-c5c(F)cccc5F)c5ccc2[nH]5)C=C4)C=C3)cc1
REMARK SMILES IDX 4 1 3 2 2 3 1 4 23 5 24 6 76 7 25 8 75 9 26 10 27 11 28 12
REMARK SMILES IDX 69 13 29 14 74 15 68 16 70 17 30 18 73 19 67 20 66 21 31 23
REMARK SMILES IDX 57 24 40 25 56 26 41 27 44 28 55 29 71 30 42 31 43 32 54 34
REMARK SMILES IDX 72 35 45 36 32 37 33 38 38 39 34 40 35 41 37 42 39 43 36 44
REMARK SMILES IDX 58 45 59 46 64 47 60 48 61 49 63 50 65 51 62 52 46 53 47 54
REMARK SMILES IDX 52 55 48 56 49 57 51 58 53 59 50 60 5 61 6 62 7 63 8 64 9 65
REMARK SMILES IDX 10 66 22 67 11 68 12 69 13 70 14 71 15 73 16 74 17 75 21 76
REMARK SMILES IDX 18 77 20 78 19 79
REMARK H PARENT 70 22 44 33 13 72
REMARK Flexibility Score: inf
ROOT
ATOM      1  C   UNL A   1      31.489  32.357  26.908  1.00  0.00     0.275 C 
ENDROOT
BRANCH   1   2
ATOM      2  O   UNL A   1      32.338  33.512  27.077  1.00  0.00    -0.458 OA
BRANCH   2   3
ATOM      3  C   UNL A   1      33.019  33.973  28.155  1.00  0.00     0.338 C 
ATOM      4  O   UNL A   1      32.704  35.056  28.643  1.00  0.00    -0.246 OA
BRANCH   3   5
ATOM      5  C   UNL A   1      34.248  33.315  28.695  1.00  0.00     0.060 A 
ATOM      6  C   UNL A   1      34.292  32.057  29.297  1.00  0.00     0.016 A 
ATOM      7  C   UNL A   1      35.462  34.018  28.539  1.00  0.00     0.016 A 
ATOM      8  C   UNL A   1      35.513  31.464  29.630  1.00  0.00     0.010 A 
ATOM      9  C   UNL A   1      36.691  33.422  28.855  1.00  0.00     0.010 A 
ATOM     10  C   UNL A   1      36.720  32.135  29.406  1.00  0.00    -0.014 A 
BRANCH  10  11
ATOM     11  C   UNL A   1      37.960  31.556  29.977  1.00  0.00     0.031 A 
ATOM     12  C   UNL A   1      38.299  31.920  31.394  1.00  0.00     0.074 A 
ATOM     13  C   UNL A   1      38.677  30.630  29.310  1.00  0.00     0.049 A 
ATOM     14  N   UNL A   1      39.219  31.432  32.181  1.00  0.00    -0.248 NA
ATOM     15  C   UNL A   1      37.472  32.971  32.017  1.00  0.00     0.031 C 
ATOM     16  C   UNL A   1      38.420  30.175  27.942  1.00  0.00     0.029 A 
ATOM     17  N   UNL A   1      39.757  29.880  29.710  1.00  0.00    -0.354 N 
ATOM     18  C   UNL A   1      39.055  32.088  33.393  1.00  0.00     0.074 A 
ATOM     19  C   UNL A   1      38.007  33.064  33.220  1.00  0.00     0.031 C 
ATOM     20  C   UNL A   1      39.307  29.213  27.624  1.00  0.00     0.029 A 
ATOM     21  C   UNL A   1      40.196  28.987  28.761  1.00  0.00     0.049 A 
ATOM     22  H   UNL A   1      40.177  29.975  30.595  1.00  0.00     0.167 HD
ATOM     23  C   UNL A   1      39.691  31.871  34.565  1.00  0.00     0.037 A 
ATOM     24  C   UNL A   1      41.195  28.082  28.819  1.00  0.00     0.037 A 
ATOM     25  C   UNL A   1      40.747  30.917  34.733  1.00  0.00     0.049 A 
ATOM     26  C   UNL A   1      41.957  27.929  30.115  1.00  0.00     0.074 A 
ATOM     27  C   UNL A   1      41.501  30.650  35.861  1.00  0.00     0.029 A 
ATOM     28  N   UNL A   1      41.203  30.074  33.731  1.00  0.00    -0.354 N 
ATOM     29  N   UNL A   1      41.768  28.534  31.265  1.00  0.00    -0.248 NA
ATOM     30  C   UNL A   1      43.060  26.957  30.128  1.00  0.00     0.031 C 
ATOM     31  C   UNL A   1      42.441  29.669  35.527  1.00  0.00     0.029 A 
ATOM     32  C   UNL A   1      42.240  29.294  34.208  1.00  0.00     0.049 A 
ATOM     33  H   UNL A   1      40.842  30.037  32.815  1.00  0.00     0.167 HD
ATOM     34  C   UNL A   1      42.704  27.996  32.140  1.00  0.00     0.074 A 
ATOM     35  C   UNL A   1      43.443  26.997  31.395  1.00  0.00     0.031 C 
ATOM     36  C   UNL A   1      42.944  28.299  33.441  1.00  0.00     0.037 A 
BRANCH  23  37
ATOM     37  C   UNL A   1      39.250  32.699  35.733  1.00  0.00     0.057 A 
ATOM     38  C   UNL A   1      39.804  33.963  35.984  1.00  0.00     0.134 A 
ATOM     39  C   UNL A   1      38.299  32.216  36.637  1.00  0.00     0.134 A 
ATOM     40  F   UNL A   1      40.746  34.466  35.172  1.00  0.00    -0.206 F 
ATOM     41  C   UNL A   1      39.448  34.704  37.112  1.00  0.00     0.040 A 
ATOM     42  C   UNL A   1      37.917  32.959  37.756  1.00  0.00     0.040 A 
ATOM     43  F   UNL A   1      37.741  31.010  36.459  1.00  0.00    -0.206 F 
ATOM     44  C   UNL A   1      38.498  34.203  37.999  1.00  0.00     0.006 A 
ENDBRANCH  23  37
BRANCH  24  45
ATOM     45  C   UNL A   1      41.553  27.248  27.637  1.00  0.00     0.057 A 
ATOM     46  C   UNL A   1      42.394  27.727  26.623  1.00  0.00     0.134 A 
ATOM     47  C   UNL A   1      40.988  25.981  27.448  1.00  0.00     0.134 A 
ATOM     48  F   UNL A   1      42.951  28.943  26.726  1.00  0.00    -0.206 F 
ATOM     49  C   UNL A   1      42.624  26.999  25.452  1.00  0.00     0.040 A 
ATOM     50  C   UNL A   1      41.232  25.230  26.295  1.00  0.00     0.040 A 
ATOM     51  F   UNL A   1      40.174  25.457  28.377  1.00  0.00    -0.206 F 
ATOM     52  C   UNL A   1      42.040  25.745  25.286  1.00  0.00     0.006 A 
ENDBRANCH  24  45
BRANCH  36  53
ATOM     53  C   UNL A   1      44.021  27.524  34.140  1.00  0.00     0.057 A 
ATOM     54  C   UNL A   1      45.334  28.001  34.230  1.00  0.00     0.134 A 
ATOM     55  C   UNL A   1      43.727  26.310  34.775  1.00  0.00     0.134 A 
ATOM     56  F   UNL A   1      45.681  29.154  33.635  1.00  0.00    -0.206 F 
ATOM     57  C   UNL A   1      46.324  27.286  34.903  1.00  0.00     0.040 A 
ATOM     58  C   UNL A   1      44.702  25.601  35.477  1.00  0.00     0.040 A 
ATOM     59  F   UNL A   1      42.486  25.804  34.738  1.00  0.00    -0.206 F 
ATOM     60  C   UNL A   1      46.007  26.086  35.537  1.00  0.00     0.006 A 
ENDBRANCH  36  53
ENDBRANCH  10  11
ENDBRANCH   3   5
ENDBRANCH   2   3
ENDBRANCH   1   2
BRANCH   1  61
ATOM     61  C   UNL A   1      32.205  31.072  26.481  1.00  0.00     0.274 C 
BRANCH  61  62
ATOM     62  O   UNL A   1      31.413  30.265  25.607  1.00  0.00    -0.462 OA
BRANCH  62  63
ATOM     63  C   UNL A   1      32.057  29.184  25.064  1.00  0.00     0.312 C 
ATOM     64  O   UNL A   1      32.593  29.166  23.969  1.00  0.00    -0.252 OA
BRANCH  63  65
ATOM     65  C   UNL A   1      32.020  28.039  26.066  1.00  0.00     0.124 C 
ATOM     66  C   UNL A   1      33.357  27.460  26.394  1.00  0.00    -0.014 C 
ATOM     67  C   UNL A   1      31.249  26.838  25.559  1.00  0.00     0.048 C 
ATOM     68  C   UNL A   1      33.500  26.254  25.831  1.00  0.00    -0.006 C 
ATOM     69  C   UNL A   1      32.299  25.879  25.006  1.00  0.00     0.106 C 
BRANCH  69  70
ATOM     70  N   UNL A   1      32.662  26.081  23.621  1.00  0.00    -0.350 N 
ATOM     71  C   UNL A   1      33.435  25.390  22.751  1.00  0.00     0.223 C 
ATOM     72  H   UNL A   1      32.262  26.890  23.229  1.00  0.00     0.164 HD
ATOM     73  O   UNL A   1      33.783  25.995  21.730  1.00  0.00    -0.275 OA
BRANCH  71  74
ATOM     74  C   UNL A   1      33.756  23.903  22.863  1.00  0.00     0.083 C 
ATOM     75  C   UNL A   1      32.424  23.141  22.946  1.00  0.00     0.042 C 
ATOM     76  C   UNL A   1      34.821  23.457  23.869  1.00  0.00     0.042 C 
ATOM     77  C   UNL A   1      32.631  21.667  23.228  1.00  0.00     0.161 C 
ATOM     78  C   UNL A   1      34.770  21.961  24.161  1.00  0.00     0.161 C 
ATOM     79  O   UNL A   1      33.436  21.515  24.393  1.00  0.00    -0.381 OA
ENDBRANCH  71  74
ENDBRANCH  69  70
ENDBRANCH  63  65
ENDBRANCH  62  63
ENDBRANCH  61  62
ENDBRANCH   1  61
TORSDOF 13
ENDMDL
MODEL 3
REMARK VINA RESULT:     -11.2      1.155      2.084
REMARK SMILES O=C(OCCOC(=O)[C@@H]1C=C[C@H](NC(=O)C2CCOCC2)C1)c1ccc(-c2c3nc(c(-c4c(F)cccc4F)c4ccc([nH]4)c(-c4c(F)cccc4F)c4nc(c(-c5c(F)cccc5F)c5ccc2[nH]5)C=C4)C=C3)cc1
REMARK SMILES IDX 4 1 3 2 2 3 1 4 23 5 24 6 76 7 25 8 75 9 26 10 27 11 28 12
REMARK SMILES IDX 69 13 29 14 74 15 68 16 70 17 30 18 73 19 67 20 66 21 31 23
REMARK SMILES IDX 57 24 40 25 56 26 41 27 44 28 55 29 71 30 42 31 43 32 54 34
REMARK SMILES IDX 72 35 45 36 32 37 33 38 38 39 34 40 35 41 37 42 39 43 36 44
REMARK SMILES IDX 58 45 59 46 64 47 60 48 61 49 63 50 65 51 62 52 46 53 47 54
REMARK SMILES IDX 52 55 48 56 49 57 51 58 53 59 50 60 5 61 6 62 7 63 8 64 9 65
REMARK SMILES IDX 10 66 22 67 11 68 12 69 13 70 14 71 15 73 16 74 17 75 21 76
REMARK SMILES IDX 18 77 20 78 19 79
REMARK H PARENT 70 22 44 33 13 72
REMARK Flexibility Score: inf
ROOT
ATOM      1  C   UNL A   1      31.421  32.016  26.900  1.00  0.00     0.275 C 
ENDROOT
BRANCH   1   2
ATOM      2  O   UNL A   1      32.190  33.235  26.990  1.00  0.00    -0.458 OA
BRANCH   2   3
ATOM      3  C   UNL A   1      32.877  33.785  28.022  1.00  0.00     0.338 C 
ATOM      4  O   UNL A   1      32.487  34.848  28.500  1.00  0.00    -0.246 OA
BRANCH   3   5
ATOM      5  C   UNL A   1      34.186  33.257  28.514  1.00  0.00     0.060 A 
ATOM      6  C   UNL A   1      35.442  33.740  28.148  1.00  0.00     0.016 A 
ATOM      7  C   UNL A   1      34.129  32.210  29.460  1.00  0.00     0.016 A 
ATOM      8  C   UNL A   1      36.599  33.282  28.781  1.00  0.00     0.010 A 
ATOM      9  C   UNL A   1      35.285  31.758  30.111  1.00  0.00     0.010 A 
ATOM     10  C   UNL A   1      36.533  32.295  29.770  1.00  0.00    -0.014 A 
BRANCH  10  11
ATOM     11  C   UNL A   1      37.801  31.693  30.247  1.00  0.00     0.031 A 
ATOM     12  C   UNL A   1      38.231  32.021  31.649  1.00  0.00     0.074 A 
ATOM     13  C   UNL A   1      38.466  30.778  29.515  1.00  0.00     0.049 A 
ATOM     14  N   UNL A   1      39.195  31.506  32.364  1.00  0.00    -0.248 NA
ATOM     15  C   UNL A   1      37.455  33.062  32.347  1.00  0.00     0.031 C 
ATOM     16  C   UNL A   1      38.119  30.358  28.155  1.00  0.00     0.029 A 
ATOM     17  N   UNL A   1      39.562  30.010  29.828  1.00  0.00    -0.354 N 
ATOM     18  C   UNL A   1      39.114  32.134  33.599  1.00  0.00     0.074 A 
ATOM     19  C   UNL A   1      38.066  33.123  33.516  1.00  0.00     0.031 C 
ATOM     20  C   UNL A   1      38.976  29.398  27.759  1.00  0.00     0.029 A 
ATOM     21  C   UNL A   1      39.932  29.136  28.833  1.00  0.00     0.049 A 
ATOM     22  H   UNL A   1      40.037  30.081  30.687  1.00  0.00     0.167 HD
ATOM     23  C   UNL A   1      39.820  31.884  34.724  1.00  0.00     0.037 A 
ATOM     24  C   UNL A   1      40.925  28.223  28.807  1.00  0.00     0.037 A 
ATOM     25  C   UNL A   1      40.876  30.919  34.802  1.00  0.00     0.049 A 
ATOM     26  C   UNL A   1      41.765  28.033  30.048  1.00  0.00     0.074 A 
ATOM     27  C   UNL A   1      41.696  30.618  35.874  1.00  0.00     0.029 A 
ATOM     28  N   UNL A   1      41.260  30.096  33.753  1.00  0.00    -0.354 N 
ATOM     29  N   UNL A   1      41.654  28.612  31.222  1.00  0.00    -0.248 NA
ATOM     30  C   UNL A   1      42.858  27.053  29.968  1.00  0.00     0.031 C 
ATOM     31  C   UNL A   1      42.605  29.639  35.458  1.00  0.00     0.029 A 
ATOM     32  C   UNL A   1      42.318  29.298  34.146  1.00  0.00     0.049 A 
ATOM     33  H   UNL A   1      40.842  30.084  32.862  1.00  0.00     0.167 HD
ATOM     34  C   UNL A   1      42.639  28.045  32.023  1.00  0.00     0.074 A 
ATOM     35  C   UNL A   1      43.320  27.059  31.210  1.00  0.00     0.031 C 
ATOM     36  C   UNL A   1      42.962  28.316  33.313  1.00  0.00     0.037 A 
BRANCH  23  37
ATOM     37  C   UNL A   1      39.461  32.688  35.935  1.00  0.00     0.057 A 
ATOM     38  C   UNL A   1      38.500  32.238  36.854  1.00  0.00     0.134 A 
ATOM     39  C   UNL A   1      40.041  33.940  36.165  1.00  0.00     0.134 A 
ATOM     40  F   UNL A   1      37.883  31.061  36.669  1.00  0.00    -0.206 F 
ATOM     41  C   UNL A   1      38.110  33.019  37.942  1.00  0.00     0.040 A 
ATOM     42  C   UNL A   1      39.676  34.719  37.264  1.00  0.00     0.040 A 
ATOM     43  F   UNL A   1      40.957  34.431  35.318  1.00  0.00    -0.206 F 
ATOM     44  C   UNL A   1      38.703  34.262  38.152  1.00  0.00     0.006 A 
ENDBRANCH  23  37
BRANCH  24  45
ATOM     45  C   UNL A   1      41.199  27.415  27.585  1.00  0.00     0.057 A 
ATOM     46  C   UNL A   1      40.658  26.134  27.411  1.00  0.00     0.134 A 
ATOM     47  C   UNL A   1      42.086  27.869  26.601  1.00  0.00     0.134 A 
ATOM     48  F   UNL A   1      39.820  25.625  28.327  1.00  0.00    -0.206 F 
ATOM     49  C   UNL A   1      41.018  25.322  26.331  1.00  0.00     0.040 A 
ATOM     50  C   UNL A   1      42.433  27.080  25.501  1.00  0.00     0.040 A 
ATOM     51  F   UNL A   1      42.643  29.085  26.700  1.00  0.00    -0.206 F 
ATOM     52  C   UNL A   1      41.910  25.796  25.373  1.00  0.00     0.006 A 
ENDBRANCH  24  45
BRANCH  36  53
ATOM     53  C   UNL A   1      44.074  27.515  33.924  1.00  0.00     0.057 A 
ATOM     54  C   UNL A   1      43.837  26.294  34.567  1.00  0.00     0.134 A 
ATOM     55  C   UNL A   1      45.403  27.948  33.822  1.00  0.00     0.134 A 
ATOM     56  F   UNL A   1      42.585  25.829  34.704  1.00  0.00    -0.206 F 
ATOM     57  C   UNL A   1      44.880  25.544  35.111  1.00  0.00     0.040 A 
ATOM     58  C   UNL A   1      46.456  27.192  34.336  1.00  0.00     0.040 A 
ATOM     59  F   UNL A   1      45.699  29.102  33.207  1.00  0.00    -0.206 F 
ATOM     60  C   UNL A   1      46.195  25.989  34.988  1.00  0.00     0.006 A 
ENDBRANCH  36  53
ENDBRANCH  10  11
ENDBRANCH   3   5
ENDBRANCH   2   3
ENDBRANCH   1   2
BRANCH   1  61
ATOM     61  C   UNL A   1      32.222  30.758  26.549  1.00  0.00     0.274 C 
BRANCH  61  62
ATOM     62  O   UNL A   1      32.213  29.790  27.601  1.00  0.00    -0.462 OA
BRANCH  62  63
ATOM     63  C   UNL A   1      31.819  28.530  27.232  1.00  0.00     0.312 C 
ATOM     64  O   UNL A   1      31.039  27.831  27.856  1.00  0.00    -0.252 OA
BRANCH  63  65
ATOM     65  C   UNL A   1      32.487  28.176  25.912  1.00  0.00     0.124 C 
ATOM     66  C   UNL A   1      31.538  27.886  24.796  1.00  0.00    -0.014 C 
ATOM     67  C   UNL A   1      33.310  26.908  25.990  1.00  0.00     0.048 C 
ATOM     68  C   UNL A   1      31.516  26.576  24.522  1.00  0.00    -0.006 C 
ATOM     69  C   UNL A   1      32.410  25.800  25.449  1.00  0.00     0.106 C 
BRANCH  69  70
ATOM     70  N   UNL A   1      31.553  25.161  26.422  1.00  0.00    -0.350 N 
ATOM     71  C   UNL A   1      31.212  23.873  26.660  1.00  0.00     0.223 C 
ATOM     72  H   UNL A   1      31.128  25.796  27.043  1.00  0.00     0.164 HD
ATOM     73  O   UNL A   1      30.219  23.693  27.375  1.00  0.00    -0.275 OA
BRANCH  71  74
ATOM     74  C   UNL A   1      32.046  22.662  26.253  1.00  0.00     0.083 C 
ATOM     75  C   UNL A   1      33.367  22.718  27.037  1.00  0.00     0.042 C 
ATOM     76  C   UNL A   1      32.192  22.340  24.762  1.00  0.00     0.042 C 
ATOM     77  C   UNL A   1      34.341  21.651  26.583  1.00  0.00     0.161 C 
ATOM     78  C   UNL A   1      33.336  21.375  24.474  1.00  0.00     0.161 C 
ATOM     79  O   UNL A   1      34.523  21.742  25.173  1.00  0.00    -0.381 OA
ENDBRANCH  71  74
ENDBRANCH  69  70
ENDBRANCH  63  65
ENDBRANCH  62  63
ENDBRANCH  61  62
ENDBRANCH   1  61
TORSDOF 13
ENDMDL
