MODEL 1
REMARK VINA RESULT:     -11.8      0.000      0.000
REMARK SMILES O=C(C[C@@H]([NH2+]Cc1cccnc1)C(=O)OCCOC(=O)c1ccc(-c2c3nc(c(-c4c(F)cccc4F)c4ccc([nH]4)c(-c4c(F)cccc4F)c4nc(c(-c5c(F)cccc5F)c5ccc2[nH]5)C=C4)C=C3)cc1)Nc1ccc2ccccc2c1
REMARK SMILES IDX 16 1 15 2 13 3 14 4 4 5 3 6 2 7 1 8 75 9 76 11 77 12 85 13
REMARK SMILES IDX 78 14 84 15 79 16 83 17 80 18 82 19 81 20 5 21 6 24 7 25
REMARK SMILES IDX 8 26 12 27 9 28 11 29 10 30 17 31 18 32 19 33 20 34 21 35
REMARK SMILES IDX 22 36 74 37 23 38 73 39 24 40 25 41 26 42 67 43 27 44 72 45
REMARK SMILES IDX 66 46 68 47 28 48 71 49 65 50 64 51 29 53 55 54 38 55 54 56
REMARK SMILES IDX 39 57 42 58 53 59 69 60 40 61 41 62 52 64 70 65 43 66 30 67
REMARK SMILES IDX 31 68 36 69 32 70 33 71 35 72 37 73 34 74 56 75 57 76 62 77
REMARK SMILES IDX 58 78 59 79 61 80 63 81 60 82 44 83 45 84 50 85 46 86 47 87
REMARK SMILES IDX 49 88 51 89 48 90
REMARK H PARENT 75 10 5 22 5 23 68 52 42 63
REMARK Flexibility Score: inf
ROOT
ATOM      1  C   UNL A   1      36.053  20.054  24.991  1.00  0.00     0.274 C 
ENDROOT
BRANCH   1   2
ATOM      2  O   UNL A   1      35.597  21.411  25.178  1.00  0.00    -0.458 OA
BRANCH   2   3
ATOM      3  C   UNL A   1      34.440  21.546  25.878  1.00  0.00     0.365 C 
ATOM      4  O   UNL A   1      34.361  21.383  27.094  1.00  0.00    -0.245 OA
BRANCH   3   5
ATOM      5  C   UNL A   1      33.229  21.958  25.015  1.00  0.00     0.303 C 
BRANCH   5   6
ATOM      6  C   UNL A   1      33.618  22.559  23.645  1.00  0.00     0.177 C 
BRANCH   6   7
ATOM      7  C   UNL A   1      33.385  24.065  23.610  1.00  0.00     0.231 C 
ATOM      8  O   UNL A   1      33.964  24.801  22.819  1.00  0.00    -0.274 OA
ATOM      9  N   UNL A   1      32.559  24.481  24.642  1.00  0.00    -0.326 N 
ATOM     10  H   UNL A   1      32.038  23.791  25.115  1.00  0.00     0.169 HD
BRANCH   9  11
ATOM     11  C   UNL A   1      32.407  25.810  25.065  1.00  0.00     0.041 A 
ATOM     12  C   UNL A   1      31.362  26.547  24.503  1.00  0.00     0.027 A 
ATOM     13  C   UNL A   1      33.290  26.420  25.954  1.00  0.00     0.034 A 
ATOM     14  C   UNL A   1      31.169  27.879  24.859  1.00  0.00     0.011 A 
ATOM     15  C   UNL A   1      33.177  27.798  26.227  1.00  0.00    -0.016 A 
ATOM     16  C   UNL A   1      32.085  28.526  25.694  1.00  0.00    -0.018 A 
ATOM     17  C   UNL A   1      34.138  28.487  26.986  1.00  0.00     0.009 A 
ATOM     18  C   UNL A   1      31.953  29.894  25.974  1.00  0.00     0.009 A 
ATOM     19  C   UNL A   1      34.021  29.862  27.212  1.00  0.00     0.001 A 
ATOM     20  C   UNL A   1      32.923  30.561  26.720  1.00  0.00     0.001 A 
ENDBRANCH   9  11
ENDBRANCH   6   7
ENDBRANCH   5   6
BRANCH   5  21
ATOM     21  N   UNL A   1      32.236  20.848  24.844  1.00  0.00    -0.330 N 
ATOM     22  H   UNL A   1      31.315  21.273  24.734  1.00  0.00     0.347 HD
ATOM     23  H   UNL A   1      32.341  20.266  25.675  1.00  0.00     0.347 HD
BRANCH  21  24
ATOM     24  C   UNL A   1      32.447  19.939  23.707  1.00  0.00     0.299 C 
BRANCH  24  25
ATOM     25  C   UNL A   1      32.829  18.515  24.029  1.00  0.00     0.024 A 
ATOM     26  C   UNL A   1      33.503  17.647  23.161  1.00  0.00     0.013 A 
ATOM     27  C   UNL A   1      32.593  18.041  25.320  1.00  0.00     0.120 A 
ATOM     28  C   UNL A   1      33.875  16.375  23.594  1.00  0.00     0.021 A 
ATOM     29  N   UNL A   1      32.951  16.816  25.771  1.00  0.00    -0.264 NA
ATOM     30  C   UNL A   1      33.581  16.008  24.895  1.00  0.00     0.111 A 
ENDBRANCH  24  25
ENDBRANCH  21  24
ENDBRANCH   5  21
ENDBRANCH   3   5
ENDBRANCH   2   3
ENDBRANCH   1   2
BRANCH   1  31
ATOM     31  C   UNL A   1      37.584  19.945  24.932  1.00  0.00     0.275 C 
BRANCH  31  32
ATOM     32  O   UNL A   1      38.256  21.134  25.390  1.00  0.00    -0.458 OA
BRANCH  32  33
ATOM     33  C   UNL A   1      39.369  20.908  26.127  1.00  0.00     0.338 C 
ATOM     34  O   UNL A   1      39.968  19.851  26.239  1.00  0.00    -0.246 OA
BRANCH  33  35
ATOM     35  C   UNL A   1      39.890  22.163  26.689  1.00  0.00     0.060 A 
ATOM     36  C   UNL A   1      39.420  23.356  26.138  1.00  0.00     0.016 A 
ATOM     37  C   UNL A   1      40.908  22.184  27.642  1.00  0.00     0.016 A 
ATOM     38  C   UNL A   1      39.975  24.573  26.505  1.00  0.00     0.010 A 
ATOM     39  C   UNL A   1      41.460  23.414  28.026  1.00  0.00     0.010 A 
ATOM     40  C   UNL A   1      41.006  24.613  27.446  1.00  0.00    -0.014 A 
BRANCH  40  41
ATOM     41  C   UNL A   1      41.630  25.919  27.765  1.00  0.00     0.031 A 
ATOM     42  C   UNL A   1      40.857  26.952  28.530  1.00  0.00     0.074 A 
ATOM     43  C   UNL A   1      42.912  26.148  27.423  1.00  0.00     0.049 A 
ATOM     44  N   UNL A   1      41.196  28.178  28.837  1.00  0.00    -0.248 NA
ATOM     45  C   UNL A   1      39.531  26.551  29.022  1.00  0.00     0.031 C 
ATOM     46  C   UNL A   1      43.792  25.192  26.749  1.00  0.00     0.029 A 
ATOM     47  N   UNL A   1      43.695  27.260  27.600  1.00  0.00    -0.354 N 
ATOM     48  C   UNL A   1      40.116  28.704  29.536  1.00  0.00     0.074 A 
ATOM     49  C   UNL A   1      39.107  27.666  29.600  1.00  0.00     0.031 C 
ATOM     50  C   UNL A   1      44.994  25.762  26.563  1.00  0.00     0.029 A 
ATOM     51  C   UNL A   1      44.951  27.135  27.057  1.00  0.00     0.049 A 
ATOM     52  H   UNL A   1      43.388  28.069  28.069  1.00  0.00     0.167 HD
ATOM     53  C   UNL A   1      39.980  29.938  30.073  1.00  0.00     0.037 A 
ATOM     54  C   UNL A   1      45.942  28.038  26.941  1.00  0.00     0.037 A 
ATOM     55  C   UNL A   1      40.994  30.960  30.026  1.00  0.00     0.049 A 
ATOM     56  C   UNL A   1      45.738  29.427  27.480  1.00  0.00     0.074 A 
ATOM     57  C   UNL A   1      40.952  32.244  30.543  1.00  0.00     0.029 A 
ATOM     58  N   UNL A   1      42.236  30.811  29.428  1.00  0.00    -0.354 N 
ATOM     59  N   UNL A   1      44.704  29.924  28.112  1.00  0.00    -0.248 NA
ATOM     60  C   UNL A   1      46.839  30.381  27.282  1.00  0.00     0.031 C 
ATOM     61  C   UNL A   1      42.156  32.883  30.226  1.00  0.00     0.029 A 
ATOM     62  C   UNL A   1      42.962  31.985  29.547  1.00  0.00     0.049 A 
ATOM     63  H   UNL A   1      42.555  29.992  28.984  1.00  0.00     0.167 HD
ATOM     64  C   UNL A   1      45.034  31.241  28.404  1.00  0.00     0.074 A 
ATOM     65  C   UNL A   1      46.371  31.460  27.892  1.00  0.00     0.031 C 
ATOM     66  C   UNL A   1      44.295  32.183  29.038  1.00  0.00     0.037 A 
BRANCH  53  67
ATOM     67  C   UNL A   1      38.672  30.266  30.729  1.00  0.00     0.057 A 
ATOM     68  C   UNL A   1      37.603  30.822  30.016  1.00  0.00     0.134 A 
ATOM     69  C   UNL A   1      38.473  29.994  32.088  1.00  0.00     0.134 A 
ATOM     70  F   UNL A   1      37.735  31.118  28.714  1.00  0.00    -0.206 F 
ATOM     71  C   UNL A   1      36.387  31.111  30.637  1.00  0.00     0.040 A 
ATOM     72  C   UNL A   1      37.255  30.260  32.715  1.00  0.00     0.040 A 
ATOM     73  F   UNL A   1      39.457  29.458  32.827  1.00  0.00    -0.206 F 
ATOM     74  C   UNL A   1      36.209  30.825  31.990  1.00  0.00     0.006 A 
ENDBRANCH  53  67
BRANCH  54  75
ATOM     75  C   UNL A   1      47.202  27.667  26.252  1.00  0.00     0.057 A 
ATOM     76  C   UNL A   1      47.311  27.722  24.859  1.00  0.00     0.134 A 
ATOM     77  C   UNL A   1      48.323  27.240  26.972  1.00  0.00     0.134 A 
ATOM     78  F   UNL A   1      46.261  28.100  24.113  1.00  0.00    -0.206 F 
ATOM     79  C   UNL A   1      48.487  27.354  24.205  1.00  0.00     0.040 A 
ATOM     80  C   UNL A   1      49.514  26.894  26.333  1.00  0.00     0.040 A 
ATOM     81  F   UNL A   1      48.280  27.163  28.311  1.00  0.00    -0.206 F 
ATOM     82  C   UNL A   1      49.595  26.944  24.944  1.00  0.00     0.006 A 
ENDBRANCH  54  75
BRANCH  66  83
ATOM     83  C   UNL A   1      44.930  33.526  29.243  1.00  0.00     0.057 A 
ATOM     84  C   UNL A   1      45.725  33.802  30.362  1.00  0.00     0.134 A 
ATOM     85  C   UNL A   1      44.774  34.542  28.291  1.00  0.00     0.134 A 
ATOM     86  F   UNL A   1      45.900  32.876  31.317  1.00  0.00    -0.206 F 
ATOM     87  C   UNL A   1      46.326  35.050  30.537  1.00  0.00     0.040 A 
ATOM     88  C   UNL A   1      45.389  35.784  28.443  1.00  0.00     0.040 A 
ATOM     89  F   UNL A   1      44.031  34.336  27.193  1.00  0.00    -0.206 F 
ATOM     90  C   UNL A   1      46.164  36.043  29.572  1.00  0.00     0.006 A 
ENDBRANCH  66  83
ENDBRANCH  40  41
ENDBRANCH  33  35
ENDBRANCH  32  33
ENDBRANCH  31  32
ENDBRANCH   1  31
TORSDOF 17
ENDMDL
MODEL 2
REMARK VINA RESULT:     -11.7      3.103      7.589
REMARK SMILES O=C(C[C@@H]([NH2+]Cc1cccnc1)C(=O)OCCOC(=O)c1ccc(-c2c3nc(c(-c4c(F)cccc4F)c4ccc([nH]4)c(-c4c(F)cccc4F)c4nc(c(-c5c(F)cccc5F)c5ccc2[nH]5)C=C4)C=C3)cc1)Nc1ccc2ccccc2c1
REMARK SMILES IDX 16 1 15 2 13 3 14 4 4 5 3 6 2 7 1 8 75 9 76 11 77 12 85 13
REMARK SMILES IDX 78 14 84 15 79 16 83 17 80 18 82 19 81 20 5 21 6 24 7 25
REMARK SMILES IDX 8 26 12 27 9 28 11 29 10 30 17 31 18 32 19 33 20 34 21 35
REMARK SMILES IDX 22 36 74 37 23 38 73 39 24 40 25 41 26 42 67 43 27 44 72 45
REMARK SMILES IDX 66 46 68 47 28 48 71 49 65 50 64 51 29 53 55 54 38 55 54 56
REMARK SMILES IDX 39 57 42 58 53 59 69 60 40 61 41 62 52 64 70 65 43 66 30 67
REMARK SMILES IDX 31 68 36 69 32 70 33 71 35 72 37 73 34 74 56 75 57 76 62 77
REMARK SMILES IDX 58 78 59 79 61 80 63 81 60 82 44 83 45 84 50 85 46 86 47 87
REMARK SMILES IDX 49 88 51 89 48 90
REMARK H PARENT 75 10 5 22 5 23 68 52 42 63
REMARK Flexibility Score: inf
ROOT
ATOM      1  C   UNL A   1      32.164  29.077  25.589  1.00  0.00     0.274 C 
ENDROOT
BRANCH   1   2
ATOM      2  O   UNL A   1      32.430  27.662  25.687  1.00  0.00    -0.458 OA
BRANCH   2   3
ATOM      3  C   UNL A   1      31.490  26.936  26.347  1.00  0.00     0.365 C 
ATOM      4  O   UNL A   1      31.160  27.155  27.511  1.00  0.00    -0.245 OA
BRANCH   3   5
ATOM      5  C   UNL A   1      30.840  25.826  25.494  1.00  0.00     0.303 C 
BRANCH   5   6
ATOM      6  C   UNL A   1      30.457  24.566  26.300  1.00  0.00     0.177 C 
BRANCH   6   7
ATOM      7  C   UNL A   1      31.653  23.641  26.492  1.00  0.00     0.231 C 
ATOM      8  O   UNL A   1      31.976  23.204  27.591  1.00  0.00    -0.274 OA
ATOM      9  N   UNL A   1      32.370  23.477  25.317  1.00  0.00    -0.326 N 
ATOM     10  H   UNL A   1      31.933  23.748  24.477  1.00  0.00     0.169 HD
BRANCH   9  11
ATOM     11  C   UNL A   1      33.669  22.955  25.233  1.00  0.00     0.041 A 
ATOM     12  C   UNL A   1      33.797  21.607  24.887  1.00  0.00     0.027 A 
ATOM     13  C   UNL A   1      34.801  23.704  25.547  1.00  0.00     0.034 A 
ATOM     14  C   UNL A   1      35.056  21.017  24.809  1.00  0.00     0.011 A 
ATOM     15  C   UNL A   1      36.067  23.085  25.590  1.00  0.00    -0.016 A 
ATOM     16  C   UNL A   1      36.195  21.733  25.188  1.00  0.00    -0.018 A 
ATOM     17  C   UNL A   1      37.208  23.759  26.057  1.00  0.00     0.009 A 
ATOM     18  C   UNL A   1      37.453  21.113  25.210  1.00  0.00     0.009 A 
ATOM     19  C   UNL A   1      38.445  23.111  26.123  1.00  0.00     0.001 A 
ATOM     20  C   UNL A   1      38.571  21.795  25.686  1.00  0.00     0.001 A 
ENDBRANCH   9  11
ENDBRANCH   6   7
ENDBRANCH   5   6
BRANCH   5  21
ATOM     21  N   UNL A   1      29.671  26.321  24.695  1.00  0.00    -0.330 N 
ATOM     22  H   UNL A   1      29.236  27.078  25.222  1.00  0.00     0.347 HD
ATOM     23  H   UNL A   1      29.078  25.503  24.556  1.00  0.00     0.347 HD
BRANCH  21  24
ATOM     24  C   UNL A   1      29.958  26.824  23.343  1.00  0.00     0.299 C 
BRANCH  24  25
ATOM     25  C   UNL A   1      29.284  28.110  22.932  1.00  0.00     0.024 A 
ATOM     26  C   UNL A   1      27.947  28.436  23.189  1.00  0.00     0.013 A 
ATOM     27  C   UNL A   1      30.062  29.107  22.340  1.00  0.00     0.120 A 
ATOM     28  C   UNL A   1      27.451  29.689  22.830  1.00  0.00     0.021 A 
ATOM     29  N   UNL A   1      29.611  30.334  21.990  1.00  0.00    -0.264 NA
ATOM     30  C   UNL A   1      28.312  30.596  22.239  1.00  0.00     0.111 A 
ENDBRANCH  24  25
ENDBRANCH  21  24
ENDBRANCH   5  21
ENDBRANCH   3   5
ENDBRANCH   2   3
ENDBRANCH   1   2
BRANCH   1  31
ATOM     31  C   UNL A   1      33.424  29.933  25.783  1.00  0.00     0.275 C 
BRANCH  31  32
ATOM     32  O   UNL A   1      34.322  29.403  26.778  1.00  0.00    -0.458 OA
BRANCH  32  33
ATOM     33  C   UNL A   1      34.666  30.278  27.753  1.00  0.00     0.338 C 
ATOM     34  O   UNL A   1      33.936  31.088  28.299  1.00  0.00    -0.246 OA
BRANCH  33  35
ATOM     35  C   UNL A   1      36.044  30.037  28.210  1.00  0.00     0.060 A 
ATOM     36  C   UNL A   1      37.063  30.165  27.266  1.00  0.00     0.016 A 
ATOM     37  C   UNL A   1      36.330  29.571  29.493  1.00  0.00     0.016 A 
ATOM     38  C   UNL A   1      38.366  29.806  27.578  1.00  0.00     0.010 A 
ATOM     39  C   UNL A   1      37.649  29.222  29.814  1.00  0.00     0.010 A 
ATOM     40  C   UNL A   1      38.670  29.323  28.852  1.00  0.00    -0.014 A 
BRANCH  40  41
ATOM     41  C   UNL A   1      40.055  28.877  29.134  1.00  0.00     0.031 A 
ATOM     42  C   UNL A   1      40.992  29.775  29.886  1.00  0.00     0.074 A 
ATOM     43  C   UNL A   1      40.446  27.641  28.772  1.00  0.00     0.049 A 
ATOM     44  N   UNL A   1      42.260  29.601  30.163  1.00  0.00    -0.248 NA
ATOM     45  C   UNL A   1      40.428  31.031  30.403  1.00  0.00     0.031 C 
ATOM     46  C   UNL A   1      39.601  26.646  28.108  1.00  0.00     0.029 A 
ATOM     47  N   UNL A   1      41.657  27.012  28.915  1.00  0.00    -0.354 N 
ATOM     48  C   UNL A   1      42.652  30.736  30.862  1.00  0.00     0.074 A 
ATOM     49  C   UNL A   1      41.490  31.595  30.961  1.00  0.00     0.031 C 
ATOM     50  C   UNL A   1      40.323  25.534  27.896  1.00  0.00     0.029 A 
ATOM     51  C   UNL A   1      41.689  25.756  28.360  1.00  0.00     0.049 A 
ATOM     52  H   UNL A   1      42.427  27.422  29.371  1.00  0.00     0.167 HD
ATOM     53  C   UNL A   1      43.869  31.031  31.374  1.00  0.00     0.037 A 
ATOM     54  C   UNL A   1      42.713  24.897  28.212  1.00  0.00     0.037 A 
ATOM     55  C   UNL A   1      45.016  30.164  31.293  1.00  0.00     0.049 A 
ATOM     56  C   UNL A   1      44.074  25.280  28.723  1.00  0.00     0.074 A 
ATOM     57  C   UNL A   1      46.294  30.374  31.782  1.00  0.00     0.029 A 
ATOM     58  N   UNL A   1      45.021  28.919  30.683  1.00  0.00    -0.354 N 
ATOM     59  N   UNL A   1      44.443  26.366  29.357  1.00  0.00    -0.248 NA
ATOM     60  C   UNL A   1      45.163  24.320  28.492  1.00  0.00     0.031 C 
ATOM     61  C   UNL A   1      47.082  29.270  31.437  1.00  0.00     0.029 A 
ATOM     62  C   UNL A   1      46.285  28.356  30.767  1.00  0.00     0.049 A 
ATOM     63  H   UNL A   1      44.243  28.497  30.253  1.00  0.00     0.167 HD
ATOM     64  C   UNL A   1      45.799  26.213  29.616  1.00  0.00     0.074 A 
ATOM     65  C   UNL A   1      46.184  24.923  29.083  1.00  0.00     0.031 C 
ATOM     66  C   UNL A   1      46.648  27.067  30.238  1.00  0.00     0.037 A 
BRANCH  53  67
ATOM     67  C   UNL A   1      44.034  32.365  32.039  1.00  0.00     0.057 A 
ATOM     68  C   UNL A   1      44.400  33.511  31.322  1.00  0.00     0.134 A 
ATOM     69  C   UNL A   1      43.793  32.508  33.411  1.00  0.00     0.134 A 
ATOM     70  F   UNL A   1      44.658  33.437  30.008  1.00  0.00    -0.206 F 
ATOM     71  C   UNL A   1      44.539  34.749  31.952  1.00  0.00     0.040 A 
ATOM     72  C   UNL A   1      43.908  33.745  34.047  1.00  0.00     0.040 A 
ATOM     73  F   UNL A   1      43.435  31.450  34.154  1.00  0.00    -0.206 F 
ATOM     74  C   UNL A   1      44.287  34.869  33.318  1.00  0.00     0.006 A 
ENDBRANCH  53  67
BRANCH  54  75
ATOM     75  C   UNL A   1      42.499  23.605  27.516  1.00  0.00     0.057 A 
ATOM     76  C   UNL A   1      42.561  23.512  26.122  1.00  0.00     0.134 A 
ATOM     77  C   UNL A   1      42.218  22.435  28.231  1.00  0.00     0.134 A 
ATOM     78  F   UNL A   1      42.802  24.605  25.383  1.00  0.00    -0.206 F 
ATOM     79  C   UNL A   1      42.339  22.303  25.462  1.00  0.00     0.040 A 
ATOM     80  C   UNL A   1      42.019  21.214  27.585  1.00  0.00     0.040 A 
ATOM     81  F   UNL A   1      42.142  22.460  29.570  1.00  0.00    -0.206 F 
ATOM     82  C   UNL A   1      42.073  21.148  26.195  1.00  0.00     0.006 A 
ENDBRANCH  54  75
BRANCH  66  83
ATOM     83  C   UNL A   1      48.069  26.616  30.406  1.00  0.00     0.057 A 
ATOM     84  C   UNL A   1      48.472  25.843  31.502  1.00  0.00     0.134 A 
ATOM     85  C   UNL A   1      49.035  26.929  29.442  1.00  0.00     0.134 A 
ATOM     86  F   UNL A   1      47.596  25.523  32.467  1.00  0.00    -0.206 F 
ATOM     87  C   UNL A   1      49.792  25.413  31.642  1.00  0.00     0.040 A 
ATOM     88  C   UNL A   1      50.351  26.486  29.559  1.00  0.00     0.040 A 
ATOM     89  F   UNL A   1      48.709  27.660  28.365  1.00  0.00    -0.206 F 
ATOM     90  C   UNL A   1      50.735  25.729  30.665  1.00  0.00     0.006 A 
ENDBRANCH  66  83
ENDBRANCH  40  41
ENDBRANCH  33  35
ENDBRANCH  32  33
ENDBRANCH  31  32
ENDBRANCH   1  31
TORSDOF 17
ENDMDL
MODEL 3
REMARK VINA RESULT:     -11.7      4.566     10.045
REMARK SMILES O=C(C[C@@H]([NH2+]Cc1cccnc1)C(=O)OCCOC(=O)c1ccc(-c2c3nc(c(-c4c(F)cccc4F)c4ccc([nH]4)c(-c4c(F)cccc4F)c4nc(c(-c5c(F)cccc5F)c5ccc2[nH]5)C=C4)C=C3)cc1)Nc1ccc2ccccc2c1
REMARK SMILES IDX 16 1 15 2 13 3 14 4 4 5 3 6 2 7 1 8 75 9 76 11 77 12 85 13
REMARK SMILES IDX 78 14 84 15 79 16 83 17 80 18 82 19 81 20 5 21 6 24 7 25
REMARK SMILES IDX 8 26 12 27 9 28 11 29 10 30 17 31 18 32 19 33 20 34 21 35
REMARK SMILES IDX 22 36 74 37 23 38 73 39 24 40 25 41 26 42 67 43 27 44 72 45
REMARK SMILES IDX 66 46 68 47 28 48 71 49 65 50 64 51 29 53 55 54 38 55 54 56
REMARK SMILES IDX 39 57 42 58 53 59 69 60 40 61 41 62 52 64 70 65 43 66 30 67
REMARK SMILES IDX 31 68 36 69 32 70 33 71 35 72 37 73 34 74 56 75 57 76 62 77
REMARK SMILES IDX 58 78 59 79 61 80 63 81 60 82 44 83 45 84 50 85 46 86 47 87
REMARK SMILES IDX 49 88 51 89 48 90
REMARK H PARENT 75 10 5 22 5 23 68 52 42 63
REMARK Flexibility Score: inf
ROOT
ATOM      1  C   UNL A   1      31.450  31.801  26.619  1.00  0.00     0.274 C 
ENDROOT
BRANCH   1   2
ATOM      2  O   UNL A   1      31.965  30.795  25.723  1.00  0.00    -0.458 OA
BRANCH   2   3
ATOM      3  C   UNL A   1      31.822  29.510  26.144  1.00  0.00     0.365 C 
ATOM      4  O   UNL A   1      31.710  29.195  27.326  1.00  0.00    -0.245 OA
BRANCH   3   5
ATOM      5  C   UNL A   1      31.777  28.477  24.999  1.00  0.00     0.303 C 
BRANCH   5   6
ATOM      6  C   UNL A   1      30.875  27.258  25.296  1.00  0.00     0.177 C 
BRANCH   6   7
ATOM      7  C   UNL A   1      31.663  25.954  25.244  1.00  0.00     0.231 C 
ATOM      8  O   UNL A   1      31.508  25.060  26.068  1.00  0.00    -0.274 OA
ATOM      9  N   UNL A   1      32.631  25.978  24.253  1.00  0.00    -0.326 N 
ATOM     10  H   UNL A   1      32.560  26.679  23.564  1.00  0.00     0.169 HD
BRANCH   9  11
ATOM     11  C   UNL A   1      33.705  25.081  24.155  1.00  0.00     0.041 A 
ATOM     12  C   UNL A   1      33.640  24.111  23.151  1.00  0.00     0.027 A 
ATOM     13  C   UNL A   1      34.771  25.085  25.052  1.00  0.00     0.034 A 
ATOM     14  C   UNL A   1      34.660  23.173  23.012  1.00  0.00     0.011 A 
ATOM     15  C   UNL A   1      35.744  24.066  24.996  1.00  0.00    -0.016 A 
ATOM     16  C   UNL A   1      35.700  23.118  23.945  1.00  0.00    -0.018 A 
ATOM     17  C   UNL A   1      36.741  23.936  25.977  1.00  0.00     0.009 A 
ATOM     18  C   UNL A   1      36.673  22.112  23.869  1.00  0.00     0.009 A 
ATOM     19  C   UNL A   1      37.673  22.896  25.917  1.00  0.00     0.001 A 
ATOM     20  C   UNL A   1      37.649  21.994  24.858  1.00  0.00     0.001 A 
ENDBRANCH   9  11
ENDBRANCH   6   7
ENDBRANCH   5   6
BRANCH   5  21
ATOM     21  N   UNL A   1      31.419  29.092  23.678  1.00  0.00    -0.330 N 
ATOM     22  H   UNL A   1      32.006  28.656  22.967  1.00  0.00     0.347 HD
ATOM     23  H   UNL A   1      31.570  30.093  23.801  1.00  0.00     0.347 HD
BRANCH  21  24
ATOM     24  C   UNL A   1      30.020  28.962  23.245  1.00  0.00     0.299 C 
BRANCH  24  25
ATOM     25  C   UNL A   1      29.318  30.223  22.803  1.00  0.00     0.024 A 
ATOM     26  C   UNL A   1      29.147  31.367  23.591  1.00  0.00     0.013 A 
ATOM     27  C   UNL A   1      28.892  30.314  21.477  1.00  0.00     0.120 A 
ATOM     28  C   UNL A   1      28.551  32.506  23.051  1.00  0.00     0.021 A 
ATOM     29  N   UNL A   1      28.319  31.409  20.923  1.00  0.00    -0.264 NA
ATOM     30  C   UNL A   1      28.157  32.480  21.725  1.00  0.00     0.111 A 
ENDBRANCH  24  25
ENDBRANCH  21  24
ENDBRANCH   5  21
ENDBRANCH   3   5
ENDBRANCH   2   3
ENDBRANCH   1   2
BRANCH   1  31
ATOM     31  C   UNL A   1      32.555  32.511  27.415  1.00  0.00     0.275 C 
BRANCH  31  32
ATOM     32  O   UNL A   1      32.401  33.942  27.448  1.00  0.00    -0.458 OA
BRANCH  32  33
ATOM     33  C   UNL A   1      32.982  34.551  28.510  1.00  0.00     0.338 C 
ATOM     34  O   UNL A   1      32.531  35.485  29.152  1.00  0.00    -0.246 OA
BRANCH  33  35
ATOM     35  C   UNL A   1      34.202  33.839  28.918  1.00  0.00     0.060 A 
ATOM     36  C   UNL A   1      34.062  32.806  29.845  1.00  0.00     0.016 A 
ATOM     37  C   UNL A   1      35.472  34.250  28.512  1.00  0.00     0.016 A 
ATOM     38  C   UNL A   1      35.178  32.192  30.396  1.00  0.00     0.010 A 
ATOM     39  C   UNL A   1      36.600  33.620  29.056  1.00  0.00     0.010 A 
ATOM     40  C   UNL A   1      36.458  32.599  30.012  1.00  0.00    -0.014 A 
BRANCH  40  41
ATOM     41  C   UNL A   1      37.630  31.977  30.671  1.00  0.00     0.031 A 
ATOM     42  C   UNL A   1      38.414  30.915  29.958  1.00  0.00     0.074 A 
ATOM     43  C   UNL A   1      38.028  32.414  31.880  1.00  0.00     0.049 A 
ATOM     44  N   UNL A   1      39.419  30.197  30.392  1.00  0.00    -0.248 NA
ATOM     45  C   UNL A   1      38.021  30.627  28.570  1.00  0.00     0.031 C 
ATOM     46  C   UNL A   1      37.397  33.496  32.638  1.00  0.00     0.029 A 
ATOM     47  N   UNL A   1      39.061  32.001  32.682  1.00  0.00    -0.354 N 
ATOM     48  C   UNL A   1      39.762  29.356  29.341  1.00  0.00     0.074 A 
ATOM     49  C   UNL A   1      38.854  29.646  28.251  1.00  0.00     0.031 C 
ATOM     50  C   UNL A   1      38.054  33.655  33.799  1.00  0.00     0.029 A 
ATOM     51  C   UNL A   1      39.114  32.657  33.887  1.00  0.00     0.049 A 
ATOM     52  H   UNL A   1      39.702  31.301  32.419  1.00  0.00     0.167 HD
ATOM     53  C   UNL A   1      40.746  28.427  29.292  1.00  0.00     0.037 A 
ATOM     54  C   UNL A   1      39.907  32.452  34.954  1.00  0.00     0.037 A 
ATOM     55  C   UNL A   1      41.661  28.157  30.371  1.00  0.00     0.049 A 
ATOM     56  C   UNL A   1      40.943  31.363  34.903  1.00  0.00     0.074 A 
ATOM     57  C   UNL A   1      42.693  27.235  30.417  1.00  0.00     0.029 A 
ATOM     58  N   UNL A   1      41.655  28.811  31.593  1.00  0.00    -0.354 N 
ATOM     59  N   UNL A   1      41.241  30.552  33.918  1.00  0.00    -0.248 NA
ATOM     60  C   UNL A   1      41.747  31.157  36.116  1.00  0.00     0.031 C 
ATOM     61  C   UNL A   1      43.289  27.308  31.682  1.00  0.00     0.029 A 
ATOM     62  C   UNL A   1      42.653  28.302  32.408  1.00  0.00     0.049 A 
ATOM     63  H   UNL A   1      41.032  29.531  31.845  1.00  0.00     0.167 HD
ATOM     64  C   UNL A   1      42.277  29.754  34.384  1.00  0.00     0.074 A 
ATOM     65  C   UNL A   1      42.565  30.187  35.735  1.00  0.00     0.031 C 
ATOM     66  C   UNL A   1      42.930  28.751  33.748  1.00  0.00     0.037 A 
BRANCH  53  67
ATOM     67  C   UNL A   1      40.860  27.608  28.042  1.00  0.00     0.057 A 
ATOM     68  C   UNL A   1      41.662  28.006  26.965  1.00  0.00     0.134 A 
ATOM     69  C   UNL A   1      40.181  26.388  27.929  1.00  0.00     0.134 A 
ATOM     70  F   UNL A   1      42.327  29.169  27.006  1.00  0.00    -0.206 F 
ATOM     71  C   UNL A   1      41.768  27.227  25.811  1.00  0.00     0.040 A 
ATOM     72  C   UNL A   1      40.296  25.592  26.789  1.00  0.00     0.040 A 
ATOM     73  F   UNL A   1      39.400  25.948  28.927  1.00  0.00    -0.206 F 
ATOM     74  C   UNL A   1      41.088  26.013  25.723  1.00  0.00     0.006 A 
ENDBRANCH  53  67
BRANCH  54  75
ATOM     75  C   UNL A   1      39.725  33.271  36.177  1.00  0.00     0.057 A 
ATOM     76  C   UNL A   1      38.808  32.905  37.167  1.00  0.00     0.134 A 
ATOM     77  C   UNL A   1      40.460  34.445  36.379  1.00  0.00     0.134 A 
ATOM     78  F   UNL A   1      38.056  31.803  37.017  1.00  0.00    -0.206 F 
ATOM     79  C   UNL A   1      38.618  33.684  38.309  1.00  0.00     0.040 A 
ATOM     80  C   UNL A   1      40.300  35.219  37.528  1.00  0.00     0.040 A 
ATOM     81  F   UNL A   1      41.355  34.850  35.465  1.00  0.00    -0.206 F 
ATOM     82  C   UNL A   1      39.371  34.843  38.494  1.00  0.00     0.006 A 
ENDBRANCH  54  75
BRANCH  66  83
ATOM     83  C   UNL A   1      44.042  28.078  34.496  1.00  0.00     0.057 A 
ATOM     84  C   UNL A   1      45.351  28.576  34.477  1.00  0.00     0.134 A 
ATOM     85  C   UNL A   1      43.792  26.939  35.272  1.00  0.00     0.134 A 
ATOM     86  F   UNL A   1      45.657  29.656  33.741  1.00  0.00    -0.206 F 
ATOM     87  C   UNL A   1      46.376  27.954  35.190  1.00  0.00     0.040 A 
ATOM     88  C   UNL A   1      44.805  26.321  36.006  1.00  0.00     0.040 A 
ATOM     89  F   UNL A   1      42.558  26.417  35.336  1.00  0.00    -0.206 F 
ATOM     90  C   UNL A   1      46.103  26.826  35.962  1.00  0.00     0.006 A 
ENDBRANCH  66  83
ENDBRANCH  40  41
ENDBRANCH  33  35
ENDBRANCH  32  33
ENDBRANCH  31  32
ENDBRANCH   1  31
TORSDOF 17
ENDMDL
