MODEL 1
REMARK VINA RESULT:     -11.6      0.000      0.000
REMARK SMILES O=C(OCCOC(=O)[C@H]1[C@@H](C(=O)n2cc(Cl)cn2)[C@H]2CC[C@@H]1O2)c1ccc(-c2c3nc(c(-c4c(F)cccc4F)c4ccc([nH]4)c(-c4c(F)cccc4F)c4nc(c(-c5c(F)cccc5F)c5ccc2[nH]5)C=C4)C=C3)cc1
REMARK SMILES IDX 4 1 3 2 2 3 1 4 24 5 25 6 77 7 26 8 76 9 27 10 28 11 29 12
REMARK SMILES IDX 70 13 30 14 75 15 69 16 71 17 31 18 74 19 68 20 67 21 32 23
REMARK SMILES IDX 58 24 41 25 57 26 42 27 45 28 56 29 72 30 43 31 44 32 55 34
REMARK SMILES IDX 73 35 46 36 33 37 34 38 39 39 35 40 36 41 38 42 40 43 37 44
REMARK SMILES IDX 59 45 60 46 65 47 61 48 62 49 64 50 66 51 63 52 47 53 48 54
REMARK SMILES IDX 53 55 49 56 50 57 52 58 54 59 51 60 5 61 6 62 7 63 8 64 9 65
REMARK SMILES IDX 10 66 22 67 19 68 21 69 23 70 20 71 11 72 12 73 13 74 14 75
REMARK SMILES IDX 18 76 15 77 17 78 16 79
REMARK H PARENT 71 22 45 33
REMARK Flexibility Score: inf
ROOT
ATOM      1  C   UNL A   1      32.854  31.517  27.243  1.00  0.00     0.275 C 
ENDROOT
BRANCH   1   2
ATOM      2  O   UNL A   1      34.025  31.268  28.044  1.00  0.00    -0.458 OA
BRANCH   2   3
ATOM      3  C   UNL A   1      35.197  31.916  27.903  1.00  0.00     0.338 C 
ATOM      4  O   UNL A   1      35.232  33.102  27.595  1.00  0.00    -0.246 OA
BRANCH   3   5
ATOM      5  C   UNL A   1      36.439  31.234  28.371  1.00  0.00     0.060 A 
ATOM      6  C   UNL A   1      37.549  31.849  28.958  1.00  0.00     0.016 A 
ATOM      7  C   UNL A   1      36.468  29.846  28.185  1.00  0.00     0.016 A 
ATOM      8  C   UNL A   1      38.674  31.098  29.308  1.00  0.00     0.010 A 
ATOM      9  C   UNL A   1      37.555  29.092  28.595  1.00  0.00     0.010 A 
ATOM     10  C   UNL A   1      38.693  29.718  29.088  1.00  0.00    -0.014 A 
BRANCH  10  11
ATOM     11  C   UNL A   1      39.917  28.953  29.343  1.00  0.00     0.031 A 
ATOM     12  C   UNL A   1      40.367  28.843  30.765  1.00  0.00     0.074 A 
ATOM     13  C   UNL A   1      40.578  28.298  28.363  1.00  0.00     0.049 A 
ATOM     14  N   UNL A   1      41.427  29.353  31.305  1.00  0.00    -0.248 NA
ATOM     15  C   UNL A   1      39.490  28.156  31.724  1.00  0.00     0.031 C 
ATOM     16  C   UNL A   1      40.186  28.082  26.964  1.00  0.00     0.029 A 
ATOM     17  N   UNL A   1      41.751  27.609  28.446  1.00  0.00    -0.354 N 
ATOM     18  C   UNL A   1      41.460  28.899  32.625  1.00  0.00     0.074 A 
ATOM     19  C   UNL A   1      40.180  28.283  32.861  1.00  0.00     0.031 C 
ATOM     20  C   UNL A   1      40.959  27.122  26.414  1.00  0.00     0.029 A 
ATOM     21  C   UNL A   1      42.022  26.808  27.345  1.00  0.00     0.049 A 
ATOM     22  H   UNL A   1      42.353  27.672  29.221  1.00  0.00     0.167 HD
ATOM     23  C   UNL A   1      42.614  28.899  33.354  1.00  0.00     0.037 A 
ATOM     24  C   UNL A   1      43.055  25.946  27.193  1.00  0.00     0.037 A 
ATOM     25  C   UNL A   1      43.604  29.761  32.761  1.00  0.00     0.049 A 
ATOM     26  C   UNL A   1      44.118  26.363  28.136  1.00  0.00     0.074 A 
ATOM     27  C   UNL A   1      43.687  31.111  32.484  1.00  0.00     0.029 A 
ATOM     28  N   UNL A   1      44.614  29.178  32.036  1.00  0.00    -0.354 N 
ATOM     29  N   UNL A   1      44.782  27.480  28.022  1.00  0.00    -0.248 NA
ATOM     30  C   UNL A   1      44.115  25.766  29.462  1.00  0.00     0.031 C 
ATOM     31  C   UNL A   1      44.370  31.184  31.234  1.00  0.00     0.029 A 
ATOM     32  C   UNL A   1      44.719  29.884  30.867  1.00  0.00     0.049 A 
ATOM     33  H   UNL A   1      45.157  28.402  32.304  1.00  0.00     0.167 HD
ATOM     34  C   UNL A   1      44.914  27.945  29.322  1.00  0.00     0.074 A 
ATOM     35  C   UNL A   1      44.558  26.808  30.170  1.00  0.00     0.031 C 
ATOM     36  C   UNL A   1      45.023  29.280  29.591  1.00  0.00     0.037 A 
BRANCH  23  37
ATOM     37  C   UNL A   1      42.998  27.864  34.393  1.00  0.00     0.057 A 
ATOM     38  C   UNL A   1      43.243  26.536  33.985  1.00  0.00     0.134 A 
ATOM     39  C   UNL A   1      42.830  28.034  35.780  1.00  0.00     0.134 A 
ATOM     40  F   UNL A   1      43.434  26.233  32.692  1.00  0.00    -0.206 F 
ATOM     41  C   UNL A   1      43.210  25.453  34.874  1.00  0.00     0.040 A 
ATOM     42  C   UNL A   1      42.842  26.964  36.683  1.00  0.00     0.040 A 
ATOM     43  F   UNL A   1      42.549  29.220  36.329  1.00  0.00    -0.206 F 
ATOM     44  C   UNL A   1      42.992  25.664  36.227  1.00  0.00     0.006 A 
ENDBRANCH  23  37
BRANCH  24  45
ATOM     45  C   UNL A   1      43.026  24.623  26.532  1.00  0.00     0.057 A 
ATOM     46  C   UNL A   1      43.801  24.353  25.399  1.00  0.00     0.134 A 
ATOM     47  C   UNL A   1      42.437  23.511  27.161  1.00  0.00     0.134 A 
ATOM     48  F   UNL A   1      44.434  25.345  24.756  1.00  0.00    -0.206 F 
ATOM     49  C   UNL A   1      43.997  23.047  24.927  1.00  0.00     0.040 A 
ATOM     50  C   UNL A   1      42.622  22.203  26.701  1.00  0.00     0.040 A 
ATOM     51  F   UNL A   1      41.735  23.649  28.296  1.00  0.00    -0.206 F 
ATOM     52  C   UNL A   1      43.416  21.966  25.586  1.00  0.00     0.006 A 
ENDBRANCH  24  45
BRANCH  36  53
ATOM     53  C   UNL A   1      45.217  30.226  28.438  1.00  0.00     0.057 A 
ATOM     54  C   UNL A   1      44.163  30.835  27.741  1.00  0.00     0.134 A 
ATOM     55  C   UNL A   1      46.508  30.681  28.149  1.00  0.00     0.134 A 
ATOM     56  F   UNL A   1      42.888  30.541  28.017  1.00  0.00    -0.206 F 
ATOM     57  C   UNL A   1      44.386  31.829  26.782  1.00  0.00     0.040 A 
ATOM     58  C   UNL A   1      46.743  31.693  27.216  1.00  0.00     0.040 A 
ATOM     59  F   UNL A   1      47.562  30.187  28.818  1.00  0.00    -0.206 F 
ATOM     60  C   UNL A   1      45.681  32.268  26.523  1.00  0.00     0.006 A 
ENDBRANCH  36  53
ENDBRANCH  10  11
ENDBRANCH   3   5
ENDBRANCH   2   3
ENDBRANCH   1   2
BRANCH   1  61
ATOM     61  C   UNL A   1      32.003  30.312  26.856  1.00  0.00     0.274 C 
BRANCH  61  62
ATOM     62  O   UNL A   1      31.686  30.263  25.451  1.00  0.00    -0.462 OA
BRANCH  62  63
ATOM     63  C   UNL A   1      32.187  29.201  24.766  1.00  0.00     0.312 C 
ATOM     64  O   UNL A   1      32.976  29.274  23.831  1.00  0.00    -0.252 OA
BRANCH  63  65
ATOM     65  C   UNL A   1      31.521  27.924  25.189  1.00  0.00     0.143 C 
ATOM     66  C   UNL A   1      30.678  27.180  24.126  1.00  0.00     0.126 C 
ATOM     67  C   UNL A   1      32.492  26.842  25.660  1.00  0.00     0.133 C 
ATOM     68  C   UNL A   1      31.342  25.788  24.146  1.00  0.00     0.132 C 
ATOM     69  C   UNL A   1      33.551  26.489  24.625  1.00  0.00     0.036 C 
ATOM     70  O   UNL A   1      31.642  25.669  25.567  1.00  0.00    -0.373 OA
ATOM     71  C   UNL A   1      32.755  25.751  23.565  1.00  0.00     0.035 C 
BRANCH  66  72
ATOM     72  C   UNL A   1      30.486  27.678  22.703  1.00  0.00     0.253 C 
ATOM     73  O   UNL A   1      30.952  27.112  21.719  1.00  0.00    -0.272 OA
BRANCH  72  74
ATOM     74  N   UNL A   1      29.561  28.737  22.524  1.00  0.00    -0.206 N 
ATOM     75  C   UNL A   1      29.725  29.984  21.949  1.00  0.00     0.138 A 
ATOM     76  N   UNL A   1      28.293  28.598  23.016  1.00  0.00    -0.172 NA
ATOM     77  C   UNL A   1      28.495  30.593  21.960  1.00  0.00     0.079 A 
ATOM     78  C   UNL A   1      27.662  29.716  22.659  1.00  0.00     0.156 A 
ATOM     79  Cl  UNL A   1      28.066  32.085  21.294  1.00  0.00    -0.081 Cl
ENDBRANCH  72  74
ENDBRANCH  66  72
ENDBRANCH  63  65
ENDBRANCH  62  63
ENDBRANCH  61  62
ENDBRANCH   1  61
TORSDOF 13
ENDMDL
MODEL 2
REMARK VINA RESULT:     -11.6      4.425      8.642
REMARK SMILES O=C(OCCOC(=O)[C@H]1[C@@H](C(=O)n2cc(Cl)cn2)[C@H]2CC[C@@H]1O2)c1ccc(-c2c3nc(c(-c4c(F)cccc4F)c4ccc([nH]4)c(-c4c(F)cccc4F)c4nc(c(-c5c(F)cccc5F)c5ccc2[nH]5)C=C4)C=C3)cc1
REMARK SMILES IDX 4 1 3 2 2 3 1 4 24 5 25 6 77 7 26 8 76 9 27 10 28 11 29 12
REMARK SMILES IDX 70 13 30 14 75 15 69 16 71 17 31 18 74 19 68 20 67 21 32 23
REMARK SMILES IDX 58 24 41 25 57 26 42 27 45 28 56 29 72 30 43 31 44 32 55 34
REMARK SMILES IDX 73 35 46 36 33 37 34 38 39 39 35 40 36 41 38 42 40 43 37 44
REMARK SMILES IDX 59 45 60 46 65 47 61 48 62 49 64 50 66 51 63 52 47 53 48 54
REMARK SMILES IDX 53 55 49 56 50 57 52 58 54 59 51 60 5 61 6 62 7 63 8 64 9 65
REMARK SMILES IDX 10 66 22 67 19 68 21 69 23 70 20 71 11 72 12 73 13 74 14 75
REMARK SMILES IDX 18 76 15 77 17 78 16 79
REMARK H PARENT 71 22 45 33
REMARK Flexibility Score: inf
ROOT
ATOM      1  C   UNL A   1      38.298  21.213  25.426  1.00  0.00     0.275 C 
ENDROOT
BRANCH   1   2
ATOM      2  O   UNL A   1      38.757  22.442  26.019  1.00  0.00    -0.458 OA
BRANCH   2   3
ATOM      3  C   UNL A   1      39.782  22.533  26.887  1.00  0.00     0.338 C 
ATOM      4  O   UNL A   1      40.507  21.570  27.115  1.00  0.00    -0.246 OA
BRANCH   3   5
ATOM      5  C   UNL A   1      40.174  23.888  27.375  1.00  0.00     0.060 A 
ATOM      6  C   UNL A   1      41.291  24.194  28.159  1.00  0.00     0.016 A 
ATOM      7  C   UNL A   1      39.316  24.930  27.002  1.00  0.00     0.016 A 
ATOM      8  C   UNL A   1      41.517  25.504  28.590  1.00  0.00     0.010 A 
ATOM      9  C   UNL A   1      39.578  26.239  27.372  1.00  0.00     0.010 A 
ATOM     10  C   UNL A   1      40.633  26.524  28.230  1.00  0.00    -0.014 A 
BRANCH  10  11
ATOM     11  C   UNL A   1      40.805  27.871  28.784  1.00  0.00     0.031 A 
ATOM     12  C   UNL A   1      42.013  28.636  28.349  1.00  0.00     0.074 A 
ATOM     13  C   UNL A   1      39.883  28.446  29.586  1.00  0.00     0.049 A 
ATOM     14  N   UNL A   1      43.032  28.988  29.066  1.00  0.00    -0.248 NA
ATOM     15  C   UNL A   1      42.149  28.979  26.926  1.00  0.00     0.031 C 
ATOM     16  C   UNL A   1      38.538  27.972  29.941  1.00  0.00     0.029 A 
ATOM     17  N   UNL A   1      39.941  29.653  30.216  1.00  0.00    -0.354 N 
ATOM     18  C   UNL A   1      43.853  29.760  28.242  1.00  0.00     0.074 A 
ATOM     19  C   UNL A   1      43.328  29.606  26.909  1.00  0.00     0.031 C 
ATOM     20  C   UNL A   1      37.830  28.977  30.500  1.00  0.00     0.029 A 
ATOM     21  C   UNL A   1      38.728  30.090  30.729  1.00  0.00     0.049 A 
ATOM     22  H   UNL A   1      40.773  30.171  30.300  1.00  0.00     0.167 HD
ATOM     23  C   UNL A   1      44.782  30.618  28.756  1.00  0.00     0.037 A 
ATOM     24  C   UNL A   1      38.467  31.282  31.314  1.00  0.00     0.037 A 
ATOM     25  C   UNL A   1      45.064  30.312  30.136  1.00  0.00     0.049 A 
ATOM     26  C   UNL A   1      39.757  31.830  31.790  1.00  0.00     0.074 A 
ATOM     27  C   UNL A   1      45.579  29.224  30.812  1.00  0.00     0.029 A 
ATOM     28  N   UNL A   1      44.488  31.101  31.101  1.00  0.00    -0.354 N 
ATOM     29  N   UNL A   1      40.456  31.293  32.752  1.00  0.00    -0.248 NA
ATOM     30  C   UNL A   1      40.496  32.696  30.885  1.00  0.00     0.031 C 
ATOM     31  C   UNL A   1      44.831  29.164  32.025  1.00  0.00     0.029 A 
ATOM     32  C   UNL A   1      43.961  30.255  32.040  1.00  0.00     0.049 A 
ATOM     33  H   UNL A   1      44.458  32.085  31.114  1.00  0.00     0.167 HD
ATOM     34  C   UNL A   1      41.773  31.399  32.333  1.00  0.00     0.074 A 
ATOM     35  C   UNL A   1      41.742  32.346  31.218  1.00  0.00     0.031 C 
ATOM     36  C   UNL A   1      42.722  30.503  32.738  1.00  0.00     0.037 A 
BRANCH  23  37
ATOM     37  C   UNL A   1      45.181  31.949  28.152  1.00  0.00     0.057 A 
ATOM     38  C   UNL A   1      44.204  32.955  27.996  1.00  0.00     0.134 A 
ATOM     39  C   UNL A   1      46.374  32.171  27.440  1.00  0.00     0.134 A 
ATOM     40  F   UNL A   1      43.023  32.877  28.629  1.00  0.00    -0.206 F 
ATOM     41  C   UNL A   1      44.361  34.034  27.115  1.00  0.00     0.040 A 
ATOM     42  C   UNL A   1      46.560  33.270  26.593  1.00  0.00     0.040 A 
ATOM     43  F   UNL A   1      47.385  31.296  27.444  1.00  0.00    -0.206 F 
ATOM     44  C   UNL A   1      45.538  34.184  26.396  1.00  0.00     0.006 A 
ENDBRANCH  23  37
BRANCH  24  45
ATOM     45  C   UNL A   1      37.237  32.093  31.182  1.00  0.00     0.057 A 
ATOM     46  C   UNL A   1      36.904  32.731  29.982  1.00  0.00     0.134 A 
ATOM     47  C   UNL A   1      36.223  32.037  32.157  1.00  0.00     0.134 A 
ATOM     48  F   UNL A   1      37.792  32.797  28.979  1.00  0.00    -0.206 F 
ATOM     49  C   UNL A   1      35.628  33.266  29.754  1.00  0.00     0.040 A 
ATOM     50  C   UNL A   1      34.947  32.569  31.944  1.00  0.00     0.040 A 
ATOM     51  F   UNL A   1      36.412  31.385  33.314  1.00  0.00    -0.206 F 
ATOM     52  C   UNL A   1      34.642  33.176  30.733  1.00  0.00     0.006 A 
ENDBRANCH  24  45
BRANCH  36  53
ATOM     53  C   UNL A   1      42.361  29.524  33.821  1.00  0.00     0.057 A 
ATOM     54  C   UNL A   1      41.842  28.244  33.576  1.00  0.00     0.134 A 
ATOM     55  C   UNL A   1      42.728  29.813  35.140  1.00  0.00     0.134 A 
ATOM     56  F   UNL A   1      41.555  27.838  32.335  1.00  0.00    -0.206 F 
ATOM     57  C   UNL A   1      41.670  27.306  34.600  1.00  0.00     0.040 A 
ATOM     58  C   UNL A   1      42.590  28.876  36.166  1.00  0.00     0.040 A 
ATOM     59  F   UNL A   1      43.287  30.995  35.440  1.00  0.00    -0.206 F 
ATOM     60  C   UNL A   1      42.053  27.619  35.900  1.00  0.00     0.006 A 
ENDBRANCH  36  53
ENDBRANCH  10  11
ENDBRANCH   3   5
ENDBRANCH   2   3
ENDBRANCH   1   2
BRANCH   1  61
ATOM     61  C   UNL A   1      36.838  21.150  24.990  1.00  0.00     0.274 C 
BRANCH  61  62
ATOM     62  O   UNL A   1      35.911  21.473  26.045  1.00  0.00    -0.462 OA
BRANCH  62  63
ATOM     63  C   UNL A   1      34.869  22.273  25.694  1.00  0.00     0.312 C 
ATOM     64  O   UNL A   1      34.158  22.889  26.480  1.00  0.00    -0.252 OA
BRANCH  63  65
ATOM     65  C   UNL A   1      34.586  22.178  24.223  1.00  0.00     0.143 C 
ATOM     66  C   UNL A   1      33.438  21.239  23.783  1.00  0.00     0.126 C 
ATOM     67  C   UNL A   1      34.196  23.506  23.578  1.00  0.00     0.133 C 
ATOM     68  C   UNL A   1      32.556  22.213  22.976  1.00  0.00     0.132 C 
ATOM     69  C   UNL A   1      32.992  24.167  24.236  1.00  0.00     0.036 C 
ATOM     70  O   UNL A   1      33.585  23.031  22.349  1.00  0.00    -0.373 OA
ATOM     71  C   UNL A   1      31.843  23.270  23.819  1.00  0.00     0.035 C 
BRANCH  66  72
ATOM     72  C   UNL A   1      32.606  20.414  24.750  1.00  0.00     0.253 C 
ATOM     73  O   UNL A   1      31.563  20.815  25.257  1.00  0.00    -0.272 OA
BRANCH  72  74
ATOM     74  N   UNL A   1      32.975  19.054  24.901  1.00  0.00    -0.206 N 
ATOM     75  C   UNL A   1      34.168  18.412  24.623  1.00  0.00     0.138 A 
ATOM     76  N   UNL A   1      32.040  18.160  25.341  1.00  0.00    -0.172 NA
ATOM     77  C   UNL A   1      34.021  17.108  25.024  1.00  0.00     0.079 A 
ATOM     78  C   UNL A   1      32.686  16.998  25.421  1.00  0.00     0.156 A 
ATOM     79  Cl  UNL A   1      35.184  15.883  25.028  1.00  0.00    -0.081 Cl
ENDBRANCH  72  74
ENDBRANCH  66  72
ENDBRANCH  63  65
ENDBRANCH  62  63
ENDBRANCH  61  62
ENDBRANCH   1  61
TORSDOF 13
ENDMDL
MODEL 3
REMARK VINA RESULT:     -11.5      4.405      8.683
REMARK SMILES O=C(OCCOC(=O)[C@H]1[C@@H](C(=O)n2cc(Cl)cn2)[C@H]2CC[C@@H]1O2)c1ccc(-c2c3nc(c(-c4c(F)cccc4F)c4ccc([nH]4)c(-c4c(F)cccc4F)c4nc(c(-c5c(F)cccc5F)c5ccc2[nH]5)C=C4)C=C3)cc1
REMARK SMILES IDX 4 1 3 2 2 3 1 4 24 5 25 6 77 7 26 8 76 9 27 10 28 11 29 12
REMARK SMILES IDX 70 13 30 14 75 15 69 16 71 17 31 18 74 19 68 20 67 21 32 23
REMARK SMILES IDX 58 24 41 25 57 26 42 27 45 28 56 29 72 30 43 31 44 32 55 34
REMARK SMILES IDX 73 35 46 36 33 37 34 38 39 39 35 40 36 41 38 42 40 43 37 44
REMARK SMILES IDX 59 45 60 46 65 47 61 48 62 49 64 50 66 51 63 52 47 53 48 54
REMARK SMILES IDX 53 55 49 56 50 57 52 58 54 59 51 60 5 61 6 62 7 63 8 64 9 65
REMARK SMILES IDX 10 66 22 67 19 68 21 69 23 70 20 71 11 72 12 73 13 74 14 75
REMARK SMILES IDX 18 76 15 77 17 78 16 79
REMARK H PARENT 71 22 45 33
REMARK Flexibility Score: inf
ROOT
ATOM      1  C   UNL A   1      38.764  21.052  25.715  1.00  0.00     0.275 C 
ENDROOT
BRANCH   1   2
ATOM      2  O   UNL A   1      39.838  21.964  26.010  1.00  0.00    -0.458 OA
BRANCH   2   3
ATOM      3  C   UNL A   1      40.306  22.218  27.247  1.00  0.00     0.338 C 
ATOM      4  O   UNL A   1      40.713  21.314  27.968  1.00  0.00    -0.246 OA
BRANCH   3   5
ATOM      5  C   UNL A   1      40.555  23.639  27.628  1.00  0.00     0.060 A 
ATOM      6  C   UNL A   1      41.647  24.122  28.355  1.00  0.00     0.016 A 
ATOM      7  C   UNL A   1      39.577  24.551  27.210  1.00  0.00     0.016 A 
ATOM      8  C   UNL A   1      41.735  25.476  28.688  1.00  0.00     0.010 A 
ATOM      9  C   UNL A   1      39.699  25.904  27.482  1.00  0.00     0.010 A 
ATOM     10  C   UNL A   1      40.735  26.365  28.286  1.00  0.00    -0.014 A 
BRANCH  10  11
ATOM     11  C   UNL A   1      40.767  27.758  28.740  1.00  0.00     0.031 A 
ATOM     12  C   UNL A   1      41.842  28.632  28.179  1.00  0.00     0.074 A 
ATOM     13  C   UNL A   1      39.828  28.272  29.564  1.00  0.00     0.049 A 
ATOM     14  N   UNL A   1      42.849  29.155  28.803  1.00  0.00    -0.248 NA
ATOM     15  C   UNL A   1      41.851  28.887  26.731  1.00  0.00     0.031 C 
ATOM     16  C   UNL A   1      38.576  27.664  30.037  1.00  0.00     0.029 A 
ATOM     17  N   UNL A   1      39.770  29.519  30.111  1.00  0.00    -0.354 N 
ATOM     18  C   UNL A   1      43.516  29.961  27.879  1.00  0.00     0.074 A 
ATOM     19  C   UNL A   1      42.939  29.650  26.596  1.00  0.00     0.031 C 
ATOM     20  C   UNL A   1      37.781  28.613  30.577  1.00  0.00     0.029 A 
ATOM     21  C   UNL A   1      38.543  29.840  30.675  1.00  0.00     0.049 A 
ATOM     22  H   UNL A   1      40.534  30.139  30.107  1.00  0.00     0.167 HD
ATOM     23  C   UNL A   1      44.358  30.960  28.275  1.00  0.00     0.037 A 
ATOM     24  C   UNL A   1      38.168  31.031  31.199  1.00  0.00     0.037 A 
ATOM     25  C   UNL A   1      44.756  30.790  29.649  1.00  0.00     0.049 A 
ATOM     26  C   UNL A   1      39.405  31.764  31.552  1.00  0.00     0.074 A 
ATOM     27  C   UNL A   1      45.442  29.824  30.358  1.00  0.00     0.029 A 
ATOM     28  N   UNL A   1      44.141  31.570  30.598  1.00  0.00    -0.354 N 
ATOM     29  N   UNL A   1      40.220  31.386  32.498  1.00  0.00    -0.248 NA
ATOM     30  C   UNL A   1      39.975  32.647  30.547  1.00  0.00     0.031 C 
ATOM     31  C   UNL A   1      44.779  29.759  31.619  1.00  0.00     0.029 A 
ATOM     32  C   UNL A   1      43.781  30.734  31.622  1.00  0.00     0.049 A 
ATOM     33  H   UNL A   1      43.989  32.541  30.551  1.00  0.00     0.167 HD
ATOM     34  C   UNL A   1      41.487  31.621  31.986  1.00  0.00     0.074 A 
ATOM     35  C   UNL A   1      41.272  32.476  30.818  1.00  0.00     0.031 C 
ATOM     36  C   UNL A   1      42.563  30.879  32.384  1.00  0.00     0.037 A 
BRANCH  23  37
ATOM     37  C   UNL A   1      44.550  32.283  27.562  1.00  0.00     0.057 A 
ATOM     38  C   UNL A   1      45.647  32.444  26.688  1.00  0.00     0.134 A 
ATOM     39  C   UNL A   1      43.909  33.482  27.930  1.00  0.00     0.134 A 
ATOM     40  F   UNL A   1      46.342  31.383  26.248  1.00  0.00    -0.206 F 
ATOM     41  C   UNL A   1      46.132  33.701  26.305  1.00  0.00     0.040 A 
ATOM     42  C   UNL A   1      44.357  34.741  27.514  1.00  0.00     0.040 A 
ATOM     43  F   UNL A   1      42.881  33.512  28.783  1.00  0.00    -0.206 F 
ATOM     44  C   UNL A   1      45.496  34.857  26.733  1.00  0.00     0.006 A 
ENDBRANCH  23  37
BRANCH  24  45
ATOM     45  C   UNL A   1      36.840  31.674  31.097  1.00  0.00     0.057 A 
ATOM     46  C   UNL A   1      36.070  31.950  32.232  1.00  0.00     0.134 A 
ATOM     47  C   UNL A   1      36.418  32.278  29.898  1.00  0.00     0.134 A 
ATOM     48  F   UNL A   1      36.419  31.451  33.428  1.00  0.00    -0.206 F 
ATOM     49  C   UNL A   1      34.952  32.794  32.185  1.00  0.00     0.040 A 
ATOM     50  C   UNL A   1      35.303  33.121  29.836  1.00  0.00     0.040 A 
ATOM     51  F   UNL A   1      37.125  32.141  28.768  1.00  0.00    -0.206 F 
ATOM     52  C   UNL A   1      34.572  33.392  30.986  1.00  0.00     0.006 A 
ENDBRANCH  24  45
BRANCH  36  53
ATOM     53  C   UNL A   1      42.392  29.943  33.549  1.00  0.00     0.057 A 
ATOM     54  C   UNL A   1      42.009  28.599  33.421  1.00  0.00     0.134 A 
ATOM     55  C   UNL A   1      42.812  30.360  34.816  1.00  0.00     0.134 A 
ATOM     56  F   UNL A   1      41.687  28.080  32.232  1.00  0.00    -0.206 F 
ATOM     57  C   UNL A   1      42.016  27.721  34.511  1.00  0.00     0.040 A 
ATOM     58  C   UNL A   1      42.853  29.487  35.905  1.00  0.00     0.040 A 
ATOM     59  F   UNL A   1      43.250  31.615  35.001  1.00  0.00    -0.206 F 
ATOM     60  C   UNL A   1      42.448  28.163  35.757  1.00  0.00     0.006 A 
ENDBRANCH  36  53
ENDBRANCH  10  11
ENDBRANCH   3   5
ENDBRANCH   2   3
ENDBRANCH   1   2
BRANCH   1  61
ATOM     61  C   UNL A   1      37.486  21.642  25.129  1.00  0.00     0.274 C 
BRANCH  61  62
ATOM     62  O   UNL A   1      36.365  21.595  26.034  1.00  0.00    -0.462 OA
BRANCH  62  63
ATOM     63  C   UNL A   1      35.303  22.378  25.706  1.00  0.00     0.312 C 
ATOM     64  O   UNL A   1      34.548  22.913  26.509  1.00  0.00    -0.252 OA
BRANCH  63  65
ATOM     65  C   UNL A   1      35.065  22.371  24.224  1.00  0.00     0.143 C 
ATOM     66  C   UNL A   1      33.826  21.598  23.711  1.00  0.00     0.126 C 
ATOM     67  C   UNL A   1      34.866  23.759  23.619  1.00  0.00     0.133 C 
ATOM     68  C   UNL A   1      33.102  22.703  22.915  1.00  0.00     0.132 C 
ATOM     69  C   UNL A   1      33.731  24.542  24.264  1.00  0.00     0.036 C 
ATOM     70  O   UNL A   1      34.247  23.407  22.354  1.00  0.00    -0.373 OA
ATOM     71  C   UNL A   1      32.495  23.811  23.776  1.00  0.00     0.035 C 
BRANCH  66  72
ATOM     72  C   UNL A   1      32.863  20.852  24.617  1.00  0.00     0.253 C 
ATOM     73  O   UNL A   1      31.832  21.345  25.064  1.00  0.00    -0.272 OA
BRANCH  72  74
ATOM     74  N   UNL A   1      33.096  19.463  24.780  1.00  0.00    -0.206 N 
ATOM     75  C   UNL A   1      34.222  18.705  24.516  1.00  0.00     0.138 A 
ATOM     76  N   UNL A   1      32.073  18.668  25.215  1.00  0.00    -0.172 NA
ATOM     77  C   UNL A   1      33.944  17.424  24.923  1.00  0.00     0.079 A 
ATOM     78  C   UNL A   1      32.601  17.448  25.307  1.00  0.00     0.156 A 
ATOM     79  Cl  UNL A   1      34.982  16.091  24.945  1.00  0.00    -0.081 Cl
ENDBRANCH  72  74
ENDBRANCH  66  72
ENDBRANCH  63  65
ENDBRANCH  62  63
ENDBRANCH  61  62
ENDBRANCH   1  61
TORSDOF 13
ENDMDL
