MODEL 1
REMARK VINA RESULT:     -12.9      0.000      0.000
REMARK SMILES CC(C)N1C(=O)C[C@@H]([N@@H+]2CC[C@H](C(=O)OCCOC(=O)c3ccc(-c4c5nc(c(-c6c(F)cccc6F)c6ccc([nH]6)c(-c6c(F)cccc6F)c6nc(c(-c7c(F)cccc7F)c7ccc4[nH]7)C=C6)C=C5)cc3)[C@@H]2C)C1=O
REMARK SMILES IDX 16 1 15 2 13 3 14 4 12 5 9 6 10 7 75 8 11 10 76 11 8 12 4 13
REMARK SMILES IDX 5 14 77 15 6 16 7 17 78 18 2 19 1 20 3 21 17 22 18 23 19 24
REMARK SMILES IDX 20 25 21 26 22 27 74 28 23 29 73 30 24 31 25 32 26 33 67 34
REMARK SMILES IDX 27 35 72 36 66 37 68 38 28 39 71 40 65 41 64 42 29 44 55 45
REMARK SMILES IDX 38 46 54 47 39 48 42 49 53 50 69 51 40 52 41 53 52 55 70 56
REMARK SMILES IDX 43 57 30 58 31 59 36 60 32 61 33 62 35 63 37 64 34 65 56 66
REMARK SMILES IDX 57 67 62 68 58 69 59 70 61 71 63 72 60 73 44 74 45 75 50 76
REMARK SMILES IDX 46 77 47 78 49 79 51 80 48 81
REMARK H PARENT 9 9 68 43 42 54
REMARK Flexibility Score: inf
ROOT
ATOM      1  C   UNL A   1      34.380  21.755  24.300  1.00  0.00     0.274 C 
ENDROOT
BRANCH   1   2
ATOM      2  O   UNL A   1      34.658  23.142  24.672  1.00  0.00    -0.462 OA
BRANCH   2   3
ATOM      3  C   UNL A   1      33.668  23.780  25.362  1.00  0.00     0.315 C 
ATOM      4  O   UNL A   1      33.897  24.739  26.096  1.00  0.00    -0.252 OA
BRANCH   3   5
ATOM      5  C   UNL A   1      32.275  23.132  25.280  1.00  0.00     0.162 C 
ATOM      6  N   UNL A   1      30.204  24.393  25.516  1.00  0.00    -0.321 N 
ATOM      7  C   UNL A   1      30.278  23.557  26.710  1.00  0.00     0.264 C 
ATOM      8  C   UNL A   1      31.067  23.735  24.515  1.00  0.00     0.196 C 
ATOM      9  H   UNL A   1      29.382  24.671  24.980  1.00  0.00     0.349 HD
ATOM     10  C   UNL A   1      31.693  22.961  26.704  1.00  0.00     0.083 C 
ATOM     11  C   UNL A   1      31.338  24.217  23.099  1.00  0.00     0.076 C 
BRANCH   6  12
ATOM     12  C   UNL A   1      29.641  25.812  25.569  1.00  0.00     0.284 C 
ATOM     13  N   UNL A   1      31.268  28.113  24.364  1.00  0.00    -0.275 N 
ATOM     14  C   UNL A   1      29.982  27.940  23.048  1.00  0.00     0.236 C 
ATOM     15  C   UNL A   1      31.099  27.122  25.816  1.00  0.00     0.288 C 
ATOM     16  O   UNL A   1      30.059  28.615  22.017  1.00  0.00    -0.274 OA
ATOM     17  C   UNL A   1      28.705  26.326  23.879  1.00  0.00     0.176 C 
ATOM     18  O   UNL A   1      31.836  27.189  26.792  1.00  0.00    -0.267 OA
BRANCH  13  19
ATOM     19  C   UNL A   1      32.546  28.828  24.205  1.00  0.00     0.087 C 
ATOM     20  C   UNL A   1      32.906  29.752  25.372  1.00  0.00     0.031 C 
ATOM     21  C   UNL A   1      33.750  27.933  23.912  1.00  0.00     0.031 C 
ENDBRANCH  13  19
ENDBRANCH   6  12
ENDBRANCH   3   5
ENDBRANCH   2   3
ENDBRANCH   1   2
BRANCH   1  22
ATOM     22  C   UNL A   1      35.098  20.756  25.218  1.00  0.00     0.275 C 
BRANCH  22  23
ATOM     23  O   UNL A   1      36.315  21.367  25.687  1.00  0.00    -0.458 OA
BRANCH  23  24
ATOM     24  C   UNL A   1      37.468  20.702  25.442  1.00  0.00     0.338 C 
ATOM     25  O   UNL A   1      37.595  19.613  24.909  1.00  0.00    -0.246 OA
BRANCH  24  26
ATOM     26  C   UNL A   1      38.605  21.643  25.625  1.00  0.00     0.060 A 
ATOM     27  C   UNL A   1      39.916  20.935  26.320  1.00  0.00     0.016 A 
ATOM     28  C   UNL A   1      38.261  23.296  25.719  1.00  0.00     0.016 A 
ATOM     29  C   UNL A   1      40.899  21.893  27.335  1.00  0.00     0.010 A 
ATOM     30  C   UNL A   1      39.190  24.449  26.533  1.00  0.00     0.010 A 
ATOM     31  C   UNL A   1      40.553  23.898  27.495  1.00  0.00    -0.014 A 
BRANCH  31  32
ATOM     32  C   UNL A   1      41.337  25.357  27.894  1.00  0.00     0.031 A 
ATOM     33  C   UNL A   1      40.648  26.453  28.725  1.00  0.00     0.074 A 
ATOM     34  C   UNL A   1      42.295  25.991  27.142  1.00  0.00     0.049 A 
ATOM     35  N   UNL A   1      41.075  27.675  28.973  1.00  0.00    -0.248 NA
ATOM     36  C   UNL A   1      39.277  26.216  29.182  1.00  0.00     0.031 C 
ATOM     37  C   UNL A   1      42.607  25.711  25.757  1.00  0.00     0.029 A 
ATOM     38  N   UNL A   1      43.249  26.967  27.443  1.00  0.00    -0.354 N 
ATOM     39  C   UNL A   1      40.011  28.377  29.515  1.00  0.00     0.074 A 
ATOM     40  C   UNL A   1      38.911  27.431  29.581  1.00  0.00     0.031 C 
ATOM     41  C   UNL A   1      43.848  26.142  25.472  1.00  0.00     0.029 A 
ATOM     42  C   UNL A   1      44.335  26.963  26.565  1.00  0.00     0.049 A 
ATOM     43  H   UNL A   1      43.166  27.592  28.199  1.00  0.00     0.167 HD
ATOM     44  C   UNL A   1      39.941  29.684  29.890  1.00  0.00     0.037 A 
ATOM     45  C   UNL A   1      45.547  27.579  26.585  1.00  0.00     0.037 A 
ATOM     46  C   UNL A   1      41.018  30.652  29.811  1.00  0.00     0.049 A 
ATOM     47  C   UNL A   1      45.601  28.884  27.322  1.00  0.00     0.074 A 
ATOM     48  C   UNL A   1      41.042  31.946  30.317  1.00  0.00     0.029 A 
ATOM     49  N   UNL A   1      42.241  30.467  29.177  1.00  0.00    -0.354 N 
ATOM     50  N   UNL A   1      44.629  29.470  27.971  1.00  0.00    -0.248 NA
ATOM     51  C   UNL A   1      46.815  29.708  27.190  1.00  0.00     0.031 C 
ATOM     52  C   UNL A   1      42.256  32.549  29.972  1.00  0.00     0.029 A 
ATOM     53  C   UNL A   1      43.026  31.613  29.308  1.00  0.00     0.049 A 
ATOM     54  H   UNL A   1      42.513  29.647  28.706  1.00  0.00     0.167 HD
ATOM     55  C   UNL A   1      45.080  30.741  28.265  1.00  0.00     0.074 A 
ATOM     56  C   UNL A   1      46.443  30.832  27.787  1.00  0.00     0.031 C 
ATOM     57  C   UNL A   1      44.383  31.746  28.842  1.00  0.00     0.037 A 
BRANCH  44  58
ATOM     58  C   UNL A   1      38.637  30.161  30.479  1.00  0.00     0.057 A 
ATOM     59  C   UNL A   1      38.372  30.043  31.850  1.00  0.00     0.134 A 
ATOM     60  C   UNL A   1      37.678  30.820  29.696  1.00  0.00     0.134 A 
ATOM     61  F   UNL A   1      39.248  29.428  32.660  1.00  0.00    -0.206 F 
ATOM     62  C   UNL A   1      37.193  30.531  32.415  1.00  0.00     0.040 A 
ATOM     63  C   UNL A   1      36.508  31.341  30.256  1.00  0.00     0.040 A 
ATOM     64  F   UNL A   1      37.870  30.991  28.379  1.00  0.00    -0.206 F 
ATOM     65  C   UNL A   1      36.260  31.190  31.619  1.00  0.00     0.006 A 
ENDBRANCH  44  58
BRANCH  45  66
ATOM     66  C   UNL A   1      46.752  27.129  25.800  1.00  0.00     0.057 A 
ATOM     67  C   UNL A   1      47.704  26.267  26.384  1.00  0.00     0.134 A 
ATOM     68  C   UNL A   1      47.041  27.553  24.499  1.00  0.00     0.134 A 
ATOM     69  F   UNL A   1      47.573  25.881  27.663  1.00  0.00    -0.206 F 
ATOM     70  C   UNL A   1      48.851  25.831  25.703  1.00  0.00     0.040 A 
ATOM     71  C   UNL A   1      48.145  27.071  23.782  1.00  0.00     0.040 A 
ATOM     72  F   UNL A   1      46.282  28.478  23.899  1.00  0.00    -0.206 F 
ATOM     73  C   UNL A   1      49.057  26.209  24.382  1.00  0.00     0.006 A 
ENDBRANCH  45  66
BRANCH  57  74
ATOM     74  C   UNL A   1      45.140  33.017  29.085  1.00  0.00     0.057 A 
ATOM     75  C   UNL A   1      45.900  33.242  30.240  1.00  0.00     0.134 A 
ATOM     76  C   UNL A   1      45.030  34.070  28.169  1.00  0.00     0.134 A 
ATOM     77  F   UNL A   1      46.026  32.283  31.172  1.00  0.00    -0.206 F 
ATOM     78  C   UNL A   1      46.488  34.484  30.496  1.00  0.00     0.040 A 
ATOM     79  C   UNL A   1      45.631  35.307  28.402  1.00  0.00     0.040 A 
ATOM     80  F   UNL A   1      44.314  33.921  27.045  1.00  0.00    -0.206 F 
ATOM     81  C   UNL A   1      46.350  35.522  29.575  1.00  0.00     0.006 A 
ENDBRANCH  57  74
ENDBRANCH  31  32
ENDBRANCH  24  26
ENDBRANCH  23  24
ENDBRANCH  22  23
ENDBRANCH   1  22
TORSDOF 13
ENDMDL
MODEL 2
REMARK VINA RESULT:     -12.7      3.687      8.805
REMARK SMILES CC(C)N1C(=O)C[C@@H]([N@@H+]2CC[C@H](C(=O)OCCOC(=O)c3ccc(-c4c5nc(c(-c6c(F)cccc6F)c6ccc([nH]6)c(-c6c(F)cccc6F)c6nc(c(-c7c(F)cccc7F)c7ccc4[nH]7)C=C6)C=C5)cc3)[C@@H]2C)C1=O
REMARK SMILES IDX 16 1 15 2 13 3 14 4 12 5 9 6 10 7 75 8 11 10 76 11 8 12 4 13
REMARK SMILES IDX 5 14 77 15 6 16 7 17 78 18 2 19 1 20 3 21 17 22 18 23 19 24
REMARK SMILES IDX 20 25 21 26 22 27 74 28 23 29 73 30 24 31 25 32 26 33 67 34
REMARK SMILES IDX 27 35 72 36 66 37 68 38 28 39 71 40 65 41 64 42 29 44 55 45
REMARK SMILES IDX 38 46 54 47 39 48 42 49 53 50 69 51 40 52 41 53 52 55 70 56
REMARK SMILES IDX 43 57 30 58 31 59 36 60 32 61 33 62 35 63 37 64 34 65 56 66
REMARK SMILES IDX 57 67 62 68 58 69 59 70 61 71 63 72 60 73 44 74 45 75 50 76
REMARK SMILES IDX 46 77 47 78 49 79 51 80 48 81
REMARK H PARENT 9 9 68 43 42 54
REMARK Flexibility Score: inf
ROOT
ATOM      1  C   UNL A   1      31.050  27.994  25.262  1.00  0.00     0.274 C 
ENDROOT
BRANCH   1   2
ATOM      2  O   UNL A   1      32.232  27.195  25.586  1.00  0.00    -0.462 OA
BRANCH   2   3
ATOM      3  C   UNL A   1      32.848  26.592  24.527  1.00  0.00     0.315 C 
ATOM      4  O   UNL A   1      34.068  26.452  24.473  1.00  0.00    -0.252 OA
BRANCH   3   5
ATOM      5  C   UNL A   1      31.934  26.234  23.341  1.00  0.00     0.162 C 
ATOM      6  N   UNL A   1      32.292  24.281  21.929  1.00  0.00    -0.321 N 
ATOM      7  C   UNL A   1      32.579  25.427  21.073  1.00  0.00     0.264 C 
ATOM      8  C   UNL A   1      31.436  24.801  23.016  1.00  0.00     0.196 C 
ATOM      9  H   UNL A   1      31.855  23.393  21.683  1.00  0.00     0.349 HD
ATOM     10  C   UNL A   1      32.618  26.640  22.014  1.00  0.00     0.083 C 
ATOM     11  C   UNL A   1      30.869  24.003  24.179  1.00  0.00     0.076 C 
BRANCH   6  12
ATOM     12  C   UNL A   1      33.091  22.984  21.823  1.00  0.00     0.284 C 
ATOM     13  N   UNL A   1      34.353  21.793  24.350  1.00  0.00    -0.275 N 
ATOM     14  C   UNL A   1      32.937  20.622  24.147  1.00  0.00     0.236 C 
ATOM     15  C   UNL A   1      34.607  23.005  23.090  1.00  0.00     0.288 C 
ATOM     16  O   UNL A   1      32.724  19.758  25.003  1.00  0.00    -0.274 OA
ATOM     17  C   UNL A   1      31.998  21.373  22.281  1.00  0.00     0.176 C 
ATOM     18  O   UNL A   1      35.545  23.792  23.063  1.00  0.00    -0.267 OA
BRANCH  13  19
ATOM     19  C   UNL A   1      35.140  21.958  25.584  1.00  0.00     0.087 C 
ATOM     20  C   UNL A   1      34.327  21.833  26.876  1.00  0.00     0.031 C 
ATOM     21  C   UNL A   1      36.359  21.042  25.694  1.00  0.00     0.031 C 
ENDBRANCH  13  19
ENDBRANCH   6  12
ENDBRANCH   3   5
ENDBRANCH   2   3
ENDBRANCH   1   2
BRANCH   1  22
ATOM     22  C   UNL A   1      31.420  29.383  24.725  1.00  0.00     0.275 C 
BRANCH  22  23
ATOM     23  O   UNL A   1      32.500  29.904  25.525  1.00  0.00    -0.458 OA
BRANCH  23  24
ATOM     24  C   UNL A   1      32.219  30.968  26.313  1.00  0.00     0.338 C 
ATOM     25  O   UNL A   1      31.188  31.617  26.341  1.00  0.00    -0.246 OA
BRANCH  24  26
ATOM     26  C   UNL A   1      33.242  31.041  27.390  1.00  0.00     0.060 A 
ATOM     27  C   UNL A   1      33.709  32.581  27.726  1.00  0.00     0.016 A 
ATOM     28  C   UNL A   1      34.206  29.679  27.664  1.00  0.00     0.016 A 
ATOM     29  C   UNL A   1      35.321  32.838  28.225  1.00  0.00     0.010 A 
ATOM     30  C   UNL A   1      35.769  29.693  28.305  1.00  0.00     0.010 A 
ATOM     31  C   UNL A   1      36.544  31.245  28.585  1.00  0.00    -0.014 A 
BRANCH  31  32
ATOM     32  C   UNL A   1      37.939  30.808  29.460  1.00  0.00     0.031 A 
ATOM     33  C   UNL A   1      39.020  29.887  28.867  1.00  0.00     0.074 A 
ATOM     34  C   UNL A   1      38.029  30.676  30.823  1.00  0.00     0.049 A 
ATOM     35  N   UNL A   1      40.058  29.352  29.479  1.00  0.00    -0.248 NA
ATOM     36  C   UNL A   1      38.828  29.382  27.505  1.00  0.00     0.031 C 
ATOM     37  C   UNL A   1      36.914  30.592  31.741  1.00  0.00     0.029 A 
ATOM     38  N   UNL A   1      39.111  30.655  31.708  1.00  0.00    -0.354 N 
ATOM     39  C   UNL A   1      40.579  28.388  28.631  1.00  0.00     0.074 A 
ATOM     40  C   UNL A   1      39.749  28.425  27.440  1.00  0.00     0.031 C 
ATOM     41  C   UNL A   1      37.312  30.937  32.978  1.00  0.00     0.029 A 
ATOM     42  C   UNL A   1      38.761  31.016  33.012  1.00  0.00     0.049 A 
ATOM     43  H   UNL A   1      40.027  30.414  31.440  1.00  0.00     0.167 HD
ATOM     44  C   UNL A   1      41.621  27.536  28.831  1.00  0.00     0.037 A 
ATOM     45  C   UNL A   1      39.491  31.315  34.119  1.00  0.00     0.037 A 
ATOM     46  C   UNL A   1      42.449  27.465  30.021  1.00  0.00     0.049 A 
ATOM     47  C   UNL A   1      40.838  30.662  34.206  1.00  0.00     0.074 A 
ATOM     48  C   UNL A   1      43.608  26.724  30.212  1.00  0.00     0.029 A 
ATOM     49  N   UNL A   1      42.213  28.123  31.222  1.00  0.00    -0.354 N 
ATOM     50  N   UNL A   1      41.396  29.874  33.325  1.00  0.00    -0.248 NA
ATOM     51  C   UNL A   1      41.579  30.760  35.475  1.00  0.00     0.031 C 
ATOM     52  C   UNL A   1      44.057  26.908  31.524  1.00  0.00     0.029 A 
ATOM     53  C   UNL A   1      43.220  27.820  32.139  1.00  0.00     0.049 A 
ATOM     54  H   UNL A   1      41.448  28.715  31.400  1.00  0.00     0.167 HD
ATOM     55  C   UNL A   1      42.505  29.334  33.945  1.00  0.00     0.074 A 
ATOM     56  C   UNL A   1      42.591  29.931  35.261  1.00  0.00     0.031 C 
ATOM     57  C   UNL A   1      43.339  28.388  33.458  1.00  0.00     0.037 A 
BRANCH  44  58
ATOM     58  C   UNL A   1      41.974  26.604  27.699  1.00  0.00     0.057 A 
ATOM     59  C   UNL A   1      42.872  26.989  26.694  1.00  0.00     0.134 A 
ATOM     60  C   UNL A   1      41.489  25.289  27.654  1.00  0.00     0.134 A 
ATOM     61  F   UNL A   1      43.380  28.231  26.677  1.00  0.00    -0.206 F 
ATOM     62  C   UNL A   1      43.250  26.117  25.673  1.00  0.00     0.040 A 
ATOM     63  C   UNL A   1      41.884  24.396  26.655  1.00  0.00     0.040 A 
ATOM     64  F   UNL A   1      40.642  24.840  28.593  1.00  0.00    -0.206 F 
ATOM     65  C   UNL A   1      42.762  24.812  25.656  1.00  0.00     0.006 A 
ENDBRANCH  44  58
BRANCH  45  66
ATOM     66  C   UNL A   1      38.978  32.099  35.299  1.00  0.00     0.057 A 
ATOM     67  C   UNL A   1      38.353  31.439  36.379  1.00  0.00     0.134 A 
ATOM     68  C   UNL A   1      39.031  33.493  35.395  1.00  0.00     0.134 A 
ATOM     69  F   UNL A   1      38.162  30.111  36.341  1.00  0.00    -0.206 F 
ATOM     70  C   UNL A   1      37.846  32.123  37.494  1.00  0.00     0.040 A 
ATOM     71  C   UNL A   1      38.592  34.184  36.533  1.00  0.00     0.040 A 
ATOM     72  F   UNL A   1      39.476  34.230  34.370  1.00  0.00    -0.206 F 
ATOM     73  C   UNL A   1      37.995  33.501  37.587  1.00  0.00     0.006 A 
ENDBRANCH  45  66
BRANCH  57  74
ATOM     74  C   UNL A   1      44.497  28.016  34.335  1.00  0.00     0.057 A 
ATOM     75  C   UNL A   1      45.728  28.683  34.293  1.00  0.00     0.134 A 
ATOM     76  C   UNL A   1      44.392  26.905  35.181  1.00  0.00     0.134 A 
ATOM     77  F   UNL A   1      45.905  29.739  33.484  1.00  0.00    -0.206 F 
ATOM     78  C   UNL A   1      46.827  28.231  35.029  1.00  0.00     0.040 A 
ATOM     79  C   UNL A   1      45.474  26.458  35.938  1.00  0.00     0.040 A 
ATOM     80  F   UNL A   1      43.241  26.221  35.264  1.00  0.00    -0.206 F 
ATOM     81  C   UNL A   1      46.701  27.112  35.852  1.00  0.00     0.006 A 
ENDBRANCH  57  74
ENDBRANCH  31  32
ENDBRANCH  24  26
ENDBRANCH  23  24
ENDBRANCH  22  23
ENDBRANCH   1  22
TORSDOF 13
ENDMDL
MODEL 3
REMARK VINA RESULT:     -12.3      1.284      2.115
REMARK SMILES CC(C)N1C(=O)C[C@@H]([N@@H+]2CC[C@H](C(=O)OCCOC(=O)c3ccc(-c4c5nc(c(-c6c(F)cccc6F)c6ccc([nH]6)c(-c6c(F)cccc6F)c6nc(c(-c7c(F)cccc7F)c7ccc4[nH]7)C=C6)C=C5)cc3)[C@@H]2C)C1=O
REMARK SMILES IDX 16 1 15 2 13 3 14 4 12 5 9 6 10 7 75 8 11 10 76 11 8 12 4 13
REMARK SMILES IDX 5 14 77 15 6 16 7 17 78 18 2 19 1 20 3 21 17 22 18 23 19 24
REMARK SMILES IDX 20 25 21 26 22 27 74 28 23 29 73 30 24 31 25 32 26 33 67 34
REMARK SMILES IDX 27 35 72 36 66 37 68 38 28 39 71 40 65 41 64 42 29 44 55 45
REMARK SMILES IDX 38 46 54 47 39 48 42 49 53 50 69 51 40 52 41 53 52 55 70 56
REMARK SMILES IDX 43 57 30 58 31 59 36 60 32 61 33 62 35 63 37 64 34 65 56 66
REMARK SMILES IDX 57 67 62 68 58 69 59 70 61 71 63 72 60 73 44 74 45 75 50 76
REMARK SMILES IDX 46 77 47 78 49 79 51 80 48 81
REMARK H PARENT 9 9 68 43 42 54
REMARK Flexibility Score: inf
ROOT
ATOM      1  C   UNL A   1      33.950  21.897  24.541  1.00  0.00     0.274 C 
ENDROOT
BRANCH   1   2
ATOM      2  O   UNL A   1      33.170  22.135  23.327  1.00  0.00    -0.462 OA
BRANCH   2   3
ATOM      3  C   UNL A   1      32.311  23.194  23.373  1.00  0.00     0.315 C 
ATOM      4  O   UNL A   1      31.101  23.048  23.539  1.00  0.00    -0.252 OA
BRANCH   3   5
ATOM      5  C   UNL A   1      32.929  24.568  23.056  1.00  0.00     0.162 C 
ATOM      6  N   UNL A   1      31.909  26.673  23.735  1.00  0.00    -0.321 N 
ATOM      7  C   UNL A   1      31.786  26.643  22.281  1.00  0.00     0.264 C 
ATOM      8  C   UNL A   1      33.013  25.747  24.060  1.00  0.00     0.196 C 
ATOM      9  H   UNL A   1      32.078  27.473  24.345  1.00  0.00     0.349 HD
ATOM     10  C   UNL A   1      32.178  25.217  21.869  1.00  0.00     0.083 C 
ATOM     11  C   UNL A   1      33.534  25.415  25.449  1.00  0.00     0.076 C 
BRANCH   6  12
ATOM     12  C   UNL A   1      30.813  27.268  24.617  1.00  0.00     0.284 C 
ATOM     13  N   UNL A   1      29.147  29.612  23.557  1.00  0.00    -0.275 N 
ATOM     14  C   UNL A   1      27.899  28.259  23.382  1.00  0.00     0.236 C 
ATOM     15  C   UNL A   1      30.685  29.219  24.331  1.00  0.00     0.288 C 
ATOM     16  O   UNL A   1      26.810  28.490  22.848  1.00  0.00    -0.274 OA
ATOM     17  C   UNL A   1      29.007  26.519  24.201  1.00  0.00     0.176 C 
ATOM     18  O   UNL A   1      31.567  30.033  24.575  1.00  0.00    -0.267 OA
BRANCH  13  19
ATOM     19  C   UNL A   1      29.065  30.925  22.893  1.00  0.00     0.087 C 
ATOM     20  C   UNL A   1      28.948  30.858  21.368  1.00  0.00     0.031 C 
ATOM     21  C   UNL A   1      27.962  31.842  23.420  1.00  0.00     0.031 C 
ENDBRANCH  13  19
ENDBRANCH   6  12
ENDBRANCH   3   5
ENDBRANCH   2   3
ENDBRANCH   1   2
BRANCH   1  22
ATOM     22  C   UNL A   1      35.459  22.028  24.295  1.00  0.00     0.275 C 
BRANCH  22  23
ATOM     23  O   UNL A   1      36.148  21.691  25.514  1.00  0.00    -0.458 OA
BRANCH  23  24
ATOM     24  C   UNL A   1      37.284  20.966  25.396  1.00  0.00     0.338 C 
ATOM     25  O   UNL A   1      37.399  19.840  24.941  1.00  0.00    -0.246 OA
BRANCH  24  26
ATOM     26  C   UNL A   1      38.446  21.869  25.605  1.00  0.00     0.060 A 
ATOM     27  C   UNL A   1      39.729  21.110  26.300  1.00  0.00     0.016 A 
ATOM     28  C   UNL A   1      38.151  23.530  25.724  1.00  0.00     0.016 A 
ATOM     29  C   UNL A   1      40.731  22.022  27.340  1.00  0.00     0.010 A 
ATOM     30  C   UNL A   1      39.106  24.641  26.565  1.00  0.00     0.010 A 
ATOM     31  C   UNL A   1      40.443  24.033  27.530  1.00  0.00    -0.014 A 
BRANCH  31  32
ATOM     32  C   UNL A   1      41.267  25.461  27.960  1.00  0.00     0.031 A 
ATOM     33  C   UNL A   1      40.601  26.566  28.799  1.00  0.00     0.074 A 
ATOM     34  C   UNL A   1      42.254  26.076  27.230  1.00  0.00     0.049 A 
ATOM     35  N   UNL A   1      41.063  27.771  29.070  1.00  0.00    -0.248 NA
ATOM     36  C   UNL A   1      39.217  26.366  29.234  1.00  0.00     0.031 C 
ATOM     37  C   UNL A   1      42.576  25.806  25.846  1.00  0.00     0.029 A 
ATOM     38  N   UNL A   1      43.233  27.017  27.558  1.00  0.00    -0.354 N 
ATOM     39  C   UNL A   1      40.013  28.498  29.608  1.00  0.00     0.074 A 
ATOM     40  C   UNL A   1      38.884  27.585  29.647  1.00  0.00     0.031 C 
ATOM     41  C   UNL A   1      43.833  26.202  25.583  1.00  0.00     0.029 A 
ATOM     42  C   UNL A   1      44.330  26.992  26.694  1.00  0.00     0.049 A 
ATOM     43  H   UNL A   1      43.160  27.634  28.322  1.00  0.00     0.167 HD
ATOM     44  C   UNL A   1      39.979  29.801  30.002  1.00  0.00     0.037 A 
ATOM     45  C   UNL A   1      45.560  27.569  26.739  1.00  0.00     0.037 A 
ATOM     46  C   UNL A   1      41.086  30.736  29.951  1.00  0.00     0.049 A 
ATOM     47  C   UNL A   1      45.646  28.861  27.495  1.00  0.00     0.074 A 
ATOM     48  C   UNL A   1      41.144  32.021  30.476  1.00  0.00     0.029 A 
ATOM     49  N   UNL A   1      42.311  30.521  29.331  1.00  0.00    -0.354 N 
ATOM     50  N   UNL A   1      44.683  29.468  28.140  1.00  0.00    -0.248 NA
ATOM     51  C   UNL A   1      46.886  29.648  27.391  1.00  0.00     0.031 C 
ATOM     52  C   UNL A   1      42.381  32.591  30.155  1.00  0.00     0.029 A 
ATOM     53  C   UNL A   1      43.130  31.641  29.488  1.00  0.00     0.049 A 
ATOM     54  H   UNL A   1      42.564  29.701  28.850  1.00  0.00     0.167 HD
ATOM     55  C   UNL A   1      45.169  30.720  28.458  1.00  0.00     0.074 A 
ATOM     56  C   UNL A   1      46.541  30.775  28.000  1.00  0.00     0.031 C 
ATOM     57  C   UNL A   1      44.497  31.737  29.042  1.00  0.00     0.037 A 
BRANCH  44  58
ATOM     58  C   UNL A   1      38.682  30.309  30.581  1.00  0.00     0.057 A 
ATOM     59  C   UNL A   1      37.711  30.909  29.769  1.00  0.00     0.134 A 
ATOM     60  C   UNL A   1      38.360  30.121  31.933  1.00  0.00     0.134 A 
ATOM     61  F   UNL A   1      37.948  31.115  28.464  1.00  0.00    -0.206 F 
ATOM     62  C   UNL A   1      36.484  31.332  30.282  1.00  0.00     0.040 A 
ATOM     63  C   UNL A   1      37.123  30.512  32.452  1.00  0.00     0.040 A 
ATOM     64  F   UNL A   1      39.231  29.535  32.769  1.00  0.00    -0.206 F 
ATOM     65  C   UNL A   1      36.183  31.127  31.626  1.00  0.00     0.006 A 
ENDBRANCH  44  58
BRANCH  45  66
ATOM     66  C   UNL A   1      46.761  27.093  25.962  1.00  0.00     0.057 A 
ATOM     67  C   UNL A   1      47.742  26.291  26.584  1.00  0.00     0.134 A 
ATOM     68  C   UNL A   1      47.020  27.437  24.632  1.00  0.00     0.134 A 
ATOM     69  F   UNL A   1      47.641  25.987  27.888  1.00  0.00    -0.206 F 
ATOM     70  C   UNL A   1      48.886  25.834  25.912  1.00  0.00     0.040 A 
ATOM     71  C   UNL A   1      48.121  26.931  23.927  1.00  0.00     0.040 A 
ATOM     72  F   UNL A   1      46.230  28.304  23.987  1.00  0.00    -0.206 F 
ATOM     73  C   UNL A   1      49.061  26.129  24.566  1.00  0.00     0.006 A 
ENDBRANCH  45  66
BRANCH  57  74
ATOM     74  C   UNL A   1      45.289  32.981  29.313  1.00  0.00     0.057 A 
ATOM     75  C   UNL A   1      46.003  33.185  30.501  1.00  0.00     0.134 A 
ATOM     76  C   UNL A   1      45.263  34.031  28.387  1.00  0.00     0.134 A 
ATOM     77  F   UNL A   1      46.048  32.229  31.444  1.00  0.00    -0.206 F 
ATOM     78  C   UNL A   1      46.624  34.406  30.777  1.00  0.00     0.040 A 
ATOM     79  C   UNL A   1      45.898  35.245  28.641  1.00  0.00     0.040 A 
ATOM     80  F   UNL A   1      44.594  33.901  27.231  1.00  0.00    -0.206 F 
ATOM     81  C   UNL A   1      46.569  35.442  29.846  1.00  0.00     0.006 A 
ENDBRANCH  57  74
ENDBRANCH  31  32
ENDBRANCH  24  26
ENDBRANCH  23  24
ENDBRANCH  22  23
ENDBRANCH   1  22
TORSDOF 13
ENDMDL
