MODEL 1
REMARK VINA RESULT:     -11.3      0.000      0.000
REMARK SMILES CC(C)C[C@H](NC(=O)[C@H](Cc1ccccc1)NC(=O)CNC(=O)CNC(=O)OCc1ccccc1)C(=O)OCCOC(=O)c1ccc(-c2c3nc(c(-c4c(F)cccc4F)c4ccc([nH]4)c(-c4c(F)cccc4F)c4nc(c(-c5c(F)cccc5F)c5ccc2[nH]5)C=C4)C=C3)cc1
REMARK SMILES IDX 6 1 7 2 8 3 5 5 4 6 2 7 1 8 3 9 36 10 37 11 38 12 39 13
REMARK SMILES IDX 40 14 41 15 42 16 43 17 44 18 45 19 97 20 46 21 96 22 47 23
REMARK SMILES IDX 48 24 49 25 90 26 50 27 95 28 89 29 91 30 51 31 94 32 88 33
REMARK SMILES IDX 87 34 52 36 78 37 61 38 77 39 62 40 65 41 76 42 92 43 63 44
REMARK SMILES IDX 64 45 75 47 93 48 66 49 53 50 54 51 59 52 55 53 56 54 58 55
REMARK SMILES IDX 60 56 57 57 79 58 80 59 85 60 81 61 82 62 84 63 86 64 83 65
REMARK SMILES IDX 67 66 68 67 73 68 69 69 70 70 72 71 74 72 71 73 9 74 17 75
REMARK SMILES IDX 18 76 19 78 20 79 21 80 22 81 23 83 24 84 25 85 26 86 27 88
REMARK SMILES IDX 28 89 29 90 30 91 31 92 35 93 32 94 34 95 33 96 10 97 11 98
REMARK SMILES IDX 12 99 16 100 13 101 15 102 14 103
REMARK H PARENT 6 4 91 35 65 46 17 77 21 82 25 87
REMARK Flexibility Score: inf
ROOT
ATOM      1  N   UNL A   1      31.744  24.220  27.051  1.00  0.00    -0.341 N 
ATOM      2  C   UNL A   1      32.445  23.046  26.847  1.00  0.00     0.243 C 
ATOM      3  O   UNL A   1      32.734  22.391  27.857  1.00  0.00    -0.273 OA
ATOM      4  H   UNL A   1      31.347  24.291  27.951  1.00  0.00     0.164 HD
ENDROOT
BRANCH   1   5
ATOM      5  C   UNL A   1      31.471  25.387  26.189  1.00  0.00     0.192 C 
BRANCH   5   6
ATOM      6  C   UNL A   1      30.047  25.471  25.605  1.00  0.00     0.040 C 
BRANCH   6   7
ATOM      7  C   UNL A   1      29.729  25.851  24.146  1.00  0.00    -0.015 C 
ATOM      8  C   UNL A   1      29.801  24.643  23.195  1.00  0.00     0.007 C 
ATOM      9  C   UNL A   1      28.295  26.389  24.036  1.00  0.00     0.007 C 
ENDBRANCH   6   7
ENDBRANCH   5   6
BRANCH   5  10
ATOM     10  C   UNL A   1      31.986  26.798  26.583  1.00  0.00     0.328 C 
ATOM     11  O   UNL A   1      31.554  27.370  27.582  1.00  0.00    -0.250 OA
BRANCH  10  12
ATOM     12  O   UNL A   1      32.920  27.360  25.776  1.00  0.00    -0.461 OA
BRANCH  12  13
ATOM     13  C   UNL A   1      33.823  28.268  26.464  1.00  0.00     0.274 C 
BRANCH  13  14
ATOM     14  C   UNL A   1      33.468  29.742  26.251  1.00  0.00     0.275 C 
BRANCH  14  15
ATOM     15  O   UNL A   1      33.172  30.398  27.491  1.00  0.00    -0.458 OA
BRANCH  15  16
ATOM     16  C   UNL A   1      33.828  31.564  27.666  1.00  0.00     0.338 C 
ATOM     17  O   UNL A   1      33.374  32.694  27.613  1.00  0.00    -0.246 OA
BRANCH  16  18
ATOM     18  C   UNL A   1      35.174  31.284  28.164  1.00  0.00     0.060 A 
ATOM     19  C   UNL A   1      35.364  30.070  28.815  1.00  0.00     0.016 A 
ATOM     20  C   UNL A   1      36.204  32.205  28.082  1.00  0.00     0.016 A 
ATOM     21  C   UNL A   1      36.531  29.762  29.467  1.00  0.00     0.010 A 
ATOM     22  C   UNL A   1      37.418  31.886  28.687  1.00  0.00     0.010 A 
ATOM     23  C   UNL A   1      37.567  30.677  29.399  1.00  0.00    -0.014 A 
BRANCH  23  24
ATOM     24  C   UNL A   1      38.782  30.403  30.170  1.00  0.00     0.031 A 
ATOM     25  C   UNL A   1      39.801  29.504  29.557  1.00  0.00     0.074 A 
ATOM     26  C   UNL A   1      38.942  30.975  31.374  1.00  0.00     0.049 A 
ATOM     27  N   UNL A   1      40.800  28.893  30.123  1.00  0.00    -0.248 NA
ATOM     28  C   UNL A   1      39.653  29.231  28.116  1.00  0.00     0.031 C 
ATOM     29  C   UNL A   1      38.037  31.957  31.980  1.00  0.00     0.029 A 
ATOM     30  N   UNL A   1      39.913  30.790  32.316  1.00  0.00    -0.354 N 
ATOM     31  C   UNL A   1      41.360  28.107  29.126  1.00  0.00     0.074 A 
ATOM     32  C   UNL A   1      40.591  28.317  27.920  1.00  0.00     0.031 C 
ATOM     33  C   UNL A   1      38.486  32.271  33.203  1.00  0.00     0.029 A 
ATOM     34  C   UNL A   1      39.650  31.445  33.493  1.00  0.00     0.049 A 
ATOM     35  H   UNL A   1      40.719  30.244  32.166  1.00  0.00     0.167 HD
ATOM     36  C   UNL A   1      42.418  27.276  29.238  1.00  0.00     0.037 A 
ATOM     37  C   UNL A   1      40.246  31.323  34.690  1.00  0.00     0.037 A 
ATOM     38  C   UNL A   1      43.163  27.132  30.459  1.00  0.00     0.049 A 
ATOM     39  C   UNL A   1      41.379  30.342  34.805  1.00  0.00     0.074 A 
ATOM     40  C   UNL A   1      44.268  26.344  30.709  1.00  0.00     0.029 A 
ATOM     41  N   UNL A   1      42.870  27.809  31.638  1.00  0.00    -0.354 N 
ATOM     42  N   UNL A   1      41.895  29.566  33.881  1.00  0.00    -0.248 NA
ATOM     43  C   UNL A   1      42.004  30.208  36.124  1.00  0.00     0.031 C 
ATOM     44  C   UNL A   1      44.609  26.501  32.056  1.00  0.00     0.029 A 
ATOM     45  C   UNL A   1      43.757  27.434  32.630  1.00  0.00     0.049 A 
ATOM     46  H   UNL A   1      42.139  28.458  31.750  1.00  0.00     0.167 HD
ATOM     47  C   UNL A   1      42.922  28.868  34.497  1.00  0.00     0.074 A 
ATOM     48  C   UNL A   1      42.961  29.327  35.873  1.00  0.00     0.031 C 
ATOM     49  C   UNL A   1      43.757  27.932  33.983  1.00  0.00     0.037 A 
BRANCH  36  50
ATOM     50  C   UNL A   1      42.774  26.438  28.047  1.00  0.00     0.057 A 
ATOM     51  C   UNL A   1      42.240  25.161  27.838  1.00  0.00     0.134 A 
ATOM     52  C   UNL A   1      43.676  26.925  27.091  1.00  0.00     0.134 A 
ATOM     53  F   UNL A   1      41.392  24.624  28.728  1.00  0.00    -0.206 F 
ATOM     54  C   UNL A   1      42.604  24.389  26.733  1.00  0.00     0.040 A 
ATOM     55  C   UNL A   1      44.026  26.175  25.967  1.00  0.00     0.040 A 
ATOM     56  F   UNL A   1      44.234  28.136  27.234  1.00  0.00    -0.206 F 
ATOM     57  C   UNL A   1      43.494  24.900  25.790  1.00  0.00     0.006 A 
ENDBRANCH  36  50
BRANCH  37  58
ATOM     58  C   UNL A   1      39.749  32.092  35.857  1.00  0.00     0.057 A 
ATOM     59  C   UNL A   1      40.320  33.318  36.210  1.00  0.00     0.134 A 
ATOM     60  C   UNL A   1      38.683  31.629  36.643  1.00  0.00     0.134 A 
ATOM     61  F   UNL A   1      41.350  33.809  35.504  1.00  0.00    -0.206 F 
ATOM     62  C   UNL A   1      39.868  34.048  37.310  1.00  0.00     0.040 A 
ATOM     63  C   UNL A   1      38.201  32.362  37.728  1.00  0.00     0.040 A 
ATOM     64  F   UNL A   1      38.081  30.466  36.353  1.00  0.00    -0.206 F 
ATOM     65  C   UNL A   1      38.800  33.572  38.070  1.00  0.00     0.006 A 
ENDBRANCH  37  58
BRANCH  49  66
ATOM     66  C   UNL A   1      44.800  27.382  34.907  1.00  0.00     0.057 A 
ATOM     67  C   UNL A   1      46.039  28.010  35.080  1.00  0.00     0.134 A 
ATOM     68  C   UNL A   1      44.533  26.242  35.675  1.00  0.00     0.134 A 
ATOM     69  F   UNL A   1      46.357  29.097  34.359  1.00  0.00    -0.206 F 
ATOM     70  C   UNL A   1      46.984  27.512  35.974  1.00  0.00     0.040 A 
ATOM     71  C   UNL A   1      45.457  25.754  36.595  1.00  0.00     0.040 A 
ATOM     72  F   UNL A   1      43.358  25.603  35.560  1.00  0.00    -0.206 F 
ATOM     73  C   UNL A   1      46.689  26.387  36.743  1.00  0.00     0.006 A 
ENDBRANCH  49  66
ENDBRANCH  23  24
ENDBRANCH  16  18
ENDBRANCH  15  16
ENDBRANCH  14  15
ENDBRANCH  13  14
ENDBRANCH  12  13
ENDBRANCH  10  12
ENDBRANCH   5  10
ENDBRANCH   1   5
BRANCH   2  74
ATOM     74  C   UNL A   1      32.599  22.363  25.433  1.00  0.00     0.175 C 
BRANCH  74  75
ATOM     75  N   UNL A   1      33.895  22.484  24.803  1.00  0.00    -0.342 N 
ATOM     76  C   UNL A   1      34.186  22.589  23.470  1.00  0.00     0.240 C 
ATOM     77  H   UNL A   1      34.668  22.492  25.412  1.00  0.00     0.164 HD
ATOM     78  O   UNL A   1      35.383  22.682  23.173  1.00  0.00    -0.273 OA
BRANCH  76  79
ATOM     79  C   UNL A   1      33.089  22.755  22.359  1.00  0.00     0.216 C 
BRANCH  79  80
ATOM     80  N   UNL A   1      33.206  23.796  21.339  1.00  0.00    -0.346 N 
ATOM     81  C   UNL A   1      33.062  25.155  21.368  1.00  0.00     0.239 C 
ATOM     82  H   UNL A   1      33.436  23.446  20.447  1.00  0.00     0.164 HD
ATOM     83  O   UNL A   1      33.059  25.730  20.275  1.00  0.00    -0.273 OA
BRANCH  81  84
ATOM     84  C   UNL A   1      32.770  25.943  22.656  1.00  0.00     0.219 C 
BRANCH  84  85
ATOM     85  N   UNL A   1      33.392  27.260  22.674  1.00  0.00    -0.312 N 
ATOM     86  C   UNL A   1      32.776  28.477  22.730  1.00  0.00     0.407 C 
ATOM     87  H   UNL A   1      34.376  27.274  22.643  1.00  0.00     0.167 HD
ATOM     88  O   UNL A   1      33.430  29.503  22.572  1.00  0.00    -0.225 OA
BRANCH  86  89
ATOM     89  O   UNL A   1      31.438  28.414  22.909  1.00  0.00    -0.445 OA
BRANCH  89  90
ATOM     90  C   UNL A   1      30.774  29.367  23.785  1.00  0.00     0.270 C 
BRANCH  90  91
ATOM     91  C   UNL A   1      29.644  30.193  23.225  1.00  0.00    -0.011 A 
ATOM     92  C   UNL A   1      29.001  29.801  22.042  1.00  0.00     0.007 A 
ATOM     93  C   UNL A   1      29.268  31.390  23.837  1.00  0.00     0.007 A 
ATOM     94  C   UNL A   1      28.078  30.649  21.426  1.00  0.00     0.000 A 
ATOM     95  C   UNL A   1      28.354  32.239  23.213  1.00  0.00     0.000 A 
ATOM     96  C   UNL A   1      27.779  31.880  21.996  1.00  0.00     0.000 A 
ENDBRANCH  90  91
ENDBRANCH  89  90
ENDBRANCH  86  89
ENDBRANCH  84  85
ENDBRANCH  81  84
ENDBRANCH  79  80
ENDBRANCH  76  79
ENDBRANCH  74  75
BRANCH  74  97
ATOM     97  C   UNL A   1      32.010  20.905  25.371  1.00  0.00     0.070 C 
BRANCH  97  98
ATOM     98  C   UNL A   1      32.689  19.717  24.669  1.00  0.00    -0.045 A 
ATOM     99  C   UNL A   1      33.835  19.042  25.102  1.00  0.00     0.004 A 
ATOM    100  C   UNL A   1      32.122  19.237  23.475  1.00  0.00     0.004 A 
ATOM    101  C   UNL A   1      34.345  17.906  24.464  1.00  0.00     0.000 A 
ATOM    102  C   UNL A   1      32.638  18.110  22.810  1.00  0.00     0.000 A 
ATOM    103  C   UNL A   1      33.738  17.429  23.319  1.00  0.00     0.000 A 
ENDBRANCH  97  98
ENDBRANCH  74  97
ENDBRANCH   2  74
TORSDOF 25
ENDMDL
MODEL 2
REMARK VINA RESULT:     -11.0      3.816      6.775
REMARK SMILES CC(C)C[C@H](NC(=O)[C@H](Cc1ccccc1)NC(=O)CNC(=O)CNC(=O)OCc1ccccc1)C(=O)OCCOC(=O)c1ccc(-c2c3nc(c(-c4c(F)cccc4F)c4ccc([nH]4)c(-c4c(F)cccc4F)c4nc(c(-c5c(F)cccc5F)c5ccc2[nH]5)C=C4)C=C3)cc1
REMARK SMILES IDX 6 1 7 2 8 3 5 5 4 6 2 7 1 8 3 9 36 10 37 11 38 12 39 13
REMARK SMILES IDX 40 14 41 15 42 16 43 17 44 18 45 19 97 20 46 21 96 22 47 23
REMARK SMILES IDX 48 24 49 25 90 26 50 27 95 28 89 29 91 30 51 31 94 32 88 33
REMARK SMILES IDX 87 34 52 36 78 37 61 38 77 39 62 40 65 41 76 42 92 43 63 44
REMARK SMILES IDX 64 45 75 47 93 48 66 49 53 50 54 51 59 52 55 53 56 54 58 55
REMARK SMILES IDX 60 56 57 57 79 58 80 59 85 60 81 61 82 62 84 63 86 64 83 65
REMARK SMILES IDX 67 66 68 67 73 68 69 69 70 70 72 71 74 72 71 73 9 74 17 75
REMARK SMILES IDX 18 76 19 78 20 79 21 80 22 81 23 83 24 84 25 85 26 86 27 88
REMARK SMILES IDX 28 89 29 90 30 91 31 92 35 93 32 94 34 95 33 96 10 97 11 98
REMARK SMILES IDX 12 99 16 100 13 101 15 102 14 103
REMARK H PARENT 6 4 91 35 65 46 17 77 21 82 25 87
REMARK Flexibility Score: inf
ROOT
ATOM      1  N   UNL A   1      31.754  24.518  27.105  1.00  0.00    -0.341 N 
ATOM      2  C   UNL A   1      32.426  23.347  26.806  1.00  0.00     0.243 C 
ATOM      3  O   UNL A   1      32.762  22.641  27.765  1.00  0.00    -0.273 OA
ATOM      4  H   UNL A   1      31.411  24.551  28.028  1.00  0.00     0.164 HD
ENDROOT
BRANCH   1   5
ATOM      5  C   UNL A   1      31.450  25.728  26.315  1.00  0.00     0.192 C 
BRANCH   5   6
ATOM      6  C   UNL A   1      30.064  25.757  25.641  1.00  0.00     0.040 C 
BRANCH   6   7
ATOM      7  C   UNL A   1      29.829  26.094  24.156  1.00  0.00    -0.015 C 
ATOM      8  C   UNL A   1      29.893  24.850  23.253  1.00  0.00     0.007 C 
ATOM      9  C   UNL A   1      28.425  26.685  23.960  1.00  0.00     0.007 C 
ENDBRANCH   6   7
ENDBRANCH   5   6
BRANCH   5  10
ATOM     10  C   UNL A   1      31.829  27.136  26.849  1.00  0.00     0.328 C 
ATOM     11  O   UNL A   1      31.445  27.515  27.954  1.00  0.00    -0.250 OA
BRANCH  10  12
ATOM     12  O   UNL A   1      32.591  27.915  26.042  1.00  0.00    -0.461 OA
BRANCH  12  13
ATOM     13  C   UNL A   1      33.926  28.167  26.558  1.00  0.00     0.274 C 
BRANCH  13  14
ATOM     14  C   UNL A   1      34.099  29.585  27.109  1.00  0.00     0.275 C 
BRANCH  14  15
ATOM     15  O   UNL A   1      34.635  29.572  28.439  1.00  0.00    -0.458 OA
BRANCH  15  16
ATOM     16  C   UNL A   1      35.614  30.477  28.646  1.00  0.00     0.338 C 
ATOM     17  O   UNL A   1      35.502  31.624  29.044  1.00  0.00    -0.246 OA
BRANCH  16  18
ATOM     18  C   UNL A   1      36.911  29.811  28.532  1.00  0.00     0.060 A 
ATOM     19  C   UNL A   1      37.404  29.193  29.677  1.00  0.00     0.016 A 
ATOM     20  C   UNL A   1      37.670  29.854  27.375  1.00  0.00     0.016 A 
ATOM     21  C   UNL A   1      38.673  28.680  29.743  1.00  0.00     0.010 A 
ATOM     22  C   UNL A   1      38.941  29.284  27.405  1.00  0.00     0.010 A 
ATOM     23  C   UNL A   1      39.447  28.723  28.597  1.00  0.00    -0.014 A 
BRANCH  23  24
ATOM     24  C   UNL A   1      40.835  28.265  28.682  1.00  0.00     0.031 A 
ATOM     25  C   UNL A   1      41.877  29.276  29.021  1.00  0.00     0.074 A 
ATOM     26  C   UNL A   1      41.116  26.969  28.473  1.00  0.00     0.049 A 
ATOM     27  N   UNL A   1      43.169  29.197  28.888  1.00  0.00    -0.248 NA
ATOM     28  C   UNL A   1      41.393  30.563  29.553  1.00  0.00     0.031 C 
ATOM     29  C   UNL A   1      40.129  25.906  28.254  1.00  0.00     0.029 A 
ATOM     30  N   UNL A   1      42.320  26.330  28.385  1.00  0.00    -0.354 N 
ATOM     31  C   UNL A   1      43.650  30.447  29.250  1.00  0.00     0.074 A 
ATOM     32  C   UNL A   1      42.515  31.265  29.611  1.00  0.00     0.031 C 
ATOM     33  C   UNL A   1      40.772  24.750  28.034  1.00  0.00     0.029 A 
ATOM     34  C   UNL A   1      42.203  25.016  28.007  1.00  0.00     0.049 A 
ATOM     35  H   UNL A   1      43.182  26.767  28.574  1.00  0.00     0.167 HD
ATOM     36  C   UNL A   1      44.937  30.856  29.258  1.00  0.00     0.037 A 
ATOM     37  C   UNL A   1      43.153  24.154  27.611  1.00  0.00     0.037 A 
ATOM     38  C   UNL A   1      46.028  29.984  28.919  1.00  0.00     0.049 A 
ATOM     39  C   UNL A   1      44.570  24.653  27.565  1.00  0.00     0.074 A 
ATOM     40  C   UNL A   1      47.381  30.258  28.904  1.00  0.00     0.029 A 
ATOM     41  N   UNL A   1      45.878  28.656  28.536  1.00  0.00    -0.354 N 
ATOM     42  N   UNL A   1      45.035  25.842  27.871  1.00  0.00    -0.248 NA
ATOM     43  C   UNL A   1      45.590  23.704  27.110  1.00  0.00     0.031 C 
ATOM     44  C   UNL A   1      48.045  29.111  28.459  1.00  0.00     0.029 A 
ATOM     45  C   UNL A   1      47.113  28.103  28.255  1.00  0.00     0.049 A 
ATOM     46  H   UNL A   1      45.019  28.180  28.474  1.00  0.00     0.167 HD
ATOM     47  C   UNL A   1      46.405  25.780  27.670  1.00  0.00     0.074 A 
ATOM     48  C   UNL A   1      46.694  24.428  27.229  1.00  0.00     0.031 C 
ATOM     49  C   UNL A   1      47.344  26.745  27.829  1.00  0.00     0.037 A 
BRANCH  36  50
ATOM     50  C   UNL A   1      45.207  32.294  29.582  1.00  0.00     0.057 A 
ATOM     51  C   UNL A   1      45.487  32.734  30.881  1.00  0.00     0.134 A 
ATOM     52  C   UNL A   1      45.183  33.258  28.565  1.00  0.00     0.134 A 
ATOM     53  F   UNL A   1      45.499  31.868  31.905  1.00  0.00    -0.206 F 
ATOM     54  C   UNL A   1      45.713  34.084  31.162  1.00  0.00     0.040 A 
ATOM     55  C   UNL A   1      45.436  34.606  28.828  1.00  0.00     0.040 A 
ATOM     56  F   UNL A   1      44.912  32.908  27.299  1.00  0.00    -0.206 F 
ATOM     57  C   UNL A   1      45.695  35.022  30.132  1.00  0.00     0.006 A 
ENDBRANCH  36  50
BRANCH  37  58
ATOM     58  C   UNL A   1      42.788  22.782  27.179  1.00  0.00     0.057 A 
ATOM     59  C   UNL A   1      42.444  21.800  28.112  1.00  0.00     0.134 A 
ATOM     60  C   UNL A   1      42.761  22.420  25.824  1.00  0.00     0.134 A 
ATOM     61  F   UNL A   1      42.461  22.080  29.423  1.00  0.00    -0.206 F 
ATOM     62  C   UNL A   1      42.106  20.503  27.720  1.00  0.00     0.040 A 
ATOM     63  C   UNL A   1      42.397  21.137  25.416  1.00  0.00     0.040 A 
ATOM     64  F   UNL A   1      43.068  23.317  24.876  1.00  0.00    -0.206 F 
ATOM     65  C   UNL A   1      42.077  20.170  26.367  1.00  0.00     0.006 A 
ENDBRANCH  37  58
BRANCH  49  66
ATOM     66  C   UNL A   1      48.764  26.351  27.563  1.00  0.00     0.057 A 
ATOM     67  C   UNL A   1      49.582  25.814  28.564  1.00  0.00     0.134 A 
ATOM     68  C   UNL A   1      49.296  26.458  26.272  1.00  0.00     0.134 A 
ATOM     69  F   UNL A   1      49.132  25.701  29.823  1.00  0.00    -0.206 F 
ATOM     70  C   UNL A   1      50.888  25.411  28.293  1.00  0.00     0.040 A 
ATOM     71  C   UNL A   1      50.590  26.030  25.983  1.00  0.00     0.040 A 
ATOM     72  F   UNL A   1      48.557  26.957  25.270  1.00  0.00    -0.206 F 
ATOM     73  C   UNL A   1      51.391  25.509  26.996  1.00  0.00     0.006 A 
ENDBRANCH  49  66
ENDBRANCH  23  24
ENDBRANCH  16  18
ENDBRANCH  15  16
ENDBRANCH  14  15
ENDBRANCH  13  14
ENDBRANCH  12  13
ENDBRANCH  10  12
ENDBRANCH   5  10
ENDBRANCH   1   5
BRANCH   2  74
ATOM     74  C   UNL A   1      32.489  22.730  25.354  1.00  0.00     0.175 C 
BRANCH  74  75
ATOM     75  N   UNL A   1      33.760  22.834  24.671  1.00  0.00    -0.342 N 
ATOM     76  C   UNL A   1      33.997  22.936  23.327  1.00  0.00     0.240 C 
ATOM     77  H   UNL A   1      34.557  22.829  25.248  1.00  0.00     0.164 HD
ATOM     78  O   UNL A   1      35.181  23.013  22.981  1.00  0.00    -0.273 OA
BRANCH  76  79
ATOM     79  C   UNL A   1      32.857  23.121  22.263  1.00  0.00     0.216 C 
BRANCH  79  80
ATOM     80  N   UNL A   1      33.125  23.774  20.983  1.00  0.00    -0.346 N 
ATOM     81  C   UNL A   1      32.841  25.017  20.489  1.00  0.00     0.239 C 
ATOM     82  H   UNL A   1      33.610  23.201  20.345  1.00  0.00     0.164 HD
ATOM     83  O   UNL A   1      33.060  25.192  19.286  1.00  0.00    -0.273 OA
BRANCH  81  84
ATOM     84  C   UNL A   1      32.152  26.114  21.317  1.00  0.00     0.219 C 
BRANCH  84  85
ATOM     85  N   UNL A   1      33.092  26.978  22.017  1.00  0.00    -0.312 N 
ATOM     86  C   UNL A   1      32.840  28.177  22.621  1.00  0.00     0.407 C 
ATOM     87  H   UNL A   1      34.022  26.658  22.061  1.00  0.00     0.167 HD
ATOM     88  O   UNL A   1      33.770  28.865  23.029  1.00  0.00    -0.225 OA
BRANCH  86  89
ATOM     89  O   UNL A   1      31.532  28.515  22.658  1.00  0.00    -0.445 OA
BRANCH  89  90
ATOM     90  C   UNL A   1      31.100  29.673  23.425  1.00  0.00     0.270 C 
BRANCH  90  91
ATOM     91  C   UNL A   1      29.839  30.384  23.005  1.00  0.00    -0.011 A 
ATOM     92  C   UNL A   1      29.094  31.115  23.940  1.00  0.00     0.007 A 
ATOM     93  C   UNL A   1      29.362  30.270  21.697  1.00  0.00     0.007 A 
ATOM     94  C   UNL A   1      27.840  31.627  23.599  1.00  0.00     0.000 A 
ATOM     95  C   UNL A   1      28.105  30.772  21.364  1.00  0.00     0.000 A 
ATOM     96  C   UNL A   1      27.333  31.428  22.321  1.00  0.00     0.000 A 
ENDBRANCH  90  91
ENDBRANCH  89  90
ENDBRANCH  86  89
ENDBRANCH  84  85
ENDBRANCH  81  84
ENDBRANCH  79  80
ENDBRANCH  76  79
ENDBRANCH  74  75
BRANCH  74  97
ATOM     97  C   UNL A   1      31.839  21.301  25.249  1.00  0.00     0.070 C 
BRANCH  97  98
ATOM     98  C   UNL A   1      32.514  20.080  24.602  1.00  0.00    -0.045 A 
ATOM     99  C   UNL A   1      33.544  19.312  25.153  1.00  0.00     0.004 A 
ATOM    100  C   UNL A   1      32.067  19.668  23.333  1.00  0.00     0.004 A 
ATOM    101  C   UNL A   1      34.048  18.154  24.549  1.00  0.00     0.000 A 
ATOM    102  C   UNL A   1      32.579  18.519  22.703  1.00  0.00     0.000 A 
ATOM    103  C   UNL A   1      33.556  17.748  23.324  1.00  0.00     0.000 A 
ENDBRANCH  97  98
ENDBRANCH  74  97
ENDBRANCH   2  74
TORSDOF 25
ENDMDL
MODEL 3
REMARK VINA RESULT:     -10.6      1.693      6.042
REMARK SMILES CC(C)C[C@H](NC(=O)[C@H](Cc1ccccc1)NC(=O)CNC(=O)CNC(=O)OCc1ccccc1)C(=O)OCCOC(=O)c1ccc(-c2c3nc(c(-c4c(F)cccc4F)c4ccc([nH]4)c(-c4c(F)cccc4F)c4nc(c(-c5c(F)cccc5F)c5ccc2[nH]5)C=C4)C=C3)cc1
REMARK SMILES IDX 6 1 7 2 8 3 5 5 4 6 2 7 1 8 3 9 36 10 37 11 38 12 39 13
REMARK SMILES IDX 40 14 41 15 42 16 43 17 44 18 45 19 97 20 46 21 96 22 47 23
REMARK SMILES IDX 48 24 49 25 90 26 50 27 95 28 89 29 91 30 51 31 94 32 88 33
REMARK SMILES IDX 87 34 52 36 78 37 61 38 77 39 62 40 65 41 76 42 92 43 63 44
REMARK SMILES IDX 64 45 75 47 93 48 66 49 53 50 54 51 59 52 55 53 56 54 58 55
REMARK SMILES IDX 60 56 57 57 79 58 80 59 85 60 81 61 82 62 84 63 86 64 83 65
REMARK SMILES IDX 67 66 68 67 73 68 69 69 70 70 72 71 74 72 71 73 9 74 17 75
REMARK SMILES IDX 18 76 19 78 20 79 21 80 22 81 23 83 24 84 25 85 26 86 27 88
REMARK SMILES IDX 28 89 29 90 30 91 31 92 35 93 32 94 34 95 33 96 10 97 11 98
REMARK SMILES IDX 12 99 16 100 13 101 15 102 14 103
REMARK H PARENT 6 4 91 35 65 46 17 77 21 82 25 87
REMARK Flexibility Score: inf
ROOT
ATOM      1  N   UNL A   1      31.961  24.514  26.876  1.00  0.00    -0.341 N 
ATOM      2  C   UNL A   1      32.468  23.234  26.740  1.00  0.00     0.243 C 
ATOM      3  O   UNL A   1      32.556  22.561  27.775  1.00  0.00    -0.273 OA
ATOM      4  H   UNL A   1      31.509  24.670  27.737  1.00  0.00     0.164 HD
ENDROOT
BRANCH   1   5
ATOM      5  C   UNL A   1      31.963  25.693  25.985  1.00  0.00     0.192 C 
BRANCH   5   6
ATOM      6  C   UNL A   1      30.853  25.726  24.917  1.00  0.00     0.040 C 
BRANCH   6   7
ATOM      7  C   UNL A   1      29.427  26.256  25.165  1.00  0.00    -0.015 C 
ATOM      8  C   UNL A   1      28.584  26.300  23.879  1.00  0.00     0.007 C 
ATOM      9  C   UNL A   1      28.675  25.329  26.130  1.00  0.00     0.007 C 
ENDBRANCH   6   7
ENDBRANCH   5   6
BRANCH   5  10
ATOM     10  C   UNL A   1      32.218  27.114  26.557  1.00  0.00     0.328 C 
ATOM     11  O   UNL A   1      31.762  27.444  27.650  1.00  0.00    -0.250 OA
BRANCH  10  12
ATOM     12  O   UNL A   1      32.954  27.960  25.795  1.00  0.00    -0.461 OA
BRANCH  12  13
ATOM     13  C   UNL A   1      34.129  28.488  26.469  1.00  0.00     0.274 C 
BRANCH  13  14
ATOM     14  C   UNL A   1      34.169  30.017  26.496  1.00  0.00     0.275 C 
BRANCH  14  15
ATOM     15  O   UNL A   1      33.826  30.532  27.789  1.00  0.00    -0.458 OA
BRANCH  15  16
ATOM     16  C   UNL A   1      34.754  31.358  28.315  1.00  0.00     0.338 C 
ATOM     17  O   UNL A   1      34.607  32.508  28.692  1.00  0.00    -0.246 OA
BRANCH  16  18
ATOM     18  C   UNL A   1      35.971  30.594  28.592  1.00  0.00     0.060 A 
ATOM     19  C   UNL A   1      35.928  29.711  29.666  1.00  0.00     0.016 A 
ATOM     20  C   UNL A   1      37.146  30.787  27.888  1.00  0.00     0.016 A 
ATOM     21  C   UNL A   1      37.045  29.062  30.125  1.00  0.00     0.010 A 
ATOM     22  C   UNL A   1      38.279  30.091  28.302  1.00  0.00     0.010 A 
ATOM     23  C   UNL A   1      38.230  29.252  29.436  1.00  0.00    -0.014 A 
BRANCH  23  24
ATOM     24  C   UNL A   1      39.447  28.641  29.973  1.00  0.00     0.031 A 
ATOM     25  C   UNL A   1      40.046  29.251  31.195  1.00  0.00     0.074 A 
ATOM     26  C   UNL A   1      39.966  27.560  29.368  1.00  0.00     0.049 A 
ATOM     27  N   UNL A   1      41.236  29.086  31.694  1.00  0.00    -0.248 NA
ATOM     28  C   UNL A   1      39.197  30.200  31.937  1.00  0.00     0.031 C 
ATOM     29  C   UNL A   1      39.363  26.843  28.239  1.00  0.00     0.029 A 
ATOM     30  N   UNL A   1      41.133  26.892  29.604  1.00  0.00    -0.354 N 
ATOM     31  C   UNL A   1      41.307  29.963  32.766  1.00  0.00     0.074 A 
ATOM     32  C   UNL A   1      40.042  30.657  32.848  1.00  0.00     0.031 C 
ATOM     33  C   UNL A   1      40.180  25.848  27.866  1.00  0.00     0.029 A 
ATOM     34  C   UNL A   1      41.392  25.920  28.669  1.00  0.00     0.049 A 
ATOM     35  H   UNL A   1      41.726  27.086  30.365  1.00  0.00     0.167 HD
ATOM     36  C   UNL A   1      42.358  30.164  33.589  1.00  0.00     0.037 A 
ATOM     37  C   UNL A   1      42.521  25.227  28.450  1.00  0.00     0.037 A 
ATOM     38  C   UNL A   1      43.583  29.419  33.477  1.00  0.00     0.049 A 
ATOM     39  C   UNL A   1      43.698  25.516  29.338  1.00  0.00     0.074 A 
ATOM     40  C   UNL A   1      44.720  29.503  34.254  1.00  0.00     0.029 A 
ATOM     41  N   UNL A   1      43.817  28.441  32.516  1.00  0.00    -0.354 N 
ATOM     42  N   UNL A   1      43.792  26.368  30.332  1.00  0.00    -0.248 NA
ATOM     43  C   UNL A   1      44.928  24.764  29.069  1.00  0.00     0.031 C 
ATOM     44  C   UNL A   1      45.664  28.615  33.729  1.00  0.00     0.029 A 
ATOM     45  C   UNL A   1      45.094  27.933  32.663  1.00  0.00     0.049 A 
ATOM     46  H   UNL A   1      43.170  28.154  31.833  1.00  0.00     0.167 HD
ATOM     47  C   UNL A   1      45.080  26.239  30.827  1.00  0.00     0.074 A 
ATOM     48  C   UNL A   1      45.725  25.214  30.027  1.00  0.00     0.031 C 
ATOM     49  C   UNL A   1      45.683  26.902  31.844  1.00  0.00     0.037 A 
BRANCH  36  50
ATOM     50  C   UNL A   1      42.241  31.251  34.614  1.00  0.00     0.057 A 
ATOM     51  C   UNL A   1      42.554  32.587  34.334  1.00  0.00     0.134 A 
ATOM     52  C   UNL A   1      41.809  30.948  35.912  1.00  0.00     0.134 A 
ATOM     53  F   UNL A   1      43.000  32.941  33.120  1.00  0.00    -0.206 F 
ATOM     54  C   UNL A   1      42.460  33.580  35.312  1.00  0.00     0.040 A 
ATOM     55  C   UNL A   1      41.682  31.936  36.891  1.00  0.00     0.040 A 
ATOM     56  F   UNL A   1      41.503  29.687  36.253  1.00  0.00    -0.206 F 
ATOM     57  C   UNL A   1      42.015  33.255  36.593  1.00  0.00     0.006 A 
ENDBRANCH  36  50
BRANCH  37  58
ATOM     58  C   UNL A   1      42.601  24.260  27.327  1.00  0.00     0.057 A 
ATOM     59  C   UNL A   1      42.179  22.936  27.484  1.00  0.00     0.134 A 
ATOM     60  C   UNL A   1      43.087  24.635  26.067  1.00  0.00     0.134 A 
ATOM     61  F   UNL A   1      41.714  22.513  28.669  1.00  0.00    -0.206 F 
ATOM     62  C   UNL A   1      42.256  22.014  26.440  1.00  0.00     0.040 A 
ATOM     63  C   UNL A   1      43.142  23.731  25.005  1.00  0.00     0.040 A 
ATOM     64  F   UNL A   1      43.496  25.892  25.843  1.00  0.00    -0.206 F 
ATOM     65  C   UNL A   1      42.734  22.413  25.192  1.00  0.00     0.006 A 
ENDBRANCH  37  58
BRANCH  49  66
ATOM     66  C   UNL A   1      47.091  26.505  32.164  1.00  0.00     0.057 A 
ATOM     67  C   UNL A   1      48.191  27.171  31.612  1.00  0.00     0.134 A 
ATOM     68  C   UNL A   1      47.343  25.479  33.084  1.00  0.00     0.134 A 
ATOM     69  F   UNL A   1      48.012  28.151  30.713  1.00  0.00    -0.206 F 
ATOM     70  C   UNL A   1      49.496  26.819  31.952  1.00  0.00     0.040 A 
ATOM     71  C   UNL A   1      48.642  25.140  33.456  1.00  0.00     0.040 A 
ATOM     72  F   UNL A   1      46.328  24.811  33.654  1.00  0.00    -0.206 F 
ATOM     73  C   UNL A   1      49.722  25.808  32.885  1.00  0.00     0.006 A 
ENDBRANCH  49  66
ENDBRANCH  23  24
ENDBRANCH  16  18
ENDBRANCH  15  16
ENDBRANCH  14  15
ENDBRANCH  13  14
ENDBRANCH  12  13
ENDBRANCH  10  12
ENDBRANCH   5  10
ENDBRANCH   1   5
BRANCH   2  74
ATOM     74  C   UNL A   1      32.620  22.506  25.348  1.00  0.00     0.175 C 
BRANCH  74  75
ATOM     75  N   UNL A   1      33.893  22.668  24.680  1.00  0.00    -0.342 N 
ATOM     76  C   UNL A   1      34.140  22.798  23.340  1.00  0.00     0.240 C 
ATOM     77  H   UNL A   1      34.685  22.685  25.264  1.00  0.00     0.164 HD
ATOM     78  O   UNL A   1      35.324  22.924  23.007  1.00  0.00    -0.273 OA
BRANCH  76  79
ATOM     79  C   UNL A   1      33.004  22.953  22.266  1.00  0.00     0.216 C 
BRANCH  79  80
ATOM     80  N   UNL A   1      33.223  23.733  21.050  1.00  0.00    -0.346 N 
ATOM     81  C   UNL A   1      32.850  24.991  20.665  1.00  0.00     0.239 C 
ATOM     82  H   UNL A   1      33.748  23.255  20.367  1.00  0.00     0.164 HD
ATOM     83  O   UNL A   1      33.055  25.287  19.484  1.00  0.00    -0.273 OA
BRANCH  81  84
ATOM     84  C   UNL A   1      32.084  25.959  21.582  1.00  0.00     0.219 C 
BRANCH  84  85
ATOM     85  N   UNL A   1      32.905  27.060  22.065  1.00  0.00    -0.312 N 
ATOM     86  C   UNL A   1      32.488  28.269  22.546  1.00  0.00     0.407 C 
ATOM     87  H   UNL A   1      33.879  26.916  22.042  1.00  0.00     0.167 HD
ATOM     88  O   UNL A   1      33.307  29.157  22.762  1.00  0.00    -0.225 OA
BRANCH  86  89
ATOM     89  O   UNL A   1      31.149  28.377  22.689  1.00  0.00    -0.445 OA
BRANCH  89  90
ATOM     90  C   UNL A   1      30.590  29.373  23.590  1.00  0.00     0.270 C 
BRANCH  90  91
ATOM     91  C   UNL A   1      29.653  30.409  23.024  1.00  0.00    -0.011 A 
ATOM     92  C   UNL A   1      29.041  31.346  23.868  1.00  0.00     0.007 A 
ATOM     93  C   UNL A   1      29.330  30.407  21.665  1.00  0.00     0.007 A 
ATOM     94  C   UNL A   1      28.042  32.191  23.379  1.00  0.00     0.000 A 
ATOM     95  C   UNL A   1      28.325  31.245  21.183  1.00  0.00     0.000 A 
ATOM     96  C   UNL A   1      27.663  32.118  22.044  1.00  0.00     0.000 A 
ENDBRANCH  90  91
ENDBRANCH  89  90
ENDBRANCH  86  89
ENDBRANCH  84  85
ENDBRANCH  81  84
ENDBRANCH  79  80
ENDBRANCH  76  79
ENDBRANCH  74  75
BRANCH  74  97
ATOM     97  C   UNL A   1      32.104  21.020  25.355  1.00  0.00     0.070 C 
BRANCH  97  98
ATOM     98  C   UNL A   1      32.797  19.851  24.636  1.00  0.00    -0.045 A 
ATOM     99  C   UNL A   1      34.028  19.278  24.976  1.00  0.00     0.004 A 
ATOM    100  C   UNL A   1      32.151  19.276  23.526  1.00  0.00     0.004 A 
ATOM    101  C   UNL A   1      34.555  18.152  24.334  1.00  0.00     0.000 A 
ATOM    102  C   UNL A   1      32.681  18.158  22.857  1.00  0.00     0.000 A 
ATOM    103  C   UNL A   1      33.874  17.580  23.277  1.00  0.00     0.000 A 
ENDBRANCH  97  98
ENDBRANCH  74  97
ENDBRANCH   2  74
TORSDOF 25
ENDMDL
