MODEL 1
REMARK VINA RESULT:     -11.9      0.000      0.000
REMARK SMILES O=C(C[NH+]1CCN(c2ncc(C(F)(F)F)cc2Cl)CC1)OCCOC(=O)c1ccc(-c2c3nc(c(-c4c(F)cccc4F)c4ccc([nH]4)c(-c4c(F)cccc4F)c4nc(c(-c5c(F)cccc5F)c5ccc2[nH]5)C=C4)C=C3)cc1
REMARK SMILES IDX 22 1 21 2 2 3 1 4 3 5 4 6 5 7 20 8 6 10 19 11 7 12 8 13 9 14
REMARK SMILES IDX 17 15 10 16 16 17 18 18 11 19 12 20 13 21 14 22 15 23 23 24
REMARK SMILES IDX 24 25 25 26 26 27 27 28 28 29 80 30 29 31 79 32 30 33 31 34
REMARK SMILES IDX 32 35 73 36 33 37 78 38 72 39 74 40 34 41 77 42 71 43 70 44
REMARK SMILES IDX 35 46 61 47 44 48 60 49 45 50 48 51 59 52 75 53 46 54 47 55
REMARK SMILES IDX 58 57 76 58 49 59 36 60 37 61 42 62 38 63 39 64 41 65 43 66
REMARK SMILES IDX 40 67 62 68 63 69 68 70 64 71 65 72 67 73 69 74 66 75 50 76
REMARK SMILES IDX 51 77 56 78 52 79 53 80 55 81 57 82 54 83
REMARK H PARENT 4 9 74 45 48 56
REMARK Flexibility Score: inf
ROOT
ATOM      1  C   UNL A   1      31.542  28.798  25.032  1.00  0.00     0.274 C 
ENDROOT
BRANCH   1   2
ATOM      2  O   UNL A   1      32.417  27.837  25.638  1.00  0.00    -0.458 OA
BRANCH   2   3
ATOM      3  C   UNL A   1      31.816  26.836  26.342  1.00  0.00     0.361 C 
ATOM      4  O   UNL A   1      31.027  27.078  27.250  1.00  0.00    -0.245 OA
BRANCH   3   5
ATOM      5  C   UNL A   1      32.382  25.441  26.062  1.00  0.00     0.386 C 
BRANCH   5   6
ATOM      6  N   UNL A   1      31.349  24.472  25.640  1.00  0.00    -0.323 N 
ATOM      7  C   UNL A   1      31.579  23.943  24.269  1.00  0.00     0.284 C 
ATOM      8  C   UNL A   1      31.320  23.309  26.570  1.00  0.00     0.284 C 
ATOM      9  H   UNL A   1      30.466  24.982  25.653  1.00  0.00     0.348 HD
ATOM     10  C   UNL A   1      32.813  23.027  24.092  1.00  0.00     0.179 C 
ATOM     11  C   UNL A   1      32.536  22.349  26.473  1.00  0.00     0.179 C 
ATOM     12  N   UNL A   1      32.752  21.969  25.083  1.00  0.00    -0.344 N 
BRANCH  12  13
ATOM     13  C   UNL A   1      33.146  20.709  24.708  1.00  0.00     0.147 A 
ATOM     14  N   UNL A   1      32.171  19.844  24.332  1.00  0.00    -0.237 NA
ATOM     15  C   UNL A   1      34.476  20.281  24.848  1.00  0.00     0.084 A 
ATOM     16  C   UNL A   1      32.512  18.553  24.096  1.00  0.00     0.126 A 
ATOM     17  C   UNL A   1      34.794  18.942  24.624  1.00  0.00     0.039 A 
ATOM     18  Cl  UNL A   1      35.736  21.316  25.426  1.00  0.00    -0.080 Cl
ATOM     19  C   UNL A   1      33.793  18.047  24.250  1.00  0.00     0.075 A 
BRANCH  19  20
ATOM     20  C   UNL A   1      34.055  16.589  24.047  1.00  0.00     0.417 C 
ATOM     21  F   UNL A   1      32.966  15.822  24.329  1.00  0.00    -0.166 F 
ATOM     22  F   UNL A   1      34.402  16.293  22.766  1.00  0.00    -0.166 F 
ATOM     23  F   UNL A   1      35.060  16.108  24.830  1.00  0.00    -0.166 F 
ENDBRANCH  19  20
ENDBRANCH  12  13
ENDBRANCH   5   6
ENDBRANCH   3   5
ENDBRANCH   2   3
ENDBRANCH   1   2
BRANCH   1  24
ATOM     24  C   UNL A   1      31.686  30.194  25.648  1.00  0.00     0.275 C 
BRANCH  24  25
ATOM     25  O   UNL A   1      32.398  30.158  26.897  1.00  0.00    -0.458 OA
BRANCH  25  26
ATOM     26  C   UNL A   1      33.050  31.310  27.207  1.00  0.00     0.338 C 
ATOM     27  O   UNL A   1      32.561  32.427  27.268  1.00  0.00    -0.246 OA
BRANCH  26  28
ATOM     28  C   UNL A   1      34.434  31.016  27.648  1.00  0.00     0.060 A 
ATOM     29  C   UNL A   1      34.799  29.669  27.778  1.00  0.00     0.016 A 
ATOM     30  C   UNL A   1      35.370  32.019  27.917  1.00  0.00     0.016 A 
ATOM     31  C   UNL A   1      36.074  29.328  28.233  1.00  0.00     0.010 A 
ATOM     32  C   UNL A   1      36.655  31.675  28.357  1.00  0.00     0.010 A 
ATOM     33  C   UNL A   1      36.999  30.328  28.563  1.00  0.00    -0.014 A 
BRANCH  33  34
ATOM     34  C   UNL A   1      38.238  29.958  29.297  1.00  0.00     0.031 A 
ATOM     35  C   UNL A   1      38.438  30.488  30.692  1.00  0.00     0.074 A 
ATOM     36  C   UNL A   1      39.149  29.120  28.769  1.00  0.00     0.049 A 
ATOM     37  N   UNL A   1      39.375  30.208  31.562  1.00  0.00    -0.248 NA
ATOM     38  C   UNL A   1      37.447  31.465  31.170  1.00  0.00     0.031 C 
ATOM     39  C   UNL A   1      39.090  28.526  27.437  1.00  0.00     0.029 A 
ATOM     40  N   UNL A   1      40.308  28.616  29.311  1.00  0.00    -0.354 N 
ATOM     41  C   UNL A   1      39.081  30.963  32.690  1.00  0.00     0.074 A 
ATOM     42  C   UNL A   1      37.910  31.754  32.376  1.00  0.00     0.031 C 
ATOM     43  C   UNL A   1      40.161  27.730  27.266  1.00  0.00     0.029 A 
ATOM     44  C   UNL A   1      40.982  27.759  28.476  1.00  0.00     0.049 A 
ATOM     45  H   UNL A   1      40.625  28.848  30.214  1.00  0.00     0.167 HD
ATOM     46  C   UNL A   1      39.707  30.983  33.890  1.00  0.00     0.037 A 
ATOM     47  C   UNL A   1      42.121  27.068  28.673  1.00  0.00     0.037 A 
ATOM     48  C   UNL A   1      40.868  30.203  34.219  1.00  0.00     0.049 A 
ATOM     49  C   UNL A   1      42.832  27.146  30.000  1.00  0.00     0.074 A 
ATOM     50  C   UNL A   1      41.543  30.127  35.425  1.00  0.00     0.029 A 
ATOM     51  N   UNL A   1      41.536  29.373  33.334  1.00  0.00    -0.354 N 
ATOM     52  N   UNL A   1      42.493  27.795  31.087  1.00  0.00    -0.248 NA
ATOM     53  C   UNL A   1      44.082  26.379  30.128  1.00  0.00     0.031 C 
ATOM     54  C   UNL A   1      42.646  29.282  35.258  1.00  0.00     0.029 A 
ATOM     55  C   UNL A   1      42.632  28.802  33.959  1.00  0.00     0.049 A 
ATOM     56  H   UNL A   1      41.271  29.213  32.399  1.00  0.00     0.167 HD
ATOM     57  C   UNL A   1      43.458  27.480  32.038  1.00  0.00     0.074 A 
ATOM     58  C   UNL A   1      44.397  26.582  31.399  1.00  0.00     0.031 C 
ATOM     59  C   UNL A   1      43.552  27.893  33.324  1.00  0.00     0.037 A 
BRANCH  46  60
ATOM     60  C   UNL A   1      39.139  31.892  34.938  1.00  0.00     0.057 A 
ATOM     61  C   UNL A   1      39.400  33.268  34.935  1.00  0.00     0.134 A 
ATOM     62  C   UNL A   1      38.320  31.387  35.954  1.00  0.00     0.134 A 
ATOM     63  F   UNL A   1      40.192  33.809  33.997  1.00  0.00    -0.206 F 
ATOM     64  C   UNL A   1      38.886  34.108  35.924  1.00  0.00     0.040 A 
ATOM     65  C   UNL A   1      37.781  32.220  36.935  1.00  0.00     0.040 A 
ATOM     66  F   UNL A   1      38.031  30.078  36.009  1.00  0.00    -0.206 F 
ATOM     67  C   UNL A   1      38.070  33.584  36.926  1.00  0.00     0.006 A 
ENDBRANCH  46  60
BRANCH  47  68
ATOM     68  C   UNL A   1      42.663  26.197  27.600  1.00  0.00     0.057 A 
ATOM     69  C   UNL A   1      43.493  26.716  26.599  1.00  0.00     0.134 A 
ATOM     70  C   UNL A   1      42.320  24.842  27.518  1.00  0.00     0.134 A 
ATOM     71  F   UNL A   1      43.832  28.013  26.611  1.00  0.00    -0.206 F 
ATOM     72  C   UNL A   1      43.946  25.926  25.543  1.00  0.00     0.040 A 
ATOM     73  C   UNL A   1      42.781  24.035  26.477  1.00  0.00     0.040 A 
ATOM     74  F   UNL A   1      41.525  24.287  28.446  1.00  0.00    -0.206 F 
ATOM     75  C   UNL A   1      43.590  24.579  25.480  1.00  0.00     0.006 A 
ENDBRANCH  47  68
BRANCH  59  76
ATOM     76  C   UNL A   1      44.679  27.344  34.151  1.00  0.00     0.057 A 
ATOM     77  C   UNL A   1      44.567  26.137  34.850  1.00  0.00     0.134 A 
ATOM     78  C   UNL A   1      45.908  28.015  34.211  1.00  0.00     0.134 A 
ATOM     79  F   UNL A   1      43.413  25.451  34.843  1.00  0.00    -0.206 F 
ATOM     80  C   UNL A   1      45.630  25.624  35.597  1.00  0.00     0.040 A 
ATOM     81  C   UNL A   1      46.986  27.501  34.934  1.00  0.00     0.040 A 
ATOM     82  F   UNL A   1      46.086  29.172  33.557  1.00  0.00    -0.206 F 
ATOM     83  C   UNL A   1      46.847  26.304  35.635  1.00  0.00     0.006 A 
ENDBRANCH  59  76
ENDBRANCH  33  34
ENDBRANCH  26  28
ENDBRANCH  25  26
ENDBRANCH  24  25
ENDBRANCH   1  24
TORSDOF 14
ENDMDL
MODEL 2
REMARK VINA RESULT:     -11.8      0.457      1.534
REMARK SMILES O=C(C[NH+]1CCN(c2ncc(C(F)(F)F)cc2Cl)CC1)OCCOC(=O)c1ccc(-c2c3nc(c(-c4c(F)cccc4F)c4ccc([nH]4)c(-c4c(F)cccc4F)c4nc(c(-c5c(F)cccc5F)c5ccc2[nH]5)C=C4)C=C3)cc1
REMARK SMILES IDX 22 1 21 2 2 3 1 4 3 5 4 6 5 7 20 8 6 10 19 11 7 12 8 13 9 14
REMARK SMILES IDX 17 15 10 16 16 17 18 18 11 19 12 20 13 21 14 22 15 23 23 24
REMARK SMILES IDX 24 25 25 26 26 27 27 28 28 29 80 30 29 31 79 32 30 33 31 34
REMARK SMILES IDX 32 35 73 36 33 37 78 38 72 39 74 40 34 41 77 42 71 43 70 44
REMARK SMILES IDX 35 46 61 47 44 48 60 49 45 50 48 51 59 52 75 53 46 54 47 55
REMARK SMILES IDX 58 57 76 58 49 59 36 60 37 61 42 62 38 63 39 64 41 65 43 66
REMARK SMILES IDX 40 67 62 68 63 69 68 70 64 71 65 72 67 73 69 74 66 75 50 76
REMARK SMILES IDX 51 77 56 78 52 79 53 80 55 81 57 82 54 83
REMARK H PARENT 4 9 74 45 48 56
REMARK Flexibility Score: inf
ROOT
ATOM      1  C   UNL A   1      32.301  28.703  25.176  1.00  0.00     0.274 C 
ENDROOT
BRANCH   1   2
ATOM      2  O   UNL A   1      31.166  27.829  25.127  1.00  0.00    -0.458 OA
BRANCH   2   3
ATOM      3  C   UNL A   1      31.138  26.829  26.053  1.00  0.00     0.361 C 
ATOM      4  O   UNL A   1      31.029  27.071  27.251  1.00  0.00    -0.245 OA
BRANCH   3   5
ATOM      5  C   UNL A   1      31.485  25.446  25.498  1.00  0.00     0.386 C 
BRANCH   5   6
ATOM      6  N   UNL A   1      32.558  24.770  26.257  1.00  0.00    -0.323 N 
ATOM      7  C   UNL A   1      32.116  23.487  26.864  1.00  0.00     0.284 C 
ATOM      8  C   UNL A   1      33.712  24.469  25.364  1.00  0.00     0.284 C 
ATOM      9  H   UNL A   1      32.821  25.415  27.001  1.00  0.00     0.348 HD
ATOM     10  C   UNL A   1      31.801  22.339  25.875  1.00  0.00     0.179 C 
ATOM     11  C   UNL A   1      33.472  23.342  24.324  1.00  0.00     0.179 C 
ATOM     12  N   UNL A   1      32.939  22.162  24.993  1.00  0.00    -0.344 N 
BRANCH  12  13
ATOM     13  C   UNL A   1      33.290  20.883  24.639  1.00  0.00     0.147 A 
ATOM     14  N   UNL A   1      32.298  20.071  24.197  1.00  0.00    -0.237 NA
ATOM     15  C   UNL A   1      34.585  20.387  24.863  1.00  0.00     0.084 A 
ATOM     16  C   UNL A   1      32.586  18.764  23.978  1.00  0.00     0.126 A 
ATOM     17  C   UNL A   1      34.846  19.033  24.655  1.00  0.00     0.039 A 
ATOM     18  Cl  UNL A   1      35.857  21.353  25.527  1.00  0.00    -0.080 Cl
ATOM     19  C   UNL A   1      33.826  18.192  24.213  1.00  0.00     0.075 A 
BRANCH  19  20
ATOM     20  C   UNL A   1      34.024  16.722  24.021  1.00  0.00     0.417 C 
ATOM     21  F   UNL A   1      34.403  16.411  22.751  1.00  0.00    -0.166 F 
ATOM     22  F   UNL A   1      34.986  16.212  24.836  1.00  0.00    -0.166 F 
ATOM     23  F   UNL A   1      32.901  15.991  24.262  1.00  0.00    -0.166 F 
ENDBRANCH  19  20
ENDBRANCH  12  13
ENDBRANCH   5   6
ENDBRANCH   3   5
ENDBRANCH   2   3
ENDBRANCH   1   2
BRANCH   1  24
ATOM     24  C   UNL A   1      31.959  30.079  25.760  1.00  0.00     0.275 C 
BRANCH  24  25
ATOM     25  O   UNL A   1      32.477  30.238  27.093  1.00  0.00    -0.458 OA
BRANCH  25  26
ATOM     26  C   UNL A   1      33.183  31.383  27.290  1.00  0.00     0.338 C 
ATOM     27  O   UNL A   1      32.746  32.521  27.251  1.00  0.00    -0.246 OA
BRANCH  26  28
ATOM     28  C   UNL A   1      34.559  31.066  27.743  1.00  0.00     0.060 A 
ATOM     29  C   UNL A   1      34.875  29.719  27.961  1.00  0.00     0.016 A 
ATOM     30  C   UNL A   1      35.532  32.050  27.944  1.00  0.00     0.016 A 
ATOM     31  C   UNL A   1      36.139  29.361  28.433  1.00  0.00     0.010 A 
ATOM     32  C   UNL A   1      36.807  31.688  28.400  1.00  0.00     0.010 A 
ATOM     33  C   UNL A   1      37.102  30.346  28.693  1.00  0.00    -0.014 A 
BRANCH  33  34
ATOM     34  C   UNL A   1      38.330  29.978  29.445  1.00  0.00     0.031 A 
ATOM     35  C   UNL A   1      38.527  30.539  30.829  1.00  0.00     0.074 A 
ATOM     36  C   UNL A   1      39.236  29.118  28.945  1.00  0.00     0.049 A 
ATOM     37  N   UNL A   1      39.454  30.269  31.713  1.00  0.00    -0.248 NA
ATOM     38  C   UNL A   1      37.544  31.539  31.276  1.00  0.00     0.031 C 
ATOM     39  C   UNL A   1      39.180  28.493  27.626  1.00  0.00     0.029 A 
ATOM     40  N   UNL A   1      40.384  28.613  29.508  1.00  0.00    -0.354 N 
ATOM     41  C   UNL A   1      39.159  31.054  32.820  1.00  0.00     0.074 A 
ATOM     42  C   UNL A   1      38.000  31.851  32.479  1.00  0.00     0.031 C 
ATOM     43  C   UNL A   1      40.243  27.681  27.483  1.00  0.00     0.029 A 
ATOM     44  C   UNL A   1      41.054  27.729  28.698  1.00  0.00     0.049 A 
ATOM     45  H   UNL A   1      40.697  28.863  30.407  1.00  0.00     0.167 HD
ATOM     46  C   UNL A   1      39.776  31.095  34.024  1.00  0.00     0.037 A 
ATOM     47  C   UNL A   1      42.184  27.029  28.921  1.00  0.00     0.037 A 
ATOM     48  C   UNL A   1      40.926  30.310  34.381  1.00  0.00     0.049 A 
ATOM     49  C   UNL A   1      42.886  27.131  30.251  1.00  0.00     0.074 A 
ATOM     50  C   UNL A   1      41.590  30.254  35.594  1.00  0.00     0.029 A 
ATOM     51  N   UNL A   1      41.590  29.451  33.522  1.00  0.00    -0.354 N 
ATOM     52  N   UNL A   1      42.545  27.809  31.320  1.00  0.00    -0.248 NA
ATOM     53  C   UNL A   1      44.125  26.352  30.408  1.00  0.00     0.031 C 
ATOM     54  C   UNL A   1      42.684  29.393  35.455  1.00  0.00     0.029 A 
ATOM     55  C   UNL A   1      42.675  28.882  34.168  1.00  0.00     0.049 A 
ATOM     56  H   UNL A   1      41.331  29.272  32.588  1.00  0.00     0.167 HD
ATOM     57  C   UNL A   1      43.499  27.506  32.285  1.00  0.00     0.074 A 
ATOM     58  C   UNL A   1      44.433  26.582  31.676  1.00  0.00     0.031 C 
ATOM     59  C   UNL A   1      43.588  27.948  33.563  1.00  0.00     0.037 A 
BRANCH  46  60
ATOM     60  C   UNL A   1      39.211  32.035  35.046  1.00  0.00     0.057 A 
ATOM     61  C   UNL A   1      38.289  31.604  36.009  1.00  0.00     0.134 A 
ATOM     62  C   UNL A   1      39.598  33.380  35.071  1.00  0.00     0.134 A 
ATOM     63  F   UNL A   1      37.868  30.331  36.026  1.00  0.00    -0.206 F 
ATOM     64  C   UNL A   1      37.750  32.487  36.946  1.00  0.00     0.040 A 
ATOM     65  C   UNL A   1      39.083  34.267  36.018  1.00  0.00     0.040 A 
ATOM     66  F   UNL A   1      40.479  33.853  34.177  1.00  0.00    -0.206 F 
ATOM     67  C   UNL A   1      38.151  33.822  36.954  1.00  0.00     0.006 A 
ENDBRANCH  46  60
BRANCH  47  68
ATOM     68  C   UNL A   1      42.723  26.127  27.873  1.00  0.00     0.057 A 
ATOM     69  C   UNL A   1      42.378  24.770  27.841  1.00  0.00     0.134 A 
ATOM     70  C   UNL A   1      43.635  26.585  26.915  1.00  0.00     0.134 A 
ATOM     71  F   UNL A   1      41.530  24.269  28.751  1.00  0.00    -0.206 F 
ATOM     72  C   UNL A   1      42.938  23.896  26.909  1.00  0.00     0.040 A 
ATOM     73  C   UNL A   1      44.188  25.726  25.965  1.00  0.00     0.040 A 
ATOM     74  F   UNL A   1      44.007  27.874  26.897  1.00  0.00    -0.206 F 
ATOM     75  C   UNL A   1      43.846  24.374  25.966  1.00  0.00     0.006 A 
ENDBRANCH  47  68
BRANCH  59  76
ATOM     76  C   UNL A   1      44.703  27.406  34.411  1.00  0.00     0.057 A 
ATOM     77  C   UNL A   1      44.563  26.228  35.155  1.00  0.00     0.134 A 
ATOM     78  C   UNL A   1      45.947  28.050  34.447  1.00  0.00     0.134 A 
ATOM     79  F   UNL A   1      43.395  25.570  35.173  1.00  0.00    -0.206 F 
ATOM     80  C   UNL A   1      45.614  25.721  35.922  1.00  0.00     0.040 A 
ATOM     81  C   UNL A   1      47.012  27.540  35.190  1.00  0.00     0.040 A 
ATOM     82  F   UNL A   1      46.150  29.178  33.750  1.00  0.00    -0.206 F 
ATOM     83  C   UNL A   1      46.846  26.375  35.936  1.00  0.00     0.006 A 
ENDBRANCH  59  76
ENDBRANCH  33  34
ENDBRANCH  26  28
ENDBRANCH  25  26
ENDBRANCH  24  25
ENDBRANCH   1  24
TORSDOF 14
ENDMDL
MODEL 3
REMARK VINA RESULT:     -11.7      5.111      9.431
REMARK SMILES O=C(C[NH+]1CCN(c2ncc(C(F)(F)F)cc2Cl)CC1)OCCOC(=O)c1ccc(-c2c3nc(c(-c4c(F)cccc4F)c4ccc([nH]4)c(-c4c(F)cccc4F)c4nc(c(-c5c(F)cccc5F)c5ccc2[nH]5)C=C4)C=C3)cc1
REMARK SMILES IDX 22 1 21 2 2 3 1 4 3 5 4 6 5 7 20 8 6 10 19 11 7 12 8 13 9 14
REMARK SMILES IDX 17 15 10 16 16 17 18 18 11 19 12 20 13 21 14 22 15 23 23 24
REMARK SMILES IDX 24 25 25 26 26 27 27 28 28 29 80 30 29 31 79 32 30 33 31 34
REMARK SMILES IDX 32 35 73 36 33 37 78 38 72 39 74 40 34 41 77 42 71 43 70 44
REMARK SMILES IDX 35 46 61 47 44 48 60 49 45 50 48 51 59 52 75 53 46 54 47 55
REMARK SMILES IDX 58 57 76 58 49 59 36 60 37 61 42 62 38 63 39 64 41 65 43 66
REMARK SMILES IDX 40 67 62 68 63 69 68 70 64 71 65 72 67 73 69 74 66 75 50 76
REMARK SMILES IDX 51 77 56 78 52 79 53 80 55 81 57 82 54 83
REMARK H PARENT 4 9 74 45 48 56
REMARK Flexibility Score: inf
ROOT
ATOM      1  C   UNL A   1      36.051  20.535  25.021  1.00  0.00     0.274 C 
ENDROOT
BRANCH   1   2
ATOM      2  O   UNL A   1      35.926  21.894  25.460  1.00  0.00    -0.458 OA
BRANCH   2   3
ATOM      3  C   UNL A   1      34.680  22.288  25.849  1.00  0.00     0.361 C 
ATOM      4  O   UNL A   1      34.337  22.250  27.026  1.00  0.00    -0.245 OA
BRANCH   3   5
ATOM      5  C   UNL A   1      33.710  22.543  24.693  1.00  0.00     0.386 C 
BRANCH   5   6
ATOM      6  N   UNL A   1      34.090  23.707  23.864  1.00  0.00    -0.323 N 
ATOM      7  C   UNL A   1      33.169  23.925  22.718  1.00  0.00     0.284 C 
ATOM      8  C   UNL A   1      34.088  24.949  24.685  1.00  0.00     0.284 C 
ATOM      9  H   UNL A   1      35.022  23.500  23.504  1.00  0.00     0.348 HD
ATOM     10  C   UNL A   1      31.734  24.381  23.077  1.00  0.00     0.179 C 
ATOM     11  C   UNL A   1      32.686  25.464  25.109  1.00  0.00     0.179 C 
ATOM     12  N   UNL A   1      31.819  25.545  23.940  1.00  0.00    -0.344 N 
BRANCH  12  13
ATOM     13  C   UNL A   1      30.904  26.552  23.759  1.00  0.00     0.147 A 
ATOM     14  N   UNL A   1      29.602  26.253  23.998  1.00  0.00    -0.237 NA
ATOM     15  C   UNL A   1      31.271  27.791  23.209  1.00  0.00     0.084 A 
ATOM     16  C   UNL A   1      28.662  27.181  23.692  1.00  0.00     0.126 A 
ATOM     17  C   UNL A   1      30.282  28.715  22.879  1.00  0.00     0.039 A 
ATOM     18  Cl  UNL A   1      32.903  28.180  22.786  1.00  0.00    -0.080 Cl
ATOM     19  C   UNL A   1      28.942  28.407  23.111  1.00  0.00     0.075 A 
BRANCH  19  20
ATOM     20  C   UNL A   1      27.828  29.330  22.731  1.00  0.00     0.417 C 
ATOM     21  F   UNL A   1      27.851  29.654  21.409  1.00  0.00    -0.166 F 
ATOM     22  F   UNL A   1      26.601  28.795  22.966  1.00  0.00    -0.166 F 
ATOM     23  F   UNL A   1      27.857  30.514  23.403  1.00  0.00    -0.166 F 
ENDBRANCH  19  20
ENDBRANCH  12  13
ENDBRANCH   5   6
ENDBRANCH   3   5
ENDBRANCH   2   3
ENDBRANCH   1   2
BRANCH   1  24
ATOM     24  C   UNL A   1      37.503  20.045  25.029  1.00  0.00     0.275 C 
BRANCH  24  25
ATOM     25  O   UNL A   1      38.433  21.130  25.196  1.00  0.00    -0.458 OA
BRANCH  25  26
ATOM     26  C   UNL A   1      39.441  20.878  26.073  1.00  0.00     0.338 C 
ATOM     27  O   UNL A   1      40.012  19.812  26.237  1.00  0.00    -0.246 OA
BRANCH  26  28
ATOM     28  C   UNL A   1      39.897  22.138  26.708  1.00  0.00     0.060 A 
ATOM     29  C   UNL A   1      39.282  23.329  26.299  1.00  0.00     0.016 A 
ATOM     30  C   UNL A   1      40.892  22.171  27.690  1.00  0.00     0.016 A 
ATOM     31  C   UNL A   1      39.699  24.552  26.825  1.00  0.00     0.010 A 
ATOM     32  C   UNL A   1      41.298  23.398  28.231  1.00  0.00     0.010 A 
ATOM     33  C   UNL A   1      40.737  24.600  27.767  1.00  0.00    -0.014 A 
BRANCH  33  34
ATOM     34  C   UNL A   1      41.348  25.912  28.107  1.00  0.00     0.031 A 
ATOM     35  C   UNL A   1      42.737  26.214  27.610  1.00  0.00     0.074 A 
ATOM     36  C   UNL A   1      40.672  26.850  28.794  1.00  0.00     0.049 A 
ATOM     37  N   UNL A   1      43.423  27.327  27.681  1.00  0.00    -0.248 NA
ATOM     38  C   UNL A   1      43.447  25.112  26.942  1.00  0.00     0.031 C 
ATOM     39  C   UNL A   1      39.324  26.704  29.336  1.00  0.00     0.029 A 
ATOM     40  N   UNL A   1      41.038  28.129  29.144  1.00  0.00    -0.354 N 
ATOM     41  C   UNL A   1      44.636  27.062  27.058  1.00  0.00     0.074 A 
ATOM     42  C   UNL A   1      44.615  25.670  26.664  1.00  0.00     0.031 C 
ATOM     43  C   UNL A   1      38.971  27.852  29.943  1.00  0.00     0.029 A 
ATOM     44  C   UNL A   1      40.067  28.813  29.834  1.00  0.00     0.049 A 
ATOM     45  H   UNL A   1      41.915  28.517  28.920  1.00  0.00     0.167 HD
ATOM     46  C   UNL A   1      45.668  27.903  26.811  1.00  0.00     0.037 A 
ATOM     47  C   UNL A   1      40.062  30.074  30.309  1.00  0.00     0.037 A 
ATOM     48  C   UNL A   1      45.704  29.288  27.193  1.00  0.00     0.049 A 
ATOM     49  C   UNL A   1      41.245  30.977  30.068  1.00  0.00     0.074 A 
ATOM     50  C   UNL A   1      46.691  30.226  26.944  1.00  0.00     0.029 A 
ATOM     51  N   UNL A   1      44.715  29.931  27.917  1.00  0.00    -0.354 N 
ATOM     52  N   UNL A   1      42.349  30.740  29.401  1.00  0.00    -0.248 NA
ATOM     53  C   UNL A   1      41.171  32.332  30.638  1.00  0.00     0.031 C 
ATOM     54  C   UNL A   1      46.317  31.428  27.555  1.00  0.00     0.029 A 
ATOM     55  C   UNL A   1      45.079  31.246  28.149  1.00  0.00     0.049 A 
ATOM     56  H   UNL A   1      43.876  29.514  28.223  1.00  0.00     0.167 HD
ATOM     57  C   UNL A   1      43.076  31.925  29.433  1.00  0.00     0.074 A 
ATOM     58  C   UNL A   1      42.290  32.879  30.186  1.00  0.00     0.031 C 
ATOM     59  C   UNL A   1      44.283  32.198  28.881  1.00  0.00     0.037 A 
BRANCH  46  60
ATOM     60  C   UNL A   1      46.852  27.332  26.090  1.00  0.00     0.057 A 
ATOM     61  C   UNL A   1      46.972  27.414  24.697  1.00  0.00     0.134 A 
ATOM     62  C   UNL A   1      47.883  26.701  26.796  1.00  0.00     0.134 A 
ATOM     63  F   UNL A   1      46.009  27.992  23.964  1.00  0.00    -0.206 F 
ATOM     64  C   UNL A   1      48.066  26.864  24.027  1.00  0.00     0.040 A 
ATOM     65  C   UNL A   1      48.992  26.168  26.140  1.00  0.00     0.040 A 
ATOM     66  F   UNL A   1      47.827  26.593  28.132  1.00  0.00    -0.206 F 
ATOM     67  C   UNL A   1      49.082  26.242  24.751  1.00  0.00     0.006 A 
ENDBRANCH  46  60
BRANCH  47  68
ATOM     68  C   UNL A   1      38.878  30.593  31.039  1.00  0.00     0.057 A 
ATOM     69  C   UNL A   1      37.884  31.322  30.376  1.00  0.00     0.134 A 
ATOM     70  C   UNL A   1      38.740  30.419  32.421  1.00  0.00     0.134 A 
ATOM     71  F   UNL A   1      37.978  31.544  29.056  1.00  0.00    -0.206 F 
ATOM     72  C   UNL A   1      36.807  31.881  31.063  1.00  0.00     0.040 A 
ATOM     73  C   UNL A   1      37.657  30.956  33.118  1.00  0.00     0.040 A 
ATOM     74  F   UNL A   1      39.662  29.731  33.112  1.00  0.00    -0.206 F 
ATOM     75  C   UNL A   1      36.691  31.697  32.440  1.00  0.00     0.006 A 
ENDBRANCH  47  68
BRANCH  59  76
ATOM     76  C   UNL A   1      44.814  33.595  29.024  1.00  0.00     0.057 A 
ATOM     77  C   UNL A   1      44.499  34.605  28.108  1.00  0.00     0.134 A 
ATOM     78  C   UNL A   1      45.616  33.942  30.120  1.00  0.00     0.134 A 
ATOM     79  F   UNL A   1      43.744  34.336  27.031  1.00  0.00    -0.206 F 
ATOM     80  C   UNL A   1      44.979  35.908  28.263  1.00  0.00     0.040 A 
ATOM     81  C   UNL A   1      46.082  35.245  30.299  1.00  0.00     0.040 A 
ATOM     82  F   UNL A   1      45.948  33.024  31.039  1.00  0.00    -0.206 F 
ATOM     83  C   UNL A   1      45.768  36.232  29.366  1.00  0.00     0.006 A 
ENDBRANCH  59  76
ENDBRANCH  33  34
ENDBRANCH  26  28
ENDBRANCH  25  26
ENDBRANCH  24  25
ENDBRANCH   1  24
TORSDOF 14
ENDMDL
