MODEL 1
REMARK VINA RESULT:     -11.2      0.000      0.000
REMARK SMILES O=C(CCSc1nc(-c2cccs2)cc(C(F)(F)F)n1)OCCOC(=O)c1ccc(-c2c3nc(c(-c4c(F)cccc4F)c4ccc([nH]4)c(-c4c(F)cccc4F)c4nc(c(-c5c(F)cccc5F)c5ccc2[nH]5)C=C4)C=C3)cc1
REMARK SMILES IDX 22 1 21 2 2 3 1 4 3 5 4 6 5 7 6 8 7 9 20 10 8 11 15 12 14 13
REMARK SMILES IDX 9 14 10 15 13 16 11 17 12 18 16 19 17 20 18 21 19 22 23 23
REMARK SMILES IDX 24 24 25 25 26 26 27 27 28 28 80 29 29 30 79 31 30 32 31 33
REMARK SMILES IDX 32 34 73 35 33 36 78 37 72 38 74 39 34 40 77 41 71 42 70 43
REMARK SMILES IDX 35 45 61 46 44 47 60 48 45 49 48 50 59 51 75 52 46 53 47 54
REMARK SMILES IDX 58 56 76 57 49 58 36 59 37 60 42 61 38 62 39 63 41 64 43 65
REMARK SMILES IDX 40 66 62 67 63 68 68 69 64 70 65 71 67 72 69 73 66 74 50 75
REMARK SMILES IDX 51 76 56 77 52 78 53 79 55 80 57 81 54 82
REMARK H PARENT 74 44 48 55
REMARK Flexibility Score: inf
ROOT
ATOM      1  C   UNL A   1      43.210  21.376  26.069  1.00  0.00     0.274 C 
ENDROOT
BRANCH   1   2
ATOM      2  O   UNL A   1      41.860  21.325  25.549  1.00  0.00    -0.462 OA
BRANCH   2   3
ATOM      3  C   UNL A   1      40.745  21.008  26.243  1.00  0.00     0.306 C 
ATOM      4  O   UNL A   1      40.505  19.836  26.534  1.00  0.00    -0.252 OA
BRANCH   3   5
ATOM      5  C   UNL A   1      39.782  22.089  26.648  1.00  0.00     0.134 C 
BRANCH   5   6
ATOM      6  C   UNL A   1      38.493  22.045  25.837  1.00  0.00     0.090 C 
BRANCH   6   7
ATOM      7  S   UNL A   1      37.459  23.546  25.949  1.00  0.00    -0.086 SA
BRANCH   7   8
ATOM      8  C   UNL A   1      36.050  23.057  24.991  1.00  0.00     0.188 A 
ATOM      9  N   UNL A   1      35.425  23.990  24.280  1.00  0.00    -0.222 NA
ATOM     10  N   UNL A   1      35.601  21.808  25.145  1.00  0.00    -0.218 NA
ATOM     11  C   UNL A   1      34.283  23.612  23.672  1.00  0.00     0.085 A 
ATOM     12  C   UNL A   1      34.454  21.439  24.522  1.00  0.00     0.149 A 
ATOM     13  C   UNL A   1      33.747  22.343  23.761  1.00  0.00     0.063 A 
BRANCH  11  14
ATOM     14  C   UNL A   1      33.577  24.674  22.971  1.00  0.00     0.053 A 
ATOM     15  C   UNL A   1      32.878  24.605  21.781  1.00  0.00     0.022 A 
ATOM     16  S   UNL A   1      33.558  26.259  23.621  1.00  0.00    -0.142 S 
ATOM     17  C   UNL A   1      32.308  25.857  21.414  1.00  0.00     0.012 A 
ATOM     18  C   UNL A   1      32.604  26.844  22.328  1.00  0.00     0.065 A 
ENDBRANCH  11  14
BRANCH  12  19
ATOM     19  C   UNL A   1      33.914  20.028  24.727  1.00  0.00     0.433 C 
ATOM     20  F   UNL A   1      34.871  19.063  24.687  1.00  0.00    -0.165 F 
ATOM     21  F   UNL A   1      33.261  19.886  25.916  1.00  0.00    -0.165 F 
ATOM     22  F   UNL A   1      32.999  19.672  23.776  1.00  0.00    -0.165 F 
ENDBRANCH  12  19
ENDBRANCH   7   8
ENDBRANCH   6   7
ENDBRANCH   5   6
ENDBRANCH   3   5
ENDBRANCH   2   3
ENDBRANCH   1   2
BRANCH   1  23
ATOM     23  C   UNL A   1      44.104  22.159  25.114  1.00  0.00     0.275 C 
BRANCH  23  24
ATOM     24  O   UNL A   1      43.446  23.387  24.778  1.00  0.00    -0.458 OA
BRANCH  24  25
ATOM     25  C   UNL A   1      44.184  24.495  25.054  1.00  0.00     0.338 C 
ATOM     26  O   UNL A   1      45.254  24.811  24.572  1.00  0.00    -0.246 OA
BRANCH  25  27
ATOM     27  C   UNL A   1      43.385  25.378  25.922  1.00  0.00     0.060 A 
ATOM     28  C   UNL A   1      43.838  26.688  26.122  1.00  0.00     0.016 A 
ATOM     29  C   UNL A   1      42.224  24.918  26.549  1.00  0.00     0.016 A 
ATOM     30  C   UNL A   1      43.170  27.520  27.013  1.00  0.00     0.010 A 
ATOM     31  C   UNL A   1      41.555  25.752  27.441  1.00  0.00     0.010 A 
ATOM     32  C   UNL A   1      42.058  27.034  27.714  1.00  0.00    -0.014 A 
BRANCH  32  33
ATOM     33  C   UNL A   1      41.556  27.784  28.884  1.00  0.00     0.031 A 
ATOM     34  C   UNL A   1      42.275  27.618  30.194  1.00  0.00     0.074 A 
ATOM     35  C   UNL A   1      40.503  28.610  28.774  1.00  0.00     0.049 A 
ATOM     36  N   UNL A   1      42.033  28.178  31.351  1.00  0.00    -0.248 NA
ATOM     37  C   UNL A   1      43.419  26.690  30.201  1.00  0.00     0.031 C 
ATOM     38  C   UNL A   1      39.738  28.849  27.551  1.00  0.00     0.029 A 
ATOM     39  N   UNL A   1      39.894  29.396  29.716  1.00  0.00    -0.354 N 
ATOM     40  C   UNL A   1      43.002  27.684  32.214  1.00  0.00     0.074 A 
ATOM     41  C   UNL A   1      43.799  26.735  31.468  1.00  0.00     0.031 C 
ATOM     42  C   UNL A   1      38.749  29.718  27.822  1.00  0.00     0.029 A 
ATOM     43  C   UNL A   1      38.808  30.085  29.236  1.00  0.00     0.049 A 
ATOM     44  H   UNL A   1      40.205  29.461  30.648  1.00  0.00     0.167 HD
ATOM     45  C   UNL A   1      43.224  28.009  33.509  1.00  0.00     0.037 A 
ATOM     46  C   UNL A   1      37.960  30.911  29.875  1.00  0.00     0.037 A 
ATOM     47  C   UNL A   1      42.417  28.939  34.251  1.00  0.00     0.049 A 
ATOM     48  C   UNL A   1      38.198  31.220  31.330  1.00  0.00     0.074 A 
ATOM     49  C   UNL A   1      42.548  29.338  35.569  1.00  0.00     0.029 A 
ATOM     50  N   UNL A   1      41.322  29.616  33.734  1.00  0.00    -0.354 N 
ATOM     51  N   UNL A   1      39.139  30.778  32.130  1.00  0.00    -0.248 NA
ATOM     52  C   UNL A   1      37.264  32.161  31.966  1.00  0.00     0.031 C 
ATOM     53  C   UNL A   1      41.507  30.227  35.860  1.00  0.00     0.029 A 
ATOM     54  C   UNL A   1      40.757  30.418  34.710  1.00  0.00     0.049 A 
ATOM     55  H   UNL A   1      40.994  29.536  32.809  1.00  0.00     0.167 HD
ATOM     56  C   UNL A   1      38.927  31.403  33.352  1.00  0.00     0.074 A 
ATOM     57  C   UNL A   1      37.780  32.272  33.181  1.00  0.00     0.031 C 
ATOM     58  C   UNL A   1      39.614  31.272  34.514  1.00  0.00     0.037 A 
BRANCH  45  59
ATOM     59  C   UNL A   1      44.381  27.347  34.195  1.00  0.00     0.057 A 
ATOM     60  C   UNL A   1      44.252  26.092  34.806  1.00  0.00     0.134 A 
ATOM     61  C   UNL A   1      45.640  27.959  34.237  1.00  0.00     0.134 A 
ATOM     62  F   UNL A   1      43.068  25.461  34.819  1.00  0.00    -0.206 F 
ATOM     63  C   UNL A   1      45.327  25.479  35.451  1.00  0.00     0.040 A 
ATOM     64  C   UNL A   1      46.729  27.345  34.858  1.00  0.00     0.040 A 
ATOM     65  F   UNL A   1      45.832  29.162  33.675  1.00  0.00    -0.206 F 
ATOM     66  C   UNL A   1      46.573  26.103  35.472  1.00  0.00     0.006 A 
ENDBRANCH  45  59
BRANCH  46  67
ATOM     67  C   UNL A   1      36.813  31.509  29.148  1.00  0.00     0.057 A 
ATOM     68  C   UNL A   1      35.661  30.767  28.867  1.00  0.00     0.134 A 
ATOM     69  C   UNL A   1      36.852  32.835  28.698  1.00  0.00     0.134 A 
ATOM     70  F   UNL A   1      35.571  29.486  29.256  1.00  0.00    -0.206 F 
ATOM     71  C   UNL A   1      34.599  31.309  28.142  1.00  0.00     0.040 A 
ATOM     72  C   UNL A   1      35.787  33.398  27.993  1.00  0.00     0.040 A 
ATOM     73  F   UNL A   1      37.925  33.602  28.939  1.00  0.00    -0.206 F 
ATOM     74  C   UNL A   1      34.660  32.632  27.705  1.00  0.00     0.006 A 
ENDBRANCH  46  67
BRANCH  58  75
ATOM     75  C   UNL A   1      39.155  32.106  35.674  1.00  0.00     0.057 A 
ATOM     76  C   UNL A   1      38.296  31.596  36.657  1.00  0.00     0.134 A 
ATOM     77  C   UNL A   1      39.592  33.428  35.819  1.00  0.00     0.134 A 
ATOM     78  F   UNL A   1      37.833  30.340  36.570  1.00  0.00    -0.206 F 
ATOM     79  C   UNL A   1      37.861  32.384  37.724  1.00  0.00     0.040 A 
ATOM     80  C   UNL A   1      39.187  34.216  36.897  1.00  0.00     0.040 A 
ATOM     81  F   UNL A   1      40.425  33.974  34.920  1.00  0.00    -0.206 F 
ATOM     82  C   UNL A   1      38.311  33.697  37.849  1.00  0.00     0.006 A 
ENDBRANCH  58  75
ENDBRANCH  32  33
ENDBRANCH  25  27
ENDBRANCH  24  25
ENDBRANCH  23  24
ENDBRANCH   1  23
TORSDOF 16
ENDMDL
MODEL 2
REMARK VINA RESULT:     -11.0      1.606      2.224
REMARK SMILES O=C(CCSc1nc(-c2cccs2)cc(C(F)(F)F)n1)OCCOC(=O)c1ccc(-c2c3nc(c(-c4c(F)cccc4F)c4ccc([nH]4)c(-c4c(F)cccc4F)c4nc(c(-c5c(F)cccc5F)c5ccc2[nH]5)C=C4)C=C3)cc1
REMARK SMILES IDX 22 1 21 2 2 3 1 4 3 5 4 6 5 7 6 8 7 9 20 10 8 11 15 12 14 13
REMARK SMILES IDX 9 14 10 15 13 16 11 17 12 18 16 19 17 20 18 21 19 22 23 23
REMARK SMILES IDX 24 24 25 25 26 26 27 27 28 28 80 29 29 30 79 31 30 32 31 33
REMARK SMILES IDX 32 34 73 35 33 36 78 37 72 38 74 39 34 40 77 41 71 42 70 43
REMARK SMILES IDX 35 45 61 46 44 47 60 48 45 49 48 50 59 51 75 52 46 53 47 54
REMARK SMILES IDX 58 56 76 57 49 58 36 59 37 60 42 61 38 62 39 63 41 64 43 65
REMARK SMILES IDX 40 66 62 67 63 68 68 69 64 70 65 71 67 72 69 73 66 74 50 75
REMARK SMILES IDX 51 76 56 77 52 78 53 79 55 80 57 81 54 82
REMARK H PARENT 74 44 48 55
REMARK Flexibility Score: inf
ROOT
ATOM      1  C   UNL A   1      42.849  21.059  25.900  1.00  0.00     0.274 C 
ENDROOT
BRANCH   1   2
ATOM      2  O   UNL A   1      41.482  21.504  25.724  1.00  0.00    -0.462 OA
BRANCH   2   3
ATOM      3  C   UNL A   1      40.486  21.415  26.632  1.00  0.00     0.306 C 
ATOM      4  O   UNL A   1      40.573  20.631  27.577  1.00  0.00    -0.252 OA
BRANCH   3   5
ATOM      5  C   UNL A   1      39.256  22.265  26.479  1.00  0.00     0.134 C 
BRANCH   5   6
ATOM      6  C   UNL A   1      38.361  21.783  25.343  1.00  0.00     0.090 C 
BRANCH   6   7
ATOM      7  S   UNL A   1      38.219  19.968  25.190  1.00  0.00    -0.086 SA
BRANCH   7   8
ATOM      8  C   UNL A   1      36.473  19.788  24.934  1.00  0.00     0.188 A 
ATOM      9  N   UNL A   1      35.683  20.792  25.298  1.00  0.00    -0.222 NA
ATOM     10  N   UNL A   1      36.030  18.597  24.522  1.00  0.00    -0.218 NA
ATOM     11  C   UNL A   1      34.357  20.568  25.212  1.00  0.00     0.085 A 
ATOM     12  C   UNL A   1      34.692  18.387  24.433  1.00  0.00     0.149 A 
ATOM     13  C   UNL A   1      33.803  19.377  24.787  1.00  0.00     0.063 A 
BRANCH  11  14
ATOM     14  C   UNL A   1      33.516  21.653  25.697  1.00  0.00     0.053 A 
ATOM     15  C   UNL A   1      33.860  22.705  26.526  1.00  0.00     0.022 A 
ATOM     16  S   UNL A   1      31.866  21.721  25.245  1.00  0.00    -0.142 S 
ATOM     17  C   UNL A   1      32.764  23.580  26.771  1.00  0.00     0.012 A 
ATOM     18  C   UNL A   1      31.617  23.158  26.136  1.00  0.00     0.065 A 
ENDBRANCH  11  14
BRANCH  12  19
ATOM     19  C   UNL A   1      34.178  17.018  24.004  1.00  0.00     0.433 C 
ATOM     20  F   UNL A   1      34.724  15.985  24.697  1.00  0.00    -0.165 F 
ATOM     21  F   UNL A   1      32.824  16.904  24.130  1.00  0.00    -0.165 F 
ATOM     22  F   UNL A   1      34.435  16.749  22.688  1.00  0.00    -0.165 F 
ENDBRANCH  12  19
ENDBRANCH   7   8
ENDBRANCH   6   7
ENDBRANCH   5   6
ENDBRANCH   3   5
ENDBRANCH   2   3
ENDBRANCH   1   2
BRANCH   1  23
ATOM     23  C   UNL A   1      43.787  21.927  25.070  1.00  0.00     0.275 C 
BRANCH  23  24
ATOM     24  O   UNL A   1      43.142  23.181  24.814  1.00  0.00    -0.458 OA
BRANCH  24  25
ATOM     25  C   UNL A   1      43.930  24.261  25.057  1.00  0.00     0.338 C 
ATOM     26  O   UNL A   1      45.003  24.523  24.552  1.00  0.00    -0.246 OA
BRANCH  25  27
ATOM     27  C   UNL A   1      43.183  25.192  25.922  1.00  0.00     0.060 A 
ATOM     28  C   UNL A   1      43.710  26.475  26.114  1.00  0.00     0.016 A 
ATOM     29  C   UNL A   1      42.000  24.802  26.553  1.00  0.00     0.016 A 
ATOM     30  C   UNL A   1      43.092  27.349  27.002  1.00  0.00     0.010 A 
ATOM     31  C   UNL A   1      41.380  25.676  27.441  1.00  0.00     0.010 A 
ATOM     32  C   UNL A   1      41.956  26.930  27.707  1.00  0.00    -0.014 A 
BRANCH  32  33
ATOM     33  C   UNL A   1      41.499  27.713  28.874  1.00  0.00     0.031 A 
ATOM     34  C   UNL A   1      42.248  27.559  30.168  1.00  0.00     0.074 A 
ATOM     35  C   UNL A   1      40.459  28.557  28.774  1.00  0.00     0.049 A 
ATOM     36  N   UNL A   1      42.047  28.146  31.319  1.00  0.00    -0.248 NA
ATOM     37  C   UNL A   1      43.373  26.608  30.165  1.00  0.00     0.031 C 
ATOM     38  C   UNL A   1      39.668  28.787  27.566  1.00  0.00     0.029 A 
ATOM     39  N   UNL A   1      39.891  29.374  29.715  1.00  0.00    -0.354 N 
ATOM     40  C   UNL A   1      43.028  27.650  32.167  1.00  0.00     0.074 A 
ATOM     41  C   UNL A   1      43.787  26.671  31.421  1.00  0.00     0.031 C 
ATOM     42  C   UNL A   1      38.703  29.682  27.844  1.00  0.00     0.029 A 
ATOM     43  C   UNL A   1      38.806  30.075  29.248  1.00  0.00     0.049 A 
ATOM     44  H   UNL A   1      40.227  29.452  30.637  1.00  0.00     0.167 HD
ATOM     45  C   UNL A   1      43.290  27.997  33.449  1.00  0.00     0.037 A 
ATOM     46  C   UNL A   1      37.992  30.931  29.892  1.00  0.00     0.037 A 
ATOM     47  C   UNL A   1      42.521  28.957  34.193  1.00  0.00     0.049 A 
ATOM     48  C   UNL A   1      38.273  31.264  31.334  1.00  0.00     0.074 A 
ATOM     49  C   UNL A   1      42.694  29.380  35.498  1.00  0.00     0.029 A 
ATOM     50  N   UNL A   1      41.426  29.645  33.690  1.00  0.00    -0.354 N 
ATOM     51  N   UNL A   1      39.225  30.819  32.118  1.00  0.00    -0.248 NA
ATOM     52  C   UNL A   1      37.375  32.236  31.974  1.00  0.00     0.031 C 
ATOM     53  C   UNL A   1      41.678  30.295  35.797  1.00  0.00     0.029 A 
ATOM     54  C   UNL A   1      40.903  30.478  34.663  1.00  0.00     0.049 A 
ATOM     55  H   UNL A   1      41.073  29.553  32.775  1.00  0.00     0.167 HD
ATOM     56  C   UNL A   1      39.057  31.472  33.332  1.00  0.00     0.074 A 
ATOM     57  C   UNL A   1      37.924  32.361  33.173  1.00  0.00     0.031 C 
ATOM     58  C   UNL A   1      39.772  31.350  34.479  1.00  0.00     0.037 A 
BRANCH  45  59
ATOM     59  C   UNL A   1      44.451  27.325  34.119  1.00  0.00     0.057 A 
ATOM     60  C   UNL A   1      45.732  27.895  34.112  1.00  0.00     0.134 A 
ATOM     61  C   UNL A   1      44.291  26.106  34.787  1.00  0.00     0.134 A 
ATOM     62  F   UNL A   1      45.958  29.052  33.471  1.00  0.00    -0.206 F 
ATOM     63  C   UNL A   1      46.815  27.267  34.729  1.00  0.00     0.040 A 
ATOM     64  C   UNL A   1      45.361  25.479  35.429  1.00  0.00     0.040 A 
ATOM     65  F   UNL A   1      43.093  25.504  34.829  1.00  0.00    -0.206 F 
ATOM     66  C   UNL A   1      46.629  26.057  35.396  1.00  0.00     0.006 A 
ENDBRANCH  45  59
BRANCH  46  67
ATOM     67  C   UNL A   1      36.838  31.537  29.183  1.00  0.00     0.057 A 
ATOM     68  C   UNL A   1      35.665  30.812  28.944  1.00  0.00     0.134 A 
ATOM     69  C   UNL A   1      36.890  32.853  28.706  1.00  0.00     0.134 A 
ATOM     70  F   UNL A   1      35.562  29.540  29.359  1.00  0.00    -0.206 F 
ATOM     71  C   UNL A   1      34.597  31.361  28.235  1.00  0.00     0.040 A 
ATOM     72  C   UNL A   1      35.819  33.424  28.018  1.00  0.00     0.040 A 
ATOM     73  F   UNL A   1      37.983  33.604  28.907  1.00  0.00    -0.206 F 
ATOM     74  C   UNL A   1      34.671  32.674  27.772  1.00  0.00     0.006 A 
ENDBRANCH  46  67
BRANCH  58  75
ATOM     75  C   UNL A   1      39.359  32.217  35.633  1.00  0.00     0.057 A 
ATOM     76  C   UNL A   1      39.859  33.516  35.796  1.00  0.00     0.134 A 
ATOM     77  C   UNL A   1      38.438  31.754  36.580  1.00  0.00     0.134 A 
ATOM     78  F   UNL A   1      40.753  34.015  34.930  1.00  0.00    -0.206 F 
ATOM     79  C   UNL A   1      39.482  34.310  36.881  1.00  0.00     0.040 A 
ATOM     80  C   UNL A   1      38.032  32.549  37.652  1.00  0.00     0.040 A 
ATOM     81  F   UNL A   1      37.911  30.524  36.475  1.00  0.00    -0.206 F 
ATOM     82  C   UNL A   1      38.562  33.828  37.810  1.00  0.00     0.006 A 
ENDBRANCH  58  75
ENDBRANCH  32  33
ENDBRANCH  25  27
ENDBRANCH  24  25
ENDBRANCH  23  24
ENDBRANCH   1  23
TORSDOF 16
ENDMDL
MODEL 3
REMARK VINA RESULT:     -10.8      5.423     10.214
REMARK SMILES O=C(CCSc1nc(-c2cccs2)cc(C(F)(F)F)n1)OCCOC(=O)c1ccc(-c2c3nc(c(-c4c(F)cccc4F)c4ccc([nH]4)c(-c4c(F)cccc4F)c4nc(c(-c5c(F)cccc5F)c5ccc2[nH]5)C=C4)C=C3)cc1
REMARK SMILES IDX 22 1 21 2 2 3 1 4 3 5 4 6 5 7 6 8 7 9 20 10 8 11 15 12 14 13
REMARK SMILES IDX 9 14 10 15 13 16 11 17 12 18 16 19 17 20 18 21 19 22 23 23
REMARK SMILES IDX 24 24 25 25 26 26 27 27 28 28 80 29 29 30 79 31 30 32 31 33
REMARK SMILES IDX 32 34 73 35 33 36 78 37 72 38 74 39 34 40 77 41 71 42 70 43
REMARK SMILES IDX 35 45 61 46 44 47 60 48 45 49 48 50 59 51 75 52 46 53 47 54
REMARK SMILES IDX 58 56 76 57 49 58 36 59 37 60 42 61 38 62 39 63 41 64 43 65
REMARK SMILES IDX 40 66 62 67 63 68 68 69 64 70 65 71 67 72 69 73 66 74 50 75
REMARK SMILES IDX 51 76 56 77 52 78 53 79 55 80 57 81 54 82
REMARK H PARENT 74 44 48 55
REMARK Flexibility Score: inf
ROOT
ATOM      1  C   UNL A   1      34.435  33.745  30.407  1.00  0.00     0.274 C 
ENDROOT
BRANCH   1   2
ATOM      2  O   UNL A   1      34.464  32.579  29.549  1.00  0.00    -0.462 OA
BRANCH   2   3
ATOM      3  C   UNL A   1      34.884  32.538  28.266  1.00  0.00     0.306 C 
ATOM      4  O   UNL A   1      34.985  33.575  27.610  1.00  0.00    -0.252 OA
BRANCH   3   5
ATOM      5  C   UNL A   1      35.213  31.217  27.629  1.00  0.00     0.134 C 
BRANCH   5   6
ATOM      6  C   UNL A   1      34.011  30.280  27.592  1.00  0.00     0.090 C 
BRANCH   6   7
ATOM      7  S   UNL A   1      32.474  31.022  26.942  1.00  0.00    -0.086 SA
BRANCH   7   8
ATOM      8  C   UNL A   1      31.971  29.786  25.775  1.00  0.00     0.188 A 
ATOM      9  N   UNL A   1      32.666  28.654  25.727  1.00  0.00    -0.222 NA
ATOM     10  N   UNL A   1      31.010  30.113  24.905  1.00  0.00    -0.218 NA
ATOM     11  C   UNL A   1      32.339  27.796  24.741  1.00  0.00     0.085 A 
ATOM     12  C   UNL A   1      30.687  29.236  23.922  1.00  0.00     0.149 A 
ATOM     13  C   UNL A   1      31.355  28.038  23.804  1.00  0.00     0.063 A 
BRANCH  11  14
ATOM     14  C   UNL A   1      33.171  26.605  24.661  1.00  0.00     0.053 A 
ATOM     15  C   UNL A   1      33.878  25.978  25.670  1.00  0.00     0.022 A 
ATOM     16  S   UNL A   1      33.373  25.804  23.160  1.00  0.00    -0.142 S 
ATOM     17  C   UNL A   1      34.570  24.822  25.209  1.00  0.00     0.012 A 
ATOM     18  C   UNL A   1      34.383  24.616  23.860  1.00  0.00     0.065 A 
ENDBRANCH  11  14
BRANCH  12  19
ATOM     19  C   UNL A   1      29.621  29.620  22.901  1.00  0.00     0.433 C 
ATOM     20  F   UNL A   1      29.091  30.854  23.100  1.00  0.00    -0.165 F 
ATOM     21  F   UNL A   1      30.091  29.594  21.620  1.00  0.00    -0.165 F 
ATOM     22  F   UNL A   1      28.557  28.762  22.905  1.00  0.00    -0.165 F 
ENDBRANCH  12  19
ENDBRANCH   7   8
ENDBRANCH   6   7
ENDBRANCH   5   6
ENDBRANCH   3   5
ENDBRANCH   2   3
ENDBRANCH   1   2
BRANCH   1  23
ATOM     23  C   UNL A   1      34.633  33.326  31.859  1.00  0.00     0.275 C 
BRANCH  23  24
ATOM     24  O   UNL A   1      35.183  32.002  31.880  1.00  0.00    -0.458 OA
BRANCH  24  25
ATOM     25  C   UNL A   1      36.284  31.880  32.668  1.00  0.00     0.338 C 
ATOM     26  O   UNL A   1      36.390  32.180  33.841  1.00  0.00    -0.246 OA
BRANCH  25  27
ATOM     27  C   UNL A   1      37.312  31.141  31.915  1.00  0.00     0.060 A 
ATOM     28  C   UNL A   1      38.383  30.592  32.631  1.00  0.00     0.016 A 
ATOM     29  C   UNL A   1      37.238  31.012  30.526  1.00  0.00     0.016 A 
ATOM     30  C   UNL A   1      39.425  29.976  31.948  1.00  0.00     0.010 A 
ATOM     31  C   UNL A   1      38.281  30.394  29.842  1.00  0.00     0.010 A 
ATOM     32  C   UNL A   1      39.401  29.924  30.548  1.00  0.00    -0.014 A 
BRANCH  32  33
ATOM     33  C   UNL A   1      40.636  29.578  29.814  1.00  0.00     0.031 A 
ATOM     34  C   UNL A   1      40.769  28.183  29.269  1.00  0.00     0.074 A 
ATOM     35  C   UNL A   1      41.602  30.490  29.619  1.00  0.00     0.049 A 
ATOM     36  N   UNL A   1      41.746  27.649  28.583  1.00  0.00    -0.248 NA
ATOM     37  C   UNL A   1      39.650  27.264  29.539  1.00  0.00     0.031 C 
ATOM     38  C   UNL A   1      41.571  31.871  30.099  1.00  0.00     0.029 A 
ATOM     39  N   UNL A   1      42.801  30.383  28.965  1.00  0.00    -0.354 N 
ATOM     40  C   UNL A   1      41.351  26.343  28.326  1.00  0.00     0.074 A 
ATOM     41  C   UNL A   1      40.076  26.144  28.979  1.00  0.00     0.031 C 
ATOM     42  C   UNL A   1      42.712  32.482  29.732  1.00  0.00     0.029 A 
ATOM     43  C   UNL A   1      43.550  31.532  29.003  1.00  0.00     0.049 A 
ATOM     44  H   UNL A   1      43.096  29.561  28.512  1.00  0.00     0.167 HD
ATOM     45  C   UNL A   1      41.984  25.399  27.592  1.00  0.00     0.037 A 
ATOM     46  C   UNL A   1      44.776  31.778  28.507  1.00  0.00     0.037 A 
ATOM     47  C   UNL A   1      43.260  25.596  26.961  1.00  0.00     0.049 A 
ATOM     48  C   UNL A   1      45.483  30.695  27.735  1.00  0.00     0.074 A 
ATOM     49  C   UNL A   1      43.996  24.706  26.199  1.00  0.00     0.029 A 
ATOM     50  N   UNL A   1      43.994  26.772  27.024  1.00  0.00    -0.354 N 
ATOM     51  N   UNL A   1      45.087  29.474  27.465  1.00  0.00    -0.248 NA
ATOM     52  C   UNL A   1      46.803  31.033  27.181  1.00  0.00     0.031 C 
ATOM     53  C   UNL A   1      45.193  25.332  25.834  1.00  0.00     0.029 A 
ATOM     54  C   UNL A   1      45.181  26.627  26.327  1.00  0.00     0.049 A 
ATOM     55  H   UNL A   1      43.711  27.589  27.495  1.00  0.00     0.167 HD
ATOM     56  C   UNL A   1      46.093  28.908  26.692  1.00  0.00     0.074 A 
ATOM     57  C   UNL A   1      47.108  29.927  26.518  1.00  0.00     0.031 C 
ATOM     58  C   UNL A   1      46.175  27.657  26.172  1.00  0.00     0.037 A 
BRANCH  45  59
ATOM     59  C   UNL A   1      41.300  24.072  27.443  1.00  0.00     0.057 A 
ATOM     60  C   UNL A   1      40.194  23.907  26.597  1.00  0.00     0.134 A 
ATOM     61  C   UNL A   1      41.754  22.945  28.137  1.00  0.00     0.134 A 
ATOM     62  F   UNL A   1      39.697  24.952  25.918  1.00  0.00    -0.206 F 
ATOM     63  C   UNL A   1      39.554  22.675  26.463  1.00  0.00     0.040 A 
ATOM     64  C   UNL A   1      41.137  21.702  27.994  1.00  0.00     0.040 A 
ATOM     65  F   UNL A   1      42.806  23.033  28.966  1.00  0.00    -0.206 F 
ATOM     66  C   UNL A   1      40.030  21.565  27.158  1.00  0.00     0.006 A 
ENDBRANCH  45  59
BRANCH  46  67
ATOM     67  C   UNL A   1      45.414  33.101  28.718  1.00  0.00     0.057 A 
ATOM     68  C   UNL A   1      45.323  34.116  27.758  1.00  0.00     0.134 A 
ATOM     69  C   UNL A   1      46.151  33.375  29.877  1.00  0.00     0.134 A 
ATOM     70  F   UNL A   1      44.648  33.908  26.618  1.00  0.00    -0.206 F 
ATOM     71  C   UNL A   1      45.961  35.344  27.930  1.00  0.00     0.040 A 
ATOM     72  C   UNL A   1      46.773  34.608  30.073  1.00  0.00     0.040 A 
ATOM     73  F   UNL A   1      46.272  32.447  30.838  1.00  0.00    -0.206 F 
ATOM     74  C   UNL A   1      46.687  35.594  29.093  1.00  0.00     0.006 A 
ENDBRANCH  46  67
BRANCH  58  75
ATOM     75  C   UNL A   1      47.390  27.341  25.350  1.00  0.00     0.057 A 
ATOM     76  C   UNL A   1      47.452  27.635  23.981  1.00  0.00     0.134 A 
ATOM     77  C   UNL A   1      48.517  26.754  25.938  1.00  0.00     0.134 A 
ATOM     78  F   UNL A   1      46.403  28.188  23.356  1.00  0.00    -0.206 F 
ATOM     79  C   UNL A   1      48.581  27.324  23.221  1.00  0.00     0.040 A 
ATOM     80  C   UNL A   1      49.661  26.464  25.194  1.00  0.00     0.040 A 
ATOM     81  F   UNL A   1      48.528  26.459  27.247  1.00  0.00    -0.206 F 
ATOM     82  C   UNL A   1      49.691  26.741  23.828  1.00  0.00     0.006 A 
ENDBRANCH  58  75
ENDBRANCH  32  33
ENDBRANCH  25  27
ENDBRANCH  24  25
ENDBRANCH  23  24
ENDBRANCH   1  23
TORSDOF 16
ENDMDL
