MODEL 1
REMARK VINA RESULT:     -10.3      0.000      0.000
REMARK SMILES C[C@@H](C(=O)OCCOC(=O)c1ccc(-c2c3nc(c(-c4c(F)cccc4F)c4ccc([nH]4)c(-c4c(F)cccc4F)c4nc(c(-c5c(F)cccc5F)c5ccc2[nH]5)C=C4)C=C3)cc1)[C@@H](C)C(=O)c1cccc(Cl)c1
REMARK SMILES IDX 6 1 5 2 3 3 4 4 2 5 1 6 65 7 66 8 67 9 68 10 69 11 70 12
REMARK SMILES IDX 75 13 71 14 73 15 72 16 74 17 7 18 8 19 9 20 10 21 11 22
REMARK SMILES IDX 12 23 64 24 13 25 63 26 14 27 15 28 16 29 57 30 17 31 62 32
REMARK SMILES IDX 56 33 58 34 18 35 61 36 55 37 54 38 19 40 45 41 28 42 44 43
REMARK SMILES IDX 29 44 32 45 43 46 59 47 30 48 31 49 42 51 60 52 33 53 20 54
REMARK SMILES IDX 21 55 26 56 22 57 23 58 25 59 27 60 24 61 46 62 47 63 52 64
REMARK SMILES IDX 48 65 49 66 51 67 53 68 50 69 34 70 35 71 40 72 36 73 37 74
REMARK SMILES IDX 39 75 41 76 38 77
REMARK H PARENT 58 39 32 50
REMARK Flexibility Score: inf
ROOT
ATOM      1  C   UNL A   1      31.429  29.225  24.119  1.00  0.00     0.274 C 
ENDROOT
BRANCH   1   2
ATOM      2  O   UNL A   1      30.439  28.182  24.228  1.00  0.00    -0.462 OA
BRANCH   2   3
ATOM      3  C   UNL A   1      30.886  26.901  24.119  1.00  0.00     0.309 C 
ATOM      4  O   UNL A   1      30.175  25.916  24.248  1.00  0.00    -0.252 OA
BRANCH   3   5
ATOM      5  C   UNL A   1      32.403  26.842  23.916  1.00  0.00     0.106 C 
ATOM      6  C   UNL A   1      32.753  26.097  22.615  1.00  0.00     0.021 C 
BRANCH   5   7
ATOM      7  C   UNL A   1      33.169  26.214  25.112  1.00  0.00     0.072 C 
ATOM      8  C   UNL A   1      32.635  26.650  26.480  1.00  0.00     0.017 C 
BRANCH   7   9
ATOM      9  C   UNL A   1      33.434  24.701  25.159  1.00  0.00     0.166 C 
ATOM     10  O   UNL A   1      32.478  23.933  25.305  1.00  0.00    -0.294 OA
BRANCH   9  11
ATOM     11  C   UNL A   1      34.774  24.084  24.904  1.00  0.00     0.019 A 
ATOM     12  C   UNL A   1      34.888  23.234  23.788  1.00  0.00     0.012 A 
ATOM     13  C   UNL A   1      35.888  24.265  25.725  1.00  0.00     0.032 A 
ATOM     14  C   UNL A   1      36.085  22.574  23.504  1.00  0.00     0.002 A 
ATOM     15  C   UNL A   1      37.076  23.586  25.446  1.00  0.00     0.041 A 
ATOM     16  C   UNL A   1      37.182  22.745  24.341  1.00  0.00     0.020 A 
ATOM     17  Cl  UNL A   1      38.426  23.779  26.499  1.00  0.00    -0.084 Cl
ENDBRANCH   9  11
ENDBRANCH   7   9
ENDBRANCH   5   7
ENDBRANCH   3   5
ENDBRANCH   2   3
ENDBRANCH   1   2
BRANCH   1  18
ATOM     18  C   UNL A   1      31.420  30.082  25.382  1.00  0.00     0.275 C 
BRANCH  18  19
ATOM     19  O   UNL A   1      32.776  30.277  25.815  1.00  0.00    -0.458 OA
BRANCH  19  20
ATOM     20  C   UNL A   1      32.964  31.168  26.812  1.00  0.00     0.338 C 
ATOM     21  O   UNL A   1      32.210  32.060  27.167  1.00  0.00    -0.246 OA
BRANCH  20  22
ATOM     22  C   UNL A   1      34.262  30.897  27.453  1.00  0.00     0.060 A 
ATOM     23  C   UNL A   1      34.607  29.588  27.783  1.00  0.00     0.016 A 
ATOM     24  C   UNL A   1      35.104  31.953  27.802  1.00  0.00     0.016 A 
ATOM     25  C   UNL A   1      35.769  29.331  28.507  1.00  0.00     0.010 A 
ATOM     26  C   UNL A   1      36.306  31.684  28.466  1.00  0.00     0.010 A 
ATOM     27  C   UNL A   1      36.639  30.372  28.846  1.00  0.00    -0.014 A 
BRANCH  27  28
ATOM     28  C   UNL A   1      37.854  30.095  29.657  1.00  0.00     0.031 A 
ATOM     29  C   UNL A   1      38.955  29.251  29.076  1.00  0.00     0.074 A 
ATOM     30  C   UNL A   1      38.000  30.617  30.890  1.00  0.00     0.049 A 
ATOM     31  N   UNL A   1      40.010  28.745  29.662  1.00  0.00    -0.248 NA
ATOM     32  C   UNL A   1      38.854  28.938  27.642  1.00  0.00     0.031 C 
ATOM     33  C   UNL A   1      37.062  31.530  31.544  1.00  0.00     0.029 A 
ATOM     34  N   UNL A   1      39.007  30.459  31.810  1.00  0.00    -0.354 N 
ATOM     35  C   UNL A   1      40.672  28.016  28.683  1.00  0.00     0.074 A 
ATOM     36  C   UNL A   1      39.902  28.147  27.464  1.00  0.00     0.031 C 
ATOM     37  C   UNL A   1      37.546  31.864  32.751  1.00  0.00     0.029 A 
ATOM     38  C   UNL A   1      38.790  31.137  32.985  1.00  0.00     0.049 A 
ATOM     39  H   UNL A   1      39.808  29.910  31.645  1.00  0.00     0.167 HD
ATOM     40  C   UNL A   1      41.815  27.300  28.791  1.00  0.00     0.037 A 
ATOM     41  C   UNL A   1      39.492  31.143  34.134  1.00  0.00     0.037 A 
ATOM     42  C   UNL A   1      42.607  27.205  29.989  1.00  0.00     0.049 A 
ATOM     43  C   UNL A   1      40.721  30.286  34.253  1.00  0.00     0.074 A 
ATOM     44  C   UNL A   1      43.773  26.491  30.200  1.00  0.00     0.029 A 
ATOM     45  N   UNL A   1      42.320  27.864  31.174  1.00  0.00    -0.354 N 
ATOM     46  N   UNL A   1      41.295  29.533  33.348  1.00  0.00    -0.248 NA
ATOM     47  C   UNL A   1      41.387  30.262  35.564  1.00  0.00     0.031 C 
ATOM     48  C   UNL A   1      44.178  26.696  31.524  1.00  0.00     0.029 A 
ATOM     49  C   UNL A   1      43.281  27.564  32.125  1.00  0.00     0.049 A 
ATOM     50  H   UNL A   1      41.548  28.458  31.318  1.00  0.00     0.167 HD
ATOM     51  C   UNL A   1      42.391  28.953  33.973  1.00  0.00     0.074 A 
ATOM     52  C   UNL A   1      42.414  29.457  35.331  1.00  0.00     0.031 C 
ATOM     53  C   UNL A   1      43.293  28.078  33.469  1.00  0.00     0.037 A 
BRANCH  40  54
ATOM     54  C   UNL A   1      42.255  26.526  27.586  1.00  0.00     0.057 A 
ATOM     55  C   UNL A   1      43.089  27.081  26.609  1.00  0.00     0.134 A 
ATOM     56  C   UNL A   1      41.848  25.197  27.415  1.00  0.00     0.134 A 
ATOM     57  F   UNL A   1      43.497  28.355  26.708  1.00  0.00    -0.206 F 
ATOM     58  C   UNL A   1      43.490  26.345  25.492  1.00  0.00     0.040 A 
ATOM     59  C   UNL A   1      42.257  24.445  26.314  1.00  0.00     0.040 A 
ATOM     60  F   UNL A   1      41.049  24.608  28.318  1.00  0.00    -0.206 F 
ATOM     61  C   UNL A   1      43.077  25.022  25.346  1.00  0.00     0.006 A 
ENDBRANCH  40  54
BRANCH  41  62
ATOM     62  C   UNL A   1      39.024  31.951  35.287  1.00  0.00     0.057 A 
ATOM     63  C   UNL A   1      38.250  31.380  36.303  1.00  0.00     0.134 A 
ATOM     64  C   UNL A   1      39.322  33.315  35.390  1.00  0.00     0.134 A 
ATOM     65  F   UNL A   1      37.906  30.085  36.246  1.00  0.00    -0.206 F 
ATOM     66  C   UNL A   1      37.780  32.140  37.378  1.00  0.00     0.040 A 
ATOM     67  C   UNL A   1      38.880  34.080  36.470  1.00  0.00     0.040 A 
ATOM     68  F   UNL A   1      40.054  33.922  34.445  1.00  0.00    -0.206 F 
ATOM     69  C   UNL A   1      38.101  33.494  37.465  1.00  0.00     0.006 A 
ENDBRANCH  41  62
BRANCH  53  70
ATOM     70  C   UNL A   1      44.393  27.629  34.382  1.00  0.00     0.057 A 
ATOM     71  C   UNL A   1      44.275  26.469  35.156  1.00  0.00     0.134 A 
ATOM     72  C   UNL A   1      45.592  28.346  34.462  1.00  0.00     0.134 A 
ATOM     73  F   UNL A   1      43.144  25.748  35.133  1.00  0.00    -0.206 F 
ATOM     74  C   UNL A   1      45.310  26.043  35.990  1.00  0.00     0.040 A 
ATOM     75  C   UNL A   1      46.640  27.921  35.279  1.00  0.00     0.040 A 
ATOM     76  F   UNL A   1      45.768  29.463  33.741  1.00  0.00    -0.206 F 
ATOM     77  C   UNL A   1      46.499  26.767  36.048  1.00  0.00     0.006 A 
ENDBRANCH  53  70
ENDBRANCH  27  28
ENDBRANCH  20  22
ENDBRANCH  19  20
ENDBRANCH  18  19
ENDBRANCH   1  18
TORSDOF 14
ENDMDL
MODEL 2
REMARK VINA RESULT:     -10.3      2.554      7.357
REMARK SMILES C[C@@H](C(=O)OCCOC(=O)c1ccc(-c2c3nc(c(-c4c(F)cccc4F)c4ccc([nH]4)c(-c4c(F)cccc4F)c4nc(c(-c5c(F)cccc5F)c5ccc2[nH]5)C=C4)C=C3)cc1)[C@@H](C)C(=O)c1cccc(Cl)c1
REMARK SMILES IDX 6 1 5 2 3 3 4 4 2 5 1 6 65 7 66 8 67 9 68 10 69 11 70 12
REMARK SMILES IDX 75 13 71 14 73 15 72 16 74 17 7 18 8 19 9 20 10 21 11 22
REMARK SMILES IDX 12 23 64 24 13 25 63 26 14 27 15 28 16 29 57 30 17 31 62 32
REMARK SMILES IDX 56 33 58 34 18 35 61 36 55 37 54 38 19 40 45 41 28 42 44 43
REMARK SMILES IDX 29 44 32 45 43 46 59 47 30 48 31 49 42 51 60 52 33 53 20 54
REMARK SMILES IDX 21 55 26 56 22 57 23 58 25 59 27 60 24 61 46 62 47 63 52 64
REMARK SMILES IDX 48 65 49 66 51 67 53 68 50 69 34 70 35 71 40 72 36 73 37 74
REMARK SMILES IDX 39 75 41 76 38 77
REMARK H PARENT 58 39 32 50
REMARK Flexibility Score: inf
ROOT
ATOM      1  C   UNL A   1      31.380  31.274  26.488  1.00  0.00     0.274 C 
ENDROOT
BRANCH   1   2
ATOM      2  O   UNL A   1      32.656  30.823  25.987  1.00  0.00    -0.462 OA
BRANCH   2   3
ATOM      3  C   UNL A   1      32.972  29.517  26.208  1.00  0.00     0.309 C 
ATOM      4  O   UNL A   1      34.114  29.082  26.210  1.00  0.00    -0.252 OA
BRANCH   3   5
ATOM      5  C   UNL A   1      31.721  28.644  26.352  1.00  0.00     0.106 C 
ATOM      6  C   UNL A   1      31.667  27.992  27.745  1.00  0.00     0.021 C 
BRANCH   5   7
ATOM      7  C   UNL A   1      31.587  27.559  25.249  1.00  0.00     0.072 C 
ATOM      8  C   UNL A   1      30.814  26.316  25.702  1.00  0.00     0.017 C 
BRANCH   7   9
ATOM      9  C   UNL A   1      31.108  27.937  23.839  1.00  0.00     0.166 C 
ATOM     10  O   UNL A   1      31.703  27.470  22.863  1.00  0.00    -0.294 OA
BRANCH   9  11
ATOM     11  C   UNL A   1      29.871  28.737  23.568  1.00  0.00     0.019 A 
ATOM     12  C   UNL A   1      28.694  28.021  23.281  1.00  0.00     0.012 A 
ATOM     13  C   UNL A   1      29.832  30.131  23.539  1.00  0.00     0.032 A 
ATOM     14  C   UNL A   1      27.506  28.684  22.965  1.00  0.00     0.002 A 
ATOM     15  C   UNL A   1      28.646  30.787  23.203  1.00  0.00     0.041 A 
ATOM     16  C   UNL A   1      27.485  30.074  22.918  1.00  0.00     0.020 A 
ATOM     17  Cl  UNL A   1      28.627  32.508  23.120  1.00  0.00    -0.084 Cl
ENDBRANCH   9  11
ENDBRANCH   7   9
ENDBRANCH   5   7
ENDBRANCH   3   5
ENDBRANCH   2   3
ENDBRANCH   1   2
BRANCH   1  18
ATOM     18  C   UNL A   1      31.435  32.773  26.767  1.00  0.00     0.275 C 
BRANCH  18  19
ATOM     19  O   UNL A   1      32.809  33.192  26.759  1.00  0.00    -0.458 OA
BRANCH  19  20
ATOM     20  C   UNL A   1      33.255  33.804  27.877  1.00  0.00     0.338 C 
ATOM     21  O   UNL A   1      32.774  34.775  28.438  1.00  0.00    -0.246 OA
BRANCH  20  22
ATOM     22  C   UNL A   1      34.455  33.098  28.358  1.00  0.00     0.060 A 
ATOM     23  C   UNL A   1      34.357  31.764  28.750  1.00  0.00     0.016 A 
ATOM     24  C   UNL A   1      35.661  33.783  28.499  1.00  0.00     0.016 A 
ATOM     25  C   UNL A   1      35.450  31.123  29.331  1.00  0.00     0.010 A 
ATOM     26  C   UNL A   1      36.777  33.115  29.016  1.00  0.00     0.010 A 
ATOM     27  C   UNL A   1      36.675  31.785  29.459  1.00  0.00    -0.014 A 
BRANCH  27  28
ATOM     28  C   UNL A   1      37.822  31.108  30.120  1.00  0.00     0.031 A 
ATOM     29  C   UNL A   1      38.085  31.351  31.580  1.00  0.00     0.074 A 
ATOM     30  C   UNL A   1      38.608  30.250  29.440  1.00  0.00     0.049 A 
ATOM     31  N   UNL A   1      39.118  31.007  32.307  1.00  0.00    -0.248 NA
ATOM     32  C   UNL A   1      37.042  32.078  32.322  1.00  0.00     0.031 C 
ATOM     33  C   UNL A   1      38.416  29.842  28.048  1.00  0.00     0.029 A 
ATOM     34  N   UNL A   1      39.726  29.559  29.839  1.00  0.00    -0.354 N 
ATOM     35  C   UNL A   1      38.873  31.516  33.575  1.00  0.00     0.074 A 
ATOM     36  C   UNL A   1      37.593  32.189  33.522  1.00  0.00     0.031 C 
ATOM     37  C   UNL A   1      39.372  28.960  27.715  1.00  0.00     0.029 A 
ATOM     38  C   UNL A   1      40.282  28.793  28.844  1.00  0.00     0.049 A 
ATOM     39  H   UNL A   1      40.094  29.609  30.750  1.00  0.00     0.167 HD
ATOM     40  C   UNL A   1      39.646  31.431  34.683  1.00  0.00     0.037 A 
ATOM     41  C   UNL A   1      41.417  28.068  28.829  1.00  0.00     0.037 A 
ATOM     42  C   UNL A   1      40.897  30.724  34.751  1.00  0.00     0.049 A 
ATOM     43  C   UNL A   1      42.294  28.045  30.049  1.00  0.00     0.074 A 
ATOM     44  C   UNL A   1      41.761  30.596  35.825  1.00  0.00     0.029 A 
ATOM     45  N   UNL A   1      41.452  30.007  33.703  1.00  0.00    -0.354 N 
ATOM     46  N   UNL A   1      42.097  28.599  31.220  1.00  0.00    -0.248 NA
ATOM     47  C   UNL A   1      43.567  27.316  29.936  1.00  0.00     0.031 C 
ATOM     48  C   UNL A   1      42.853  29.822  35.417  1.00  0.00     0.029 A 
ATOM     49  C   UNL A   1      42.653  29.443  34.100  1.00  0.00     0.049 A 
ATOM     50  H   UNL A   1      41.052  29.912  32.808  1.00  0.00     0.167 HD
ATOM     51  C   UNL A   1      43.211  28.279  31.985  1.00  0.00     0.074 A 
ATOM     52  C   UNL A   1      44.073  27.466  31.152  1.00  0.00     0.031 C 
ATOM     53  C   UNL A   1      43.496  28.632  33.261  1.00  0.00     0.037 A 
BRANCH  40  54
ATOM     54  C   UNL A   1      39.177  32.162  35.903  1.00  0.00     0.057 A 
ATOM     55  C   UNL A   1      39.572  33.476  36.181  1.00  0.00     0.134 A 
ATOM     56  C   UNL A   1      38.300  31.543  36.802  1.00  0.00     0.134 A 
ATOM     57  F   UNL A   1      40.425  34.116  35.367  1.00  0.00    -0.206 F 
ATOM     58  C   UNL A   1      39.124  34.143  37.323  1.00  0.00     0.040 A 
ATOM     59  C   UNL A   1      37.830  32.206  37.936  1.00  0.00     0.040 A 
ATOM     60  F   UNL A   1      37.884  30.285  36.590  1.00  0.00    -0.206 F 
ATOM     61  C   UNL A   1      38.247  33.508  38.201  1.00  0.00     0.006 A 
ENDBRANCH  40  54
BRANCH  41  62
ATOM     62  C   UNL A   1      41.820  27.341  27.600  1.00  0.00     0.057 A 
ATOM     63  C   UNL A   1      41.506  25.990  27.423  1.00  0.00     0.134 A 
ATOM     64  C   UNL A   1      42.545  27.975  26.583  1.00  0.00     0.134 A 
ATOM     65  F   UNL A   1      40.839  25.320  28.375  1.00  0.00    -0.206 F 
ATOM     66  C   UNL A   1      41.907  25.290  26.282  1.00  0.00     0.040 A 
ATOM     67  C   UNL A   1      42.930  27.294  25.428  1.00  0.00     0.040 A 
ATOM     68  F   UNL A   1      42.883  29.267  26.696  1.00  0.00    -0.206 F 
ATOM     69  C   UNL A   1      42.616  25.945  25.278  1.00  0.00     0.006 A 
ENDBRANCH  41  62
BRANCH  53  70
ATOM     70  C   UNL A   1      44.780  28.122  33.840  1.00  0.00     0.057 A 
ATOM     71  C   UNL A   1      45.960  28.872  33.780  1.00  0.00     0.134 A 
ATOM     72  C   UNL A   1      44.827  26.884  34.493  1.00  0.00     0.134 A 
ATOM     73  F   UNL A   1      45.981  30.059  33.155  1.00  0.00    -0.206 F 
ATOM     74  C   UNL A   1      47.150  28.402  34.339  1.00  0.00     0.040 A 
ATOM     75  C   UNL A   1      46.006  26.412  35.070  1.00  0.00     0.040 A 
ATOM     76  F   UNL A   1      43.728  26.122  34.588  1.00  0.00    -0.206 F 
ATOM     77  C   UNL A   1      47.172  27.171  34.991  1.00  0.00     0.006 A 
ENDBRANCH  53  70
ENDBRANCH  27  28
ENDBRANCH  20  22
ENDBRANCH  19  20
ENDBRANCH  18  19
ENDBRANCH   1  18
TORSDOF 14
ENDMDL
MODEL 3
REMARK VINA RESULT:     -10.3      3.975      8.888
REMARK SMILES C[C@@H](C(=O)OCCOC(=O)c1ccc(-c2c3nc(c(-c4c(F)cccc4F)c4ccc([nH]4)c(-c4c(F)cccc4F)c4nc(c(-c5c(F)cccc5F)c5ccc2[nH]5)C=C4)C=C3)cc1)[C@@H](C)C(=O)c1cccc(Cl)c1
REMARK SMILES IDX 6 1 5 2 3 3 4 4 2 5 1 6 65 7 66 8 67 9 68 10 69 11 70 12
REMARK SMILES IDX 75 13 71 14 73 15 72 16 74 17 7 18 8 19 9 20 10 21 11 22
REMARK SMILES IDX 12 23 64 24 13 25 63 26 14 27 15 28 16 29 57 30 17 31 62 32
REMARK SMILES IDX 56 33 58 34 18 35 61 36 55 37 54 38 19 40 45 41 28 42 44 43
REMARK SMILES IDX 29 44 32 45 43 46 59 47 30 48 31 49 42 51 60 52 33 53 20 54
REMARK SMILES IDX 21 55 26 56 22 57 23 58 25 59 27 60 24 61 46 62 47 63 52 64
REMARK SMILES IDX 48 65 49 66 51 67 53 68 50 69 34 70 35 71 40 72 36 73 37 74
REMARK SMILES IDX 39 75 41 76 38 77
REMARK H PARENT 58 39 32 50
REMARK Flexibility Score: inf
ROOT
ATOM      1  C   UNL A   1      34.642  20.904  24.984  1.00  0.00     0.274 C 
ENDROOT
BRANCH   1   2
ATOM      2  O   UNL A   1      34.618  22.312  24.670  1.00  0.00    -0.462 OA
BRANCH   2   3
ATOM      3  C   UNL A   1      33.503  22.781  24.047  1.00  0.00     0.309 C 
ATOM      4  O   UNL A   1      33.082  22.349  22.984  1.00  0.00    -0.252 OA
BRANCH   3   5
ATOM      5  C   UNL A   1      32.898  23.979  24.786  1.00  0.00     0.106 C 
ATOM      6  C   UNL A   1      33.663  24.259  26.092  1.00  0.00     0.021 C 
BRANCH   5   7
ATOM      7  C   UNL A   1      31.380  23.830  25.079  1.00  0.00     0.072 C 
ATOM      8  C   UNL A   1      31.028  22.564  25.867  1.00  0.00     0.017 C 
BRANCH   7   9
ATOM      9  C   UNL A   1      30.582  25.003  25.671  1.00  0.00     0.166 C 
ATOM     10  O   UNL A   1      29.963  24.829  26.725  1.00  0.00    -0.294 OA
BRANCH   9  11
ATOM     11  C   UNL A   1      30.616  26.394  25.118  1.00  0.00     0.019 A 
ATOM     12  C   UNL A   1      29.862  26.640  23.956  1.00  0.00     0.012 A 
ATOM     13  C   UNL A   1      31.378  27.431  25.655  1.00  0.00     0.032 A 
ATOM     14  C   UNL A   1      29.876  27.894  23.340  1.00  0.00     0.002 A 
ATOM     15  C   UNL A   1      31.404  28.676  25.023  1.00  0.00     0.041 A 
ATOM     16  C   UNL A   1      30.657  28.914  23.872  1.00  0.00     0.020 A 
ATOM     17  Cl  UNL A   1      32.392  29.931  25.669  1.00  0.00    -0.084 Cl
ENDBRANCH   9  11
ENDBRANCH   7   9
ENDBRANCH   5   7
ENDBRANCH   3   5
ENDBRANCH   2   3
ENDBRANCH   1   2
BRANCH   1  18
ATOM     18  C   UNL A   1      36.083  20.401  25.001  1.00  0.00     0.275 C 
BRANCH  18  19
ATOM     19  O   UNL A   1      36.912  21.405  25.610  1.00  0.00    -0.458 OA
BRANCH  19  20
ATOM     20  C   UNL A   1      38.229  21.120  25.697  1.00  0.00     0.338 C 
ATOM     21  O   UNL A   1      38.792  20.086  25.376  1.00  0.00    -0.246 OA
BRANCH  20  22
ATOM     22  C   UNL A   1      38.932  22.290  26.251  1.00  0.00     0.060 A 
ATOM     23  C   UNL A   1      38.440  23.570  26.003  1.00  0.00     0.016 A 
ATOM     24  C   UNL A   1      40.127  22.123  26.949  1.00  0.00     0.016 A 
ATOM     25  C   UNL A   1      39.165  24.690  26.406  1.00  0.00     0.010 A 
ATOM     26  C   UNL A   1      40.816  23.248  27.416  1.00  0.00     0.010 A 
ATOM     27  C   UNL A   1      40.353  24.544  27.128  1.00  0.00    -0.014 A 
BRANCH  27  28
ATOM     28  C   UNL A   1      41.142  25.743  27.516  1.00  0.00     0.031 A 
ATOM     29  C   UNL A   1      40.511  26.796  28.385  1.00  0.00     0.074 A 
ATOM     30  C   UNL A   1      42.425  25.884  27.131  1.00  0.00     0.049 A 
ATOM     31  N   UNL A   1      40.950  27.989  28.696  1.00  0.00    -0.248 NA
ATOM     32  C   UNL A   1      39.211  26.456  28.986  1.00  0.00     0.031 C 
ATOM     33  C   UNL A   1      43.198  24.902  26.370  1.00  0.00     0.029 A 
ATOM     34  N   UNL A   1      43.309  26.914  27.341  1.00  0.00    -0.354 N 
ATOM     35  C   UNL A   1      39.962  28.559  29.487  1.00  0.00     0.074 A 
ATOM     36  C   UNL A   1      38.902  27.582  29.613  1.00  0.00     0.031 C 
ATOM     37  C   UNL A   1      44.445  25.369  26.192  1.00  0.00     0.029 A 
ATOM     38  C   UNL A   1      44.539  26.709  26.764  1.00  0.00     0.049 A 
ATOM     39  H   UNL A   1      43.084  27.723  27.854  1.00  0.00     0.167 HD
ATOM     40  C   UNL A   1      39.940  29.788  30.054  1.00  0.00     0.037 A 
ATOM     41  C   UNL A   1      45.609  27.522  26.672  1.00  0.00     0.037 A 
ATOM     42  C   UNL A   1      41.012  30.744  29.970  1.00  0.00     0.049 A 
ATOM     43  C   UNL A   1      45.536  28.906  27.252  1.00  0.00     0.074 A 
ATOM     44  C   UNL A   1      41.075  32.021  30.499  1.00  0.00     0.029 A 
ATOM     45  N   UNL A   1      42.219  30.516  29.328  1.00  0.00    -0.354 N 
ATOM     46  N   UNL A   1      44.565  29.470  27.926  1.00  0.00    -0.248 NA
ATOM     47  C   UNL A   1      46.700  29.778  27.033  1.00  0.00     0.031 C 
ATOM     48  C   UNL A   1      42.312  32.577  30.153  1.00  0.00     0.029 A 
ATOM     49  C   UNL A   1      43.030  31.634  29.437  1.00  0.00     0.049 A 
ATOM     50  H   UNL A   1      42.463  29.683  28.863  1.00  0.00     0.167 HD
ATOM     51  C   UNL A   1      45.002  30.755  28.222  1.00  0.00     0.074 A 
ATOM     52  C   UNL A   1      46.335  30.882  27.669  1.00  0.00     0.031 C 
ATOM     53  C   UNL A   1      44.355  31.742  28.886  1.00  0.00     0.037 A 
BRANCH  40  54
ATOM     54  C   UNL A   1      38.693  30.182  30.784  1.00  0.00     0.057 A 
ATOM     55  C   UNL A   1      38.516  29.924  32.149  1.00  0.00     0.134 A 
ATOM     56  C   UNL A   1      37.662  30.848  30.110  1.00  0.00     0.134 A 
ATOM     57  F   UNL A   1      39.460  29.274  32.845  1.00  0.00    -0.206 F 
ATOM     58  C   UNL A   1      37.347  30.299  32.814  1.00  0.00     0.040 A 
ATOM     59  C   UNL A   1      36.497  31.245  30.767  1.00  0.00     0.040 A 
ATOM     60  F   UNL A   1      37.772  31.125  28.802  1.00  0.00    -0.206 F 
ATOM     61  C   UNL A   1      36.336  30.966  32.123  1.00  0.00     0.006 A 
ENDBRANCH  40  54
BRANCH  41  62
ATOM     62  C   UNL A   1      46.829  27.068  25.960  1.00  0.00     0.057 A 
ATOM     63  C   UNL A   1      46.988  27.285  24.588  1.00  0.00     0.134 A 
ATOM     64  C   UNL A   1      47.853  26.388  26.631  1.00  0.00     0.134 A 
ATOM     65  F   UNL A   1      46.028  27.903  23.885  1.00  0.00    -0.206 F 
ATOM     66  C   UNL A   1      48.121  26.835  23.904  1.00  0.00     0.040 A 
ATOM     67  C   UNL A   1      49.000  25.955  25.965  1.00  0.00     0.040 A 
ATOM     68  F   UNL A   1      47.757  26.143  27.946  1.00  0.00    -0.206 F 
ATOM     69  C   UNL A   1      49.134  26.173  24.595  1.00  0.00     0.006 A 
ENDBRANCH  41  62
BRANCH  53  70
ATOM     70  C   UNL A   1      45.088  33.035  29.071  1.00  0.00     0.057 A 
ATOM     71  C   UNL A   1      44.960  34.087  28.156  1.00  0.00     0.134 A 
ATOM     72  C   UNL A   1      45.902  33.241  30.191  1.00  0.00     0.134 A 
ATOM     73  F   UNL A   1      44.206  33.944  27.056  1.00  0.00    -0.206 F 
ATOM     74  C   UNL A   1      45.629  35.298  28.343  1.00  0.00     0.040 A 
ATOM     75  C   UNL A   1      46.562  34.453  30.398  1.00  0.00     0.040 A 
ATOM     76  F   UNL A   1      46.060  32.273  31.106  1.00  0.00    -0.206 F 
ATOM     77  C   UNL A   1      46.428  35.484  29.470  1.00  0.00     0.006 A 
ENDBRANCH  53  70
ENDBRANCH  27  28
ENDBRANCH  20  22
ENDBRANCH  19  20
ENDBRANCH  18  19
ENDBRANCH   1  18
TORSDOF 14
ENDMDL
