MODEL 1
REMARK VINA RESULT:     -11.4      0.000      0.000
REMARK SMILES COC(=O)C1=C(C)NC(C)=C(C(=O)OC)C1c1ccc(C(=O)OCCOC(=O)c2ccc(-c3c4nc(c(-c5c(F)cccc5F)c5ccc([nH]5)c(-c5c(F)cccc5F)c5nc(c(-c6c(F)cccc6F)c6ccc3[nH]6)C=C5)C=C4)cc2)cc1
REMARK SMILES IDX 24 1 23 2 21 3 22 4 20 5 17 6 18 7 84 8 19 9 83 10 16 11
REMARK SMILES IDX 5 12 6 13 7 14 8 15 11 16 9 17 10 19 3 20 4 21 2 22 1 23
REMARK SMILES IDX 12 24 13 25 14 26 15 27 25 28 26 29 27 30 28 31 29 32 30 33
REMARK SMILES IDX 82 34 31 35 81 36 32 37 33 38 34 39 75 40 35 41 80 42 74 43
REMARK SMILES IDX 76 44 36 45 79 46 73 47 72 48 37 50 63 51 46 52 62 53 47 54
REMARK SMILES IDX 50 55 61 56 77 57 48 58 49 59 60 61 78 62 51 63 38 64 39 65
REMARK SMILES IDX 44 66 40 67 41 68 43 69 45 70 42 71 64 72 65 73 70 74 66 75
REMARK SMILES IDX 67 76 69 77 71 78 68 79 52 80 53 81 58 82 54 83 55 84 57 85
REMARK SMILES IDX 59 86 56 87
REMARK H PARENT 8 18 76 49 50 60
REMARK Flexibility Score: inf
ROOT
ATOM      1  C   UNL A   1      34.766  20.998  25.667  1.00  0.00     0.275 C 
ENDROOT
BRANCH   1   2
ATOM      2  O   UNL A   1      34.976  22.144  26.512  1.00  0.00    -0.458 OA
BRANCH   2   3
ATOM      3  C   UNL A   1      33.850  22.693  27.032  1.00  0.00     0.338 C 
ATOM      4  O   UNL A   1      33.172  22.224  27.933  1.00  0.00    -0.246 OA
BRANCH   3   5
ATOM      5  C   UNL A   1      33.559  24.014  26.416  1.00  0.00     0.060 A 
ATOM      6  C   UNL A   1      33.123  26.486  25.142  1.00  0.00    -0.035 A 
ATOM      7  C   UNL A   1      34.364  25.843  25.032  1.00  0.00     0.005 A 
ATOM      8  C   UNL A   1      32.104  25.875  25.895  1.00  0.00     0.005 A 
ATOM      9  C   UNL A   1      34.576  24.618  25.663  1.00  0.00     0.016 A 
ATOM     10  C   UNL A   1      32.318  24.647  26.528  1.00  0.00     0.016 A 
BRANCH   6  11
ATOM     11  C   UNL A   1      32.889  27.873  24.535  1.00  0.00     0.098 C 
ATOM     12  C   UNL A   1      31.763  27.839  23.508  1.00  0.00     0.068 C 
ATOM     13  C   UNL A   1      30.836  28.818  23.429  1.00  0.00     0.023 C 
ATOM     14  C   UNL A   1      29.692  28.842  22.447  1.00  0.00     0.065 C 
ATOM     15  N   UNL A   1      30.892  29.875  24.319  1.00  0.00    -0.362 N 
ATOM     16  C   UNL A   1      32.699  28.987  25.572  1.00  0.00     0.068 C 
ATOM     17  C   UNL A   1      31.747  29.938  25.409  1.00  0.00     0.023 C 
ATOM     18  H   UNL A   1      30.284  30.635  24.168  1.00  0.00     0.166 HD
ATOM     19  C   UNL A   1      31.513  31.103  26.340  1.00  0.00     0.065 C 
BRANCH  12  20
ATOM     20  C   UNL A   1      31.646  26.666  22.626  1.00  0.00     0.336 C 
ATOM     21  O   UNL A   1      30.777  25.816  22.736  1.00  0.00    -0.246 OA
BRANCH  20  22
ATOM     22  O   UNL A   1      32.596  26.736  21.661  1.00  0.00    -0.466 OA
ATOM     23  C   UNL A   1      32.594  25.625  20.761  1.00  0.00     0.282 C 
ENDBRANCH  20  22
ENDBRANCH  12  20
BRANCH  16  24
ATOM     24  C   UNL A   1      33.513  28.951  26.810  1.00  0.00     0.336 C 
ATOM     25  O   UNL A   1      33.111  28.507  27.875  1.00  0.00    -0.246 OA
BRANCH  24  26
ATOM     26  O   UNL A   1      34.759  29.428  26.572  1.00  0.00    -0.466 OA
ATOM     27  C   UNL A   1      35.642  29.316  27.693  1.00  0.00     0.282 C 
ENDBRANCH  24  26
ENDBRANCH  16  24
ENDBRANCH   6  11
ENDBRANCH   3   5
ENDBRANCH   2   3
ENDBRANCH   1   2
BRANCH   1  28
ATOM     28  C   UNL A   1      36.074  20.577  25.000  1.00  0.00     0.275 C 
BRANCH  28  29
ATOM     29  O   UNL A   1      37.062  21.619  25.121  1.00  0.00    -0.458 OA
BRANCH  29  30
ATOM     30  C   UNL A   1      38.265  21.232  25.602  1.00  0.00     0.338 C 
ATOM     31  O   UNL A   1      38.782  20.130  25.532  1.00  0.00    -0.246 OA
BRANCH  30  32
ATOM     32  C   UNL A   1      38.924  22.372  26.255  1.00  0.00     0.060 A 
ATOM     33  C   UNL A   1      38.394  23.652  26.093  1.00  0.00     0.016 A 
ATOM     34  C   UNL A   1      40.143  22.187  26.907  1.00  0.00     0.016 A 
ATOM     35  C   UNL A   1      39.102  24.762  26.553  1.00  0.00     0.010 A 
ATOM     36  C   UNL A   1      40.833  23.298  27.403  1.00  0.00     0.010 A 
ATOM     37  C   UNL A   1      40.333  24.599  27.204  1.00  0.00    -0.014 A 
BRANCH  37  38
ATOM     38  C   UNL A   1      41.136  25.786  27.606  1.00  0.00     0.031 A 
ATOM     39  C   UNL A   1      40.533  26.836  28.500  1.00  0.00     0.074 A 
ATOM     40  C   UNL A   1      42.407  25.928  27.185  1.00  0.00     0.049 A 
ATOM     41  N   UNL A   1      41.013  28.002  28.851  1.00  0.00    -0.248 NA
ATOM     42  C   UNL A   1      39.204  26.540  29.060  1.00  0.00     0.031 C 
ATOM     43  C   UNL A   1      43.132  24.980  26.342  1.00  0.00     0.029 A 
ATOM     44  N   UNL A   1      43.315  26.932  27.417  1.00  0.00    -0.354 N 
ATOM     45  C   UNL A   1      40.027  28.601  29.625  1.00  0.00     0.074 A 
ATOM     46  C   UNL A   1      38.923  27.667  29.697  1.00  0.00     0.031 C 
ATOM     47  C   UNL A   1      44.382  25.431  26.148  1.00  0.00     0.029 A 
ATOM     48  C   UNL A   1      44.528  26.727  26.808  1.00  0.00     0.049 A 
ATOM     49  H   UNL A   1      43.116  27.723  27.968  1.00  0.00     0.167 HD
ATOM     50  C   UNL A   1      40.039  29.818  30.218  1.00  0.00     0.037 A 
ATOM     51  C   UNL A   1      45.628  27.502  26.764  1.00  0.00     0.037 A 
ATOM     52  C   UNL A   1      41.158  30.724  30.208  1.00  0.00     0.049 A 
ATOM     53  C   UNL A   1      45.628  28.838  27.452  1.00  0.00     0.074 A 
ATOM     54  C   UNL A   1      41.269  31.965  30.811  1.00  0.00     0.029 A 
ATOM     55  N   UNL A   1      42.367  30.477  29.577  1.00  0.00    -0.354 N 
ATOM     56  N   UNL A   1      44.673  29.411  28.143  1.00  0.00    -0.248 NA
ATOM     57  C   UNL A   1      46.854  29.642  27.339  1.00  0.00     0.031 C 
ATOM     58  C   UNL A   1      42.540  32.480  30.526  1.00  0.00     0.029 A 
ATOM     59  C   UNL A   1      43.227  31.545  29.769  1.00  0.00     0.049 A 
ATOM     60  H   UNL A   1      42.582  29.662  29.067  1.00  0.00     0.167 HD
ATOM     61  C   UNL A   1      45.179  30.640  28.544  1.00  0.00     0.074 A 
ATOM     62  C   UNL A   1      46.535  30.721  28.041  1.00  0.00     0.031 C 
ATOM     63  C   UNL A   1      44.570  31.617  29.257  1.00  0.00     0.037 A 
BRANCH  50  64
ATOM     64  C   UNL A   1      38.783  30.260  30.908  1.00  0.00     0.057 A 
ATOM     65  C   UNL A   1      38.517  29.945  32.245  1.00  0.00     0.134 A 
ATOM     66  C   UNL A   1      37.842  31.040  30.224  1.00  0.00     0.134 A 
ATOM     67  F   UNL A   1      39.372  29.188  32.949  1.00  0.00    -0.206 F 
ATOM     68  C   UNL A   1      37.347  30.375  32.874  1.00  0.00     0.040 A 
ATOM     69  C   UNL A   1      36.678  31.492  30.847  1.00  0.00     0.040 A 
ATOM     70  F   UNL A   1      38.040  31.379  28.941  1.00  0.00    -0.206 F 
ATOM     71  C   UNL A   1      36.426  31.157  32.176  1.00  0.00     0.006 A 
ENDBRANCH  50  64
BRANCH  51  72
ATOM     72  C   UNL A   1      46.821  27.038  26.016  1.00  0.00     0.057 A 
ATOM     73  C   UNL A   1      47.800  26.252  26.633  1.00  0.00     0.134 A 
ATOM     74  C   UNL A   1      47.003  27.360  24.667  1.00  0.00     0.134 A 
ATOM     75  F   UNL A   1      47.693  25.936  27.932  1.00  0.00    -0.206 F 
ATOM     76  C   UNL A   1      48.920  25.802  25.933  1.00  0.00     0.040 A 
ATOM     77  C   UNL A   1      48.107  26.899  23.949  1.00  0.00     0.040 A 
ATOM     78  F   UNL A   1      46.099  28.112  24.022  1.00  0.00    -0.206 F 
ATOM     79  C   UNL A   1      49.071  26.120  24.585  1.00  0.00     0.006 A 
ENDBRANCH  51  72
BRANCH  63  80
ATOM     80  C   UNL A   1      45.365  32.855  29.535  1.00  0.00     0.057 A 
ATOM     81  C   UNL A   1      46.196  32.953  30.657  1.00  0.00     0.134 A 
ATOM     82  C   UNL A   1      45.325  33.947  28.658  1.00  0.00     0.134 A 
ATOM     83  F   UNL A   1      46.267  31.945  31.540  1.00  0.00    -0.206 F 
ATOM     84  C   UNL A   1      46.948  34.101  30.909  1.00  0.00     0.040 A 
ATOM     85  C   UNL A   1      46.085  35.094  28.890  1.00  0.00     0.040 A 
ATOM     86  F   UNL A   1      44.552  33.912  27.563  1.00  0.00    -0.206 F 
ATOM     87  C   UNL A   1      46.898  35.174  30.021  1.00  0.00     0.006 A 
ENDBRANCH  63  80
ENDBRANCH  37  38
ENDBRANCH  30  32
ENDBRANCH  29  30
ENDBRANCH  28  29
ENDBRANCH   1  28
TORSDOF 16
ENDMDL
MODEL 2
REMARK VINA RESULT:     -11.2      3.432      8.714
REMARK SMILES COC(=O)C1=C(C)NC(C)=C(C(=O)OC)C1c1ccc(C(=O)OCCOC(=O)c2ccc(-c3c4nc(c(-c5c(F)cccc5F)c5ccc([nH]5)c(-c5c(F)cccc5F)c5nc(c(-c6c(F)cccc6F)c6ccc3[nH]6)C=C5)C=C4)cc2)cc1
REMARK SMILES IDX 24 1 23 2 21 3 22 4 20 5 17 6 18 7 84 8 19 9 83 10 16 11
REMARK SMILES IDX 5 12 6 13 7 14 8 15 11 16 9 17 10 19 3 20 4 21 2 22 1 23
REMARK SMILES IDX 12 24 13 25 14 26 15 27 25 28 26 29 27 30 28 31 29 32 30 33
REMARK SMILES IDX 82 34 31 35 81 36 32 37 33 38 34 39 75 40 35 41 80 42 74 43
REMARK SMILES IDX 76 44 36 45 79 46 73 47 72 48 37 50 63 51 46 52 62 53 47 54
REMARK SMILES IDX 50 55 61 56 77 57 48 58 49 59 60 61 78 62 51 63 38 64 39 65
REMARK SMILES IDX 44 66 40 67 41 68 43 69 45 70 42 71 64 72 65 73 70 74 66 75
REMARK SMILES IDX 67 76 69 77 71 78 68 79 52 80 53 81 58 82 54 83 55 84 57 85
REMARK SMILES IDX 59 86 56 87
REMARK H PARENT 8 18 76 49 50 60
REMARK Flexibility Score: inf
ROOT
ATOM      1  C   UNL A   1      32.803  29.338  24.252  1.00  0.00     0.275 C 
ENDROOT
BRANCH   1   2
ATOM      2  O   UNL A   1      32.373  28.289  23.364  1.00  0.00    -0.458 OA
BRANCH   2   3
ATOM      3  C   UNL A   1      33.372  27.580  22.782  1.00  0.00     0.338 C 
ATOM      4  O   UNL A   1      34.028  27.925  21.811  1.00  0.00    -0.246 OA
BRANCH   3   5
ATOM      5  C   UNL A   1      33.646  26.323  23.527  1.00  0.00     0.060 A 
ATOM      6  C   UNL A   1      34.236  23.885  24.806  1.00  0.00    -0.035 A 
ATOM      7  C   UNL A   1      34.147  23.948  23.408  1.00  0.00     0.005 A 
ATOM      8  C   UNL A   1      34.029  25.059  25.554  1.00  0.00     0.005 A 
ATOM      9  C   UNL A   1      33.856  25.157  22.777  1.00  0.00     0.016 A 
ATOM     10  C   UNL A   1      33.736  26.271  24.921  1.00  0.00     0.016 A 
BRANCH   6  11
ATOM     11  C   UNL A   1      34.466  22.556  25.530  1.00  0.00     0.098 C 
ATOM     12  C   UNL A   1      33.345  21.566  25.228  1.00  0.00     0.068 C 
ATOM     13  C   UNL A   1      33.589  20.259  24.992  1.00  0.00     0.023 C 
ATOM     14  C   UNL A   1      32.532  19.231  24.678  1.00  0.00     0.065 C 
ATOM     15  N   UNL A   1      34.894  19.802  25.001  1.00  0.00    -0.362 N 
ATOM     16  C   UNL A   1      35.856  21.950  25.303  1.00  0.00     0.068 C 
ATOM     17  C   UNL A   1      36.011  20.621  25.081  1.00  0.00     0.023 C 
ATOM     18  H   UNL A   1      35.041  18.830  24.947  1.00  0.00     0.166 HD
ATOM     19  C   UNL A   1      37.334  19.918  24.899  1.00  0.00     0.065 C 
BRANCH  12  20
ATOM     20  C   UNL A   1      31.966  22.071  25.123  1.00  0.00     0.336 C 
ATOM     21  O   UNL A   1      31.384  22.240  24.064  1.00  0.00    -0.246 OA
BRANCH  20  22
ATOM     22  O   UNL A   1      31.454  22.238  26.366  1.00  0.00    -0.466 OA
ATOM     23  C   UNL A   1      30.775  23.481  26.555  1.00  0.00     0.282 C 
ENDBRANCH  20  22
ENDBRANCH  12  20
BRANCH  16  24
ATOM     24  C   UNL A   1      37.024  22.858  25.233  1.00  0.00     0.336 C 
ATOM     25  O   UNL A   1      37.448  23.341  24.194  1.00  0.00    -0.246 OA
BRANCH  24  26
ATOM     26  O   UNL A   1      37.508  23.106  26.475  1.00  0.00    -0.466 OA
ATOM     27  C   UNL A   1      38.550  24.085  26.502  1.00  0.00     0.282 C 
ENDBRANCH  24  26
ENDBRANCH  16  24
ENDBRANCH   6  11
ENDBRANCH   3   5
ENDBRANCH   2   3
ENDBRANCH   1   2
BRANCH   1  28
ATOM     28  C   UNL A   1      31.684  29.708  25.224  1.00  0.00     0.275 C 
BRANCH  28  29
ATOM     29  O   UNL A   1      32.190  29.783  26.571  1.00  0.00    -0.458 OA
BRANCH  29  30
ATOM     30  C   UNL A   1      32.695  30.980  26.941  1.00  0.00     0.338 C 
ATOM     31  O   UNL A   1      32.160  32.074  26.877  1.00  0.00    -0.246 OA
BRANCH  30  32
ATOM     32  C   UNL A   1      34.054  30.799  27.471  1.00  0.00     0.060 A 
ATOM     33  C   UNL A   1      34.577  29.511  27.582  1.00  0.00     0.016 A 
ATOM     34  C   UNL A   1      34.748  31.893  27.988  1.00  0.00     0.016 A 
ATOM     35  C   UNL A   1      35.787  29.305  28.245  1.00  0.00     0.010 A 
ATOM     36  C   UNL A   1      35.980  31.690  28.618  1.00  0.00     0.010 A 
ATOM     37  C   UNL A   1      36.497  30.390  28.779  1.00  0.00    -0.014 A 
BRANCH  37  38
ATOM     38  C   UNL A   1      37.735  30.163  29.573  1.00  0.00     0.031 A 
ATOM     39  C   UNL A   1      38.876  29.380  28.982  1.00  0.00     0.074 A 
ATOM     40  C   UNL A   1      37.852  30.661  30.819  1.00  0.00     0.049 A 
ATOM     41  N   UNL A   1      39.976  28.957  29.552  1.00  0.00    -0.248 NA
ATOM     42  C   UNL A   1      38.755  29.009  27.563  1.00  0.00     0.031 C 
ATOM     43  C   UNL A   1      36.843  31.462  31.510  1.00  0.00     0.029 A 
ATOM     44  N   UNL A   1      38.880  30.565  31.724  1.00  0.00    -0.354 N 
ATOM     45  C   UNL A   1      40.651  28.227  28.581  1.00  0.00     0.074 A 
ATOM     46  C   UNL A   1      39.839  28.267  27.383  1.00  0.00     0.031 C 
ATOM     47  C   UNL A   1      37.311  31.808  32.720  1.00  0.00     0.029 A 
ATOM     48  C   UNL A   1      38.630  31.208  32.910  1.00  0.00     0.049 A 
ATOM     49  H   UNL A   1      39.718  30.082  31.539  1.00  0.00     0.167 HD
ATOM     50  C   UNL A   1      41.835  27.579  28.681  1.00  0.00     0.037 A 
ATOM     51  C   UNL A   1      39.366  31.289  34.035  1.00  0.00     0.037 A 
ATOM     52  C   UNL A   1      42.680  27.590  29.845  1.00  0.00     0.049 A 
ATOM     53  C   UNL A   1      40.690  30.584  34.113  1.00  0.00     0.074 A 
ATOM     54  C   UNL A   1      43.914  26.987  30.023  1.00  0.00     0.029 A 
ATOM     55  N   UNL A   1      42.387  28.252  31.027  1.00  0.00    -0.354 N 
ATOM     56  N   UNL A   1      41.295  29.860  33.203  1.00  0.00    -0.248 NA
ATOM     57  C   UNL A   1      41.426  30.693  35.381  1.00  0.00     0.031 C 
ATOM     58  C   UNL A   1      44.358  27.267  31.321  1.00  0.00     0.029 A 
ATOM     59  C   UNL A   1      43.412  28.068  31.939  1.00  0.00     0.049 A 
ATOM     60  H   UNL A   1      41.570  28.777  31.192  1.00  0.00     0.167 HD
ATOM     61  C   UNL A   1      42.477  29.426  33.787  1.00  0.00     0.074 A 
ATOM     62  C   UNL A   1      42.519  29.987  35.121  1.00  0.00     0.031 C 
ATOM     63  C   UNL A   1      43.437  28.625  33.266  1.00  0.00     0.037 A 
BRANCH  50  64
ATOM     64  C   UNL A   1      42.278  26.770  27.498  1.00  0.00     0.057 A 
ATOM     65  C   UNL A   1      43.050  27.317  26.468  1.00  0.00     0.134 A 
ATOM     66  C   UNL A   1      41.946  25.411  27.411  1.00  0.00     0.134 A 
ATOM     67  F   UNL A   1      43.387  28.615  26.486  1.00  0.00    -0.206 F 
ATOM     68  C   UNL A   1      43.463  26.545  25.381  1.00  0.00     0.040 A 
ATOM     69  C   UNL A   1      42.369  24.625  26.339  1.00  0.00     0.040 A 
ATOM     70  F   UNL A   1      41.211  24.827  28.368  1.00  0.00    -0.206 F 
ATOM     71  C   UNL A   1      43.127  25.192  25.317  1.00  0.00     0.006 A 
ENDBRANCH  50  64
BRANCH  51  72
ATOM     72  C   UNL A   1      38.849  32.055  35.194  1.00  0.00     0.057 A 
ATOM     73  C   UNL A   1      38.973  33.447  35.253  1.00  0.00     0.134 A 
ATOM     74  C   UNL A   1      38.211  31.415  36.262  1.00  0.00     0.134 A 
ATOM     75  F   UNL A   1      39.600  34.112  34.271  1.00  0.00    -0.206 F 
ATOM     76  C   UNL A   1      38.479  34.177  36.335  1.00  0.00     0.040 A 
ATOM     77  C   UNL A   1      37.694  32.134  37.340  1.00  0.00     0.040 A 
ATOM     78  F   UNL A   1      38.064  30.082  36.263  1.00  0.00    -0.206 F 
ATOM     79  C   UNL A   1      37.831  33.520  37.379  1.00  0.00     0.006 A 
ENDBRANCH  51  72
BRANCH  63  80
ATOM     80  C   UNL A   1      44.612  28.311  34.141  1.00  0.00     0.057 A 
ATOM     81  C   UNL A   1      44.630  27.177  34.960  1.00  0.00     0.134 A 
ATOM     82  C   UNL A   1      45.748  29.132  34.140  1.00  0.00     0.134 A 
ATOM     83  F   UNL A   1      43.567  26.359  35.013  1.00  0.00    -0.206 F 
ATOM     84  C   UNL A   1      45.731  26.876  35.764  1.00  0.00     0.040 A 
ATOM     85  C   UNL A   1      46.860  28.833  34.927  1.00  0.00     0.040 A 
ATOM     86  F   UNL A   1      45.793  30.230  33.373  1.00  0.00    -0.206 F 
ATOM     87  C   UNL A   1      46.853  27.703  35.744  1.00  0.00     0.006 A 
ENDBRANCH  63  80
ENDBRANCH  37  38
ENDBRANCH  30  32
ENDBRANCH  29  30
ENDBRANCH  28  29
ENDBRANCH   1  28
TORSDOF 16
ENDMDL
MODEL 3
REMARK VINA RESULT:     -11.2      0.383      6.177
REMARK SMILES COC(=O)C1=C(C)NC(C)=C(C(=O)OC)C1c1ccc(C(=O)OCCOC(=O)c2ccc(-c3c4nc(c(-c5c(F)cccc5F)c5ccc([nH]5)c(-c5c(F)cccc5F)c5nc(c(-c6c(F)cccc6F)c6ccc3[nH]6)C=C5)C=C4)cc2)cc1
REMARK SMILES IDX 24 1 23 2 21 3 22 4 20 5 17 6 18 7 84 8 19 9 83 10 16 11
REMARK SMILES IDX 5 12 6 13 7 14 8 15 11 16 9 17 10 19 3 20 4 21 2 22 1 23
REMARK SMILES IDX 12 24 13 25 14 26 15 27 25 28 26 29 27 30 28 31 29 32 30 33
REMARK SMILES IDX 82 34 31 35 81 36 32 37 33 38 34 39 75 40 35 41 80 42 74 43
REMARK SMILES IDX 76 44 36 45 79 46 73 47 72 48 37 50 63 51 46 52 62 53 47 54
REMARK SMILES IDX 50 55 61 56 77 57 48 58 49 59 60 61 78 62 51 63 38 64 39 65
REMARK SMILES IDX 44 66 40 67 41 68 43 69 45 70 42 71 64 72 65 73 70 74 66 75
REMARK SMILES IDX 67 76 69 77 71 78 68 79 52 80 53 81 58 82 54 83 55 84 57 85
REMARK SMILES IDX 59 86 56 87
REMARK H PARENT 8 18 76 49 50 60
REMARK Flexibility Score: inf
ROOT
ATOM      1  C   UNL A   1      34.846  20.925  25.538  1.00  0.00     0.275 C 
ENDROOT
BRANCH   1   2
ATOM      2  O   UNL A   1      35.043  21.941  26.539  1.00  0.00    -0.458 OA
BRANCH   2   3
ATOM      3  C   UNL A   1      33.907  22.485  27.040  1.00  0.00     0.338 C 
ATOM      4  O   UNL A   1      33.217  22.015  27.932  1.00  0.00    -0.246 OA
BRANCH   3   5
ATOM      5  C   UNL A   1      33.621  23.805  26.419  1.00  0.00     0.060 A 
ATOM      6  C   UNL A   1      33.194  26.273  25.132  1.00  0.00    -0.035 A 
ATOM      7  C   UNL A   1      34.428  25.618  25.015  1.00  0.00     0.005 A 
ATOM      8  C   UNL A   1      32.176  25.674  25.899  1.00  0.00     0.005 A 
ATOM      9  C   UNL A   1      34.636  24.395  25.652  1.00  0.00     0.016 A 
ATOM     10  C   UNL A   1      32.386  24.449  26.538  1.00  0.00     0.016 A 
BRANCH   6  11
ATOM     11  C   UNL A   1      32.965  27.657  24.519  1.00  0.00     0.098 C 
ATOM     12  C   UNL A   1      31.855  27.617  23.473  1.00  0.00     0.068 C 
ATOM     13  C   UNL A   1      30.927  28.593  23.378  1.00  0.00     0.023 C 
ATOM     14  C   UNL A   1      29.800  28.611  22.376  1.00  0.00     0.065 C 
ATOM     15  N   UNL A   1      30.965  29.653  24.265  1.00  0.00    -0.362 N 
ATOM     16  C   UNL A   1      32.755  28.773  25.550  1.00  0.00     0.068 C 
ATOM     17  C   UNL A   1      31.802  29.721  25.369  1.00  0.00     0.023 C 
ATOM     18  H   UNL A   1      30.357  30.410  24.103  1.00  0.00     0.166 HD
ATOM     19  C   UNL A   1      31.549  30.887  26.293  1.00  0.00     0.065 C 
BRANCH  12  20
ATOM     20  C   UNL A   1      31.757  26.442  22.592  1.00  0.00     0.336 C 
ATOM     21  O   UNL A   1      30.917  25.566  22.720  1.00  0.00    -0.246 OA
BRANCH  20  22
ATOM     22  O   UNL A   1      32.683  26.542  21.608  1.00  0.00    -0.466 OA
ATOM     23  C   UNL A   1      32.530  25.578  20.564  1.00  0.00     0.282 C 
ENDBRANCH  20  22
ENDBRANCH  12  20
BRANCH  16  24
ATOM     24  C   UNL A   1      33.548  28.742  26.801  1.00  0.00     0.336 C 
ATOM     25  O   UNL A   1      33.103  28.382  27.880  1.00  0.00    -0.246 OA
BRANCH  24  26
ATOM     26  O   UNL A   1      34.829  29.118  26.560  1.00  0.00    -0.466 OA
ATOM     27  C   UNL A   1      35.362  30.008  27.545  1.00  0.00     0.282 C 
ENDBRANCH  24  26
ENDBRANCH  16  24
ENDBRANCH   6  11
ENDBRANCH   3   5
ENDBRANCH   2   3
ENDBRANCH   1   2
BRANCH   1  28
ATOM     28  C   UNL A   1      36.188  20.432  25.002  1.00  0.00     0.275 C 
BRANCH  28  29
ATOM     29  O   UNL A   1      37.155  21.501  24.999  1.00  0.00    -0.458 OA
BRANCH  29  30
ATOM     30  C   UNL A   1      38.347  21.212  25.566  1.00  0.00     0.338 C 
ATOM     31  O   UNL A   1      38.925  20.139  25.596  1.00  0.00    -0.246 OA
BRANCH  30  32
ATOM     32  C   UNL A   1      38.910  22.426  26.176  1.00  0.00     0.060 A 
ATOM     33  C   UNL A   1      38.263  23.647  25.988  1.00  0.00     0.016 A 
ATOM     34  C   UNL A   1      40.149  22.371  26.812  1.00  0.00     0.016 A 
ATOM     35  C   UNL A   1      38.873  24.830  26.406  1.00  0.00     0.010 A 
ATOM     36  C   UNL A   1      40.742  23.554  27.265  1.00  0.00     0.010 A 
ATOM     37  C   UNL A   1      40.124  24.798  27.040  1.00  0.00    -0.014 A 
BRANCH  37  38
ATOM     38  C   UNL A   1      40.820  26.064  27.395  1.00  0.00     0.031 A 
ATOM     39  C   UNL A   1      42.232  26.302  26.930  1.00  0.00     0.074 A 
ATOM     40  C   UNL A   1      40.196  27.010  28.122  1.00  0.00     0.049 A 
ATOM     41  N   UNL A   1      43.056  27.270  27.243  1.00  0.00    -0.248 NA
ATOM     42  C   UNL A   1      42.797  25.310  26.002  1.00  0.00     0.031 C 
ATOM     43  C   UNL A   1      38.822  26.930  28.615  1.00  0.00     0.029 A 
ATOM     44  N   UNL A   1      40.642  28.229  28.570  1.00  0.00    -0.354 N 
ATOM     45  C   UNL A   1      44.250  26.976  26.597  1.00  0.00     0.074 A 
ATOM     46  C   UNL A   1      44.043  25.742  25.870  1.00  0.00     0.031 C 
ATOM     47  C   UNL A   1      38.527  28.062  29.274  1.00  0.00     0.029 A 
ATOM     48  C   UNL A   1      39.708  28.923  29.296  1.00  0.00     0.049 A 
ATOM     49  H   UNL A   1      41.546  28.573  28.386  1.00  0.00     0.167 HD
ATOM     50  C   UNL A   1      45.414  27.669  26.612  1.00  0.00     0.037 A 
ATOM     51  C   UNL A   1      39.795  30.108  29.930  1.00  0.00     0.037 A 
ATOM     52  C   UNL A   1      45.608  28.930  27.278  1.00  0.00     0.049 A 
ATOM     53  C   UNL A   1      41.088  30.872  29.911  1.00  0.00     0.074 A 
ATOM     54  C   UNL A   1      46.746  29.718  27.318  1.00  0.00     0.029 A 
ATOM     55  N   UNL A   1      44.635  29.597  28.005  1.00  0.00    -0.354 N 
ATOM     56  N   UNL A   1      42.222  30.560  29.333  1.00  0.00    -0.248 NA
ATOM     57  C   UNL A   1      41.118  32.144  30.647  1.00  0.00     0.031 C 
ATOM     58  C   UNL A   1      46.466  30.853  28.088  1.00  0.00     0.029 A 
ATOM     59  C   UNL A   1      45.147  30.783  28.503  1.00  0.00     0.049 A 
ATOM     60  H   UNL A   1      43.715  29.274  28.145  1.00  0.00     0.167 HD
ATOM     61  C   UNL A   1      43.099  31.593  29.636  1.00  0.00     0.074 A 
ATOM     62  C   UNL A   1      42.360  32.554  30.429  1.00  0.00     0.031 C 
ATOM     63  C   UNL A   1      44.403  31.726  29.297  1.00  0.00     0.037 A 
BRANCH  50  64
ATOM     64  C   UNL A   1      46.587  27.057  25.908  1.00  0.00     0.057 A 
ATOM     65  C   UNL A   1      46.907  27.369  24.582  1.00  0.00     0.134 A 
ATOM     66  C   UNL A   1      47.426  26.162  26.585  1.00  0.00     0.134 A 
ATOM     67  F   UNL A   1      46.134  28.207  23.876  1.00  0.00    -0.206 F 
ATOM     68  C   UNL A   1      48.011  26.798  23.947  1.00  0.00     0.040 A 
ATOM     69  C   UNL A   1      48.544  25.599  25.967  1.00  0.00     0.040 A 
ATOM     70  F   UNL A   1      47.176  25.824  27.859  1.00  0.00    -0.206 F 
ATOM     71  C   UNL A   1      48.837  25.915  24.642  1.00  0.00     0.006 A 
ENDBRANCH  50  64
BRANCH  51  72
ATOM     72  C   UNL A   1      38.617  30.635  30.660  1.00  0.00     0.057 A 
ATOM     73  C   UNL A   1      37.715  31.508  30.043  1.00  0.00     0.134 A 
ATOM     74  C   UNL A   1      38.361  30.270  31.986  1.00  0.00     0.134 A 
ATOM     75  F   UNL A   1      37.924  31.914  28.782  1.00  0.00    -0.206 F 
ATOM     76  C   UNL A   1      36.598  32.000  30.720  1.00  0.00     0.040 A 
ATOM     77  C   UNL A   1      37.238  30.737  32.668  1.00  0.00     0.040 A 
ATOM     78  F   UNL A   1      39.192  29.437  32.632  1.00  0.00    -0.206 F 
ATOM     79  C   UNL A   1      36.354  31.608  32.035  1.00  0.00     0.006 A 
ENDBRANCH  51  72
BRANCH  63  80
ATOM     80  C   UNL A   1      45.112  32.954  29.779  1.00  0.00     0.057 A 
ATOM     81  C   UNL A   1      45.105  34.141  29.036  1.00  0.00     0.134 A 
ATOM     82  C   UNL A   1      45.781  32.962  31.010  1.00  0.00     0.134 A 
ATOM     83  F   UNL A   1      44.492  34.193  27.844  1.00  0.00    -0.206 F 
ATOM     84  C   UNL A   1      45.752  35.290  29.493  1.00  0.00     0.040 A 
ATOM     85  C   UNL A   1      46.418  34.108  31.484  1.00  0.00     0.040 A 
ATOM     86  F   UNL A   1      45.819  31.857  31.770  1.00  0.00    -0.206 F 
ATOM     87  C   UNL A   1      46.408  35.277  30.723  1.00  0.00     0.006 A 
ENDBRANCH  63  80
ENDBRANCH  37  38
ENDBRANCH  30  32
ENDBRANCH  29  30
ENDBRANCH  28  29
ENDBRANCH   1  28
TORSDOF 16
ENDMDL
