MODEL 1
REMARK VINA RESULT:     -12.9      0.000      0.000
REMARK SMILES CC[C@@H]1CCC[C@@](CC[NH+]2CCOCC2)(C(=O)OCCOC(=O)c2ccc(-c3c4nc(c(-c5c(F)cccc5F)c5ccc([nH]5)c(-c5c(F)cccc5F)c5nc(c(-c6c(F)cccc6F)c6ccc3[nH]6)C=C5)C=C4)cc2)C1
REMARK SMILES IDX 19 1 18 2 16 3 17 4 7 5 3 6 4 7 78 8 5 9 6 10 2 11 1 12 8 13
REMARK SMILES IDX 9 14 10 15 11 16 15 17 12 19 14 20 13 21 20 22 21 23 22 24
REMARK SMILES IDX 23 25 24 26 25 27 77 28 26 29 76 30 27 31 28 32 29 33 70 34
REMARK SMILES IDX 30 35 75 36 69 37 71 38 31 39 74 40 68 41 67 42 32 44 58 45
REMARK SMILES IDX 41 46 57 47 42 48 45 49 56 50 72 51 43 52 44 53 55 55 73 56
REMARK SMILES IDX 46 57 33 58 34 59 39 60 35 61 36 62 38 63 40 64 37 65 59 66
REMARK SMILES IDX 60 67 65 68 61 69 62 70 64 71 66 72 63 73 47 74 48 75 53 76
REMARK SMILES IDX 49 77 50 78 52 79 54 80 51 81
REMARK H PARENT 10 18 71 43 45 54
REMARK Flexibility Score: inf
ROOT
ATOM      1  C   UNL A   1      31.573  27.679  26.998  1.00  0.00     0.274 C 
ENDROOT
BRANCH   1   2
ATOM      2  O   UNL A   1      31.644  25.737  26.794  1.00  0.00    -0.462 OA
BRANCH   2   3
ATOM      3  C   UNL A   1      31.126  24.459  26.410  1.00  0.00     0.312 C 
ATOM      4  O   UNL A   1      30.080  23.967  26.841  1.00  0.00    -0.252 OA
BRANCH   3   5
ATOM      5  C   UNL A   1      32.038  23.579  25.561  1.00  0.00     0.074 C 
ATOM      6  C   UNL A   1      32.436  25.594  23.965  1.00  0.00    -0.010 C 
ATOM      7  C   UNL A   1      33.951  25.547  24.145  1.00  0.00     0.003 C 
ATOM      8  C   UNL A   1      31.866  24.143  24.080  1.00  0.00     0.022 C 
ATOM      9  C   UNL A   1      34.301  24.911  25.480  1.00  0.00     0.001 C 
ATOM     10  C   UNL A   1      33.569  23.590  25.772  1.00  0.00     0.019 C 
BRANCH   6  11
ATOM     11  C   UNL A   1      32.051  26.375  22.700  1.00  0.00     0.000 C 
ATOM     12  C   UNL A   1      32.703  25.849  21.430  1.00  0.00     0.004 C 
ENDBRANCH   6  11
BRANCH   5  13
ATOM     13  C   UNL A   1      31.390  22.172  25.694  1.00  0.00     0.080 C 
BRANCH  13  14
ATOM     14  C   UNL A   1      32.238  20.884  25.407  1.00  0.00     0.263 C 
BRANCH  14  15
ATOM     15  N   UNL A   1      33.138  20.724  24.211  1.00  0.00    -0.331 N 
ATOM     16  C   UNL A   1      32.119  20.143  22.849  1.00  0.00     0.291 C 
ATOM     17  C   UNL A   1      34.462  19.668  24.790  1.00  0.00     0.291 C 
ATOM     18  H   UNL A   1      33.580  21.564  23.836  1.00  0.00     0.348 HD
ATOM     19  C   UNL A   1      32.355  18.413  22.029  1.00  0.00     0.221 C 
ATOM     20  C   UNL A   1      34.683  17.840  24.208  1.00  0.00     0.221 C 
ATOM     21  O   UNL A   1      33.524  17.232  22.903  1.00  0.00    -0.370 OA
ENDBRANCH  14  15
ENDBRANCH  13  14
ENDBRANCH   5  13
ENDBRANCH   3   5
ENDBRANCH   2   3
ENDBRANCH   1   2
BRANCH   1  22
ATOM     22  C   UNL A   1      31.577  28.843  25.691  1.00  0.00     0.275 C 
BRANCH  22  23
ATOM     23  O   UNL A   1      32.683  29.807  25.526  1.00  0.00    -0.458 OA
BRANCH  23  24
ATOM     24  C   UNL A   1      32.839  30.763  26.502  1.00  0.00     0.338 C 
ATOM     25  O   UNL A   1      31.975  31.586  26.814  1.00  0.00    -0.246 OA
BRANCH  24  26
ATOM     26  C   UNL A   1      34.150  30.682  27.256  1.00  0.00     0.060 A 
ATOM     27  C   UNL A   1      34.646  29.464  27.714  1.00  0.00     0.016 A 
ATOM     28  C   UNL A   1      34.836  31.827  27.678  1.00  0.00     0.016 A 
ATOM     29  C   UNL A   1      35.734  29.366  28.585  1.00  0.00     0.010 A 
ATOM     30  C   UNL A   1      36.025  31.723  28.451  1.00  0.00     0.010 A 
ATOM     31  C   UNL A   1      36.505  30.479  28.901  1.00  0.00    -0.014 A 
BRANCH  31  32
ATOM     32  C   UNL A   1      37.807  30.297  29.630  1.00  0.00     0.031 A 
ATOM     33  C   UNL A   1      38.950  29.524  29.029  1.00  0.00     0.074 A 
ATOM     34  C   UNL A   1      38.005  30.858  30.847  1.00  0.00     0.049 A 
ATOM     35  N   UNL A   1      40.022  29.044  29.613  1.00  0.00    -0.248 NA
ATOM     36  C   UNL A   1      38.893  29.273  27.583  1.00  0.00     0.031 C 
ATOM     37  C   UNL A   1      37.070  31.745  31.545  1.00  0.00     0.029 A 
ATOM     38  N   UNL A   1      39.073  30.774  31.717  1.00  0.00    -0.354 N 
ATOM     39  C   UNL A   1      40.732  28.376  28.624  1.00  0.00     0.074 A 
ATOM     40  C   UNL A   1      39.987  28.546  27.392  1.00  0.00     0.031 C 
ATOM     41  C   UNL A   1      37.617  32.154  32.698  1.00  0.00     0.029 A 
ATOM     42  C   UNL A   1      38.878  31.455  32.897  1.00  0.00     0.049 A 
ATOM     43  H   UNL A   1      39.894  30.272  31.513  1.00  0.00     0.167 HD
ATOM     44  C   UNL A   1      41.885  27.670  28.739  1.00  0.00     0.037 A 
ATOM     45  C   UNL A   1      39.577  31.464  34.050  1.00  0.00     0.037 A 
ATOM     46  C   UNL A   1      42.660  27.543  29.949  1.00  0.00     0.049 A 
ATOM     47  C   UNL A   1      40.783  30.582  34.194  1.00  0.00     0.074 A 
ATOM     48  C   UNL A   1      43.822  26.815  30.157  1.00  0.00     0.029 A 
ATOM     49  N   UNL A   1      42.366  28.170  31.148  1.00  0.00    -0.354 N 
ATOM     50  N   UNL A   1      41.371  29.834  33.295  1.00  0.00    -0.248 NA
ATOM     51  C   UNL A   1      41.394  30.507  35.531  1.00  0.00     0.031 C 
ATOM     52  C   UNL A   1      44.208  26.971  31.494  1.00  0.00     0.029 A 
ATOM     53  C   UNL A   1      43.309  27.827  32.106  1.00  0.00     0.049 A 
ATOM     54  H   UNL A   1      41.600  28.770  31.299  1.00  0.00     0.167 HD
ATOM     55  C   UNL A   1      42.415  29.199  33.955  1.00  0.00     0.074 A 
ATOM     56  C   UNL A   1      42.401  29.671  35.322  1.00  0.00     0.031 C 
ATOM     57  C   UNL A   1      43.297  28.294  33.467  1.00  0.00     0.037 A 
BRANCH  44  58
ATOM     58  C   UNL A   1      42.352  26.906  27.536  1.00  0.00     0.057 A 
ATOM     59  C   UNL A   1      42.017  25.566  27.318  1.00  0.00     0.134 A 
ATOM     60  C   UNL A   1      43.104  27.556  26.546  1.00  0.00     0.134 A 
ATOM     61  F   UNL A   1      41.305  24.886  28.229  1.00  0.00    -0.206 F 
ATOM     62  C   UNL A   1      42.426  24.893  26.164  1.00  0.00     0.040 A 
ATOM     63  C   UNL A   1      43.500  26.901  25.381  1.00  0.00     0.040 A 
ATOM     64  F   UNL A   1      43.445  28.845  26.689  1.00  0.00    -0.206 F 
ATOM     65  C   UNL A   1      43.164  25.563  25.188  1.00  0.00     0.006 A 
ENDBRANCH  44  58
BRANCH  45  66
ATOM     66  C   UNL A   1      39.087  32.251  35.213  1.00  0.00     0.057 A 
ATOM     67  C   UNL A   1      39.437  33.596  35.380  1.00  0.00     0.134 A 
ATOM     68  C   UNL A   1      38.282  31.668  36.201  1.00  0.00     0.134 A 
ATOM     69  F   UNL A   1      40.236  34.202  34.491  1.00  0.00    -0.206 F 
ATOM     70  C   UNL A   1      39.006  34.330  36.487  1.00  0.00     0.040 A 
ATOM     71  C   UNL A   1      37.817  32.399  37.295  1.00  0.00     0.040 A 
ATOM     72  F   UNL A   1      37.922  30.379  36.110  1.00  0.00    -0.206 F 
ATOM     73  C   UNL A   1      38.185  33.734  37.443  1.00  0.00     0.006 A 
ENDBRANCH  45  66
BRANCH  57  74
ATOM     74  C   UNL A   1      44.329  27.761  34.414  1.00  0.00     0.057 A 
ATOM     75  C   UNL A   1      45.547  28.423  34.619  1.00  0.00     0.134 A 
ATOM     76  C   UNL A   1      44.094  26.593  35.150  1.00  0.00     0.134 A 
ATOM     77  F   UNL A   1      45.839  29.536  33.931  1.00  0.00    -0.206 F 
ATOM     78  C   UNL A   1      46.500  27.933  35.514  1.00  0.00     0.040 A 
ATOM     79  C   UNL A   1      45.031  26.106  36.062  1.00  0.00     0.040 A 
ATOM     80  F   UNL A   1      42.947  25.914  35.001  1.00  0.00    -0.206 F 
ATOM     81  C   UNL A   1      46.240  26.774  36.243  1.00  0.00     0.006 A 
ENDBRANCH  57  74
ENDBRANCH  31  32
ENDBRANCH  24  26
ENDBRANCH  23  24
ENDBRANCH  22  23
ENDBRANCH   1  22
TORSDOF 15
ENDMDL
MODEL 2
REMARK VINA RESULT:     -12.9      4.031      8.990
REMARK SMILES CC[C@@H]1CCC[C@@](CC[NH+]2CCOCC2)(C(=O)OCCOC(=O)c2ccc(-c3c4nc(c(-c5c(F)cccc5F)c5ccc([nH]5)c(-c5c(F)cccc5F)c5nc(c(-c6c(F)cccc6F)c6ccc3[nH]6)C=C5)C=C4)cc2)C1
REMARK SMILES IDX 19 1 18 2 16 3 17 4 7 5 3 6 4 7 78 8 5 9 6 10 2 11 1 12 8 13
REMARK SMILES IDX 9 14 10 15 11 16 15 17 12 19 14 20 13 21 20 22 21 23 22 24
REMARK SMILES IDX 23 25 24 26 25 27 77 28 26 29 76 30 27 31 28 32 29 33 70 34
REMARK SMILES IDX 30 35 75 36 69 37 71 38 31 39 74 40 68 41 67 42 32 44 58 45
REMARK SMILES IDX 41 46 57 47 42 48 45 49 56 50 72 51 43 52 44 53 55 55 73 56
REMARK SMILES IDX 46 57 33 58 34 59 39 60 35 61 36 62 38 63 40 64 37 65 59 66
REMARK SMILES IDX 60 67 65 68 61 69 62 70 64 71 66 72 63 73 47 74 48 75 53 76
REMARK SMILES IDX 49 77 50 78 52 79 54 80 51 81
REMARK H PARENT 10 18 71 43 45 54
REMARK Flexibility Score: inf
ROOT
ATOM      1  C   UNL A   1      35.744  23.012  23.496  1.00  0.00     0.274 C 
ENDROOT
BRANCH   1   2
ATOM      2  O   UNL A   1      34.239  24.020  22.765  1.00  0.00    -0.462 OA
BRANCH   2   3
ATOM      3  C   UNL A   1      33.553  25.212  22.369  1.00  0.00     0.312 C 
ATOM      4  O   UNL A   1      33.529  25.659  21.220  1.00  0.00    -0.252 OA
BRANCH   3   5
ATOM      5  C   UNL A   1      32.984  26.077  23.489  1.00  0.00     0.074 C 
ATOM      6  C   UNL A   1      32.395  23.916  24.811  1.00  0.00    -0.010 C 
ATOM      7  C   UNL A   1      33.207  24.339  26.031  1.00  0.00     0.003 C 
ATOM      8  C   UNL A   1      31.817  25.193  24.118  1.00  0.00     0.022 C 
ATOM      9  C   UNL A   1      34.310  25.301  25.620  1.00  0.00     0.001 C 
ATOM     10  C   UNL A   1      33.846  26.455  24.714  1.00  0.00     0.019 C 
BRANCH   6  11
ATOM     11  C   UNL A   1      31.379  22.822  25.171  1.00  0.00     0.000 C 
ATOM     12  C   UNL A   1      31.950  21.413  25.128  1.00  0.00     0.004 C 
ENDBRANCH   6  11
BRANCH   5  13
ATOM     13  C   UNL A   1      32.399  27.298  22.725  1.00  0.00     0.080 C 
BRANCH  13  14
ATOM     14  C   UNL A   1      30.848  27.527  22.673  1.00  0.00     0.263 C 
BRANCH  14  15
ATOM     15  N   UNL A   1      30.029  27.983  23.852  1.00  0.00    -0.331 N 
ATOM     16  C   UNL A   1      28.372  27.321  23.640  1.00  0.00     0.291 C 
ATOM     17  C   UNL A   1      30.236  29.760  23.873  1.00  0.00     0.291 C 
ATOM     18  H   UNL A   1      30.303  27.649  24.776  1.00  0.00     0.348 HD
ATOM     19  C   UNL A   1      26.823  28.440  23.378  1.00  0.00     0.221 C 
ATOM     20  C   UNL A   1      28.819  30.992  23.420  1.00  0.00     0.221 C 
ATOM     21  O   UNL A   1      27.157  30.262  23.070  1.00  0.00    -0.370 OA
ENDBRANCH  14  15
ENDBRANCH  13  14
ENDBRANCH   5  13
ENDBRANCH   3   5
ENDBRANCH   2   3
ENDBRANCH   1   2
BRANCH   1  22
ATOM     22  C   UNL A   1      35.625  21.635  24.571  1.00  0.00     0.275 C 
BRANCH  22  23
ATOM     23  O   UNL A   1      36.428  21.555  25.807  1.00  0.00    -0.458 OA
BRANCH  23  24
ATOM     24  C   UNL A   1      37.778  21.331  25.670  1.00  0.00     0.338 C 
ATOM     25  O   UNL A   1      38.267  20.357  25.095  1.00  0.00    -0.246 OA
BRANCH  24  26
ATOM     26  C   UNL A   1      38.655  22.440  26.213  1.00  0.00     0.060 A 
ATOM     27  C   UNL A   1      38.405  23.775  25.906  1.00  0.00     0.016 A 
ATOM     28  C   UNL A   1      39.848  22.176  26.898  1.00  0.00     0.016 A 
ATOM     29  C   UNL A   1      39.299  24.805  26.209  1.00  0.00     0.010 A 
ATOM     30  C   UNL A   1      40.692  23.235  27.329  1.00  0.00     0.010 A 
ATOM     31  C   UNL A   1      40.416  24.577  27.006  1.00  0.00    -0.014 A 
BRANCH  31  32
ATOM     32  C   UNL A   1      41.212  25.744  27.519  1.00  0.00     0.031 A 
ATOM     33  C   UNL A   1      40.614  26.760  28.455  1.00  0.00     0.074 A 
ATOM     34  C   UNL A   1      42.515  25.899  27.179  1.00  0.00     0.049 A 
ATOM     35  N   UNL A   1      41.058  27.953  28.775  1.00  0.00    -0.248 NA
ATOM     36  C   UNL A   1      39.368  26.382  29.135  1.00  0.00     0.031 C 
ATOM     37  C   UNL A   1      43.311  24.960  26.386  1.00  0.00     0.029 A 
ATOM     38  N   UNL A   1      43.409  26.908  27.471  1.00  0.00    -0.354 N 
ATOM     39  C   UNL A   1      40.114  28.495  29.637  1.00  0.00     0.074 A 
ATOM     40  C   UNL A   1      39.090  27.484  29.821  1.00  0.00     0.031 C 
ATOM     41  C   UNL A   1      44.570  25.408  26.293  1.00  0.00     0.029 A 
ATOM     42  C   UNL A   1      44.647  26.731  26.896  1.00  0.00     0.049 A 
ATOM     43  H   UNL A   1      43.182  27.682  28.035  1.00  0.00     0.167 HD
ATOM     44  C   UNL A   1      40.093  29.727  30.204  1.00  0.00     0.037 A 
ATOM     45  C   UNL A   1      45.706  27.557  26.783  1.00  0.00     0.037 A 
ATOM     46  C   UNL A   1      41.133  30.717  30.069  1.00  0.00     0.049 A 
ATOM     47  C   UNL A   1      45.616  28.958  27.312  1.00  0.00     0.074 A 
ATOM     48  C   UNL A   1      41.171  32.005  30.582  1.00  0.00     0.029 A 
ATOM     49  N   UNL A   1      42.325  30.527  29.389  1.00  0.00    -0.354 N 
ATOM     50  N   UNL A   1      44.656  29.519  28.004  1.00  0.00    -0.248 NA
ATOM     51  C   UNL A   1      46.737  29.860  27.001  1.00  0.00     0.031 C 
ATOM     52  C   UNL A   1      42.370  32.606  30.179  1.00  0.00     0.029 A 
ATOM     53  C   UNL A   1      43.094  31.680  29.450  1.00  0.00     0.049 A 
ATOM     54  H   UNL A   1      42.588  29.696  28.931  1.00  0.00     0.167 HD
ATOM     55  C   UNL A   1      45.054  30.834  28.208  1.00  0.00     0.074 A 
ATOM     56  C   UNL A   1      46.356  30.982  27.593  1.00  0.00     0.031 C 
ATOM     57  C   UNL A   1      44.388  31.830  28.838  1.00  0.00     0.037 A 
BRANCH  44  58
ATOM     58  C   UNL A   1      38.863  30.118  30.969  1.00  0.00     0.057 A 
ATOM     59  C   UNL A   1      38.727  29.891  32.342  1.00  0.00     0.134 A 
ATOM     60  C   UNL A   1      37.822  30.795  30.316  1.00  0.00     0.134 A 
ATOM     61  F   UNL A   1      39.684  29.244  33.023  1.00  0.00    -0.206 F 
ATOM     62  C   UNL A   1      37.590  30.310  33.038  1.00  0.00     0.040 A 
ATOM     63  C   UNL A   1      36.693  31.235  31.004  1.00  0.00     0.040 A 
ATOM     64  F   UNL A   1      37.900  31.055  29.003  1.00  0.00    -0.206 F 
ATOM     65  C   UNL A   1      36.572  30.990  32.370  1.00  0.00     0.006 A 
ENDBRANCH  44  58
BRANCH  45  66
ATOM     66  C   UNL A   1      46.914  27.122  26.030  1.00  0.00     0.057 A 
ATOM     67  C   UNL A   1      47.985  26.493  26.674  1.00  0.00     0.134 A 
ATOM     68  C   UNL A   1      47.038  27.353  24.653  1.00  0.00     0.134 A 
ATOM     69  F   UNL A   1      47.946  26.278  27.997  1.00  0.00    -0.206 F 
ATOM     70  C   UNL A   1      49.134  26.113  25.979  1.00  0.00     0.040 A 
ATOM     71  C   UNL A   1      48.166  26.948  23.939  1.00  0.00     0.040 A 
ATOM     72  F   UNL A   1      46.054  27.964  23.976  1.00  0.00    -0.206 F 
ATOM     73  C   UNL A   1      49.222  26.331  24.604  1.00  0.00     0.006 A 
ENDBRANCH  45  66
BRANCH  57  74
ATOM     74  C   UNL A   1      45.059  33.169  28.907  1.00  0.00     0.057 A 
ATOM     75  C   UNL A   1      44.821  34.159  27.945  1.00  0.00     0.134 A 
ATOM     76  C   UNL A   1      45.929  33.483  29.958  1.00  0.00     0.134 A 
ATOM     77  F   UNL A   1      44.012  33.913  26.903  1.00  0.00    -0.206 F 
ATOM     78  C   UNL A   1      45.434  35.410  28.019  1.00  0.00     0.040 A 
ATOM     79  C   UNL A   1      46.532  34.738  30.054  1.00  0.00     0.040 A 
ATOM     80  F   UNL A   1      46.198  32.580  30.912  1.00  0.00    -0.206 F 
ATOM     81  C   UNL A   1      46.288  35.705  29.081  1.00  0.00     0.006 A 
ENDBRANCH  57  74
ENDBRANCH  31  32
ENDBRANCH  24  26
ENDBRANCH  23  24
ENDBRANCH  22  23
ENDBRANCH   1  22
TORSDOF 15
ENDMDL
MODEL 3
REMARK VINA RESULT:     -12.8      1.887      4.047
REMARK SMILES CC[C@@H]1CCC[C@@](CC[NH+]2CCOCC2)(C(=O)OCCOC(=O)c2ccc(-c3c4nc(c(-c5c(F)cccc5F)c5ccc([nH]5)c(-c5c(F)cccc5F)c5nc(c(-c6c(F)cccc6F)c6ccc3[nH]6)C=C5)C=C4)cc2)C1
REMARK SMILES IDX 19 1 18 2 16 3 17 4 7 5 3 6 4 7 78 8 5 9 6 10 2 11 1 12 8 13
REMARK SMILES IDX 9 14 10 15 11 16 15 17 12 19 14 20 13 21 20 22 21 23 22 24
REMARK SMILES IDX 23 25 24 26 25 27 77 28 26 29 76 30 27 31 28 32 29 33 70 34
REMARK SMILES IDX 30 35 75 36 69 37 71 38 31 39 74 40 68 41 67 42 32 44 58 45
REMARK SMILES IDX 41 46 57 47 42 48 45 49 56 50 72 51 43 52 44 53 55 55 73 56
REMARK SMILES IDX 46 57 33 58 34 59 39 60 35 61 36 62 38 63 40 64 37 65 59 66
REMARK SMILES IDX 60 67 65 68 61 69 62 70 64 71 66 72 63 73 47 74 48 75 53 76
REMARK SMILES IDX 49 77 50 78 52 79 54 80 51 81
REMARK H PARENT 10 18 71 43 45 54
REMARK Flexibility Score: inf
ROOT
ATOM      1  C   UNL A   1      31.566  27.873  27.090  1.00  0.00     0.274 C 
ENDROOT
BRANCH   1   2
ATOM      2  O   UNL A   1      31.992  26.728  25.565  1.00  0.00    -0.462 OA
BRANCH   2   3
ATOM      3  C   UNL A   1      32.819  26.252  24.499  1.00  0.00     0.312 C 
ATOM      4  O   UNL A   1      34.003  26.557  24.339  1.00  0.00    -0.252 OA
BRANCH   3   5
ATOM      5  C   UNL A   1      32.121  25.473  23.389  1.00  0.00     0.074 C 
ATOM      6  C   UNL A   1      33.479  23.361  24.066  1.00  0.00    -0.010 C 
ATOM      7  C   UNL A   1      32.225  22.523  24.298  1.00  0.00     0.003 C 
ATOM      8  C   UNL A   1      33.197  24.392  22.926  1.00  0.00     0.022 C 
ATOM      9  C   UNL A   1      31.047  23.424  24.636  1.00  0.00     0.001 C 
ATOM     10  C   UNL A   1      30.866  24.622  23.687  1.00  0.00     0.019 C 
BRANCH   6  11
ATOM     11  C   UNL A   1      34.716  22.469  23.882  1.00  0.00     0.000 C 
ATOM     12  C   UNL A   1      35.992  23.241  23.584  1.00  0.00     0.004 C 
ENDBRANCH   6  11
BRANCH   5  13
ATOM     13  C   UNL A   1      31.910  26.548  22.285  1.00  0.00     0.080 C 
BRANCH  13  14
ATOM     14  C   UNL A   1      30.674  27.511  22.350  1.00  0.00     0.263 C 
BRANCH  14  15
ATOM     15  N   UNL A   1      29.991  27.911  23.631  1.00  0.00    -0.331 N 
ATOM     16  C   UNL A   1      28.317  27.257  23.570  1.00  0.00     0.291 C 
ATOM     17  C   UNL A   1      30.205  29.685  23.713  1.00  0.00     0.291 C 
ATOM     18  H   UNL A   1      30.362  27.533  24.503  1.00  0.00     0.348 HD
ATOM     19  C   UNL A   1      26.753  28.386  23.532  1.00  0.00     0.221 C 
ATOM     20  C   UNL A   1      28.753  30.935  23.476  1.00  0.00     0.221 C 
ATOM     21  O   UNL A   1      27.060  30.221  23.275  1.00  0.00    -0.370 OA
ENDBRANCH  14  15
ENDBRANCH  13  14
ENDBRANCH   5  13
ENDBRANCH   3   5
ENDBRANCH   2   3
ENDBRANCH   1   2
BRANCH   1  22
ATOM     22  C   UNL A   1      31.533  29.623  27.074  1.00  0.00     0.275 C 
BRANCH  22  23
ATOM     23  O   UNL A   1      32.559  30.403  26.355  1.00  0.00    -0.458 OA
BRANCH  23  24
ATOM     24  C   UNL A   1      33.144  31.450  27.030  1.00  0.00     0.338 C 
ATOM     25  O   UNL A   1      32.652  32.575  27.130  1.00  0.00    -0.246 OA
BRANCH  24  26
ATOM     26  C   UNL A   1      34.434  31.095  27.741  1.00  0.00     0.060 A 
ATOM     27  C   UNL A   1      35.407  32.058  27.996  1.00  0.00     0.016 A 
ATOM     28  C   UNL A   1      34.789  29.769  28.019  1.00  0.00     0.016 A 
ATOM     29  C   UNL A   1      36.687  31.742  28.457  1.00  0.00     0.010 A 
ATOM     30  C   UNL A   1      36.040  29.458  28.617  1.00  0.00     0.010 A 
ATOM     31  C   UNL A   1      37.006  30.451  28.865  1.00  0.00    -0.014 A 
BRANCH  31  32
ATOM     32  C   UNL A   1      38.300  30.200  29.587  1.00  0.00     0.031 A 
ATOM     33  C   UNL A   1      39.405  29.384  28.971  1.00  0.00     0.074 A 
ATOM     34  C   UNL A   1      38.527  30.733  30.812  1.00  0.00     0.049 A 
ATOM     35  N   UNL A   1      40.456  28.847  29.544  1.00  0.00    -0.248 NA
ATOM     36  C   UNL A   1      39.332  29.158  27.521  1.00  0.00     0.031 C 
ATOM     37  C   UNL A   1      37.636  31.650  31.526  1.00  0.00     0.029 A 
ATOM     38  N   UNL A   1      39.592  30.587  31.676  1.00  0.00    -0.354 N 
ATOM     39  C   UNL A   1      41.133  28.163  28.542  1.00  0.00     0.074 A 
ATOM     40  C   UNL A   1      40.392  28.385  27.315  1.00  0.00     0.031 C 
ATOM     41  C   UNL A   1      38.203  32.017  32.683  1.00  0.00     0.029 A 
ATOM     42  C   UNL A   1      39.433  31.258  32.867  1.00  0.00     0.049 A 
ATOM     43  H   UNL A   1      40.390  30.052  31.462  1.00  0.00     0.167 HD
ATOM     44  C   UNL A   1      42.253  27.404  28.642  1.00  0.00     0.037 A 
ATOM     45  C   UNL A   1      40.135  31.218  34.017  1.00  0.00     0.037 A 
ATOM     46  C   UNL A   1      43.024  27.224  29.847  1.00  0.00     0.049 A 
ATOM     47  C   UNL A   1      41.300  30.281  34.144  1.00  0.00     0.074 A 
ATOM     48  C   UNL A   1      44.153  26.441  30.040  1.00  0.00     0.029 A 
ATOM     49  N   UNL A   1      42.762  27.845  31.056  1.00  0.00    -0.354 N 
ATOM     50  N   UNL A   1      41.851  29.520  33.232  1.00  0.00    -0.248 NA
ATOM     51  C   UNL A   1      41.911  30.157  35.478  1.00  0.00     0.031 C 
ATOM     52  C   UNL A   1      44.549  26.559  31.378  1.00  0.00     0.029 A 
ATOM     53  C   UNL A   1      43.692  27.446  32.006  1.00  0.00     0.049 A 
ATOM     54  H   UNL A   1      42.026  28.477  31.219  1.00  0.00     0.167 HD
ATOM     55  C   UNL A   1      42.867  28.829  33.878  1.00  0.00     0.074 A 
ATOM     56  C   UNL A   1      42.878  29.280  35.253  1.00  0.00     0.031 C 
ATOM     57  C   UNL A   1      43.705  27.892  33.374  1.00  0.00     0.037 A 
BRANCH  44  58
ATOM     58  C   UNL A   1      42.681  26.638  27.426  1.00  0.00     0.057 A 
ATOM     59  C   UNL A   1      43.565  27.162  26.477  1.00  0.00     0.134 A 
ATOM     60  C   UNL A   1      42.242  25.318  27.243  1.00  0.00     0.134 A 
ATOM     61  F   UNL A   1      44.018  28.420  26.592  1.00  0.00    -0.206 F 
ATOM     62  C   UNL A   1      43.985  26.407  25.380  1.00  0.00     0.040 A 
ATOM     63  C   UNL A   1      42.670  24.548  26.163  1.00  0.00     0.040 A 
ATOM     64  F   UNL A   1      41.404  24.754  28.126  1.00  0.00    -0.206 F 
ATOM     65  C   UNL A   1      43.542  25.093  25.224  1.00  0.00     0.006 A 
ENDBRANCH  44  58
BRANCH  45  66
ATOM     66  C   UNL A   1      39.684  32.009  35.194  1.00  0.00     0.057 A 
ATOM     67  C   UNL A   1      38.732  31.505  36.087  1.00  0.00     0.134 A 
ATOM     68  C   UNL A   1      40.173  33.300  35.436  1.00  0.00     0.134 A 
ATOM     69  F   UNL A   1      38.196  30.292  35.890  1.00  0.00    -0.206 F 
ATOM     70  C   UNL A   1      38.281  32.256  37.175  1.00  0.00     0.040 A 
ATOM     71  C   UNL A   1      39.757  34.048  36.538  1.00  0.00     0.040 A 
ATOM     72  F   UNL A   1      41.078  33.849  34.611  1.00  0.00    -0.206 F 
ATOM     73  C   UNL A   1      38.803  33.528  37.408  1.00  0.00     0.006 A 
ENDBRANCH  45  66
BRANCH  57  74
ATOM     74  C   UNL A   1      44.715  27.299  34.309  1.00  0.00     0.057 A 
ATOM     75  C   UNL A   1      44.457  26.115  35.012  1.00  0.00     0.134 A 
ATOM     76  C   UNL A   1      45.967  27.899  34.488  1.00  0.00     0.134 A 
ATOM     77  F   UNL A   1      43.269  25.502  34.898  1.00  0.00    -0.206 F 
ATOM     78  C   UNL A   1      45.405  25.556  35.870  1.00  0.00     0.040 A 
ATOM     79  C   UNL A   1      46.931  27.338  35.328  1.00  0.00     0.040 A 
ATOM     80  F   UNL A   1      46.277  29.033  33.843  1.00  0.00    -0.206 F 
ATOM     81  C   UNL A   1      46.649  26.165  36.025  1.00  0.00     0.006 A 
ENDBRANCH  57  74
ENDBRANCH  31  32
ENDBRANCH  24  26
ENDBRANCH  23  24
ENDBRANCH  22  23
ENDBRANCH   1  22
TORSDOF 15
ENDMDL
