MODEL 1
REMARK VINA RESULT:     -12.2      0.000      0.000
REMARK SMILES CCCN1CCC[C@@]2(CCN(c3ccc(C(=O)OCCOC(=O)c4ccc(-c5c6nc(c(-c7c(F)cccc7F)c7ccc([nH]7)c(-c7c(F)cccc7F)c7nc(c(-c8c(F)cccc8F)c8ccc5[nH]8)C=C7)C=C6)cc4)cn3)C2)C1=O
REMARK SMILES IDX 19 1 18 2 16 3 17 4 15 5 12 6 13 7 79 8 14 9 78 10 11 11
REMARK SMILES IDX 4 12 5 13 81 14 6 15 8 16 82 17 7 18 9 19 80 20 10 21 3 22
REMARK SMILES IDX 2 23 1 24 20 25 21 26 22 27 23 28 24 29 25 30 77 31 26 32
REMARK SMILES IDX 76 33 27 34 28 35 29 36 70 37 30 38 75 39 69 40 71 41 31 42
REMARK SMILES IDX 74 43 68 44 67 45 32 47 58 48 41 49 57 50 42 51 45 52 56 53
REMARK SMILES IDX 72 54 43 55 44 56 55 58 73 59 46 60 33 61 34 62 39 63 35 64
REMARK SMILES IDX 36 65 38 66 40 67 37 68 59 69 60 70 65 71 61 72 62 73 64 74
REMARK SMILES IDX 66 75 63 76 47 77 48 78 53 79 49 80 50 81 52 82 54 83 51 84
REMARK H PARENT 71 46 45 57
REMARK Flexibility Score: inf
ROOT
ATOM      1  C   UNL A   1      42.374  20.847  26.069  1.00  0.00     0.275 C 
ENDROOT
BRANCH   1   2
ATOM      2  O   UNL A   1      41.059  21.286  25.669  1.00  0.00    -0.458 OA
BRANCH   2   3
ATOM      3  C   UNL A   1      40.171  21.495  26.672  1.00  0.00     0.339 C 
ATOM      4  O   UNL A   1      40.405  21.487  27.866  1.00  0.00    -0.246 OA
BRANCH   3   5
ATOM      5  C   UNL A   1      38.848  21.828  26.118  1.00  0.00     0.078 A 
ATOM      6  C   UNL A   1      36.394  22.286  24.933  1.00  0.00     0.128 A 
ATOM      7  C   UNL A   1      37.047  23.318  25.616  1.00  0.00     0.048 A 
ATOM      8  N   UNL A   1      36.937  21.065  24.835  1.00  0.00    -0.238 NA
ATOM      9  C   UNL A   1      38.277  23.086  26.234  1.00  0.00     0.021 A 
ATOM     10  C   UNL A   1      38.154  20.875  25.392  1.00  0.00     0.129 A 
BRANCH   6  11
ATOM     11  N   UNL A   1      35.212  22.540  24.268  1.00  0.00    -0.356 N 
ATOM     12  N   UNL A   1      32.273  25.509  25.497  1.00  0.00    -0.342 N 
ATOM     13  C   UNL A   1      31.011  24.831  25.748  1.00  0.00     0.119 C 
ATOM     14  C   UNL A   1      33.034  25.186  24.377  1.00  0.00     0.230 C 
ATOM     15  C   UNL A   1      31.128  23.325  25.601  1.00  0.00     0.023 C 
ATOM     16  C   UNL A   1      33.124  23.681  24.094  1.00  0.00     0.069 C 
ATOM     17  O   UNL A   1      33.729  26.011  23.789  1.00  0.00    -0.274 OA
ATOM     18  C   UNL A   1      31.767  22.985  24.258  1.00  0.00     0.021 C 
ATOM     19  C   UNL A   1      33.742  23.394  22.708  1.00  0.00     0.040 C 
ATOM     20  C   UNL A   1      34.162  23.117  25.100  1.00  0.00     0.135 C 
ATOM     21  C   UNL A   1      35.236  23.240  22.992  1.00  0.00     0.119 C 
BRANCH  12  22
ATOM     22  C   UNL A   1      32.656  26.660  26.308  1.00  0.00     0.119 C 
BRANCH  22  23
ATOM     23  C   UNL A   1      31.519  27.446  26.955  1.00  0.00     0.018 C 
ATOM     24  C   UNL A   1      31.849  28.906  27.212  1.00  0.00     0.006 C 
ENDBRANCH  22  23
ENDBRANCH  12  22
ENDBRANCH   6  11
ENDBRANCH   3   5
ENDBRANCH   2   3
ENDBRANCH   1   2
BRANCH   1  25
ATOM     25  C   UNL A   1      43.470  21.695  25.419  1.00  0.00     0.275 C 
BRANCH  25  26
ATOM     26  O   UNL A   1      42.918  22.870  24.791  1.00  0.00    -0.458 OA
BRANCH  26  27
ATOM     27  C   UNL A   1      43.627  24.002  24.991  1.00  0.00     0.338 C 
ATOM     28  O   UNL A   1      44.686  24.315  24.473  1.00  0.00    -0.246 OA
BRANCH  27  29
ATOM     29  C   UNL A   1      42.898  24.919  25.876  1.00  0.00     0.060 A 
ATOM     30  C   UNL A   1      43.293  26.249  25.881  1.00  0.00     0.016 A 
ATOM     31  C   UNL A   1      42.022  24.450  26.849  1.00  0.00     0.016 A 
ATOM     32  C   UNL A   1      42.966  27.075  26.949  1.00  0.00     0.010 A 
ATOM     33  C   UNL A   1      41.561  25.332  27.838  1.00  0.00     0.010 A 
ATOM     34  C   UNL A   1      42.068  26.642  27.932  1.00  0.00    -0.014 A 
BRANCH  34  35
ATOM     35  C   UNL A   1      41.686  27.553  29.051  1.00  0.00     0.031 A 
ATOM     36  C   UNL A   1      42.476  27.560  30.337  1.00  0.00     0.074 A 
ATOM     37  C   UNL A   1      40.640  28.396  28.914  1.00  0.00     0.049 A 
ATOM     38  N   UNL A   1      42.192  28.129  31.483  1.00  0.00    -0.248 NA
ATOM     39  C   UNL A   1      43.744  26.815  30.342  1.00  0.00     0.031 C 
ATOM     40  C   UNL A   1      39.817  28.547  27.711  1.00  0.00     0.029 A 
ATOM     41  N   UNL A   1      40.088  29.295  29.797  1.00  0.00    -0.354 N 
ATOM     42  C   UNL A   1      43.217  27.773  32.351  1.00  0.00     0.074 A 
ATOM     43  C   UNL A   1      44.119  26.917  31.609  1.00  0.00     0.031 C 
ATOM     44  C   UNL A   1      38.905  29.507  27.911  1.00  0.00     0.029 A 
ATOM     45  C   UNL A   1      38.998  29.963  29.291  1.00  0.00     0.049 A 
ATOM     46  H   UNL A   1      40.441  29.446  30.703  1.00  0.00     0.167 HD
ATOM     47  C   UNL A   1      43.395  28.133  33.646  1.00  0.00     0.037 A 
ATOM     48  C   UNL A   1      38.130  30.807  29.879  1.00  0.00     0.037 A 
ATOM     49  C   UNL A   1      42.517  29.022  34.366  1.00  0.00     0.049 A 
ATOM     50  C   UNL A   1      38.302  31.122  31.338  1.00  0.00     0.074 A 
ATOM     51  C   UNL A   1      42.604  29.442  35.683  1.00  0.00     0.029 A 
ATOM     52  N   UNL A   1      41.401  29.640  33.823  1.00  0.00    -0.354 N 
ATOM     53  N   UNL A   1      39.241  30.731  32.164  1.00  0.00    -0.248 NA
ATOM     54  C   UNL A   1      37.282  31.984  31.949  1.00  0.00     0.031 C 
ATOM     55  C   UNL A   1      41.515  30.279  35.948  1.00  0.00     0.029 A 
ATOM     56  C   UNL A   1      40.782  30.426  34.782  1.00  0.00     0.049 A 
ATOM     57  H   UNL A   1      41.093  29.535  32.894  1.00  0.00     0.167 HD
ATOM     58  C   UNL A   1      38.946  31.326  33.382  1.00  0.00     0.074 A 
ATOM     59  C   UNL A   1      37.749  32.116  33.182  1.00  0.00     0.031 C 
ATOM     60  C   UNL A   1      39.604  31.225  34.562  1.00  0.00     0.037 A 
BRANCH  47  61
ATOM     61  C   UNL A   1      44.571  27.551  34.381  1.00  0.00     0.057 A 
ATOM     62  C   UNL A   1      44.497  26.331  35.063  1.00  0.00     0.134 A 
ATOM     63  C   UNL A   1      45.812  28.204  34.368  1.00  0.00     0.134 A 
ATOM     64  F   UNL A   1      43.339  25.656  35.124  1.00  0.00    -0.206 F 
ATOM     65  C   UNL A   1      45.603  25.793  35.725  1.00  0.00     0.040 A 
ATOM     66  C   UNL A   1      46.933  27.662  35.000  1.00  0.00     0.040 A 
ATOM     67  F   UNL A   1      45.961  29.373  33.726  1.00  0.00    -0.206 F 
ATOM     68  C   UNL A   1      46.828  26.455  35.687  1.00  0.00     0.006 A 
ENDBRANCH  47  61
BRANCH  48  69
ATOM     69  C   UNL A   1      36.989  31.371  29.112  1.00  0.00     0.057 A 
ATOM     70  C   UNL A   1      36.999  32.701  28.675  1.00  0.00     0.134 A 
ATOM     71  C   UNL A   1      35.849  30.609  28.821  1.00  0.00     0.134 A 
ATOM     72  F   UNL A   1      38.049  33.491  28.940  1.00  0.00    -0.206 F 
ATOM     73  C   UNL A   1      35.910  33.260  28.003  1.00  0.00     0.040 A 
ATOM     74  C   UNL A   1      34.769  31.144  28.118  1.00  0.00     0.040 A 
ATOM     75  F   UNL A   1      35.774  29.327  29.206  1.00  0.00    -0.206 F 
ATOM     76  C   UNL A   1      34.792  32.477  27.718  1.00  0.00     0.006 A 
ENDBRANCH  48  69
BRANCH  60  77
ATOM     77  C   UNL A   1      39.080  32.040  35.708  1.00  0.00     0.057 A 
ATOM     78  C   UNL A   1      39.446  33.379  35.900  1.00  0.00     0.134 A 
ATOM     79  C   UNL A   1      38.177  31.479  36.621  1.00  0.00     0.134 A 
ATOM     80  F   UNL A   1      40.319  33.971  35.072  1.00  0.00    -0.206 F 
ATOM     81  C   UNL A   1      38.955  34.119  36.976  1.00  0.00     0.040 A 
ATOM     82  C   UNL A   1      37.656  32.219  37.681  1.00  0.00     0.040 A 
ATOM     83  F   UNL A   1      37.779  30.204  36.490  1.00  0.00    -0.206 F 
ATOM     84  C   UNL A   1      38.052  33.542  37.866  1.00  0.00     0.006 A 
ENDBRANCH  60  77
ENDBRANCH  34  35
ENDBRANCH  27  29
ENDBRANCH  26  27
ENDBRANCH  25  26
ENDBRANCH   1  25
TORSDOF 14
ENDMDL
MODEL 2
REMARK VINA RESULT:     -12.1      1.183      2.549
REMARK SMILES CCCN1CCC[C@@]2(CCN(c3ccc(C(=O)OCCOC(=O)c4ccc(-c5c6nc(c(-c7c(F)cccc7F)c7ccc([nH]7)c(-c7c(F)cccc7F)c7nc(c(-c8c(F)cccc8F)c8ccc5[nH]8)C=C7)C=C6)cc4)cn3)C2)C1=O
REMARK SMILES IDX 19 1 18 2 16 3 17 4 15 5 12 6 13 7 79 8 14 9 78 10 11 11
REMARK SMILES IDX 4 12 5 13 81 14 6 15 8 16 82 17 7 18 9 19 80 20 10 21 3 22
REMARK SMILES IDX 2 23 1 24 20 25 21 26 22 27 23 28 24 29 25 30 77 31 26 32
REMARK SMILES IDX 76 33 27 34 28 35 29 36 70 37 30 38 75 39 69 40 71 41 31 42
REMARK SMILES IDX 74 43 68 44 67 45 32 47 58 48 41 49 57 50 42 51 45 52 56 53
REMARK SMILES IDX 72 54 43 55 44 56 55 58 73 59 46 60 33 61 34 62 39 63 35 64
REMARK SMILES IDX 36 65 38 66 40 67 37 68 59 69 60 70 65 71 61 72 62 73 64 74
REMARK SMILES IDX 66 75 63 76 47 77 48 78 53 79 49 80 50 81 52 82 54 83 51 84
REMARK H PARENT 71 46 45 57
REMARK Flexibility Score: inf
ROOT
ATOM      1  C   UNL A   1      43.065  20.678  26.121  1.00  0.00     0.275 C 
ENDROOT
BRANCH   1   2
ATOM      2  O   UNL A   1      41.668  20.545  25.787  1.00  0.00    -0.458 OA
BRANCH   2   3
ATOM      3  C   UNL A   1      40.789  20.832  26.780  1.00  0.00     0.339 C 
ATOM      4  O   UNL A   1      40.946  20.637  27.971  1.00  0.00    -0.246 OA
BRANCH   3   5
ATOM      5  C   UNL A   1      39.606  21.514  26.229  1.00  0.00     0.078 A 
ATOM      6  C   UNL A   1      37.396  22.932  25.371  1.00  0.00     0.128 A 
ATOM      7  C   UNL A   1      37.581  21.607  24.963  1.00  0.00     0.048 A 
ATOM      8  N   UNL A   1      38.274  23.539  26.182  1.00  0.00    -0.238 NA
ATOM      9  C   UNL A   1      38.707  20.892  25.377  1.00  0.00     0.021 A 
ATOM     10  C   UNL A   1      39.328  22.814  26.617  1.00  0.00     0.129 A 
BRANCH   6  11
ATOM     11  N   UNL A   1      36.248  23.608  25.013  1.00  0.00    -0.356 N 
ATOM     12  N   UNL A   1      32.484  21.700  23.943  1.00  0.00    -0.342 N 
ATOM     13  C   UNL A   1      32.136  22.096  22.587  1.00  0.00     0.119 C 
ATOM     14  C   UNL A   1      32.963  22.642  24.849  1.00  0.00     0.230 C 
ATOM     15  C   UNL A   1      33.210  22.952  21.944  1.00  0.00     0.023 C 
ATOM     16  C   UNL A   1      33.985  23.617  24.255  1.00  0.00     0.069 C 
ATOM     17  O   UNL A   1      32.739  22.573  26.055  1.00  0.00    -0.274 OA
ATOM     18  C   UNL A   1      33.564  24.115  22.867  1.00  0.00     0.021 C 
ATOM     19  C   UNL A   1      34.279  24.794  25.212  1.00  0.00     0.040 C 
ATOM     20  C   UNL A   1      35.327  22.841  24.182  1.00  0.00     0.135 C 
ATOM     21  C   UNL A   1      35.483  24.321  26.026  1.00  0.00     0.119 C 
BRANCH  12  22
ATOM     22  C   UNL A   1      32.154  20.360  24.418  1.00  0.00     0.119 C 
BRANCH  22  23
ATOM     23  C   UNL A   1      33.090  19.234  23.987  1.00  0.00     0.018 C 
ATOM     24  C   UNL A   1      32.441  18.214  23.067  1.00  0.00     0.006 C 
ENDBRANCH  22  23
ENDBRANCH  12  22
ENDBRANCH   6  11
ENDBRANCH   3   5
ENDBRANCH   2   3
ENDBRANCH   1   2
BRANCH   1  25
ATOM     25  C   UNL A   1      43.793  21.597  25.136  1.00  0.00     0.275 C 
BRANCH  25  26
ATOM     26  O   UNL A   1      43.025  22.789  24.871  1.00  0.00    -0.458 OA
BRANCH  26  27
ATOM     27  C   UNL A   1      43.692  23.945  25.076  1.00  0.00     0.338 C 
ATOM     28  O   UNL A   1      44.728  24.309  24.544  1.00  0.00    -0.246 OA
BRANCH  27  29
ATOM     29  C   UNL A   1      42.944  24.819  25.989  1.00  0.00     0.060 A 
ATOM     30  C   UNL A   1      43.155  26.186  25.880  1.00  0.00     0.016 A 
ATOM     31  C   UNL A   1      42.248  24.308  27.079  1.00  0.00     0.016 A 
ATOM     32  C   UNL A   1      42.835  27.032  26.933  1.00  0.00     0.010 A 
ATOM     33  C   UNL A   1      41.780  25.187  28.066  1.00  0.00     0.010 A 
ATOM     34  C   UNL A   1      42.113  26.555  28.034  1.00  0.00    -0.014 A 
BRANCH  34  35
ATOM     35  C   UNL A   1      41.733  27.483  29.139  1.00  0.00     0.031 A 
ATOM     36  C   UNL A   1      42.520  27.503  30.427  1.00  0.00     0.074 A 
ATOM     37  C   UNL A   1      40.690  28.328  28.989  1.00  0.00     0.049 A 
ATOM     38  N   UNL A   1      42.236  28.088  31.565  1.00  0.00    -0.248 NA
ATOM     39  C   UNL A   1      43.785  26.752  30.444  1.00  0.00     0.031 C 
ATOM     40  C   UNL A   1      39.870  28.466  27.782  1.00  0.00     0.029 A 
ATOM     41  N   UNL A   1      40.141  29.240  29.859  1.00  0.00    -0.354 N 
ATOM     42  C   UNL A   1      43.258  27.739  32.440  1.00  0.00     0.074 A 
ATOM     43  C   UNL A   1      44.157  26.870  31.711  1.00  0.00     0.031 C 
ATOM     44  C   UNL A   1      38.962  29.433  27.968  1.00  0.00     0.029 A 
ATOM     45  C   UNL A   1      39.054  29.907  29.342  1.00  0.00     0.049 A 
ATOM     46  H   UNL A   1      40.493  29.402  30.764  1.00  0.00     0.167 HD
ATOM     47  C   UNL A   1      43.435  28.115  33.730  1.00  0.00     0.037 A 
ATOM     48  C   UNL A   1      38.189  30.762  29.918  1.00  0.00     0.037 A 
ATOM     49  C   UNL A   1      42.560  29.017  34.436  1.00  0.00     0.049 A 
ATOM     50  C   UNL A   1      38.360  31.096  31.372  1.00  0.00     0.074 A 
ATOM     51  C   UNL A   1      42.646  29.455  35.748  1.00  0.00     0.029 A 
ATOM     52  N   UNL A   1      41.447  29.633  33.883  1.00  0.00    -0.354 N 
ATOM     53  N   UNL A   1      39.296  30.712  32.206  1.00  0.00    -0.248 NA
ATOM     54  C   UNL A   1      37.343  31.970  31.970  1.00  0.00     0.031 C 
ATOM     55  C   UNL A   1      41.560  30.299  36.000  1.00  0.00     0.029 A 
ATOM     56  C   UNL A   1      40.830  30.435  34.830  1.00  0.00     0.049 A 
ATOM     57  H   UNL A   1      41.140  29.517  32.954  1.00  0.00     0.167 HD
ATOM     58  C   UNL A   1      39.000  31.324  33.415  1.00  0.00     0.074 A 
ATOM     59  C   UNL A   1      37.807  32.117  33.202  1.00  0.00     0.031 C 
ATOM     60  C   UNL A   1      39.656  31.236  34.597  1.00  0.00     0.037 A 
BRANCH  47  61
ATOM     61  C   UNL A   1      44.607  27.539  34.475  1.00  0.00     0.057 A 
ATOM     62  C   UNL A   1      45.827  28.217  34.588  1.00  0.00     0.134 A 
ATOM     63  C   UNL A   1      44.498  26.303  35.128  1.00  0.00     0.134 A 
ATOM     64  F   UNL A   1      46.006  29.400  33.982  1.00  0.00    -0.206 F 
ATOM     65  C   UNL A   1      46.901  27.678  35.301  1.00  0.00     0.040 A 
ATOM     66  C   UNL A   1      45.553  25.768  35.869  1.00  0.00     0.040 A 
ATOM     67  F   UNL A   1      43.355  25.601  35.071  1.00  0.00    -0.206 F 
ATOM     68  C   UNL A   1      46.763  26.454  35.951  1.00  0.00     0.006 A 
ENDBRANCH  47  61
BRANCH  48  69
ATOM     69  C   UNL A   1      37.052  31.321  29.140  1.00  0.00     0.057 A 
ATOM     70  C   UNL A   1      37.071  32.643  28.681  1.00  0.00     0.134 A 
ATOM     71  C   UNL A   1      35.908  30.562  28.862  1.00  0.00     0.134 A 
ATOM     72  F   UNL A   1      38.126  33.431  28.934  1.00  0.00    -0.206 F 
ATOM     73  C   UNL A   1      35.986  33.198  28.000  1.00  0.00     0.040 A 
ATOM     74  C   UNL A   1      34.831  31.092  28.149  1.00  0.00     0.040 A 
ATOM     75  F   UNL A   1      35.824  29.287  29.268  1.00  0.00    -0.206 F 
ATOM     76  C   UNL A   1      34.863  32.418  27.727  1.00  0.00     0.006 A 
ENDBRANCH  48  69
BRANCH  60  77
ATOM     77  C   UNL A   1      39.133  32.068  35.731  1.00  0.00     0.057 A 
ATOM     78  C   UNL A   1      38.235  31.557  36.679  1.00  0.00     0.134 A 
ATOM     79  C   UNL A   1      39.553  33.395  35.888  1.00  0.00     0.134 A 
ATOM     80  F   UNL A   1      37.781  30.299  36.577  1.00  0.00    -0.206 F 
ATOM     81  C   UNL A   1      37.752  32.347  37.722  1.00  0.00     0.040 A 
ATOM     82  C   UNL A   1      39.101  34.184  36.945  1.00  0.00     0.040 A 
ATOM     83  F   UNL A   1      40.418  33.944  35.021  1.00  0.00    -0.206 F 
ATOM     84  C   UNL A   1      38.191  33.663  37.862  1.00  0.00     0.006 A 
ENDBRANCH  60  77
ENDBRANCH  34  35
ENDBRANCH  27  29
ENDBRANCH  26  27
ENDBRANCH  25  26
ENDBRANCH   1  25
TORSDOF 14
ENDMDL
MODEL 3
REMARK VINA RESULT:     -11.9      4.397      9.724
REMARK SMILES CCCN1CCC[C@@]2(CCN(c3ccc(C(=O)OCCOC(=O)c4ccc(-c5c6nc(c(-c7c(F)cccc7F)c7ccc([nH]7)c(-c7c(F)cccc7F)c7nc(c(-c8c(F)cccc8F)c8ccc5[nH]8)C=C7)C=C6)cc4)cn3)C2)C1=O
REMARK SMILES IDX 19 1 18 2 16 3 17 4 15 5 12 6 13 7 79 8 14 9 78 10 11 11
REMARK SMILES IDX 4 12 5 13 81 14 6 15 8 16 82 17 7 18 9 19 80 20 10 21 3 22
REMARK SMILES IDX 2 23 1 24 20 25 21 26 22 27 23 28 24 29 25 30 77 31 26 32
REMARK SMILES IDX 76 33 27 34 28 35 29 36 70 37 30 38 75 39 69 40 71 41 31 42
REMARK SMILES IDX 74 43 68 44 67 45 32 47 58 48 41 49 57 50 42 51 45 52 56 53
REMARK SMILES IDX 72 54 43 55 44 56 55 58 73 59 46 60 33 61 34 62 39 63 35 64
REMARK SMILES IDX 36 65 38 66 40 67 37 68 59 69 60 70 65 71 61 72 62 73 64 74
REMARK SMILES IDX 66 75 63 76 47 77 48 78 53 79 49 80 50 81 52 82 54 83 51 84
REMARK H PARENT 71 46 45 57
REMARK Flexibility Score: inf
ROOT
ATOM      1  C   UNL A   1      34.103  34.077  29.833  1.00  0.00     0.275 C 
ENDROOT
BRANCH   1   2
ATOM      2  O   UNL A   1      33.693  32.858  29.179  1.00  0.00    -0.458 OA
BRANCH   2   3
ATOM      3  C   UNL A   1      34.369  32.533  28.049  1.00  0.00     0.339 C 
ATOM      4  O   UNL A   1      35.363  33.082  27.611  1.00  0.00    -0.246 OA
BRANCH   3   5
ATOM      5  C   UNL A   1      33.779  31.334  27.431  1.00  0.00     0.078 A 
ATOM      6  C   UNL A   1      32.471  29.174  26.309  1.00  0.00     0.128 A 
ATOM      7  C   UNL A   1      33.760  29.020  26.831  1.00  0.00     0.048 A 
ATOM      8  N   UNL A   1      31.845  30.359  26.341  1.00  0.00    -0.238 NA
ATOM      9  C   UNL A   1      34.433  30.112  27.381  1.00  0.00     0.021 A 
ATOM     10  C   UNL A   1      32.491  31.391  26.927  1.00  0.00     0.129 A 
BRANCH   6  11
ATOM     11  N   UNL A   1      31.787  28.077  25.829  1.00  0.00    -0.356 N 
ATOM     12  N   UNL A   1      33.671  24.511  24.188  1.00  0.00    -0.342 N 
ATOM     13  C   UNL A   1      33.220  24.342  22.816  1.00  0.00     0.119 C 
ATOM     14  C   UNL A   1      32.766  24.853  25.189  1.00  0.00     0.230 C 
ATOM     15  C   UNL A   1      32.330  25.482  22.358  1.00  0.00     0.023 C 
ATOM     16  C   UNL A   1      31.760  25.935  24.777  1.00  0.00     0.069 C 
ATOM     17  O   UNL A   1      32.887  24.472  26.350  1.00  0.00    -0.274 OA
ATOM     18  C   UNL A   1      31.205  25.696  23.367  1.00  0.00     0.021 C 
ATOM     19  C   UNL A   1      30.623  26.085  25.813  1.00  0.00     0.040 C 
ATOM     20  C   UNL A   1      32.524  27.283  24.852  1.00  0.00     0.135 C 
ATOM     21  C   UNL A   1      31.123  27.175  26.759  1.00  0.00     0.119 C 
BRANCH  12  22
ATOM     22  C   UNL A   1      35.032  24.136  24.559  1.00  0.00     0.119 C 
BRANCH  22  23
ATOM     23  C   UNL A   1      35.531  22.787  24.048  1.00  0.00     0.018 C 
ATOM     24  C   UNL A   1      36.773  22.881  23.178  1.00  0.00     0.006 C 
ENDBRANCH  22  23
ENDBRANCH  12  22
ENDBRANCH   6  11
ENDBRANCH   3   5
ENDBRANCH   2   3
ENDBRANCH   1   2
BRANCH   1  25
ATOM     25  C   UNL A   1      34.427  33.840  31.311  1.00  0.00     0.275 C 
BRANCH  25  26
ATOM     26  O   UNL A   1      34.558  32.432  31.596  1.00  0.00    -0.458 OA
BRANCH  26  27
ATOM     27  C   UNL A   1      35.578  32.118  32.423  1.00  0.00     0.338 C 
ATOM     28  O   UNL A   1      35.671  32.366  33.615  1.00  0.00    -0.246 OA
BRANCH  27  29
ATOM     29  C   UNL A   1      36.584  31.311  31.722  1.00  0.00     0.060 A 
ATOM     30  C   UNL A   1      37.543  30.673  32.495  1.00  0.00     0.016 A 
ATOM     31  C   UNL A   1      36.734  31.374  30.341  1.00  0.00     0.016 A 
ATOM     32  C   UNL A   1      38.738  30.253  31.927  1.00  0.00     0.010 A 
ATOM     33  C   UNL A   1      37.869  30.802  29.749  1.00  0.00     0.010 A 
ATOM     34  C   UNL A   1      38.912  30.280  30.538  1.00  0.00    -0.014 A 
BRANCH  34  35
ATOM     35  C   UNL A   1      40.182  29.782  29.932  1.00  0.00     0.031 A 
ATOM     36  C   UNL A   1      41.383  30.690  29.816  1.00  0.00     0.074 A 
ATOM     37  C   UNL A   1      40.275  28.506  29.499  1.00  0.00     0.049 A 
ATOM     38  N   UNL A   1      42.499  30.510  29.154  1.00  0.00    -0.248 NA
ATOM     39  C   UNL A   1      41.313  31.978  30.524  1.00  0.00     0.031 C 
ATOM     40  C   UNL A   1      39.220  27.493  29.597  1.00  0.00     0.029 A 
ATOM     41  N   UNL A   1      41.311  27.836  28.893  1.00  0.00    -0.354 N 
ATOM     42  C   UNL A   1      43.239  31.673  29.328  1.00  0.00     0.074 A 
ATOM     43  C   UNL A   1      42.436  32.566  30.136  1.00  0.00     0.031 C 
ATOM     44  C   UNL A   1      39.675  26.328  29.118  1.00  0.00     0.029 A 
ATOM     45  C   UNL A   1      41.010  26.533  28.573  1.00  0.00     0.049 A 
ATOM     46  H   UNL A   1      42.185  28.250  28.706  1.00  0.00     0.167 HD
ATOM     47  C   UNL A   1      44.478  31.969  28.863  1.00  0.00     0.037 A 
ATOM     48  C   UNL A   1      41.701  25.615  27.872  1.00  0.00     0.037 A 
ATOM     49  C   UNL A   1      45.291  31.058  28.096  1.00  0.00     0.049 A 
ATOM     50  C   UNL A   1      43.034  25.997  27.296  1.00  0.00     0.074 A 
ATOM     51  C   UNL A   1      46.556  31.263  27.569  1.00  0.00     0.029 A 
ATOM     52  N   UNL A   1      44.925  29.763  27.760  1.00  0.00    -0.354 N 
ATOM     53  N   UNL A   1      43.697  27.121  27.416  1.00  0.00    -0.248 NA
ATOM     54  C   UNL A   1      43.709  24.984  26.473  1.00  0.00     0.031 C 
ATOM     55  C   UNL A   1      46.935  30.108  26.878  1.00  0.00     0.029 A 
ATOM     56  C   UNL A   1      45.933  29.163  27.022  1.00  0.00     0.049 A 
ATOM     57  H   UNL A   1      44.074  29.333  28.009  1.00  0.00     0.167 HD
ATOM     58  C   UNL A   1      44.880  26.940  26.713  1.00  0.00     0.074 A 
ATOM     59  C   UNL A   1      44.850  25.593  26.184  1.00  0.00     0.031 C 
ATOM     60  C   UNL A   1      45.898  27.813  26.521  1.00  0.00     0.037 A 
BRANCH  47  61
ATOM     61  C   UNL A   1      45.027  33.339  29.148  1.00  0.00     0.057 A 
ATOM     62  C   UNL A   1      45.828  33.604  30.266  1.00  0.00     0.134 A 
ATOM     63  C   UNL A   1      44.788  34.401  28.265  1.00  0.00     0.134 A 
ATOM     64  F   UNL A   1      46.092  32.637  31.159  1.00  0.00    -0.206 F 
ATOM     65  C   UNL A   1      46.349  34.878  30.509  1.00  0.00     0.040 A 
ATOM     66  C   UNL A   1      45.327  35.670  28.479  1.00  0.00     0.040 A 
ATOM     67  F   UNL A   1      44.038  34.218  27.167  1.00  0.00    -0.206 F 
ATOM     68  C   UNL A   1      46.106  35.913  29.609  1.00  0.00     0.006 A 
ENDBRANCH  47  61
BRANCH  48  69
ATOM     69  C   UNL A   1      41.126  24.266  27.625  1.00  0.00     0.057 A 
ATOM     70  C   UNL A   1      41.613  23.139  28.297  1.00  0.00     0.134 A 
ATOM     71  C   UNL A   1      40.101  24.063  26.692  1.00  0.00     0.134 A 
ATOM     72  F   UNL A   1      42.610  23.261  29.186  1.00  0.00    -0.206 F 
ATOM     73  C   UNL A   1      41.122  21.859  28.033  1.00  0.00     0.040 A 
ATOM     74  C   UNL A   1      39.575  22.794  26.445  1.00  0.00     0.040 A 
ATOM     75  F   UNL A   1      39.585  25.098  26.014  1.00  0.00    -0.206 F 
ATOM     76  C   UNL A   1      40.094  21.686  27.107  1.00  0.00     0.006 A 
ENDBRANCH  48  69
BRANCH  60  77
ATOM     77  C   UNL A   1      47.091  27.312  25.759  1.00  0.00     0.057 A 
ATOM     78  C   UNL A   1      47.230  27.509  24.379  1.00  0.00     0.134 A 
ATOM     79  C   UNL A   1      48.125  26.641  26.425  1.00  0.00     0.134 A 
ATOM     80  F   UNL A   1      46.268  28.128  23.679  1.00  0.00    -0.206 F 
ATOM     81  C   UNL A   1      48.342  27.029  23.685  1.00  0.00     0.040 A 
ATOM     82  C   UNL A   1      49.255  26.186  25.747  1.00  0.00     0.040 A 
ATOM     83  F   UNL A   1      48.059  26.427  27.748  1.00  0.00    -0.206 F 
ATOM     84  C   UNL A   1      49.362  26.372  24.370  1.00  0.00     0.006 A 
ENDBRANCH  60  77
ENDBRANCH  34  35
ENDBRANCH  27  29
ENDBRANCH  26  27
ENDBRANCH  25  26
ENDBRANCH   1  25
TORSDOF 14
ENDMDL
