MODEL 1
REMARK VINA RESULT:     -11.7      0.000      0.000
REMARK SMILES Cc1ccn2c([C@@H]3CCCC[C@@H]3C(=O)OCCOC(=O)c3ccc(-c4c5nc(c(-c6c(F)cccc6F)c6ccc([nH]6)c(-c6c(F)cccc6F)c6nc(c(-c7c(F)cccc7F)c7ccc4[nH]7)C=C6)C=C5)cc3)nnc2c1
REMARK SMILES IDX 17 1 16 2 15 3 13 4 14 5 12 6 7 7 8 8 9 9 11 10 10 11 6 12
REMARK SMILES IDX 1 13 2 14 3 15 78 16 4 17 77 18 5 19 76 20 75 21 18 22 19 23
REMARK SMILES IDX 20 24 21 25 22 26 74 27 23 28 73 29 24 30 25 31 26 32 67 33
REMARK SMILES IDX 27 34 72 35 66 36 68 37 28 38 71 39 65 40 64 41 29 43 55 44
REMARK SMILES IDX 38 45 54 46 39 47 42 48 53 49 69 50 40 51 41 52 52 54 70 55
REMARK SMILES IDX 43 56 30 57 31 58 36 59 32 60 33 61 35 62 37 63 34 64 56 65
REMARK SMILES IDX 57 66 62 67 58 68 59 69 61 70 63 71 60 72 44 73 45 74 50 75
REMARK SMILES IDX 46 76 47 77 49 78 51 79 48 80
REMARK H PARENT 68 42 42 53
REMARK Flexibility Score: inf
ROOT
ATOM      1  C   UNL A   1      32.708  30.912  27.278  1.00  0.00     0.275 C 
ENDROOT
BRANCH   1   2
ATOM      2  C   UNL A   1      32.411  29.431  26.996  1.00  0.00     0.274 C 
BRANCH   2   3
ATOM      3  O   UNL A   1      33.227  28.920  25.919  1.00  0.00    -0.462 OA
BRANCH   3   4
ATOM      4  C   UNL A   1      32.594  28.937  24.721  1.00  0.00     0.309 C 
ATOM      5  O   UNL A   1      33.188  29.017  23.658  1.00  0.00    -0.252 OA
BRANCH   4   6
ATOM      6  C   UNL A   1      31.082  28.885  24.797  1.00  0.00     0.110 C 
ATOM      7  C   UNL A   1      30.520  27.515  24.389  1.00  0.00     0.072 C 
ATOM      8  C   UNL A   1      30.306  27.385  22.890  1.00  0.00     0.012 C 
ATOM      9  C   UNL A   1      29.436  28.544  22.382  1.00  0.00     0.001 C 
ATOM     10  C   UNL A   1      30.353  30.080  24.164  1.00  0.00     0.016 C 
ATOM     11  C   UNL A   1      30.070  29.900  22.678  1.00  0.00     0.001 C 
BRANCH   7  12
ATOM     12  C   UNL A   1      31.190  26.364  25.102  1.00  0.00     0.141 A 
ATOM     13  C   UNL A   1      35.992  23.489  24.830  1.00  0.00     0.044 C 
ATOM     14  C   UNL A   1      34.680  24.215  24.851  1.00  0.00    -0.046 A 
ATOM     15  C   UNL A   1      34.167  24.743  23.586  1.00  0.00     0.022 A 
ATOM     16  C   UNL A   1      33.986  24.390  25.994  1.00  0.00     0.053 A 
ATOM     17  C   UNL A   1      33.018  25.445  23.572  1.00  0.00     0.095 A 
ATOM     18  C   UNL A   1      32.747  25.077  25.967  1.00  0.00     0.161 A 
ATOM     19  N   UNL A   1      32.319  25.632  24.763  1.00  0.00    -0.286 N 
ATOM     20  N   UNL A   1      31.858  25.297  26.898  1.00  0.00    -0.130 NA
ATOM     21  N   UNL A   1      30.868  26.048  26.339  1.00  0.00    -0.134 NA
ENDBRANCH   7  12
ENDBRANCH   4   6
ENDBRANCH   3   4
ENDBRANCH   2   3
ENDBRANCH   1   2
BRANCH   1  22
ATOM     22  O   UNL A   1      34.098  31.211  27.038  1.00  0.00    -0.458 OA
BRANCH  22  23
ATOM     23  C   UNL A   1      34.810  31.693  28.085  1.00  0.00     0.338 C 
ATOM     24  O   UNL A   1      34.367  32.383  29.003  1.00  0.00    -0.246 OA
BRANCH  23  25
ATOM     25  C   UNL A   1      36.129  31.008  28.152  1.00  0.00     0.060 A 
ATOM     26  C   UNL A   1      36.261  29.649  27.861  1.00  0.00     0.016 A 
ATOM     27  C   UNL A   1      37.193  31.697  28.761  1.00  0.00     0.016 A 
ATOM     28  C   UNL A   1      37.390  28.963  28.308  1.00  0.00     0.010 A 
ATOM     29  C   UNL A   1      38.330  31.006  29.200  1.00  0.00     0.010 A 
ATOM     30  C   UNL A   1      38.410  29.626  29.018  1.00  0.00    -0.014 A 
BRANCH  30  31
ATOM     31  C   UNL A   1      39.649  28.865  29.220  1.00  0.00     0.031 A 
ATOM     32  C   UNL A   1      40.042  28.891  30.639  1.00  0.00     0.074 A 
ATOM     33  C   UNL A   1      40.384  28.073  28.414  1.00  0.00     0.049 A 
ATOM     34  N   UNL A   1      40.897  29.659  31.223  1.00  0.00    -0.248 NA
ATOM     35  C   UNL A   1      39.225  28.069  31.543  1.00  0.00     0.031 C 
ATOM     36  C   UNL A   1      39.984  27.432  27.174  1.00  0.00     0.029 A 
ATOM     37  N   UNL A   1      41.700  27.685  28.565  1.00  0.00    -0.354 N 
ATOM     38  C   UNL A   1      40.875  29.262  32.551  1.00  0.00     0.074 A 
ATOM     39  C   UNL A   1      39.699  28.450  32.726  1.00  0.00     0.031 C 
ATOM     40  C   UNL A   1      41.018  26.726  26.668  1.00  0.00     0.029 A 
ATOM     41  C   UNL A   1      42.163  26.844  27.558  1.00  0.00     0.049 A 
ATOM     42  H   UNL A   1      42.261  27.976  29.319  1.00  0.00     0.167 HD
ATOM     43  C   UNL A   1      41.978  29.378  33.333  1.00  0.00     0.037 A 
ATOM     44  C   UNL A   1      43.372  26.232  27.463  1.00  0.00     0.037 A 
ATOM     45  C   UNL A   1      42.948  30.274  32.757  1.00  0.00     0.049 A 
ATOM     46  C   UNL A   1      44.311  26.872  28.415  1.00  0.00     0.074 A 
ATOM     47  C   UNL A   1      43.006  31.615  32.446  1.00  0.00     0.029 A 
ATOM     48  N   UNL A   1      43.991  29.672  32.102  1.00  0.00    -0.354 N 
ATOM     49  N   UNL A   1      44.863  28.044  28.268  1.00  0.00    -0.248 NA
ATOM     50  C   UNL A   1      44.421  26.307  29.754  1.00  0.00     0.031 C 
ATOM     51  C   UNL A   1      43.908  31.719  31.345  1.00  0.00     0.029 A 
ATOM     52  C   UNL A   1      44.368  30.438  31.034  1.00  0.00     0.049 A 
ATOM     53  H   UNL A   1      44.405  28.817  32.361  1.00  0.00     0.167 HD
ATOM     54  C   UNL A   1      45.001  28.536  29.557  1.00  0.00     0.074 A 
ATOM     55  C   UNL A   1      44.869  27.373  30.420  1.00  0.00     0.031 C 
ATOM     56  C   UNL A   1      44.916  29.874  29.815  1.00  0.00     0.037 A 
BRANCH  43  57
ATOM     57  C   UNL A   1      42.371  28.337  34.352  1.00  0.00     0.057 A 
ATOM     58  C   UNL A   1      42.112  28.437  35.737  1.00  0.00     0.134 A 
ATOM     59  C   UNL A   1      42.725  27.055  33.900  1.00  0.00     0.134 A 
ATOM     60  F   UNL A   1      41.674  29.562  36.314  1.00  0.00    -0.206 F 
ATOM     61  C   UNL A   1      42.182  27.344  36.602  1.00  0.00     0.040 A 
ATOM     62  C   UNL A   1      42.741  25.943  34.749  1.00  0.00     0.040 A 
ATOM     63  F   UNL A   1      42.974  26.829  32.602  1.00  0.00    -0.206 F 
ATOM     64  C   UNL A   1      42.464  26.084  36.103  1.00  0.00     0.006 A 
ENDBRANCH  43  57
BRANCH  44  65
ATOM     65  C   UNL A   1      43.702  24.977  26.738  1.00  0.00     0.057 A 
ATOM     66  C   UNL A   1      44.317  25.001  25.471  1.00  0.00     0.134 A 
ATOM     67  C   UNL A   1      43.248  23.718  27.162  1.00  0.00     0.134 A 
ATOM     68  F   UNL A   1      44.675  26.155  24.892  1.00  0.00    -0.206 F 
ATOM     69  C   UNL A   1      44.515  23.854  24.699  1.00  0.00     0.040 A 
ATOM     70  C   UNL A   1      43.414  22.561  26.382  1.00  0.00     0.040 A 
ATOM     71  F   UNL A   1      42.585  23.582  28.320  1.00  0.00    -0.206 F 
ATOM     72  C   UNL A   1      44.055  22.626  25.148  1.00  0.00     0.006 A 
ENDBRANCH  44  65
BRANCH  56  73
ATOM     73  C   UNL A   1      45.189  30.818  28.682  1.00  0.00     0.057 A 
ATOM     74  C   UNL A   1      44.121  31.199  27.857  1.00  0.00     0.134 A 
ATOM     75  C   UNL A   1      46.461  31.284  28.330  1.00  0.00     0.134 A 
ATOM     76  F   UNL A   1      42.879  30.751  28.106  1.00  0.00    -0.206 F 
ATOM     77  C   UNL A   1      44.303  32.014  26.739  1.00  0.00     0.040 A 
ATOM     78  C   UNL A   1      46.652  32.135  27.236  1.00  0.00     0.040 A 
ATOM     79  F   UNL A   1      47.552  30.896  29.007  1.00  0.00    -0.206 F 
ATOM     80  C   UNL A   1      45.572  32.497  26.434  1.00  0.00     0.006 A 
ENDBRANCH  56  73
ENDBRANCH  30  31
ENDBRANCH  23  25
ENDBRANCH  22  23
ENDBRANCH   1  22
TORSDOF 12
ENDMDL
MODEL 2
REMARK VINA RESULT:     -11.6      3.158      7.989
REMARK SMILES Cc1ccn2c([C@@H]3CCCC[C@@H]3C(=O)OCCOC(=O)c3ccc(-c4c5nc(c(-c6c(F)cccc6F)c6ccc([nH]6)c(-c6c(F)cccc6F)c6nc(c(-c7c(F)cccc7F)c7ccc4[nH]7)C=C6)C=C5)cc3)nnc2c1
REMARK SMILES IDX 17 1 16 2 15 3 13 4 14 5 12 6 7 7 8 8 9 9 11 10 10 11 6 12
REMARK SMILES IDX 1 13 2 14 3 15 78 16 4 17 77 18 5 19 76 20 75 21 18 22 19 23
REMARK SMILES IDX 20 24 21 25 22 26 74 27 23 28 73 29 24 30 25 31 26 32 67 33
REMARK SMILES IDX 27 34 72 35 66 36 68 37 28 38 71 39 65 40 64 41 29 43 55 44
REMARK SMILES IDX 38 45 54 46 39 47 42 48 53 49 69 50 40 51 41 52 52 54 70 55
REMARK SMILES IDX 43 56 30 57 31 58 36 59 32 60 33 61 35 62 37 63 34 64 56 65
REMARK SMILES IDX 57 66 62 67 58 68 59 69 61 70 63 71 60 72 44 73 45 74 50 75
REMARK SMILES IDX 46 76 47 77 49 78 51 79 48 80
REMARK H PARENT 68 42 42 53
REMARK Flexibility Score: inf
ROOT
ATOM      1  C   UNL A   1      38.280  21.025  25.498  1.00  0.00     0.275 C 
ENDROOT
BRANCH   1   2
ATOM      2  C   UNL A   1      37.160  21.832  24.824  1.00  0.00     0.274 C 
BRANCH   2   3
ATOM      3  O   UNL A   1      36.200  22.318  25.787  1.00  0.00    -0.462 OA
BRANCH   3   4
ATOM      4  C   UNL A   1      35.105  21.525  25.891  1.00  0.00     0.309 C 
ATOM      5  O   UNL A   1      34.463  21.413  26.923  1.00  0.00    -0.252 OA
BRANCH   4   6
ATOM      6  C   UNL A   1      34.755  20.752  24.636  1.00  0.00     0.110 C 
ATOM      7  C   UNL A   1      33.528  21.330  23.914  1.00  0.00     0.072 C 
ATOM      8  C   UNL A   1      32.215  20.780  24.447  1.00  0.00     0.012 C 
ATOM      9  C   UNL A   1      32.238  19.245  24.416  1.00  0.00     0.001 C 
ATOM     10  C   UNL A   1      34.734  19.224  24.793  1.00  0.00     0.016 C 
ATOM     11  C   UNL A   1      33.386  18.679  25.247  1.00  0.00     0.001 C 
BRANCH   7  12
ATOM     12  C   UNL A   1      33.622  22.820  23.687  1.00  0.00     0.141 A 
ATOM     13  C   UNL A   1      32.983  27.555  26.614  1.00  0.00     0.044 C 
ATOM     14  C   UNL A   1      33.083  26.288  25.820  1.00  0.00    -0.046 A 
ATOM     15  C   UNL A   1      32.242  25.157  26.221  1.00  0.00     0.022 A 
ATOM     16  C   UNL A   1      33.920  26.174  24.770  1.00  0.00     0.053 A 
ATOM     17  C   UNL A   1      32.341  23.986  25.565  1.00  0.00     0.095 A 
ATOM     18  C   UNL A   1      33.978  24.959  24.043  1.00  0.00     0.161 A 
ATOM     19  N   UNL A   1      33.222  23.878  24.490  1.00  0.00    -0.286 N 
ATOM     20  N   UNL A   1      34.625  24.629  22.957  1.00  0.00    -0.130 NA
ATOM     21  N   UNL A   1      34.354  23.316  22.711  1.00  0.00    -0.134 NA
ENDBRANCH   7  12
ENDBRANCH   4   6
ENDBRANCH   3   4
ENDBRANCH   2   3
ENDBRANCH   1   2
BRANCH   1  22
ATOM     22  O   UNL A   1      39.471  21.825  25.644  1.00  0.00    -0.458 OA
BRANCH  22  23
ATOM     23  C   UNL A   1      39.983  21.938  26.893  1.00  0.00     0.338 C 
ATOM     24  O   UNL A   1      40.441  21.020  27.571  1.00  0.00    -0.246 OA
BRANCH  23  25
ATOM     25  C   UNL A   1      40.216  23.373  27.210  1.00  0.00     0.060 A 
ATOM     26  C   UNL A   1      41.323  23.785  27.954  1.00  0.00     0.016 A 
ATOM     27  C   UNL A   1      39.166  24.275  26.966  1.00  0.00     0.016 A 
ATOM     28  C   UNL A   1      41.306  25.039  28.563  1.00  0.00     0.010 A 
ATOM     29  C   UNL A   1      39.157  25.538  27.571  1.00  0.00     0.010 A 
ATOM     30  C   UNL A   1      40.206  25.906  28.413  1.00  0.00    -0.014 A 
BRANCH  30  31
ATOM     31  C   UNL A   1      40.403  27.280  28.890  1.00  0.00     0.031 A 
ATOM     32  C   UNL A   1      41.644  27.843  28.330  1.00  0.00     0.074 A 
ATOM     33  C   UNL A   1      39.632  28.128  29.600  1.00  0.00     0.049 A 
ATOM     34  N   UNL A   1      42.811  27.918  28.874  1.00  0.00    -0.248 NA
ATOM     35  C   UNL A   1      41.600  28.196  26.904  1.00  0.00     0.031 C 
ATOM     36  C   UNL A   1      38.198  28.071  29.817  1.00  0.00     0.029 A 
ATOM     37  N   UNL A   1      40.018  29.253  30.299  1.00  0.00    -0.354 N 
ATOM     38  C   UNL A   1      43.605  28.531  27.917  1.00  0.00     0.074 A 
ATOM     39  C   UNL A   1      42.879  28.481  26.675  1.00  0.00     0.031 C 
ATOM     40  C   UNL A   1      37.810  29.107  30.591  1.00  0.00     0.029 A 
ATOM     41  C   UNL A   1      38.968  29.925  30.917  1.00  0.00     0.049 A 
ATOM     42  H   UNL A   1      40.954  29.554  30.355  1.00  0.00     0.167 HD
ATOM     43  C   UNL A   1      44.664  29.298  28.277  1.00  0.00     0.037 A 
ATOM     44  C   UNL A   1      39.008  31.096  31.604  1.00  0.00     0.037 A 
ATOM     45  C   UNL A   1      45.055  29.063  29.644  1.00  0.00     0.049 A 
ATOM     46  C   UNL A   1      40.418  31.408  31.941  1.00  0.00     0.074 A 
ATOM     47  C   UNL A   1      45.554  28.003  30.370  1.00  0.00     0.029 A 
ATOM     48  N   UNL A   1      44.612  29.989  30.552  1.00  0.00    -0.354 N 
ATOM     49  N   UNL A   1      41.131  30.815  32.857  1.00  0.00    -0.248 NA
ATOM     50  C   UNL A   1      41.180  32.231  31.009  1.00  0.00     0.031 C 
ATOM     51  C   UNL A   1      45.096  28.199  31.707  1.00  0.00     0.029 A 
ATOM     52  C   UNL A   1      44.342  29.374  31.743  1.00  0.00     0.049 A 
ATOM     53  H   UNL A   1      44.503  30.951  30.373  1.00  0.00     0.167 HD
ATOM     54  C   UNL A   1      42.429  30.839  32.368  1.00  0.00     0.074 A 
ATOM     55  C   UNL A   1      42.419  31.854  31.325  1.00  0.00     0.031 C 
ATOM     56  C   UNL A   1      43.309  29.835  32.651  1.00  0.00     0.037 A 
BRANCH  43  57
ATOM     57  C   UNL A   1      45.030  30.575  27.560  1.00  0.00     0.057 A 
ATOM     58  C   UNL A   1      44.304  31.783  27.659  1.00  0.00     0.134 A 
ATOM     59  C   UNL A   1      46.319  30.694  27.017  1.00  0.00     0.134 A 
ATOM     60  F   UNL A   1      43.101  31.861  28.238  1.00  0.00    -0.206 F 
ATOM     61  C   UNL A   1      44.828  33.015  27.265  1.00  0.00     0.040 A 
ATOM     62  C   UNL A   1      46.873  31.932  26.673  1.00  0.00     0.040 A 
ATOM     63  F   UNL A   1      47.113  29.620  26.891  1.00  0.00    -0.206 F 
ATOM     64  C   UNL A   1      46.129  33.098  26.802  1.00  0.00     0.006 A 
ENDBRANCH  43  57
BRANCH  44  65
ATOM     65  C   UNL A   1      37.904  32.072  31.805  1.00  0.00     0.057 A 
ATOM     66  C   UNL A   1      37.125  32.067  32.978  1.00  0.00     0.134 A 
ATOM     67  C   UNL A   1      37.441  32.910  30.779  1.00  0.00     0.134 A 
ATOM     68  F   UNL A   1      37.379  31.215  33.981  1.00  0.00    -0.206 F 
ATOM     69  C   UNL A   1      35.994  32.870  33.145  1.00  0.00     0.040 A 
ATOM     70  C   UNL A   1      36.289  33.700  30.922  1.00  0.00     0.040 A 
ATOM     71  F   UNL A   1      38.061  32.946  29.591  1.00  0.00    -0.206 F 
ATOM     72  C   UNL A   1      35.565  33.687  32.111  1.00  0.00     0.006 A 
ENDBRANCH  44  65
BRANCH  56  73
ATOM     73  C   UNL A   1      43.046  29.006  33.873  1.00  0.00     0.057 A 
ATOM     74  C   UNL A   1      42.172  27.916  33.766  1.00  0.00     0.134 A 
ATOM     75  C   UNL A   1      43.547  29.296  35.148  1.00  0.00     0.134 A 
ATOM     76  F   UNL A   1      41.615  27.607  32.582  1.00  0.00    -0.206 F 
ATOM     77  C   UNL A   1      41.817  27.139  34.870  1.00  0.00     0.040 A 
ATOM     78  C   UNL A   1      43.233  28.502  36.256  1.00  0.00     0.040 A 
ATOM     79  F   UNL A   1      44.316  30.373  35.360  1.00  0.00    -0.206 F 
ATOM     80  C   UNL A   1      42.361  27.424  36.120  1.00  0.00     0.006 A 
ENDBRANCH  56  73
ENDBRANCH  30  31
ENDBRANCH  23  25
ENDBRANCH  22  23
ENDBRANCH   1  22
TORSDOF 12
ENDMDL
MODEL 3
REMARK VINA RESULT:     -11.6      2.265      6.335
REMARK SMILES Cc1ccn2c([C@@H]3CCCC[C@@H]3C(=O)OCCOC(=O)c3ccc(-c4c5nc(c(-c6c(F)cccc6F)c6ccc([nH]6)c(-c6c(F)cccc6F)c6nc(c(-c7c(F)cccc7F)c7ccc4[nH]7)C=C6)C=C5)cc3)nnc2c1
REMARK SMILES IDX 17 1 16 2 15 3 13 4 14 5 12 6 7 7 8 8 9 9 11 10 10 11 6 12
REMARK SMILES IDX 1 13 2 14 3 15 78 16 4 17 77 18 5 19 76 20 75 21 18 22 19 23
REMARK SMILES IDX 20 24 21 25 22 26 74 27 23 28 73 29 24 30 25 31 26 32 67 33
REMARK SMILES IDX 27 34 72 35 66 36 68 37 28 38 71 39 65 40 64 41 29 43 55 44
REMARK SMILES IDX 38 45 54 46 39 47 42 48 53 49 69 50 40 51 41 52 52 54 70 55
REMARK SMILES IDX 43 56 30 57 31 58 36 59 32 60 33 61 35 62 37 63 34 64 56 65
REMARK SMILES IDX 57 66 62 67 58 68 59 69 61 70 63 71 60 72 44 73 45 74 50 75
REMARK SMILES IDX 46 76 47 77 49 78 51 79 48 80
REMARK H PARENT 68 42 42 53
REMARK Flexibility Score: inf
ROOT
ATOM      1  C   UNL A   1      34.398  29.329  26.837  1.00  0.00     0.275 C 
ENDROOT
BRANCH   1   2
ATOM      2  C   UNL A   1      33.417  28.150  26.939  1.00  0.00     0.274 C 
BRANCH   2   3
ATOM      3  O   UNL A   1      33.654  27.168  25.907  1.00  0.00    -0.462 OA
BRANCH   3   4
ATOM      4  C   UNL A   1      32.864  27.342  24.819  1.00  0.00     0.309 C 
ATOM      5  O   UNL A   1      33.241  27.109  23.682  1.00  0.00    -0.252 OA
BRANCH   4   6
ATOM      6  C   UNL A   1      31.481  27.884  25.114  1.00  0.00     0.110 C 
ATOM      7  C   UNL A   1      30.374  26.861  24.818  1.00  0.00     0.072 C 
ATOM      8  C   UNL A   1      29.918  26.885  23.369  1.00  0.00     0.012 C 
ATOM      9  C   UNL A   1      29.512  28.312  22.970  1.00  0.00     0.001 C 
ATOM     10  C   UNL A   1      31.201  29.293  24.570  1.00  0.00     0.016 C 
ATOM     11  C   UNL A   1      30.665  29.298  23.144  1.00  0.00     0.001 C 
BRANCH   7  12
ATOM     12  C   UNL A   1      30.630  25.513  25.449  1.00  0.00     0.141 A 
ATOM     13  C   UNL A   1      33.065  20.649  24.102  1.00  0.00     0.044 C 
ATOM     14  C   UNL A   1      32.353  21.928  24.430  1.00  0.00    -0.046 A 
ATOM     15  C   UNL A   1      31.736  22.671  23.330  1.00  0.00     0.022 A 
ATOM     16  C   UNL A   1      32.281  22.395  25.693  1.00  0.00     0.053 A 
ATOM     17  C   UNL A   1      31.132  23.849  23.576  1.00  0.00     0.095 A 
ATOM     18  C   UNL A   1      31.593  23.604  25.957  1.00  0.00     0.161 A 
ATOM     19  N   UNL A   1      31.078  24.328  24.884  1.00  0.00    -0.286 N 
ATOM     20  N   UNL A   1      31.309  24.212  27.079  1.00  0.00    -0.130 NA
ATOM     21  N   UNL A   1      30.661  25.367  26.758  1.00  0.00    -0.134 NA
ENDBRANCH   7  12
ENDBRANCH   4   6
ENDBRANCH   3   4
ENDBRANCH   2   3
ENDBRANCH   1   2
BRANCH   1  22
ATOM     22  O   UNL A   1      35.726  28.924  27.224  1.00  0.00    -0.458 OA
BRANCH  22  23
ATOM     23  C   UNL A   1      36.211  29.439  28.380  1.00  0.00     0.338 C 
ATOM     24  O   UNL A   1      35.549  29.723  29.377  1.00  0.00    -0.246 OA
BRANCH  23  25
ATOM     25  C   UNL A   1      37.693  29.312  28.402  1.00  0.00     0.060 A 
ATOM     26  C   UNL A   1      38.477  29.724  27.322  1.00  0.00     0.016 A 
ATOM     27  C   UNL A   1      38.268  28.536  29.423  1.00  0.00     0.016 A 
ATOM     28  C   UNL A   1      39.779  29.240  27.202  1.00  0.00     0.010 A 
ATOM     29  C   UNL A   1      39.580  28.060  29.303  1.00  0.00     0.010 A 
ATOM     30  C   UNL A   1      40.324  28.370  28.166  1.00  0.00    -0.014 A 
BRANCH  30  31
ATOM     31  C   UNL A   1      41.769  28.126  28.066  1.00  0.00     0.031 A 
ATOM     32  C   UNL A   1      42.024  26.827  27.420  1.00  0.00     0.074 A 
ATOM     33  C   UNL A   1      42.850  28.889  28.317  1.00  0.00     0.049 A 
ATOM     34  N   UNL A   1      42.281  25.691  27.973  1.00  0.00    -0.248 NA
ATOM     35  C   UNL A   1      41.773  26.772  25.973  1.00  0.00     0.031 C 
ATOM     36  C   UNL A   1      42.925  30.334  28.433  1.00  0.00     0.029 A 
ATOM     37  N   UNL A   1      44.151  28.483  28.534  1.00  0.00    -0.354 N 
ATOM     38  C   UNL A   1      42.434  24.812  26.911  1.00  0.00     0.074 A 
ATOM     39  C   UNL A   1      41.907  25.468  25.744  1.00  0.00     0.031 C 
ATOM     40  C   UNL A   1      44.194  30.709  28.697  1.00  0.00     0.029 A 
ATOM     41  C   UNL A   1      45.043  29.528  28.752  1.00  0.00     0.049 A 
ATOM     42  H   UNL A   1      44.424  27.537  28.533  1.00  0.00     0.167 HD
ATOM     43  C   UNL A   1      43.253  23.735  27.010  1.00  0.00     0.037 A 
ATOM     44  C   UNL A   1      46.391  29.465  28.914  1.00  0.00     0.037 A 
ATOM     45  C   UNL A   1      43.578  23.435  28.381  1.00  0.00     0.049 A 
ATOM     46  C   UNL A   1      46.774  28.060  29.200  1.00  0.00     0.074 A 
ATOM     47  C   UNL A   1      42.888  23.036  29.506  1.00  0.00     0.029 A 
ATOM     48  N   UNL A   1      44.803  23.878  28.808  1.00  0.00    -0.354 N 
ATOM     49  N   UNL A   1      46.582  27.434  30.326  1.00  0.00    -0.248 NA
ATOM     50  C   UNL A   1      47.130  27.204  28.075  1.00  0.00     0.031 C 
ATOM     51  C   UNL A   1      43.619  23.557  30.615  1.00  0.00     0.029 A 
ATOM     52  C   UNL A   1      44.728  24.247  30.122  1.00  0.00     0.049 A 
ATOM     53  H   UNL A   1      45.614  23.924  28.251  1.00  0.00     0.167 HD
ATOM     54  C   UNL A   1      46.372  26.111  29.965  1.00  0.00     0.074 A 
ATOM     55  C   UNL A   1      46.880  26.007  28.606  1.00  0.00     0.031 C 
ATOM     56  C   UNL A   1      45.544  25.304  30.691  1.00  0.00     0.037 A 
BRANCH  43  57
ATOM     57  C   UNL A   1      44.122  23.260  25.871  1.00  0.00     0.057 A 
ATOM     58  C   UNL A   1      45.193  24.000  25.322  1.00  0.00     0.134 A 
ATOM     59  C   UNL A   1      44.098  21.899  25.530  1.00  0.00     0.134 A 
ATOM     60  F   UNL A   1      45.416  25.285  25.620  1.00  0.00    -0.206 F 
ATOM     61  C   UNL A   1      46.173  23.425  24.512  1.00  0.00     0.040 A 
ATOM     62  C   UNL A   1      45.108  21.302  24.767  1.00  0.00     0.040 A 
ATOM     63  F   UNL A   1      43.142  21.088  26.008  1.00  0.00    -0.206 F 
ATOM     64  C   UNL A   1      46.153  22.064  24.260  1.00  0.00     0.006 A 
ENDBRANCH  43  57
BRANCH  44  65
ATOM     65  C   UNL A   1      47.393  30.523  28.625  1.00  0.00     0.057 A 
ATOM     66  C   UNL A   1      47.969  31.289  29.657  1.00  0.00     0.134 A 
ATOM     67  C   UNL A   1      47.675  30.962  27.322  1.00  0.00     0.134 A 
ATOM     68  F   UNL A   1      47.673  31.060  30.943  1.00  0.00    -0.206 F 
ATOM     69  C   UNL A   1      48.805  32.383  29.418  1.00  0.00     0.040 A 
ATOM     70  C   UNL A   1      48.490  32.078  27.068  1.00  0.00     0.040 A 
ATOM     71  F   UNL A   1      47.127  30.354  26.260  1.00  0.00    -0.206 F 
ATOM     72  C   UNL A   1      49.063  32.788  28.118  1.00  0.00     0.006 A 
ENDBRANCH  44  65
BRANCH  56  73
ATOM     73  C   UNL A   1      45.285  25.679  32.119  1.00  0.00     0.057 A 
ATOM     74  C   UNL A   1      44.202  26.523  32.403  1.00  0.00     0.134 A 
ATOM     75  C   UNL A   1      46.107  25.317  33.193  1.00  0.00     0.134 A 
ATOM     76  F   UNL A   1      43.398  26.950  31.415  1.00  0.00    -0.206 F 
ATOM     77  C   UNL A   1      43.938  26.978  33.696  1.00  0.00     0.040 A 
ATOM     78  C   UNL A   1      45.830  25.733  34.500  1.00  0.00     0.040 A 
ATOM     79  F   UNL A   1      47.217  24.590  33.000  1.00  0.00    -0.206 F 
ATOM     80  C   UNL A   1      44.746  26.571  34.753  1.00  0.00     0.006 A 
ENDBRANCH  56  73
ENDBRANCH  30  31
ENDBRANCH  23  25
ENDBRANCH  22  23
ENDBRANCH   1  22
TORSDOF 12
ENDMDL
