MODEL 1
REMARK VINA RESULT:     -10.5      0.000      0.000
REMARK SMILES C[C@H](NC(=O)NCCc1ccccc1F)C(=O)OCCOC(=O)c1ccc(-c2c3nc(c(-c4c(F)cccc4F)c4ccc([nH]4)c(-c4c(F)cccc4F)c4nc(c(-c5c(F)cccc5F)c5ccc2[nH]5)C=C4)C=C3)cc1
REMARK SMILES IDX 19 1 18 2 16 3 17 4 2 5 1 6 3 7 4 8 5 10 6 11 7 13 8 14 9 15
REMARK SMILES IDX 10 16 14 17 11 18 13 19 15 20 12 21 20 22 21 23 22 24 23 25
REMARK SMILES IDX 24 26 25 27 77 28 26 29 76 30 27 31 28 32 29 33 70 34 30 35
REMARK SMILES IDX 75 36 69 37 71 38 31 39 74 40 68 41 67 42 32 44 58 45 41 46
REMARK SMILES IDX 57 47 42 48 45 49 56 50 72 51 43 52 44 53 55 55 73 56 46 57
REMARK SMILES IDX 33 58 34 59 39 60 35 61 36 62 38 63 40 64 37 65 59 66 60 67
REMARK SMILES IDX 65 68 61 69 62 70 64 71 66 72 63 73 47 74 48 75 53 76 49 77
REMARK SMILES IDX 50 78 52 79 54 80 51 81
REMARK H PARENT 3 9 6 12 71 43 45 54
REMARK Flexibility Score: inf
ROOT
ATOM      1  C   UNL A   1      32.278  28.868  25.601  1.00  0.00     0.274 C 
ENDROOT
BRANCH   1   2
ATOM      2  O   UNL A   1      32.130  27.461  25.333  1.00  0.00    -0.461 OA
BRANCH   2   3
ATOM      3  C   UNL A   1      31.308  26.783  26.178  1.00  0.00     0.328 C 
ATOM      4  O   UNL A   1      31.038  27.132  27.323  1.00  0.00    -0.250 OA
BRANCH   3   5
ATOM      5  C   UNL A   1      30.789  25.467  25.582  1.00  0.00     0.190 C 
ATOM      6  C   UNL A   1      29.932  25.805  24.365  1.00  0.00     0.043 C 
BRANCH   5   7
ATOM      7  N   UNL A   1      30.070  24.601  26.511  1.00  0.00    -0.325 N 
ATOM      8  C   UNL A   1      30.268  23.340  26.928  1.00  0.00     0.315 C 
ATOM      9  H   UNL A   1      29.278  25.026  26.912  1.00  0.00     0.166 HD
ATOM     10  O   UNL A   1      29.460  22.845  27.716  1.00  0.00    -0.249 OA
ATOM     11  N   UNL A   1      31.303  22.577  26.534  1.00  0.00    -0.338 N 
ATOM     12  H   UNL A   1      31.294  21.679  26.937  1.00  0.00     0.165 HD
BRANCH  11  13
ATOM     13  C   UNL A   1      32.431  22.791  25.643  1.00  0.00     0.122 C 
BRANCH  13  14
ATOM     14  C   UNL A   1      33.512  21.710  25.737  1.00  0.00     0.060 C 
BRANCH  14  15
ATOM     15  C   UNL A   1      34.963  22.116  25.696  1.00  0.00    -0.010 A 
ATOM     16  C   UNL A   1      35.447  23.383  26.039  1.00  0.00     0.007 A 
ATOM     17  C   UNL A   1      35.891  21.145  25.288  1.00  0.00     0.126 A 
ATOM     18  C   UNL A   1      36.820  23.655  25.981  1.00  0.00     0.000 A 
ATOM     19  C   UNL A   1      37.256  21.409  25.228  1.00  0.00     0.039 A 
ATOM     20  F   UNL A   1      35.461  19.919  24.954  1.00  0.00    -0.207 F 
ATOM     21  C   UNL A   1      37.723  22.670  25.578  1.00  0.00     0.003 A 
ENDBRANCH  14  15
ENDBRANCH  13  14
ENDBRANCH  11  13
ENDBRANCH   5   7
ENDBRANCH   3   5
ENDBRANCH   2   3
ENDBRANCH   1   2
BRANCH   1  22
ATOM     22  C   UNL A   1      33.732  29.218  25.932  1.00  0.00     0.275 C 
BRANCH  22  23
ATOM     23  O   UNL A   1      34.016  29.105  27.340  1.00  0.00    -0.458 OA
BRANCH  23  24
ATOM     24  C   UNL A   1      34.589  30.199  27.894  1.00  0.00     0.338 C 
ATOM     25  O   UNL A   1      34.038  31.260  28.159  1.00  0.00    -0.246 OA
BRANCH  24  26
ATOM     26  C   UNL A   1      35.989  29.924  28.254  1.00  0.00     0.060 A 
ATOM     27  C   UNL A   1      36.970  30.103  27.272  1.00  0.00     0.016 A 
ATOM     28  C   UNL A   1      36.331  29.415  29.509  1.00  0.00     0.016 A 
ATOM     29  C   UNL A   1      38.297  29.772  27.543  1.00  0.00     0.010 A 
ATOM     30  C   UNL A   1      37.661  29.076  29.777  1.00  0.00     0.010 A 
ATOM     31  C   UNL A   1      38.651  29.241  28.792  1.00  0.00    -0.014 A 
BRANCH  31  32
ATOM     32  C   UNL A   1      40.048  28.820  29.051  1.00  0.00     0.031 A 
ATOM     33  C   UNL A   1      40.995  29.745  29.761  1.00  0.00     0.074 A 
ATOM     34  C   UNL A   1      40.464  27.599  28.667  1.00  0.00     0.049 A 
ATOM     35  N   UNL A   1      42.266  29.583  30.025  1.00  0.00    -0.248 NA
ATOM     36  C   UNL A   1      40.437  31.020  30.238  1.00  0.00     0.031 C 
ATOM     37  C   UNL A   1      39.630  26.595  28.006  1.00  0.00     0.029 A 
ATOM     38  N   UNL A   1      41.692  26.997  28.777  1.00  0.00    -0.354 N 
ATOM     39  C   UNL A   1      42.663  30.735  30.692  1.00  0.00     0.074 A 
ATOM     40  C   UNL A   1      41.504  31.598  30.773  1.00  0.00     0.031 C 
ATOM     41  C   UNL A   1      40.369  25.498  27.777  1.00  0.00     0.029 A 
ATOM     42  C   UNL A   1      41.736  25.737  28.233  1.00  0.00     0.049 A 
ATOM     43  H   UNL A   1      42.468  27.428  29.204  1.00  0.00     0.167 HD
ATOM     44  C   UNL A   1      43.883  31.039  31.197  1.00  0.00     0.037 A 
ATOM     45  C   UNL A   1      42.767  24.879  28.100  1.00  0.00     0.037 A 
ATOM     46  C   UNL A   1      45.033  30.175  31.126  1.00  0.00     0.049 A 
ATOM     47  C   UNL A   1      44.127  25.269  28.607  1.00  0.00     0.074 A 
ATOM     48  C   UNL A   1      46.307  30.397  31.621  1.00  0.00     0.029 A 
ATOM     49  N   UNL A   1      45.048  28.926  30.527  1.00  0.00    -0.354 N 
ATOM     50  N   UNL A   1      44.494  26.364  29.225  1.00  0.00    -0.248 NA
ATOM     51  C   UNL A   1      45.220  24.309  28.389  1.00  0.00     0.031 C 
ATOM     52  C   UNL A   1      47.105  29.300  31.283  1.00  0.00     0.029 A 
ATOM     53  C   UNL A   1      46.316  28.375  30.619  1.00  0.00     0.049 A 
ATOM     54  H   UNL A   1      44.274  28.494  30.099  1.00  0.00     0.167 HD
ATOM     55  C   UNL A   1      45.851  26.220  29.487  1.00  0.00     0.074 A 
ATOM     56  C   UNL A   1      46.242  24.925  28.969  1.00  0.00     0.031 C 
ATOM     57  C   UNL A   1      46.693  27.085  30.101  1.00  0.00     0.037 A 
BRANCH  44  58
ATOM     58  C   UNL A   1      44.048  32.372  31.863  1.00  0.00     0.057 A 
ATOM     59  C   UNL A   1      43.786  32.524  33.230  1.00  0.00     0.134 A 
ATOM     60  C   UNL A   1      44.400  33.518  31.139  1.00  0.00     0.134 A 
ATOM     61  F   UNL A   1      43.437  31.467  33.978  1.00  0.00    -0.206 F 
ATOM     62  C   UNL A   1      43.858  33.771  33.853  1.00  0.00     0.040 A 
ATOM     63  C   UNL A   1      44.496  34.768  31.755  1.00  0.00     0.040 A 
ATOM     64  F   UNL A   1      44.671  33.437  29.828  1.00  0.00    -0.206 F 
ATOM     65  C   UNL A   1      44.216  34.898  33.114  1.00  0.00     0.006 A 
ENDBRANCH  44  58
BRANCH  45  66
ATOM     66  C   UNL A   1      42.546  23.565  27.449  1.00  0.00     0.057 A 
ATOM     67  C   UNL A   1      42.664  23.409  26.062  1.00  0.00     0.134 A 
ATOM     68  C   UNL A   1      42.191  22.438  28.198  1.00  0.00     0.134 A 
ATOM     69  F   UNL A   1      43.002  24.452  25.290  1.00  0.00    -0.206 F 
ATOM     70  C   UNL A   1      42.417  22.185  25.440  1.00  0.00     0.040 A 
ATOM     71  C   UNL A   1      41.963  21.201  27.592  1.00  0.00     0.040 A 
ATOM     72  F   UNL A   1      42.086  22.520  29.532  1.00  0.00    -0.206 F 
ATOM     73  C   UNL A   1      42.067  21.075  26.207  1.00  0.00     0.006 A 
ENDBRANCH  45  66
BRANCH  57  74
ATOM     74  C   UNL A   1      48.124  26.661  30.268  1.00  0.00     0.057 A 
ATOM     75  C   UNL A   1      49.070  26.935  29.273  1.00  0.00     0.134 A 
ATOM     76  C   UNL A   1      48.544  25.916  31.376  1.00  0.00     0.134 A 
ATOM     77  F   UNL A   1      48.728  27.636  28.181  1.00  0.00    -0.206 F 
ATOM     78  C   UNL A   1      50.383  26.470  29.367  1.00  0.00     0.040 A 
ATOM     79  C   UNL A   1      49.860  25.464  31.492  1.00  0.00     0.040 A 
ATOM     80  F   UNL A   1      47.687  25.629  32.368  1.00  0.00    -0.206 F 
ATOM     81  C   UNL A   1      50.781  25.733  30.481  1.00  0.00     0.006 A 
ENDBRANCH  57  74
ENDBRANCH  31  32
ENDBRANCH  24  26
ENDBRANCH  23  24
ENDBRANCH  22  23
ENDBRANCH   1  22
TORSDOF 15
ENDMDL
MODEL 2
REMARK VINA RESULT:     -10.5      4.241      8.583
REMARK SMILES C[C@H](NC(=O)NCCc1ccccc1F)C(=O)OCCOC(=O)c1ccc(-c2c3nc(c(-c4c(F)cccc4F)c4ccc([nH]4)c(-c4c(F)cccc4F)c4nc(c(-c5c(F)cccc5F)c5ccc2[nH]5)C=C4)C=C3)cc1
REMARK SMILES IDX 19 1 18 2 16 3 17 4 2 5 1 6 3 7 4 8 5 10 6 11 7 13 8 14 9 15
REMARK SMILES IDX 10 16 14 17 11 18 13 19 15 20 12 21 20 22 21 23 22 24 23 25
REMARK SMILES IDX 24 26 25 27 77 28 26 29 76 30 27 31 28 32 29 33 70 34 30 35
REMARK SMILES IDX 75 36 69 37 71 38 31 39 74 40 68 41 67 42 32 44 58 45 41 46
REMARK SMILES IDX 57 47 42 48 45 49 56 50 72 51 43 52 44 53 55 55 73 56 46 57
REMARK SMILES IDX 33 58 34 59 39 60 35 61 36 62 38 63 40 64 37 65 59 66 60 67
REMARK SMILES IDX 65 68 61 69 62 70 64 71 66 72 63 73 47 74 48 75 53 76 49 77
REMARK SMILES IDX 50 78 52 79 54 80 51 81
REMARK H PARENT 3 9 6 12 71 43 45 54
REMARK Flexibility Score: inf
ROOT
ATOM      1  C   UNL A   1      32.131  31.422  26.596  1.00  0.00     0.274 C 
ENDROOT
BRANCH   1   2
ATOM      2  O   UNL A   1      32.962  30.662  27.494  1.00  0.00    -0.461 OA
BRANCH   2   3
ATOM      3  C   UNL A   1      33.910  29.884  26.905  1.00  0.00     0.328 C 
ATOM      4  O   UNL A   1      35.119  30.002  27.075  1.00  0.00    -0.250 OA
BRANCH   3   5
ATOM      5  C   UNL A   1      33.319  28.862  25.923  1.00  0.00     0.190 C 
ATOM      6  C   UNL A   1      33.421  27.479  26.563  1.00  0.00     0.043 C 
BRANCH   5   7
ATOM      7  N   UNL A   1      33.904  28.869  24.586  1.00  0.00    -0.325 N 
ATOM      8  C   UNL A   1      33.372  28.936  23.355  1.00  0.00     0.315 C 
ATOM      9  H   UNL A   1      34.886  28.813  24.587  1.00  0.00     0.166 HD
ATOM     10  O   UNL A   1      34.128  28.892  22.382  1.00  0.00    -0.249 OA
ATOM     11  N   UNL A   1      32.054  29.047  23.115  1.00  0.00    -0.338 N 
ATOM     12  H   UNL A   1      31.839  29.082  22.155  1.00  0.00     0.165 HD
BRANCH  11  13
ATOM     13  C   UNL A   1      30.879  29.126  23.966  1.00  0.00     0.122 C 
BRANCH  13  14
ATOM     14  C   UNL A   1      29.552  29.076  23.200  1.00  0.00     0.060 C 
BRANCH  14  15
ATOM     15  C   UNL A   1      29.027  30.334  22.557  1.00  0.00    -0.010 A 
ATOM     16  C   UNL A   1      28.513  30.413  21.258  1.00  0.00     0.007 A 
ATOM     17  C   UNL A   1      29.053  31.508  23.327  1.00  0.00     0.126 A 
ATOM     18  C   UNL A   1      28.035  31.630  20.759  1.00  0.00     0.000 A 
ATOM     19  C   UNL A   1      28.580  32.721  22.838  1.00  0.00     0.039 A 
ATOM     20  F   UNL A   1      29.537  31.468  24.577  1.00  0.00    -0.207 F 
ATOM     21  C   UNL A   1      28.066  32.783  21.547  1.00  0.00     0.003 A 
ENDBRANCH  14  15
ENDBRANCH  13  14
ENDBRANCH  11  13
ENDBRANCH   5   7
ENDBRANCH   3   5
ENDBRANCH   2   3
ENDBRANCH   1   2
BRANCH   1  22
ATOM     22  C   UNL A   1      31.726  32.762  27.217  1.00  0.00     0.275 C 
BRANCH  22  23
ATOM     23  O   UNL A   1      32.757  33.761  27.086  1.00  0.00    -0.458 OA
BRANCH  23  24
ATOM     24  C   UNL A   1      33.180  34.298  28.254  1.00  0.00     0.338 C 
ATOM     25  O   UNL A   1      32.651  35.212  28.874  1.00  0.00    -0.246 OA
BRANCH  24  26
ATOM     26  C   UNL A   1      34.343  33.560  28.771  1.00  0.00     0.060 A 
ATOM     27  C   UNL A   1      34.170  32.773  29.915  1.00  0.00     0.016 A 
ATOM     28  C   UNL A   1      35.609  33.701  28.196  1.00  0.00     0.016 A 
ATOM     29  C   UNL A   1      35.264  32.126  30.489  1.00  0.00     0.010 A 
ATOM     30  C   UNL A   1      36.706  33.057  28.777  1.00  0.00     0.010 A 
ATOM     31  C   UNL A   1      36.543  32.275  29.933  1.00  0.00    -0.014 A 
BRANCH  31  32
ATOM     32  C   UNL A   1      37.715  31.647  30.589  1.00  0.00     0.031 A 
ATOM     33  C   UNL A   1      38.537  30.631  29.850  1.00  0.00     0.074 A 
ATOM     34  C   UNL A   1      38.054  32.002  31.842  1.00  0.00     0.049 A 
ATOM     35  N   UNL A   1      39.558  29.929  30.271  1.00  0.00    -0.248 NA
ATOM     36  C   UNL A   1      38.162  30.371  28.451  1.00  0.00     0.031 C 
ATOM     37  C   UNL A   1      37.360  33.006  32.649  1.00  0.00     0.029 A 
ATOM     38  N   UNL A   1      39.067  31.558  32.654  1.00  0.00    -0.354 N 
ATOM     39  C   UNL A   1      39.944  29.140  29.195  1.00  0.00     0.074 A 
ATOM     40  C   UNL A   1      39.034  29.433  28.108  1.00  0.00     0.031 C 
ATOM     41  C   UNL A   1      37.975  33.107  33.839  1.00  0.00     0.029 A 
ATOM     42  C   UNL A   1      39.075  32.147  33.894  1.00  0.00     0.049 A 
ATOM     43  H   UNL A   1      39.726  30.882  32.374  1.00  0.00     0.167 HD
ATOM     44  C   UNL A   1      40.969  28.259  29.120  1.00  0.00     0.037 A 
ATOM     45  C   UNL A   1      39.865  31.924  34.962  1.00  0.00     0.037 A 
ATOM     46  C   UNL A   1      41.881  27.976  30.199  1.00  0.00     0.049 A 
ATOM     47  C   UNL A   1      40.953  30.890  34.877  1.00  0.00     0.074 A 
ATOM     48  C   UNL A   1      42.957  27.104  30.209  1.00  0.00     0.029 A 
ATOM     49  N   UNL A   1      41.826  28.559  31.454  1.00  0.00    -0.354 N 
ATOM     50  N   UNL A   1      41.302  30.142  33.859  1.00  0.00    -0.248 NA
ATOM     51  C   UNL A   1      41.751  30.660  36.091  1.00  0.00     0.031 C 
ATOM     52  C   UNL A   1      43.528  27.128  31.485  1.00  0.00     0.029 A 
ATOM     53  C   UNL A   1      42.836  28.049  32.255  1.00  0.00     0.049 A 
ATOM     54  H   UNL A   1      41.169  29.235  31.736  1.00  0.00     0.167 HD
ATOM     55  C   UNL A   1      42.368  29.368  34.301  1.00  0.00     0.074 A 
ATOM     56  C   UNL A   1      42.617  29.744  35.676  1.00  0.00     0.031 C 
ATOM     57  C   UNL A   1      43.074  28.432  33.623  1.00  0.00     0.037 A 
BRANCH  44  58
ATOM     58  C   UNL A   1      41.158  27.517  27.831  1.00  0.00     0.057 A 
ATOM     59  C   UNL A   1      40.624  26.234  27.661  1.00  0.00     0.134 A 
ATOM     60  C   UNL A   1      41.923  28.044  26.783  1.00  0.00     0.134 A 
ATOM     61  F   UNL A   1      39.888  25.669  28.630  1.00  0.00    -0.206 F 
ATOM     62  C   UNL A   1      40.854  25.495  26.499  1.00  0.00     0.040 A 
ATOM     63  C   UNL A   1      42.142  27.324  25.607  1.00  0.00     0.040 A 
ATOM     64  F   UNL A   1      42.455  29.272  26.881  1.00  0.00    -0.206 F 
ATOM     65  C   UNL A   1      41.614  26.042  25.467  1.00  0.00     0.006 A 
ENDBRANCH  44  58
BRANCH  45  66
ATOM     66  C   UNL A   1      39.647  32.697  36.209  1.00  0.00     0.057 A 
ATOM     67  C   UNL A   1      40.397  33.845  36.495  1.00  0.00     0.134 A 
ATOM     68  C   UNL A   1      38.697  32.294  37.152  1.00  0.00     0.134 A 
ATOM     69  F   UNL A   1      41.323  34.282  35.630  1.00  0.00    -0.206 F 
ATOM     70  C   UNL A   1      40.225  34.552  37.686  1.00  0.00     0.040 A 
ATOM     71  C   UNL A   1      38.497  33.004  38.337  1.00  0.00     0.040 A 
ATOM     72  F   UNL A   1      37.932  31.216  36.922  1.00  0.00    -0.206 F 
ATOM     73  C   UNL A   1      39.270  34.132  38.610  1.00  0.00     0.006 A 
ENDBRANCH  45  66
BRANCH  57  74
ATOM     74  C   UNL A   1      44.200  27.752  34.347  1.00  0.00     0.057 A 
ATOM     75  C   UNL A   1      43.976  26.570  35.065  1.00  0.00     0.134 A 
ATOM     76  C   UNL A   1      45.483  28.309  34.397  1.00  0.00     0.134 A 
ATOM     77  F   UNL A   1      42.766  25.992  35.065  1.00  0.00    -0.206 F 
ATOM     78  C   UNL A   1      44.988  25.973  35.819  1.00  0.00     0.040 A 
ATOM     79  C   UNL A   1      46.509  27.709  35.130  1.00  0.00     0.040 A 
ATOM     80  F   UNL A   1      45.763  29.435  33.723  1.00  0.00    -0.206 F 
ATOM     81  C   UNL A   1      46.259  26.543  35.852  1.00  0.00     0.006 A 
ENDBRANCH  57  74
ENDBRANCH  31  32
ENDBRANCH  24  26
ENDBRANCH  23  24
ENDBRANCH  22  23
ENDBRANCH   1  22
TORSDOF 15
ENDMDL
MODEL 3
REMARK VINA RESULT:     -10.4      3.074      6.415
REMARK SMILES C[C@H](NC(=O)NCCc1ccccc1F)C(=O)OCCOC(=O)c1ccc(-c2c3nc(c(-c4c(F)cccc4F)c4ccc([nH]4)c(-c4c(F)cccc4F)c4nc(c(-c5c(F)cccc5F)c5ccc2[nH]5)C=C4)C=C3)cc1
REMARK SMILES IDX 19 1 18 2 16 3 17 4 2 5 1 6 3 7 4 8 5 10 6 11 7 13 8 14 9 15
REMARK SMILES IDX 10 16 14 17 11 18 13 19 15 20 12 21 20 22 21 23 22 24 23 25
REMARK SMILES IDX 24 26 25 27 77 28 26 29 76 30 27 31 28 32 29 33 70 34 30 35
REMARK SMILES IDX 75 36 69 37 71 38 31 39 74 40 68 41 67 42 32 44 58 45 41 46
REMARK SMILES IDX 57 47 42 48 45 49 56 50 72 51 43 52 44 53 55 55 73 56 46 57
REMARK SMILES IDX 33 58 34 59 39 60 35 61 36 62 38 63 40 64 37 65 59 66 60 67
REMARK SMILES IDX 65 68 61 69 62 70 64 71 66 72 63 73 47 74 48 75 53 76 49 77
REMARK SMILES IDX 50 78 52 79 54 80 51 81
REMARK H PARENT 3 9 6 12 71 43 45 54
REMARK Flexibility Score: inf
ROOT
ATOM      1  C   UNL A   1      35.062  20.149  24.988  1.00  0.00     0.274 C 
ENDROOT
BRANCH   1   2
ATOM      2  O   UNL A   1      34.181  20.702  25.985  1.00  0.00    -0.461 OA
BRANCH   2   3
ATOM      3  C   UNL A   1      32.888  20.870  25.600  1.00  0.00     0.328 C 
ATOM      4  O   UNL A   1      32.207  20.019  25.037  1.00  0.00    -0.250 OA
BRANCH   3   5
ATOM      5  C   UNL A   1      32.361  22.286  25.876  1.00  0.00     0.190 C 
ATOM      6  C   UNL A   1      33.519  23.126  26.407  1.00  0.00     0.043 C 
BRANCH   5   7
ATOM      7  N   UNL A   1      31.204  22.361  26.763  1.00  0.00    -0.325 N 
ATOM      8  C   UNL A   1      30.142  23.180  26.815  1.00  0.00     0.315 C 
ATOM      9  H   UNL A   1      31.203  21.671  27.465  1.00  0.00     0.166 HD
ATOM     10  O   UNL A   1      29.316  23.019  27.716  1.00  0.00    -0.249 OA
ATOM     11  N   UNL A   1      29.923  24.175  25.938  1.00  0.00    -0.338 N 
ATOM     12  H   UNL A   1      29.096  24.677  26.125  1.00  0.00     0.165 HD
BRANCH  11  13
ATOM     13  C   UNL A   1      30.639  24.670  24.775  1.00  0.00     0.122 C 
BRANCH  13  14
ATOM     14  C   UNL A   1      30.676  26.198  24.670  1.00  0.00     0.060 C 
BRANCH  14  15
ATOM     15  C   UNL A   1      31.621  26.972  25.554  1.00  0.00    -0.010 A 
ATOM     16  C   UNL A   1      31.268  27.570  26.769  1.00  0.00     0.007 A 
ATOM     17  C   UNL A   1      32.951  27.093  25.122  1.00  0.00     0.126 A 
ATOM     18  C   UNL A   1      32.227  28.256  27.523  1.00  0.00     0.000 A 
ATOM     19  C   UNL A   1      33.909  27.774  25.867  1.00  0.00     0.039 A 
ATOM     20  F   UNL A   1      33.323  26.530  23.963  1.00  0.00    -0.207 F 
ATOM     21  C   UNL A   1      33.546  28.357  27.075  1.00  0.00     0.003 A 
ENDBRANCH  14  15
ENDBRANCH  13  14
ENDBRANCH  11  13
ENDBRANCH   5   7
ENDBRANCH   3   5
ENDBRANCH   2   3
ENDBRANCH   1   2
BRANCH   1  22
ATOM     22  C   UNL A   1      36.205  21.115  24.663  1.00  0.00     0.275 C 
BRANCH  22  23
ATOM     23  O   UNL A   1      36.903  21.556  25.845  1.00  0.00    -0.458 OA
BRANCH  23  24
ATOM     24  C   UNL A   1      38.233  21.306  25.847  1.00  0.00     0.338 C 
ATOM     25  O   UNL A   1      38.795  20.323  25.379  1.00  0.00    -0.246 OA
BRANCH  24  26
ATOM     26  C   UNL A   1      38.973  22.447  26.408  1.00  0.00     0.060 A 
ATOM     27  C   UNL A   1      38.530  23.738  26.098  1.00  0.00     0.016 A 
ATOM     28  C   UNL A   1      40.136  22.261  27.160  1.00  0.00     0.016 A 
ATOM     29  C   UNL A   1      39.251  24.847  26.537  1.00  0.00     0.010 A 
ATOM     30  C   UNL A   1      40.862  23.375  27.594  1.00  0.00     0.010 A 
ATOM     31  C   UNL A   1      40.430  24.675  27.275  1.00  0.00    -0.014 A 
BRANCH  31  32
ATOM     32  C   UNL A   1      41.234  25.854  27.677  1.00  0.00     0.031 A 
ATOM     33  C   UNL A   1      40.641  26.901  28.575  1.00  0.00     0.074 A 
ATOM     34  C   UNL A   1      42.505  25.977  27.250  1.00  0.00     0.049 A 
ATOM     35  N   UNL A   1      41.161  28.028  28.986  1.00  0.00    -0.248 NA
ATOM     36  C   UNL A   1      39.282  26.644  29.079  1.00  0.00     0.031 C 
ATOM     37  C   UNL A   1      43.208  25.009  26.409  1.00  0.00     0.029 A 
ATOM     38  N   UNL A   1      43.429  26.968  27.468  1.00  0.00    -0.354 N 
ATOM     39  C   UNL A   1      40.194  28.620  29.790  1.00  0.00     0.074 A 
ATOM     40  C   UNL A   1      39.047  27.737  29.792  1.00  0.00     0.031 C 
ATOM     41  C   UNL A   1      44.457  25.451  26.188  1.00  0.00     0.029 A 
ATOM     42  C   UNL A   1      44.627  26.751  26.834  1.00  0.00     0.049 A 
ATOM     43  H   UNL A   1      43.249  27.761  28.024  1.00  0.00     0.167 HD
ATOM     44  C   UNL A   1      40.263  29.789  30.471  1.00  0.00     0.037 A 
ATOM     45  C   UNL A   1      45.731  27.520  26.764  1.00  0.00     0.037 A 
ATOM     46  C   UNL A   1      41.409  30.661  30.478  1.00  0.00     0.049 A 
ATOM     47  C   UNL A   1      45.757  28.846  27.472  1.00  0.00     0.074 A 
ATOM     48  C   UNL A   1      41.571  31.862  31.148  1.00  0.00     0.029 A 
ATOM     49  N   UNL A   1      42.586  30.427  29.785  1.00  0.00    -0.354 N 
ATOM     50  N   UNL A   1      44.834  29.400  28.220  1.00  0.00    -0.248 NA
ATOM     51  C   UNL A   1      46.973  29.659  27.318  1.00  0.00     0.031 C 
ATOM     52  C   UNL A   1      42.831  32.376  30.827  1.00  0.00     0.029 A 
ATOM     53  C   UNL A   1      43.471  31.473  29.995  1.00  0.00     0.049 A 
ATOM     54  H   UNL A   1      42.767  29.637  29.228  1.00  0.00     0.167 HD
ATOM     55  C   UNL A   1      45.361  30.614  28.640  1.00  0.00     0.074 A 
ATOM     56  C   UNL A   1      46.690  30.713  28.073  1.00  0.00     0.031 C 
ATOM     57  C   UNL A   1      44.792  31.560  29.426  1.00  0.00     0.037 A 
BRANCH  44  58
ATOM     58  C   UNL A   1      39.058  30.208  31.258  1.00  0.00     0.057 A 
ATOM     59  C   UNL A   1      38.087  31.040  30.688  1.00  0.00     0.134 A 
ATOM     60  C   UNL A   1      38.893  29.844  32.601  1.00  0.00     0.134 A 
ATOM     61  F   UNL A   1      38.191  31.431  29.409  1.00  0.00    -0.206 F 
ATOM     62  C   UNL A   1      36.999  31.505  31.427  1.00  0.00     0.040 A 
ATOM     63  C   UNL A   1      37.796  30.285  33.344  1.00  0.00     0.040 A 
ATOM     64  F   UNL A   1      39.783  29.042  33.202  1.00  0.00    -0.206 F 
ATOM     65  C   UNL A   1      36.850  31.125  32.760  1.00  0.00     0.006 A 
ENDBRANCH  44  58
BRANCH  45  66
ATOM     66  C   UNL A   1      46.903  27.050  25.985  1.00  0.00     0.057 A 
ATOM     67  C   UNL A   1      47.932  26.316  26.588  1.00  0.00     0.134 A 
ATOM     68  C   UNL A   1      47.029  27.343  24.623  1.00  0.00     0.134 A 
ATOM     69  F   UNL A   1      47.868  26.004  27.890  1.00  0.00    -0.206 F 
ATOM     70  C   UNL A   1      49.056  25.908  25.869  1.00  0.00     0.040 A 
ATOM     71  C   UNL A   1      48.137  26.922  23.886  1.00  0.00     0.040 A 
ATOM     72  F   UNL A   1      46.064  28.023  23.987  1.00  0.00    -0.206 F 
ATOM     73  C   UNL A   1      49.159  26.209  24.512  1.00  0.00     0.006 A 
ENDBRANCH  45  66
BRANCH  57  74
ATOM     74  C   UNL A   1      45.603  32.783  29.740  1.00  0.00     0.057 A 
ATOM     75  C   UNL A   1      46.358  32.856  30.917  1.00  0.00     0.134 A 
ATOM     76  C   UNL A   1      45.574  33.915  28.916  1.00  0.00     0.134 A 
ATOM     77  F   UNL A   1      46.419  31.809  31.754  1.00  0.00    -0.206 F 
ATOM     78  C   UNL A   1      47.045  34.018  31.272  1.00  0.00     0.040 A 
ATOM     79  C   UNL A   1      46.275  35.075  29.250  1.00  0.00     0.040 A 
ATOM     80  F   UNL A   1      44.877  33.904  27.770  1.00  0.00    -0.206 F 
ATOM     81  C   UNL A   1      47.005  35.132  30.436  1.00  0.00     0.006 A 
ENDBRANCH  57  74
ENDBRANCH  31  32
ENDBRANCH  24  26
ENDBRANCH  23  24
ENDBRANCH  22  23
ENDBRANCH   1  22
TORSDOF 15
ENDMDL
