MODEL 1
REMARK VINA RESULT:     -10.8      0.000      0.000
REMARK SMILES O=C(OCCOC(=O)[C@H]1C[C@H](O)CN1C(=O)CS[C@H]1CCS(=O)(=O)C1)c1ccc(-c2c3nc(c(-c4c(F)cccc4F)c4ccc([nH]4)c(-c4c(F)cccc4F)c4nc(c(-c5c(F)cccc5F)c5ccc2[nH]5)C=C4)C=C3)cc1
REMARK SMILES IDX 5 1 4 2 3 3 2 4 1 5 26 6 27 7 79 8 28 9 78 10 29 11 30 12
REMARK SMILES IDX 31 13 72 14 32 15 77 16 71 17 73 18 33 19 76 20 70 21 69 22
REMARK SMILES IDX 34 24 60 25 43 26 59 27 44 28 47 29 58 30 74 31 45 32 46 33
REMARK SMILES IDX 57 35 75 36 48 37 35 38 36 39 41 40 37 41 38 42 40 43 42 44
REMARK SMILES IDX 39 45 61 46 62 47 67 48 63 49 64 50 66 51 68 52 65 53 49 54
REMARK SMILES IDX 50 55 55 56 51 57 52 58 54 59 56 60 53 61 6 62 7 63 8 64
REMARK SMILES IDX 9 65 10 66 14 67 11 68 13 69 15 70 16 71 17 72 18 73 19 74
REMARK SMILES IDX 20 75 25 76 21 77 22 78 23 79 24 80 12 81
REMARK H PARENT 73 23 47 34 12 82
REMARK Flexibility Score: inf
ROOT
ATOM      1  C   UNL A   1      32.216  30.674  26.894  1.00  0.00     0.274 C 
ENDROOT
BRANCH   1   2
ATOM      2  C   UNL A   1      31.419  31.986  26.894  1.00  0.00     0.275 C 
BRANCH   2   3
ATOM      3  O   UNL A   1      32.221  33.169  26.873  1.00  0.00    -0.458 OA
BRANCH   3   4
ATOM      4  C   UNL A   1      32.889  33.737  27.901  1.00  0.00     0.338 C 
ATOM      5  O   UNL A   1      32.409  34.746  28.417  1.00  0.00    -0.246 OA
BRANCH   4   6
ATOM      6  C   UNL A   1      34.254  33.302  28.355  1.00  0.00     0.060 A 
ATOM      7  C   UNL A   1      35.490  33.910  28.104  1.00  0.00     0.016 A 
ATOM      8  C   UNL A   1      34.257  32.183  29.187  1.00  0.00     0.016 A 
ATOM      9  C   UNL A   1      36.667  33.499  28.755  1.00  0.00     0.010 A 
ATOM     10  C   UNL A   1      35.411  31.804  29.870  1.00  0.00     0.010 A 
ATOM     11  C   UNL A   1      36.640  32.458  29.674  1.00  0.00    -0.014 A 
BRANCH  11  12
ATOM     12  C   UNL A   1      37.861  31.976  30.393  1.00  0.00     0.031 A 
ATOM     13  C   UNL A   1      38.573  30.770  29.830  1.00  0.00     0.074 A 
ATOM     14  C   UNL A   1      38.193  32.424  31.627  1.00  0.00     0.049 A 
ATOM     15  N   UNL A   1      39.403  29.946  30.412  1.00  0.00    -0.248 NA
ATOM     16  C   UNL A   1      38.204  30.375  28.456  1.00  0.00     0.031 C 
ATOM     17  C   UNL A   1      37.482  33.458  32.389  1.00  0.00     0.029 A 
ATOM     18  N   UNL A   1      39.109  31.934  32.534  1.00  0.00    -0.354 N 
ATOM     19  C   UNL A   1      39.646  28.958  29.468  1.00  0.00     0.074 A 
ATOM     20  C   UNL A   1      38.696  29.150  28.397  1.00  0.00     0.031 C 
ATOM     21  C   UNL A   1      37.908  33.444  33.666  1.00  0.00     0.029 A 
ATOM     22  C   UNL A   1      38.948  32.435  33.810  1.00  0.00     0.049 A 
ATOM     23  H   UNL A   1      39.812  31.289  32.293  1.00  0.00     0.167 HD
ATOM     24  C   UNL A   1      40.667  28.074  29.405  1.00  0.00     0.037 A 
ATOM     25  C   UNL A   1      39.558  32.102  34.966  1.00  0.00     0.037 A 
ATOM     26  C   UNL A   1      41.681  27.973  30.413  1.00  0.00     0.049 A 
ATOM     27  C   UNL A   1      40.686  31.106  34.919  1.00  0.00     0.074 A 
ATOM     28  C   UNL A   1      42.868  27.267  30.381  1.00  0.00     0.029 A 
ATOM     29  N   UNL A   1      41.625  28.622  31.636  1.00  0.00    -0.354 N 
ATOM     30  N   UNL A   1      41.057  30.322  33.935  1.00  0.00    -0.248 NA
ATOM     31  C   UNL A   1      41.535  31.007  36.115  1.00  0.00     0.031 C 
ATOM     32  C   UNL A   1      43.525  27.475  31.599  1.00  0.00     0.029 A 
ATOM     33  C   UNL A   1      42.761  28.335  32.371  1.00  0.00     0.049 A 
ATOM     34  H   UNL A   1      40.888  29.200  31.937  1.00  0.00     0.167 HD
ATOM     35  C   UNL A   1      42.230  29.711  34.360  1.00  0.00     0.074 A 
ATOM     36  C   UNL A   1      42.492  30.192  35.699  1.00  0.00     0.031 C 
ATOM     37  C   UNL A   1      43.033  28.854  33.685  1.00  0.00     0.037 A 
BRANCH  24  38
ATOM     38  C   UNL A   1      40.802  27.280  28.137  1.00  0.00     0.057 A 
ATOM     39  C   UNL A   1      40.165  26.035  27.993  1.00  0.00     0.134 A 
ATOM     40  C   UNL A   1      41.564  27.740  27.060  1.00  0.00     0.134 A 
ATOM     41  F   UNL A   1      39.419  25.531  28.989  1.00  0.00    -0.206 F 
ATOM     42  C   UNL A   1      40.335  25.250  26.855  1.00  0.00     0.040 A 
ATOM     43  C   UNL A   1      41.706  26.981  25.896  1.00  0.00     0.040 A 
ATOM     44  F   UNL A   1      42.189  28.925  27.122  1.00  0.00    -0.206 F 
ATOM     45  C   UNL A   1      41.105  25.727  25.798  1.00  0.00     0.006 A 
ENDBRANCH  24  38
BRANCH  25  46
ATOM     46  C   UNL A   1      39.227  32.778  36.250  1.00  0.00     0.057 A 
ATOM     47  C   UNL A   1      39.848  33.984  36.600  1.00  0.00     0.134 A 
ATOM     48  C   UNL A   1      38.371  32.201  37.195  1.00  0.00     0.134 A 
ATOM     49  F   UNL A   1      40.706  34.569  35.750  1.00  0.00    -0.206 F 
ATOM     50  C   UNL A   1      39.666  34.570  37.855  1.00  0.00     0.040 A 
ATOM     51  C   UNL A   1      38.162  32.789  38.448  1.00  0.00     0.040 A 
ATOM     52  F   UNL A   1      37.753  31.041  36.934  1.00  0.00    -0.206 F 
ATOM     53  C   UNL A   1      38.821  33.971  38.785  1.00  0.00     0.006 A 
ENDBRANCH  25  46
BRANCH  37  54
ATOM     54  C   UNL A   1      44.327  28.464  34.331  1.00  0.00     0.057 A 
ATOM     55  C   UNL A   1      44.458  27.306  35.103  1.00  0.00     0.134 A 
ATOM     56  C   UNL A   1      45.471  29.250  34.137  1.00  0.00     0.134 A 
ATOM     57  F   UNL A   1      43.397  26.521  35.339  1.00  0.00    -0.206 F 
ATOM     58  C   UNL A   1      45.680  26.953  35.679  1.00  0.00     0.040 A 
ATOM     59  C   UNL A   1      46.704  28.890  34.679  1.00  0.00     0.040 A 
ATOM     60  F   UNL A   1      45.413  30.370  33.399  1.00  0.00    -0.206 F 
ATOM     61  C   UNL A   1      46.808  27.741  35.458  1.00  0.00     0.006 A 
ENDBRANCH  37  54
ENDBRANCH  11  12
ENDBRANCH   4   6
ENDBRANCH   3   4
ENDBRANCH   2   3
ENDBRANCH   1   2
BRANCH   1  62
ATOM     62  O   UNL A   1      33.054  30.483  25.723  1.00  0.00    -0.461 OA
BRANCH  62  63
ATOM     63  C   UNL A   1      32.868  29.308  25.069  1.00  0.00     0.329 C 
ATOM     64  O   UNL A   1      33.770  28.748  24.445  1.00  0.00    -0.250 OA
BRANCH  63  65
ATOM     65  C   UNL A   1      31.426  28.724  25.071  1.00  0.00     0.197 C 
ATOM     66  C   UNL A   1      30.643  29.375  23.917  1.00  0.00     0.070 C 
ATOM     67  N   UNL A   1      31.014  27.301  24.988  1.00  0.00    -0.325 N 
ATOM     68  C   UNL A   1      30.514  28.274  22.876  1.00  0.00     0.136 C 
ATOM     69  C   UNL A   1      30.345  27.029  23.724  1.00  0.00     0.152 C 
BRANCH  67  70
ATOM     70  C   UNL A   1      30.831  26.532  26.135  1.00  0.00     0.233 C 
ATOM     71  O   UNL A   1      30.878  27.061  27.247  1.00  0.00    -0.274 OA
BRANCH  70  72
ATOM     72  C   UNL A   1      30.537  25.029  25.961  1.00  0.00     0.169 C 
BRANCH  72  73
ATOM     73  S   UNL A   1      31.886  23.915  26.470  1.00  0.00    -0.148 SA
BRANCH  73  74
ATOM     74  C   UNL A   1      32.608  23.626  24.852  1.00  0.00     0.063 C 
ATOM     75  C   UNL A   1      31.618  23.459  23.700  1.00  0.00     0.031 C 
ATOM     76  C   UNL A   1      33.474  24.810  24.457  1.00  0.00     0.151 C 
ATOM     77  C   UNL A   1      32.498  23.391  22.444  1.00  0.00     0.138 C 
ATOM     78  S   UNL A   1      33.956  24.378  22.812  1.00  0.00     0.151 S 
ATOM     79  O   UNL A   1      35.111  23.511  22.935  1.00  0.00    -0.229 OA
ATOM     80  O   UNL A   1      33.966  25.576  21.998  1.00  0.00    -0.229 OA
ENDBRANCH  73  74
ENDBRANCH  72  73
ENDBRANCH  70  72
ENDBRANCH  67  70
BRANCH  68  81
ATOM     81  O   UNL A   1      29.391  28.487  22.035  1.00  0.00    -0.391 OA
ATOM     82  H   UNL A   1      28.679  27.877  22.285  1.00  0.00     0.211 HD
ENDBRANCH  68  81
ENDBRANCH  63  65
ENDBRANCH  62  63
ENDBRANCH   1  62
TORSDOF 16
ENDMDL
MODEL 2
REMARK VINA RESULT:     -10.7      2.369      7.400
REMARK SMILES O=C(OCCOC(=O)[C@H]1C[C@H](O)CN1C(=O)CS[C@H]1CCS(=O)(=O)C1)c1ccc(-c2c3nc(c(-c4c(F)cccc4F)c4ccc([nH]4)c(-c4c(F)cccc4F)c4nc(c(-c5c(F)cccc5F)c5ccc2[nH]5)C=C4)C=C3)cc1
REMARK SMILES IDX 5 1 4 2 3 3 2 4 1 5 26 6 27 7 79 8 28 9 78 10 29 11 30 12
REMARK SMILES IDX 31 13 72 14 32 15 77 16 71 17 73 18 33 19 76 20 70 21 69 22
REMARK SMILES IDX 34 24 60 25 43 26 59 27 44 28 47 29 58 30 74 31 45 32 46 33
REMARK SMILES IDX 57 35 75 36 48 37 35 38 36 39 41 40 37 41 38 42 40 43 42 44
REMARK SMILES IDX 39 45 61 46 62 47 67 48 63 49 64 50 66 51 68 52 65 53 49 54
REMARK SMILES IDX 50 55 55 56 51 57 52 58 54 59 56 60 53 61 6 62 7 63 8 64
REMARK SMILES IDX 9 65 10 66 14 67 11 68 13 69 15 70 16 71 17 72 18 73 19 74
REMARK SMILES IDX 20 75 25 76 21 77 22 78 23 79 24 80 12 81
REMARK H PARENT 73 23 47 34 12 82
REMARK Flexibility Score: inf
ROOT
ATOM      1  C   UNL A   1      33.079  35.568  28.759  1.00  0.00     0.274 C 
ENDROOT
BRANCH   1   2
ATOM      2  C   UNL A   1      33.337  36.565  29.898  1.00  0.00     0.275 C 
BRANCH   2   3
ATOM      3  O   UNL A   1      32.410  36.480  30.983  1.00  0.00    -0.458 OA
BRANCH   3   4
ATOM      4  C   UNL A   1      32.682  36.329  32.298  1.00  0.00     0.338 C 
ATOM      5  O   UNL A   1      32.196  37.139  33.087  1.00  0.00    -0.246 OA
BRANCH   4   6
ATOM      6  C   UNL A   1      33.661  35.326  32.840  1.00  0.00     0.060 A 
ATOM      7  C   UNL A   1      33.426  33.999  33.221  1.00  0.00     0.016 A 
ATOM      8  C   UNL A   1      34.979  35.777  32.899  1.00  0.00     0.016 A 
ATOM      9  C   UNL A   1      34.477  33.117  33.530  1.00  0.00     0.010 A 
ATOM     10  C   UNL A   1      36.026  34.894  33.156  1.00  0.00     0.010 A 
ATOM     11  C   UNL A   1      35.798  33.543  33.470  1.00  0.00    -0.014 A 
BRANCH  11  12
ATOM     12  C   UNL A   1      36.956  32.650  33.790  1.00  0.00     0.031 A 
ATOM     13  C   UNL A   1      37.887  33.083  34.896  1.00  0.00     0.074 A 
ATOM     14  C   UNL A   1      37.318  31.625  32.983  1.00  0.00     0.049 A 
ATOM     15  N   UNL A   1      39.118  32.717  35.141  1.00  0.00    -0.248 NA
ATOM     16  C   UNL A   1      37.400  34.165  35.775  1.00  0.00     0.031 C 
ATOM     17  C   UNL A   1      36.623  31.201  31.762  1.00  0.00     0.029 A 
ATOM     18  N   UNL A   1      38.471  30.867  32.972  1.00  0.00    -0.354 N 
ATOM     19  C   UNL A   1      39.526  33.520  36.196  1.00  0.00     0.074 A 
ATOM     20  C   UNL A   1      38.520  34.542  36.367  1.00  0.00     0.031 C 
ATOM     21  C   UNL A   1      37.409  30.354  31.071  1.00  0.00     0.029 A 
ATOM     22  C   UNL A   1      38.643  30.138  31.812  1.00  0.00     0.049 A 
ATOM     23  H   UNL A   1      39.109  30.848  33.721  1.00  0.00     0.167 HD
ATOM     24  C   UNL A   1      40.552  33.336  37.057  1.00  0.00     0.037 A 
ATOM     25  C   UNL A   1      39.688  29.396  31.391  1.00  0.00     0.037 A 
ATOM     26  C   UNL A   1      41.476  32.246  36.955  1.00  0.00     0.049 A 
ATOM     27  C   UNL A   1      40.848  29.194  32.329  1.00  0.00     0.074 A 
ATOM     28  C   UNL A   1      42.431  31.832  37.863  1.00  0.00     0.029 A 
ATOM     29  N   UNL A   1      41.541  31.382  35.874  1.00  0.00    -0.354 N 
ATOM     30  N   UNL A   1      41.118  29.810  33.456  1.00  0.00    -0.248 NA
ATOM     31  C   UNL A   1      41.806  28.136  31.982  1.00  0.00     0.031 C 
ATOM     32  C   UNL A   1      43.090  30.723  37.320  1.00  0.00     0.029 A 
ATOM     33  C   UNL A   1      42.520  30.432  36.091  1.00  0.00     0.049 A 
ATOM     34  H   UNL A   1      40.973  31.438  35.071  1.00  0.00     0.167 HD
ATOM     35  C   UNL A   1      42.217  29.153  33.992  1.00  0.00     0.074 A 
ATOM     36  C   UNL A   1      42.581  28.112  33.056  1.00  0.00     0.031 C 
ATOM     37  C   UNL A   1      42.846  29.373  35.172  1.00  0.00     0.037 A 
BRANCH  24  38
ATOM     38  C   UNL A   1      40.609  34.247  38.251  1.00  0.00     0.057 A 
ATOM     39  C   UNL A   1      41.401  35.409  38.237  1.00  0.00     0.134 A 
ATOM     40  C   UNL A   1      39.888  33.976  39.416  1.00  0.00     0.134 A 
ATOM     41  F   UNL A   1      42.122  35.729  37.150  1.00  0.00    -0.206 F 
ATOM     42  C   UNL A   1      41.524  36.227  39.356  1.00  0.00     0.040 A 
ATOM     43  C   UNL A   1      39.969  34.814  40.531  1.00  0.00     0.040 A 
ATOM     44  F   UNL A   1      39.102  32.892  39.497  1.00  0.00    -0.206 F 
ATOM     45  C   UNL A   1      40.801  35.932  40.508  1.00  0.00     0.006 A 
ENDBRANCH  24  38
BRANCH  25  46
ATOM     46  C   UNL A   1      39.666  28.683  30.085  1.00  0.00     0.057 A 
ATOM     47  C   UNL A   1      39.125  27.394  29.987  1.00  0.00     0.134 A 
ATOM     48  C   UNL A   1      40.264  29.215  28.937  1.00  0.00     0.134 A 
ATOM     49  F   UNL A   1      38.568  26.816  31.062  1.00  0.00    -0.206 F 
ATOM     50  C   UNL A   1      39.215  26.644  28.812  1.00  0.00     0.040 A 
ATOM     51  C   UNL A   1      40.341  28.483  27.747  1.00  0.00     0.040 A 
ATOM     52  F   UNL A   1      40.814  30.437  28.961  1.00  0.00    -0.206 F 
ATOM     53  C   UNL A   1      39.827  27.188  27.687  1.00  0.00     0.006 A 
ENDBRANCH  25  46
BRANCH  37  54
ATOM     54  C   UNL A   1      43.918  28.409  35.575  1.00  0.00     0.057 A 
ATOM     55  C   UNL A   1      43.648  27.260  36.326  1.00  0.00     0.134 A 
ATOM     56  C   UNL A   1      45.241  28.621  35.163  1.00  0.00     0.134 A 
ATOM     57  F   UNL A   1      42.406  27.009  36.764  1.00  0.00    -0.206 F 
ATOM     58  C   UNL A   1      44.662  26.365  36.672  1.00  0.00     0.040 A 
ATOM     59  C   UNL A   1      46.256  27.717  35.474  1.00  0.00     0.040 A 
ATOM     60  F   UNL A   1      45.564  29.700  34.433  1.00  0.00    -0.206 F 
ATOM     61  C   UNL A   1      45.967  26.588  36.237  1.00  0.00     0.006 A 
ENDBRANCH  37  54
ENDBRANCH  11  12
ENDBRANCH   4   6
ENDBRANCH   3   4
ENDBRANCH   2   3
ENDBRANCH   1   2
BRANCH   1  62
ATOM     62  O   UNL A   1      32.939  34.188  29.192  1.00  0.00    -0.461 OA
BRANCH  62  63
ATOM     63  C   UNL A   1      34.078  33.451  29.140  1.00  0.00     0.329 C 
ATOM     64  O   UNL A   1      34.971  33.552  29.981  1.00  0.00    -0.250 OA
BRANCH  63  65
ATOM     65  C   UNL A   1      34.252  32.513  27.911  1.00  0.00     0.197 C 
ATOM     66  C   UNL A   1      35.752  32.215  27.742  1.00  0.00     0.070 C 
ATOM     67  N   UNL A   1      33.624  31.189  27.673  1.00  0.00    -0.325 N 
ATOM     68  C   UNL A   1      35.907  30.771  28.193  1.00  0.00     0.136 C 
ATOM     69  C   UNL A   1      34.621  30.130  27.711  1.00  0.00     0.152 C 
BRANCH  67  70
ATOM     70  C   UNL A   1      32.406  31.074  27.007  1.00  0.00     0.233 C 
ATOM     71  O   UNL A   1      31.734  32.080  26.772  1.00  0.00    -0.274 OA
BRANCH  70  72
ATOM     72  C   UNL A   1      31.958  29.672  26.552  1.00  0.00     0.169 C 
BRANCH  72  73
ATOM     73  S   UNL A   1      32.445  29.220  24.855  1.00  0.00    -0.148 SA
BRANCH  73  74
ATOM     74  C   UNL A   1      31.625  27.625  24.766  1.00  0.00     0.063 C 
ATOM     75  C   UNL A   1      31.018  27.113  26.071  1.00  0.00     0.031 C 
ATOM     76  C   UNL A   1      30.462  27.699  23.793  1.00  0.00     0.151 C 
ATOM     77  C   UNL A   1      30.261  25.840  25.669  1.00  0.00     0.138 C 
ATOM     78  S   UNL A   1      29.736  26.097  23.969  1.00  0.00     0.151 S 
ATOM     79  O   UNL A   1      30.475  25.210  23.092  1.00  0.00    -0.229 OA
ATOM     80  O   UNL A   1      28.295  26.228  23.906  1.00  0.00    -0.229 OA
ENDBRANCH  73  74
ENDBRANCH  72  73
ENDBRANCH  70  72
ENDBRANCH  67  70
BRANCH  68  81
ATOM     81  O   UNL A   1      37.046  30.165  27.602  1.00  0.00    -0.391 OA
ATOM     82  H   UNL A   1      37.446  30.779  26.966  1.00  0.00     0.211 HD
ENDBRANCH  68  81
ENDBRANCH  63  65
ENDBRANCH  62  63
ENDBRANCH   1  62
TORSDOF 16
ENDMDL
MODEL 3
REMARK VINA RESULT:     -10.7      0.996      2.227
REMARK SMILES O=C(OCCOC(=O)[C@H]1C[C@H](O)CN1C(=O)CS[C@H]1CCS(=O)(=O)C1)c1ccc(-c2c3nc(c(-c4c(F)cccc4F)c4ccc([nH]4)c(-c4c(F)cccc4F)c4nc(c(-c5c(F)cccc5F)c5ccc2[nH]5)C=C4)C=C3)cc1
REMARK SMILES IDX 5 1 4 2 3 3 2 4 1 5 26 6 27 7 79 8 28 9 78 10 29 11 30 12
REMARK SMILES IDX 31 13 72 14 32 15 77 16 71 17 73 18 33 19 76 20 70 21 69 22
REMARK SMILES IDX 34 24 60 25 43 26 59 27 44 28 47 29 58 30 74 31 45 32 46 33
REMARK SMILES IDX 57 35 75 36 48 37 35 38 36 39 41 40 37 41 38 42 40 43 42 44
REMARK SMILES IDX 39 45 61 46 62 47 67 48 63 49 64 50 66 51 68 52 65 53 49 54
REMARK SMILES IDX 50 55 55 56 51 57 52 58 54 59 56 60 53 61 6 62 7 63 8 64
REMARK SMILES IDX 9 65 10 66 14 67 11 68 13 69 15 70 16 71 17 72 18 73 19 74
REMARK SMILES IDX 20 75 25 76 21 77 22 78 23 79 24 80 12 81
REMARK H PARENT 73 23 47 34 12 82
REMARK Flexibility Score: inf
ROOT
ATOM      1  C   UNL A   1      32.507  30.548  26.127  1.00  0.00     0.274 C 
ENDROOT
BRANCH   1   2
ATOM      2  C   UNL A   1      31.672  31.574  26.907  1.00  0.00     0.275 C 
BRANCH   2   3
ATOM      3  O   UNL A   1      32.195  32.904  26.885  1.00  0.00    -0.458 OA
BRANCH   3   4
ATOM      4  C   UNL A   1      32.877  33.544  27.860  1.00  0.00     0.338 C 
ATOM      5  O   UNL A   1      32.401  34.584  28.314  1.00  0.00    -0.246 OA
BRANCH   4   6
ATOM      6  C   UNL A   1      34.252  33.146  28.318  1.00  0.00     0.060 A 
ATOM      7  C   UNL A   1      35.463  33.824  28.131  1.00  0.00     0.016 A 
ATOM      8  C   UNL A   1      34.292  31.981  29.083  1.00  0.00     0.016 A 
ATOM      9  C   UNL A   1      36.644  33.429  28.783  1.00  0.00     0.010 A 
ATOM     10  C   UNL A   1      35.449  31.615  29.768  1.00  0.00     0.010 A 
ATOM     11  C   UNL A   1      36.648  32.335  29.638  1.00  0.00    -0.014 A 
BRANCH  11  12
ATOM     12  C   UNL A   1      37.877  31.868  30.356  1.00  0.00     0.031 A 
ATOM     13  C   UNL A   1      38.607  30.676  29.787  1.00  0.00     0.074 A 
ATOM     14  C   UNL A   1      38.202  32.316  31.592  1.00  0.00     0.049 A 
ATOM     15  N   UNL A   1      39.449  29.861  30.365  1.00  0.00    -0.248 NA
ATOM     16  C   UNL A   1      38.243  30.282  28.411  1.00  0.00     0.031 C 
ATOM     17  C   UNL A   1      37.476  33.335  32.359  1.00  0.00     0.029 A 
ATOM     18  N   UNL A   1      39.125  31.835  32.496  1.00  0.00    -0.354 N 
ATOM     19  C   UNL A   1      39.706  28.882  29.416  1.00  0.00     0.074 A 
ATOM     20  C   UNL A   1      38.754  29.065  28.346  1.00  0.00     0.031 C 
ATOM     21  C   UNL A   1      37.902  33.321  33.635  1.00  0.00     0.029 A 
ATOM     22  C   UNL A   1      38.956  32.328  33.775  1.00  0.00     0.049 A 
ATOM     23  H   UNL A   1      39.838  31.201  32.253  1.00  0.00     0.167 HD
ATOM     24  C   UNL A   1      40.741  28.014  29.349  1.00  0.00     0.037 A 
ATOM     25  C   UNL A   1      39.571  31.998  34.929  1.00  0.00     0.037 A 
ATOM     26  C   UNL A   1      41.756  27.923  30.357  1.00  0.00     0.049 A 
ATOM     27  C   UNL A   1      40.714  31.019  34.878  1.00  0.00     0.074 A 
ATOM     28  C   UNL A   1      42.953  27.235  30.322  1.00  0.00     0.029 A 
ATOM     29  N   UNL A   1      41.691  28.564  31.583  1.00  0.00    -0.354 N 
ATOM     30  N   UNL A   1      41.097  30.245  33.890  1.00  0.00    -0.248 NA
ATOM     31  C   UNL A   1      41.564  30.927  36.073  1.00  0.00     0.031 C 
ATOM     32  C   UNL A   1      43.607  27.446  31.540  1.00  0.00     0.029 A 
ATOM     33  C   UNL A   1      42.830  28.291  32.316  1.00  0.00     0.049 A 
ATOM     34  H   UNL A   1      40.944  29.131  31.887  1.00  0.00     0.167 HD
ATOM     35  C   UNL A   1      42.278  29.650  34.312  1.00  0.00     0.074 A 
ATOM     36  C   UNL A   1      42.533  30.128  35.653  1.00  0.00     0.031 C 
ATOM     37  C   UNL A   1      43.094  28.808  33.633  1.00  0.00     0.037 A 
BRANCH  24  38
ATOM     38  C   UNL A   1      40.887  27.228  28.077  1.00  0.00     0.057 A 
ATOM     39  C   UNL A   1      41.642  27.727  27.001  1.00  0.00     0.134 A 
ATOM     40  C   UNL A   1      40.280  25.981  27.911  1.00  0.00     0.134 A 
ATOM     41  F   UNL A   1      42.250  28.921  27.091  1.00  0.00    -0.206 F 
ATOM     42  C   UNL A   1      41.731  27.049  25.789  1.00  0.00     0.040 A 
ATOM     43  C   UNL A   1      40.399  25.270  26.715  1.00  0.00     0.040 A 
ATOM     44  F   UNL A   1      39.556  25.436  28.900  1.00  0.00    -0.206 F 
ATOM     45  C   UNL A   1      41.112  25.811  25.645  1.00  0.00     0.006 A 
ENDBRANCH  24  38
BRANCH  25  46
ATOM     46  C   UNL A   1      39.231  32.662  36.216  1.00  0.00     0.057 A 
ATOM     47  C   UNL A   1      38.290  32.093  37.084  1.00  0.00     0.134 A 
ATOM     48  C   UNL A   1      39.750  33.914  36.567  1.00  0.00     0.134 A 
ATOM     49  F   UNL A   1      37.730  30.911  36.786  1.00  0.00    -0.206 F 
ATOM     50  C   UNL A   1      37.845  32.758  38.229  1.00  0.00     0.040 A 
ATOM     51  C   UNL A   1      39.330  34.582  37.723  1.00  0.00     0.040 A 
ATOM     52  F   UNL A   1      40.644  34.525  35.777  1.00  0.00    -0.206 F 
ATOM     53  C   UNL A   1      38.365  34.010  38.550  1.00  0.00     0.006 A 
ENDBRANCH  25  46
BRANCH  37  54
ATOM     54  C   UNL A   1      44.394  28.434  34.278  1.00  0.00     0.057 A 
ATOM     55  C   UNL A   1      44.546  27.267  35.033  1.00  0.00     0.134 A 
ATOM     56  C   UNL A   1      45.523  29.246  34.099  1.00  0.00     0.134 A 
ATOM     57  F   UNL A   1      43.500  26.458  35.254  1.00  0.00    -0.206 F 
ATOM     58  C   UNL A   1      45.773  26.930  35.607  1.00  0.00     0.040 A 
ATOM     59  C   UNL A   1      46.761  28.902  34.639  1.00  0.00     0.040 A 
ATOM     60  F   UNL A   1      45.444  30.375  33.377  1.00  0.00    -0.206 F 
ATOM     61  C   UNL A   1      46.885  27.743  35.402  1.00  0.00     0.006 A 
ENDBRANCH  37  54
ENDBRANCH  11  12
ENDBRANCH   4   6
ENDBRANCH   3   4
ENDBRANCH   2   3
ENDBRANCH   1   2
BRANCH   1  62
ATOM     62  O   UNL A   1      31.979  29.194  26.165  1.00  0.00    -0.461 OA
BRANCH  62  63
ATOM     63  C   UNL A   1      32.790  28.247  25.626  1.00  0.00     0.329 C 
ATOM     64  O   UNL A   1      34.002  28.216  25.837  1.00  0.00    -0.250 OA
BRANCH  63  65
ATOM     65  C   UNL A   1      32.129  27.231  24.651  1.00  0.00     0.197 C 
ATOM     66  C   UNL A   1      30.605  27.441  24.698  1.00  0.00     0.070 C 
ATOM     67  N   UNL A   1      32.392  27.049  23.201  1.00  0.00    -0.325 N 
ATOM     68  C   UNL A   1      30.272  28.113  23.376  1.00  0.00     0.136 C 
ATOM     69  C   UNL A   1      31.239  27.454  22.412  1.00  0.00     0.152 C 
BRANCH  67  70
ATOM     70  C   UNL A   1      33.358  26.154  22.747  1.00  0.00     0.233 C 
ATOM     71  O   UNL A   1      33.710  26.174  21.566  1.00  0.00    -0.274 OA
BRANCH  70  72
ATOM     72  C   UNL A   1      33.983  25.181  23.766  1.00  0.00     0.169 C 
BRANCH  72  73
ATOM     73  S   UNL A   1      33.850  23.417  23.330  1.00  0.00    -0.148 SA
BRANCH  73  74
ATOM     74  C   UNL A   1      32.923  22.865  24.765  1.00  0.00     0.063 C 
ATOM     75  C   UNL A   1      33.636  22.993  26.110  1.00  0.00     0.031 C 
ATOM     76  C   UNL A   1      31.658  23.694  24.909  1.00  0.00     0.151 C 
ATOM     77  C   UNL A   1      32.571  22.609  27.147  1.00  0.00     0.138 C 
ATOM     78  S   UNL A   1      30.993  23.083  26.429  1.00  0.00     0.151 S 
ATOM     79  O   UNL A   1      30.233  21.893  26.098  1.00  0.00    -0.229 OA
ATOM     80  O   UNL A   1      30.420  24.190  27.166  1.00  0.00    -0.229 OA
ENDBRANCH  73  74
ENDBRANCH  72  73
ENDBRANCH  70  72
ENDBRANCH  67  70
BRANCH  68  81
ATOM     81  O   UNL A   1      28.923  27.879  23.002  1.00  0.00    -0.391 OA
ATOM     82  H   UNL A   1      28.448  28.725  22.961  1.00  0.00     0.211 HD
ENDBRANCH  68  81
ENDBRANCH  63  65
ENDBRANCH  62  63
ENDBRANCH   1  62
TORSDOF 16
ENDMDL
