MODEL 1
REMARK VINA RESULT:     -10.3      0.000      0.000
REMARK SMILES Cc1c(Cl)cc2c(c1C)O[C@H](C(F)(F)F)C(C(=O)OCCOC(=O)c1ccc(-c3c4nc(c(-c5c(F)cccc5F)c5ccc([nH]5)c(-c5c(F)cccc5F)c5nc(c(-c6c(F)cccc6F)c6ccc3[nH]6)C=C5)C=C4)cc1)=C2
REMARK SMILES IDX 21 1 20 2 19 3 17 4 18 5 16 6 1 7 2 8 3 9 8 10 4 11 5 12
REMARK SMILES IDX 7 13 9 14 6 15 10 16 79 17 11 18 12 19 13 20 14 21 15 22
REMARK SMILES IDX 22 23 23 24 24 25 25 26 26 27 78 28 27 29 77 30 28 31 29 32
REMARK SMILES IDX 30 33 71 34 31 35 76 36 70 37 72 38 32 39 75 40 69 41 68 42
REMARK SMILES IDX 33 44 59 45 42 46 58 47 43 48 46 49 57 50 73 51 44 52 45 53
REMARK SMILES IDX 56 55 74 56 47 57 34 58 35 59 40 60 36 61 37 62 39 63 41 64
REMARK SMILES IDX 38 65 60 66 61 67 66 68 62 69 63 70 65 71 67 72 64 73 48 74
REMARK SMILES IDX 49 75 54 76 50 77 51 78 53 79 55 80 52 81
REMARK H PARENT 72 43 46 54
REMARK Flexibility Score: inf
ROOT
ATOM      1  C   UNL A   1      40.706  20.031  26.331  1.00  0.00     0.275 C 
ENDROOT
BRANCH   1   2
ATOM      2  C   UNL A   1      42.100  19.847  26.932  1.00  0.00     0.275 C 
BRANCH   2   3
ATOM      3  O   UNL A   1      43.132  20.258  26.009  1.00  0.00    -0.459 OA
BRANCH   3   4
ATOM      4  C   UNL A   1      43.153  21.577  25.714  1.00  0.00     0.338 C 
ATOM      5  O   UNL A   1      42.358  22.179  25.008  1.00  0.00    -0.246 OA
BRANCH   4   6
ATOM      6  C   UNL A   1      44.275  22.249  26.394  1.00  0.00     0.087 C 
ATOM      7  C   UNL A   1      47.892  26.435  29.850  1.00  0.00     0.046 C 
ATOM      8  C   UNL A   1      46.939  25.425  29.262  1.00  0.00    -0.026 A 
ATOM      9  C   UNL A   1      45.696  25.217  29.893  1.00  0.00     0.045 A 
ATOM     10  C   UNL A   1      47.258  24.653  28.113  1.00  0.00    -0.004 A 
ATOM     11  Cl  UNL A   1      45.250  26.034  31.353  1.00  0.00    -0.084 Cl
ATOM     12  C   UNL A   1      44.759  24.338  29.357  1.00  0.00     0.032 A 
ATOM     13  C   UNL A   1      46.285  23.788  27.565  1.00  0.00     0.131 A 
ATOM     14  C   UNL A   1      48.589  24.745  27.409  1.00  0.00     0.049 C 
ATOM     15  C   UNL A   1      45.044  23.648  28.179  1.00  0.00     0.019 A 
ATOM     16  O   UNL A   1      46.619  23.094  26.429  1.00  0.00    -0.475 OA
ATOM     17  C   UNL A   1      44.024  22.820  27.574  1.00  0.00     0.027 C 
ATOM     18  C   UNL A   1      45.581  22.404  25.676  1.00  0.00     0.316 C 
BRANCH  18  19
ATOM     19  C   UNL A   1      45.394  23.107  24.321  1.00  0.00     0.430 C 
ATOM     20  F   UNL A   1      44.468  24.092  24.400  1.00  0.00    -0.167 F 
ATOM     21  F   UNL A   1      46.543  23.689  23.901  1.00  0.00    -0.167 F 
ATOM     22  F   UNL A   1      44.996  22.251  23.352  1.00  0.00    -0.167 F 
ENDBRANCH  18  19
ENDBRANCH   4   6
ENDBRANCH   3   4
ENDBRANCH   2   3
ENDBRANCH   1   2
BRANCH   1  23
ATOM     23  O   UNL A   1      39.925  20.934  27.136  1.00  0.00    -0.458 OA
BRANCH  23  24
ATOM     24  C   UNL A   1      39.329  21.940  26.456  1.00  0.00     0.338 C 
ATOM     25  O   UNL A   1      38.504  21.845  25.563  1.00  0.00    -0.246 OA
BRANCH  24  26
ATOM     26  C   UNL A   1      39.743  23.243  26.997  1.00  0.00     0.060 A 
ATOM     27  C   UNL A   1      39.430  24.386  26.276  1.00  0.00     0.016 A 
ATOM     28  C   UNL A   1      40.623  23.318  28.073  1.00  0.00     0.016 A 
ATOM     29  C   UNL A   1      40.135  25.564  26.499  1.00  0.00     0.010 A 
ATOM     30  C   UNL A   1      41.203  24.550  28.404  1.00  0.00     0.010 A 
ATOM     31  C   UNL A   1      41.014  25.679  27.585  1.00  0.00    -0.014 A 
BRANCH  31  32
ATOM     32  C   UNL A   1      41.743  26.959  27.837  1.00  0.00     0.031 A 
ATOM     33  C   UNL A   1      41.124  28.041  28.689  1.00  0.00     0.074 A 
ATOM     34  C   UNL A   1      42.981  27.151  27.330  1.00  0.00     0.049 A 
ATOM     35  N   UNL A   1      41.510  29.281  28.862  1.00  0.00    -0.248 NA
ATOM     36  C   UNL A   1      39.903  27.691  29.433  1.00  0.00     0.031 C 
ATOM     37  C   UNL A   1      43.736  26.178  26.537  1.00  0.00     0.029 A 
ATOM     38  N   UNL A   1      43.834  28.225  27.419  1.00  0.00    -0.354 N 
ATOM     39  C   UNL A   1      40.554  29.870  29.683  1.00  0.00     0.074 A 
ATOM     40  C   UNL A   1      39.561  28.858  29.965  1.00  0.00     0.031 C 
ATOM     41  C   UNL A   1      44.956  26.667  26.277  1.00  0.00     0.029 A 
ATOM     42  C   UNL A   1      45.029  28.035  26.769  1.00  0.00     0.049 A 
ATOM     43  H   UNL A   1      43.609  29.053  27.903  1.00  0.00     0.167 HD
ATOM     44  C   UNL A   1      40.513  31.137  30.161  1.00  0.00     0.037 A 
ATOM     45  C   UNL A   1      46.056  28.876  26.540  1.00  0.00     0.037 A 
ATOM     46  C   UNL A   1      41.538  32.124  29.927  1.00  0.00     0.049 A 
ATOM     47  C   UNL A   1      45.958  30.292  27.024  1.00  0.00     0.074 A 
ATOM     48  C   UNL A   1      41.586  33.434  30.370  1.00  0.00     0.029 A 
ATOM     49  N   UNL A   1      42.703  31.900  29.211  1.00  0.00    -0.354 N 
ATOM     50  N   UNL A   1      45.009  30.858  27.727  1.00  0.00    -0.248 NA
ATOM     51  C   UNL A   1      47.056  31.196  26.654  1.00  0.00     0.031 C 
ATOM     52  C   UNL A   1      42.761  34.016  29.885  1.00  0.00     0.029 A 
ATOM     53  C   UNL A   1      43.469  33.054  29.184  1.00  0.00     0.049 A 
ATOM     54  H   UNL A   1      42.949  31.047  28.784  1.00  0.00     0.167 HD
ATOM     55  C   UNL A   1      45.399  32.179  27.896  1.00  0.00     0.074 A 
ATOM     56  C   UNL A   1      46.681  32.325  27.240  1.00  0.00     0.031 C 
ATOM     57  C   UNL A   1      44.747  33.182  28.531  1.00  0.00     0.037 A 
BRANCH  44  58
ATOM     58  C   UNL A   1      39.316  31.549  30.972  1.00  0.00     0.057 A 
ATOM     59  C   UNL A   1      38.157  32.065  30.379  1.00  0.00     0.134 A 
ATOM     60  C   UNL A   1      39.298  31.355  32.359  1.00  0.00     0.134 A 
ATOM     61  F   UNL A   1      38.111  32.286  29.056  1.00  0.00    -0.206 F 
ATOM     62  C   UNL A   1      37.030  32.387  31.138  1.00  0.00     0.040 A 
ATOM     63  C   UNL A   1      38.167  31.647  33.125  1.00  0.00     0.040 A 
ATOM     64  F   UNL A   1      40.369  30.856  32.992  1.00  0.00    -0.206 F 
ATOM     65  C   UNL A   1      37.029  32.167  32.515  1.00  0.00     0.006 A 
ENDBRANCH  44  58
BRANCH  45  66
ATOM     66  C   UNL A   1      47.243  28.405  25.780  1.00  0.00     0.057 A 
ATOM     67  C   UNL A   1      48.485  28.250  26.405  1.00  0.00     0.134 A 
ATOM     68  C   UNL A   1      47.162  28.073  24.420  1.00  0.00     0.134 A 
ATOM     69  F   UNL A   1      48.635  28.574  27.698  1.00  0.00    -0.206 F 
ATOM     70  C   UNL A   1      49.601  27.782  25.710  1.00  0.00     0.040 A 
ATOM     71  C   UNL A   1      48.262  27.574  23.720  1.00  0.00     0.040 A 
ATOM     72  F   UNL A   1      46.001  28.198  23.760  1.00  0.00    -0.206 F 
ATOM     73  C   UNL A   1      49.487  27.431  24.365  1.00  0.00     0.006 A 
ENDBRANCH  45  66
BRANCH  57  74
ATOM     74  C   UNL A   1      45.416  34.523  28.570  1.00  0.00     0.057 A 
ATOM     75  C   UNL A   1      46.340  34.855  29.569  1.00  0.00     0.134 A 
ATOM     76  C   UNL A   1      45.184  35.467  27.562  1.00  0.00     0.134 A 
ATOM     77  F   UNL A   1      46.595  33.998  30.569  1.00  0.00    -0.206 F 
ATOM     78  C   UNL A   1      46.999  36.084  29.572  1.00  0.00     0.040 A 
ATOM     79  C   UNL A   1      45.856  36.689  27.539  1.00  0.00     0.040 A 
ATOM     80  F   UNL A   1      44.317  35.207  26.571  1.00  0.00    -0.206 F 
ATOM     81  C   UNL A   1      46.766  37.001  28.548  1.00  0.00     0.006 A 
ENDBRANCH  57  74
ENDBRANCH  31  32
ENDBRANCH  24  26
ENDBRANCH  23  24
ENDBRANCH   1  23
TORSDOF 12
ENDMDL
MODEL 2
REMARK VINA RESULT:     -10.3      4.531      7.131
REMARK SMILES Cc1c(Cl)cc2c(c1C)O[C@H](C(F)(F)F)C(C(=O)OCCOC(=O)c1ccc(-c3c4nc(c(-c5c(F)cccc5F)c5ccc([nH]5)c(-c5c(F)cccc5F)c5nc(c(-c6c(F)cccc6F)c6ccc3[nH]6)C=C5)C=C4)cc1)=C2
REMARK SMILES IDX 21 1 20 2 19 3 17 4 18 5 16 6 1 7 2 8 3 9 8 10 4 11 5 12
REMARK SMILES IDX 7 13 9 14 6 15 10 16 79 17 11 18 12 19 13 20 14 21 15 22
REMARK SMILES IDX 22 23 23 24 24 25 25 26 26 27 78 28 27 29 77 30 28 31 29 32
REMARK SMILES IDX 30 33 71 34 31 35 76 36 70 37 72 38 32 39 75 40 69 41 68 42
REMARK SMILES IDX 33 44 59 45 42 46 58 47 43 48 46 49 57 50 73 51 44 52 45 53
REMARK SMILES IDX 56 55 74 56 47 57 34 58 35 59 40 60 36 61 37 62 39 63 41 64
REMARK SMILES IDX 38 65 60 66 61 67 66 68 62 69 63 70 65 71 67 72 64 73 48 74
REMARK SMILES IDX 49 75 54 76 50 77 51 78 53 79 55 80 52 81
REMARK H PARENT 72 43 46 54
REMARK Flexibility Score: inf
ROOT
ATOM      1  C   UNL A   1      36.688  20.115  25.001  1.00  0.00     0.275 C 
ENDROOT
BRANCH   1   2
ATOM      2  C   UNL A   1      35.270  20.688  24.994  1.00  0.00     0.275 C 
BRANCH   2   3
ATOM      3  O   UNL A   1      35.283  22.126  24.864  1.00  0.00    -0.459 OA
BRANCH   3   4
ATOM      4  C   UNL A   1      34.528  22.795  25.765  1.00  0.00     0.338 C 
ATOM      5  O   UNL A   1      34.362  22.500  26.939  1.00  0.00    -0.246 OA
BRANCH   4   6
ATOM      6  C   UNL A   1      33.921  23.992  25.155  1.00  0.00     0.087 C 
ATOM      7  C   UNL A   1      30.651  29.557  24.212  1.00  0.00     0.046 C 
ATOM      8  C   UNL A   1      31.553  28.404  24.573  1.00  0.00    -0.026 A 
ATOM      9  C   UNL A   1      32.281  28.463  25.779  1.00  0.00     0.045 A 
ATOM     10  C   UNL A   1      31.723  27.274  23.729  1.00  0.00    -0.004 A 
ATOM     11  Cl  UNL A   1      32.222  29.838  26.830  1.00  0.00    -0.084 Cl
ATOM     12  C   UNL A   1      33.083  27.400  26.185  1.00  0.00     0.032 A 
ATOM     13  C   UNL A   1      32.516  26.191  24.169  1.00  0.00     0.131 A 
ATOM     14  C   UNL A   1      31.050  27.147  22.385  1.00  0.00     0.049 C 
ATOM     15  C   UNL A   1      33.176  26.255  25.394  1.00  0.00     0.019 A 
ATOM     16  O   UNL A   1      32.618  25.100  23.343  1.00  0.00    -0.475 OA
ATOM     17  C   UNL A   1      33.927  25.116  25.875  1.00  0.00     0.027 C 
ATOM     18  C   UNL A   1      33.192  23.862  23.852  1.00  0.00     0.316 C 
BRANCH  18  19
ATOM     19  C   UNL A   1      32.089  22.793  23.932  1.00  0.00     0.430 C 
ATOM     20  F   UNL A   1      31.638  22.644  25.200  1.00  0.00    -0.167 F 
ATOM     21  F   UNL A   1      31.016  23.131  23.178  1.00  0.00    -0.167 F 
ATOM     22  F   UNL A   1      32.519  21.584  23.508  1.00  0.00    -0.167 F 
ENDBRANCH  18  19
ENDBRANCH   4   6
ENDBRANCH   3   4
ENDBRANCH   2   3
ENDBRANCH   1   2
BRANCH   1  23
ATOM     23  O   UNL A   1      37.660  21.175  25.055  1.00  0.00    -0.458 OA
BRANCH  23  24
ATOM     24  C   UNL A   1      38.789  20.885  25.741  1.00  0.00     0.338 C 
ATOM     25  O   UNL A   1      39.401  19.831  25.752  1.00  0.00    -0.246 OA
BRANCH  24  26
ATOM     26  C   UNL A   1      39.277  22.075  26.454  1.00  0.00     0.060 A 
ATOM     27  C   UNL A   1      38.723  23.308  26.137  1.00  0.00     0.016 A 
ATOM     28  C   UNL A   1      40.417  22.009  27.249  1.00  0.00     0.016 A 
ATOM     29  C   UNL A   1      39.406  24.478  26.447  1.00  0.00     0.010 A 
ATOM     30  C   UNL A   1      41.008  23.195  27.706  1.00  0.00     0.010 A 
ATOM     31  C   UNL A   1      40.547  24.448  27.262  1.00  0.00    -0.014 A 
BRANCH  31  32
ATOM     32  C   UNL A   1      41.257  25.714  27.617  1.00  0.00     0.031 A 
ATOM     33  C   UNL A   1      40.584  26.758  28.476  1.00  0.00     0.074 A 
ATOM     34  C   UNL A   1      42.524  25.927  27.199  1.00  0.00     0.049 A 
ATOM     35  N   UNL A   1      40.957  27.988  28.729  1.00  0.00    -0.248 NA
ATOM     36  C   UNL A   1      39.319  26.377  29.124  1.00  0.00     0.031 C 
ATOM     37  C   UNL A   1      43.329  24.989  26.412  1.00  0.00     0.029 A 
ATOM     38  N   UNL A   1      43.368  26.994  27.390  1.00  0.00    -0.354 N 
ATOM     39  C   UNL A   1      39.950  28.541  29.514  1.00  0.00     0.074 A 
ATOM     40  C   UNL A   1      38.942  27.519  29.686  1.00  0.00     0.031 C 
ATOM     41  C   UNL A   1      44.562  25.487  26.252  1.00  0.00     0.029 A 
ATOM     42  C   UNL A   1      44.603  26.831  26.809  1.00  0.00     0.049 A 
ATOM     43  H   UNL A   1      43.112  27.800  27.896  1.00  0.00     0.167 HD
ATOM     44  C   UNL A   1      39.877  29.785  30.045  1.00  0.00     0.037 A 
ATOM     45  C   UNL A   1      45.641  27.680  26.685  1.00  0.00     0.037 A 
ATOM     46  C   UNL A   1      40.913  30.780  29.921  1.00  0.00     0.049 A 
ATOM     47  C   UNL A   1      45.511  29.073  27.224  1.00  0.00     0.074 A 
ATOM     48  C   UNL A   1      40.933  32.069  30.424  1.00  0.00     0.029 A 
ATOM     49  N   UNL A   1      42.122  30.586  29.271  1.00  0.00    -0.354 N 
ATOM     50  N   UNL A   1      44.519  29.608  27.891  1.00  0.00    -0.248 NA
ATOM     51  C   UNL A   1      46.629  29.991  26.966  1.00  0.00     0.031 C 
ATOM     52  C   UNL A   1      42.135  32.670  30.042  1.00  0.00     0.029 A 
ATOM     53  C   UNL A   1      42.887  31.739  29.345  1.00  0.00     0.049 A 
ATOM     54  H   UNL A   1      42.396  29.753  28.822  1.00  0.00     0.167 HD
ATOM     55  C   UNL A   1      44.896  30.920  28.144  1.00  0.00     0.074 A 
ATOM     56  C   UNL A   1      46.217  31.093  27.578  1.00  0.00     0.031 C 
ATOM     57  C   UNL A   1      44.204  31.895  28.781  1.00  0.00     0.037 A 
BRANCH  44  58
ATOM     58  C   UNL A   1      38.631  30.163  30.795  1.00  0.00     0.057 A 
ATOM     59  C   UNL A   1      38.492  29.938  32.171  1.00  0.00     0.134 A 
ATOM     60  C   UNL A   1      37.584  30.828  30.143  1.00  0.00     0.134 A 
ATOM     61  F   UNL A   1      39.453  29.297  32.854  1.00  0.00    -0.206 F 
ATOM     62  C   UNL A   1      37.353  30.349  32.867  1.00  0.00     0.040 A 
ATOM     63  C   UNL A   1      36.452  31.268  30.834  1.00  0.00     0.040 A 
ATOM     64  F   UNL A   1      37.653  31.085  28.829  1.00  0.00    -0.206 F 
ATOM     65  C   UNL A   1      36.334  31.026  32.200  1.00  0.00     0.006 A 
ENDBRANCH  44  58
BRANCH  45  66
ATOM     66  C   UNL A   1      46.875  27.242  25.981  1.00  0.00     0.057 A 
ATOM     67  C   UNL A   1      47.914  26.609  26.672  1.00  0.00     0.134 A 
ATOM     68  C   UNL A   1      47.036  27.418  24.599  1.00  0.00     0.134 A 
ATOM     69  F   UNL A   1      47.832  26.433  27.999  1.00  0.00    -0.206 F 
ATOM     70  C   UNL A   1      49.065  26.168  26.019  1.00  0.00     0.040 A 
ATOM     71  C   UNL A   1      48.168  26.953  23.927  1.00  0.00     0.040 A 
ATOM     72  F   UNL A   1      46.077  28.017  23.876  1.00  0.00    -0.206 F 
ATOM     73  C   UNL A   1      49.189  26.329  24.639  1.00  0.00     0.006 A 
ENDBRANCH  45  66
BRANCH  57  74
ATOM     74  C   UNL A   1      44.868  33.231  28.923  1.00  0.00     0.057 A 
ATOM     75  C   UNL A   1      44.652  34.261  28.000  1.00  0.00     0.134 A 
ATOM     76  C   UNL A   1      45.681  33.510  30.029  1.00  0.00     0.134 A 
ATOM     77  F   UNL A   1      43.894  34.052  26.913  1.00  0.00    -0.206 F 
ATOM     78  C   UNL A   1      45.231  35.519  28.165  1.00  0.00     0.040 A 
ATOM     79  C   UNL A   1      46.245  34.771  30.219  1.00  0.00     0.040 A 
ATOM     80  F   UNL A   1      45.921  32.568  30.954  1.00  0.00    -0.206 F 
ATOM     81  C   UNL A   1      46.022  35.780  29.283  1.00  0.00     0.006 A 
ENDBRANCH  57  74
ENDBRANCH  31  32
ENDBRANCH  24  26
ENDBRANCH  23  24
ENDBRANCH   1  23
TORSDOF 12
ENDMDL
MODEL 3
REMARK VINA RESULT:     -10.3      5.392     10.847
REMARK SMILES Cc1c(Cl)cc2c(c1C)O[C@H](C(F)(F)F)C(C(=O)OCCOC(=O)c1ccc(-c3c4nc(c(-c5c(F)cccc5F)c5ccc([nH]5)c(-c5c(F)cccc5F)c5nc(c(-c6c(F)cccc6F)c6ccc3[nH]6)C=C5)C=C4)cc1)=C2
REMARK SMILES IDX 21 1 20 2 19 3 17 4 18 5 16 6 1 7 2 8 3 9 8 10 4 11 5 12
REMARK SMILES IDX 7 13 9 14 6 15 10 16 79 17 11 18 12 19 13 20 14 21 15 22
REMARK SMILES IDX 22 23 23 24 24 25 25 26 26 27 78 28 27 29 77 30 28 31 29 32
REMARK SMILES IDX 30 33 71 34 31 35 76 36 70 37 72 38 32 39 75 40 69 41 68 42
REMARK SMILES IDX 33 44 59 45 42 46 58 47 43 48 46 49 57 50 73 51 44 52 45 53
REMARK SMILES IDX 56 55 74 56 47 57 34 58 35 59 40 60 36 61 37 62 39 63 41 64
REMARK SMILES IDX 38 65 60 66 61 67 66 68 62 69 63 70 65 71 67 72 64 73 48 74
REMARK SMILES IDX 49 75 54 76 50 77 51 78 53 79 55 80 52 81
REMARK H PARENT 72 43 46 54
REMARK Flexibility Score: inf
ROOT
ATOM      1  C   UNL A   1      31.639  30.468  25.629  1.00  0.00     0.275 C 
ENDROOT
BRANCH   1   2
ATOM      2  C   UNL A   1      31.404  29.043  25.127  1.00  0.00     0.275 C 
BRANCH   2   3
ATOM      3  O   UNL A   1      32.373  28.124  25.677  1.00  0.00    -0.459 OA
BRANCH   3   4
ATOM      4  C   UNL A   1      33.233  27.588  24.782  1.00  0.00     0.338 C 
ATOM      5  O   UNL A   1      33.865  28.190  23.927  1.00  0.00    -0.246 OA
BRANCH   4   6
ATOM      6  C   UNL A   1      33.355  26.132  24.978  1.00  0.00     0.087 C 
ATOM      7  C   UNL A   1      35.535  19.983  25.001  1.00  0.00     0.046 C 
ATOM      8  C   UNL A   1      35.221  21.451  25.143  1.00  0.00    -0.026 A 
ATOM      9  C   UNL A   1      36.267  22.342  25.461  1.00  0.00     0.045 A 
ATOM     10  C   UNL A   1      33.906  21.968  24.998  1.00  0.00    -0.004 A 
ATOM     11  Cl  UNL A   1      37.885  21.802  25.755  1.00  0.00    -0.084 Cl
ATOM     12  C   UNL A   1      36.039  23.713  25.546  1.00  0.00     0.032 A 
ATOM     13  C   UNL A   1      33.698  23.364  25.058  1.00  0.00     0.131 A 
ATOM     14  C   UNL A   1      32.707  21.093  24.732  1.00  0.00     0.049 C 
ATOM     15  C   UNL A   1      34.762  24.223  25.316  1.00  0.00     0.019 A 
ATOM     16  O   UNL A   1      32.418  23.825  24.869  1.00  0.00    -0.475 OA
ATOM     17  C   UNL A   1      34.560  25.655  25.302  1.00  0.00     0.027 C 
ATOM     18  C   UNL A   1      32.190  25.247  24.653  1.00  0.00     0.316 C 
BRANCH  18  19
ATOM     19  C   UNL A   1      31.709  25.465  23.209  1.00  0.00     0.430 C 
ATOM     20  F   UNL A   1      31.033  24.387  22.746  1.00  0.00    -0.167 F 
ATOM     21  F   UNL A   1      30.863  26.519  23.121  1.00  0.00    -0.167 F 
ATOM     22  F   UNL A   1      32.735  25.698  22.358  1.00  0.00    -0.167 F 
ENDBRANCH  18  19
ENDBRANCH   4   6
ENDBRANCH   3   4
ENDBRANCH   2   3
ENDBRANCH   1   2
BRANCH   1  23
ATOM     23  O   UNL A   1      32.306  30.450  26.904  1.00  0.00    -0.458 OA
BRANCH  23  24
ATOM     24  C   UNL A   1      32.978  31.582  27.217  1.00  0.00     0.338 C 
ATOM     25  O   UNL A   1      32.540  32.719  27.254  1.00  0.00    -0.246 OA
BRANCH  24  26
ATOM     26  C   UNL A   1      34.358  31.267  27.613  1.00  0.00     0.060 A 
ATOM     27  C   UNL A   1      34.700  29.937  27.814  1.00  0.00     0.016 A 
ATOM     28  C   UNL A   1      35.233  32.277  28.003  1.00  0.00     0.016 A 
ATOM     29  C   UNL A   1      35.819  29.613  28.574  1.00  0.00     0.010 A 
ATOM     30  C   UNL A   1      36.446  31.937  28.618  1.00  0.00     0.010 A 
ATOM     31  C   UNL A   1      36.730  30.604  28.967  1.00  0.00    -0.014 A 
BRANCH  31  32
ATOM     32  C   UNL A   1      37.947  30.243  29.755  1.00  0.00     0.031 A 
ATOM     33  C   UNL A   1      39.039  29.400  29.141  1.00  0.00     0.074 A 
ATOM     34  C   UNL A   1      38.100  30.694  31.020  1.00  0.00     0.049 A 
ATOM     35  N   UNL A   1      40.066  28.827  29.718  1.00  0.00    -0.248 NA
ATOM     36  C   UNL A   1      38.960  29.154  27.692  1.00  0.00     0.031 C 
ATOM     37  C   UNL A   1      37.161  31.565  31.731  1.00  0.00     0.029 A 
ATOM     38  N   UNL A   1      39.110  30.497  31.930  1.00  0.00    -0.354 N 
ATOM     39  C   UNL A   1      40.719  28.113  28.719  1.00  0.00     0.074 A 
ATOM     40  C   UNL A   1      39.965  28.310  27.500  1.00  0.00     0.031 C 
ATOM     41  C   UNL A   1      37.670  31.883  32.929  1.00  0.00     0.029 A 
ATOM     42  C   UNL A   1      38.906  31.140  33.127  1.00  0.00     0.049 A 
ATOM     43  H   UNL A   1      39.905  29.946  31.742  1.00  0.00     0.167 HD
ATOM     44  C   UNL A   1      41.845  27.365  28.810  1.00  0.00     0.037 A 
ATOM     45  C   UNL A   1      39.600  31.102  34.281  1.00  0.00     0.037 A 
ATOM     46  C   UNL A   1      42.626  27.222  30.013  1.00  0.00     0.049 A 
ATOM     47  C   UNL A   1      40.806  30.216  34.377  1.00  0.00     0.074 A 
ATOM     48  C   UNL A   1      43.783  26.486  30.205  1.00  0.00     0.029 A 
ATOM     49  N   UNL A   1      42.345  27.846  31.218  1.00  0.00    -0.354 N 
ATOM     50  N   UNL A   1      41.363  29.481  33.447  1.00  0.00    -0.248 NA
ATOM     51  C   UNL A   1      41.462  30.129  35.689  1.00  0.00     0.031 C 
ATOM     52  C   UNL A   1      44.178  26.632  31.537  1.00  0.00     0.029 A 
ATOM     53  C   UNL A   1      43.296  27.499  32.163  1.00  0.00     0.049 A 
ATOM     54  H   UNL A   1      41.581  28.447  31.379  1.00  0.00     0.167 HD
ATOM     55  C   UNL A   1      42.440  28.852  34.056  1.00  0.00     0.074 A 
ATOM     56  C   UNL A   1      42.472  29.310  35.429  1.00  0.00     0.031 C 
ATOM     57  C   UNL A   1      43.318  27.968  33.525  1.00  0.00     0.037 A 
BRANCH  44  58
ATOM     58  C   UNL A   1      42.302  26.621  27.586  1.00  0.00     0.057 A 
ATOM     59  C   UNL A   1      43.176  27.190  26.651  1.00  0.00     0.134 A 
ATOM     60  C   UNL A   1      41.919  25.289  27.381  1.00  0.00     0.134 A 
ATOM     61  F   UNL A   1      43.575  28.465  26.782  1.00  0.00    -0.206 F 
ATOM     62  C   UNL A   1      43.641  26.467  25.551  1.00  0.00     0.040 A 
ATOM     63  C   UNL A   1      42.398  24.547  26.299  1.00  0.00     0.040 A 
ATOM     64  F   UNL A   1      41.092  24.677  28.241  1.00  0.00    -0.206 F 
ATOM     65  C   UNL A   1      43.260  25.137  25.378  1.00  0.00     0.006 A 
ENDBRANCH  44  58
BRANCH  45  66
ATOM     66  C   UNL A   1      39.138  31.899  35.448  1.00  0.00     0.057 A 
ATOM     67  C   UNL A   1      39.543  33.226  35.622  1.00  0.00     0.134 A 
ATOM     68  C   UNL A   1      38.261  31.364  36.403  1.00  0.00     0.134 A 
ATOM     69  F   UNL A   1      40.401  33.788  34.757  1.00  0.00    -0.206 F 
ATOM     70  C   UNL A   1      39.095  33.994  36.697  1.00  0.00     0.040 A 
ATOM     71  C   UNL A   1      37.780  32.130  37.466  1.00  0.00     0.040 A 
ATOM     72  F   UNL A   1      37.833  30.098  36.296  1.00  0.00    -0.206 F 
ATOM     73  C   UNL A   1      38.201  33.449  37.617  1.00  0.00     0.006 A 
ENDBRANCH  45  66
BRANCH  57  74
ATOM     74  C   UNL A   1      44.404  27.453  34.421  1.00  0.00     0.057 A 
ATOM     75  C   UNL A   1      45.610  28.145  34.587  1.00  0.00     0.134 A 
ATOM     76  C   UNL A   1      44.216  26.287  35.174  1.00  0.00     0.134 A 
ATOM     77  F   UNL A   1      45.855  29.261  33.884  1.00  0.00    -0.206 F 
ATOM     78  C   UNL A   1      46.596  27.689  35.462  1.00  0.00     0.040 A 
ATOM     79  C   UNL A   1      45.184  25.835  36.071  1.00  0.00     0.040 A 
ATOM     80  F   UNL A   1      43.079  25.582  35.066  1.00  0.00    -0.206 F 
ATOM     81  C   UNL A   1      46.379  26.536  36.215  1.00  0.00     0.006 A 
ENDBRANCH  57  74
ENDBRANCH  31  32
ENDBRANCH  24  26
ENDBRANCH  23  24
ENDBRANCH   1  23
TORSDOF 12
ENDMDL
