MODEL 1
REMARK VINA RESULT:     -12.6      0.000      0.000
REMARK SMILES CCc1nc(-c2cccnc2)nc(Oc2ccc(C(=O)OCCOC(=O)c3ccc(-c4c5nc(c(-c6c(F)cccc6F)c6ccc([nH]6)c(-c6c(F)cccc6F)c6nc(c(-c7c(F)cccc7F)c7ccc4[nH]7)C=C6)C=C5)cc3)cc2)c1C
REMARK SMILES IDX 22 1 21 2 19 3 20 4 18 5 15 6 16 7 82 8 17 9 81 10 14 11
REMARK SMILES IDX 13 12 3 13 4 14 83 15 5 16 84 17 12 18 2 19 1 20 6 21 7 22
REMARK SMILES IDX 11 23 8 24 10 25 9 26 23 27 24 28 25 29 26 30 27 31 28 32
REMARK SMILES IDX 80 33 29 34 79 35 30 36 31 37 32 38 73 39 33 40 78 41 72 42
REMARK SMILES IDX 74 43 34 44 77 45 71 46 70 47 35 49 61 50 44 51 60 52 45 53
REMARK SMILES IDX 48 54 59 55 75 56 46 57 47 58 58 60 76 61 49 62 36 63 37 64
REMARK SMILES IDX 42 65 38 66 39 67 41 68 43 69 40 70 62 71 63 72 68 73 64 74
REMARK SMILES IDX 65 75 67 76 69 77 66 78 50 79 51 80 56 81 52 82 53 83 55 84
REMARK SMILES IDX 57 85 54 86
REMARK H PARENT 74 48 48 59
REMARK Flexibility Score: inf
ROOT
ATOM      1  C   UNL A   1      43.578  20.590  26.166  1.00  0.00     0.275 C 
ENDROOT
BRANCH   1   2
ATOM      2  O   UNL A   1      42.227  20.678  26.661  1.00  0.00    -0.458 OA
BRANCH   2   3
ATOM      3  C   UNL A   1      41.356  19.804  26.109  1.00  0.00     0.338 C 
ATOM      4  O   UNL A   1      41.588  18.647  25.789  1.00  0.00    -0.246 OA
BRANCH   3   5
ATOM      5  C   UNL A   1      40.010  20.399  25.963  1.00  0.00     0.060 A 
ATOM      6  C   UNL A   1      37.649  21.595  25.160  1.00  0.00     0.129 A 
ATOM      7  C   UNL A   1      37.829  20.239  24.916  1.00  0.00     0.048 A 
ATOM      8  C   UNL A   1      38.542  22.314  25.958  1.00  0.00     0.048 A 
ATOM      9  C   UNL A   1      39.040  19.663  25.264  1.00  0.00     0.019 A 
ATOM     10  C   UNL A   1      39.734  21.710  26.368  1.00  0.00     0.019 A 
BRANCH   6  11
ATOM     11  O   UNL A   1      36.607  22.192  24.520  1.00  0.00    -0.439 OA
BRANCH  11  12
ATOM     12  C   UNL A   1      35.309  21.902  24.882  1.00  0.00     0.226 A 
ATOM     13  C   UNL A   1      33.135  22.156  25.765  1.00  0.00     0.051 A 
ATOM     14  N   UNL A   1      32.939  20.824  25.673  1.00  0.00    -0.233 NA
ATOM     15  C   UNL A   1      34.273  22.775  25.240  1.00  0.00     0.033 A 
ATOM     16  C   UNL A   1      33.937  20.088  25.171  1.00  0.00     0.165 A 
ATOM     17  C   UNL A   1      34.288  24.263  25.106  1.00  0.00     0.052 C 
ATOM     18  N   UNL A   1      35.137  20.568  24.841  1.00  0.00    -0.193 NA
BRANCH  13  19
ATOM     19  C   UNL A   1      32.118  22.859  26.647  1.00  0.00     0.053 C 
ATOM     20  C   UNL A   1      30.671  22.944  26.190  1.00  0.00     0.011 C 
ENDBRANCH  13  19
BRANCH  16  21
ATOM     21  C   UNL A   1      33.714  18.663  24.981  1.00  0.00     0.038 A 
ATOM     22  C   UNL A   1      34.624  17.849  24.295  1.00  0.00     0.015 A 
ATOM     23  C   UNL A   1      32.557  18.043  25.450  1.00  0.00     0.123 A 
ATOM     24  C   UNL A   1      34.360  16.493  24.118  1.00  0.00     0.021 A 
ATOM     25  N   UNL A   1      32.262  16.728  25.284  1.00  0.00    -0.264 NA
ATOM     26  C   UNL A   1      33.175  15.985  24.622  1.00  0.00     0.111 A 
ENDBRANCH  16  21
ENDBRANCH  11  12
ENDBRANCH   6  11
ENDBRANCH   3   5
ENDBRANCH   2   3
ENDBRANCH   1   2
BRANCH   1  27
ATOM     27  C   UNL A   1      43.775  21.517  24.967  1.00  0.00     0.275 C 
BRANCH  27  28
ATOM     28  O   UNL A   1      42.912  22.668  25.067  1.00  0.00    -0.458 OA
BRANCH  28  29
ATOM     29  C   UNL A   1      43.535  23.867  25.027  1.00  0.00     0.338 C 
ATOM     30  O   UNL A   1      44.468  24.196  24.314  1.00  0.00    -0.246 OA
BRANCH  29  31
ATOM     31  C   UNL A   1      42.890  24.810  25.954  1.00  0.00     0.060 A 
ATOM     32  C   UNL A   1      43.230  26.156  25.879  1.00  0.00     0.016 A 
ATOM     33  C   UNL A   1      42.107  24.352  27.008  1.00  0.00     0.016 A 
ATOM     34  C   UNL A   1      42.920  27.021  26.925  1.00  0.00     0.010 A 
ATOM     35  C   UNL A   1      41.673  25.257  27.989  1.00  0.00     0.010 A 
ATOM     36  C   UNL A   1      42.113  26.594  27.989  1.00  0.00    -0.014 A 
BRANCH  36  37
ATOM     37  C   UNL A   1      41.749  27.534  29.093  1.00  0.00     0.031 A 
ATOM     38  C   UNL A   1      42.529  27.534  30.386  1.00  0.00     0.074 A 
ATOM     39  C   UNL A   1      40.717  28.393  28.951  1.00  0.00     0.049 A 
ATOM     40  N   UNL A   1      42.244  28.114  31.526  1.00  0.00    -0.248 NA
ATOM     41  C   UNL A   1      43.785  26.767  30.409  1.00  0.00     0.031 C 
ATOM     42  C   UNL A   1      39.888  28.541  27.752  1.00  0.00     0.029 A 
ATOM     43  N   UNL A   1      40.183  29.309  29.828  1.00  0.00    -0.354 N 
ATOM     44  C   UNL A   1      43.242  27.727  32.413  1.00  0.00     0.074 A 
ATOM     45  C   UNL A   1      44.145  26.865  31.681  1.00  0.00     0.031 C 
ATOM     46  C   UNL A   1      38.980  29.505  27.954  1.00  0.00     0.029 A 
ATOM     47  C   UNL A   1      39.088  29.975  29.329  1.00  0.00     0.049 A 
ATOM     48  H   UNL A   1      40.550  29.472  30.727  1.00  0.00     0.167 HD
ATOM     49  C   UNL A   1      43.388  28.056  33.720  1.00  0.00     0.037 A 
ATOM     50  C   UNL A   1      38.224  30.824  29.918  1.00  0.00     0.037 A 
ATOM     51  C   UNL A   1      42.534  28.975  34.428  1.00  0.00     0.049 A 
ATOM     52  C   UNL A   1      38.401  31.160  31.371  1.00  0.00     0.074 A 
ATOM     53  C   UNL A   1      42.633  29.405  35.741  1.00  0.00     0.029 A 
ATOM     54  N   UNL A   1      41.436  29.618  33.880  1.00  0.00    -0.354 N 
ATOM     55  N   UNL A   1      39.328  30.757  32.205  1.00  0.00    -0.248 NA
ATOM     56  C   UNL A   1      37.402  32.056  31.970  1.00  0.00     0.031 C 
ATOM     57  C   UNL A   1      41.570  30.276  35.999  1.00  0.00     0.029 A 
ATOM     58  C   UNL A   1      40.838  30.426  34.834  1.00  0.00     0.049 A 
ATOM     59  H   UNL A   1      41.127  29.516  32.951  1.00  0.00     0.167 HD
ATOM     60  C   UNL A   1      39.033  31.361  33.420  1.00  0.00     0.074 A 
ATOM     61  C   UNL A   1      37.856  32.176  33.209  1.00  0.00     0.031 C 
ATOM     62  C   UNL A   1      39.674  31.242  34.607  1.00  0.00     0.037 A 
BRANCH  49  63
ATOM     63  C   UNL A   1      44.498  27.405  34.495  1.00  0.00     0.057 A 
ATOM     64  C   UNL A   1      44.355  26.153  35.102  1.00  0.00     0.134 A 
ATOM     65  C   UNL A   1      45.761  28.013  34.557  1.00  0.00     0.134 A 
ATOM     66  F   UNL A   1      43.171  25.522  35.087  1.00  0.00    -0.206 F 
ATOM     67  C   UNL A   1      45.424  25.532  35.752  1.00  0.00     0.040 A 
ATOM     68  C   UNL A   1      46.842  27.391  35.182  1.00  0.00     0.040 A 
ATOM     69  F   UNL A   1      45.970  29.208  33.986  1.00  0.00    -0.206 F 
ATOM     70  C   UNL A   1      46.674  26.146  35.785  1.00  0.00     0.006 A 
ENDBRANCH  49  63
BRANCH  50  71
ATOM     71  C   UNL A   1      37.068  31.362  29.155  1.00  0.00     0.057 A 
ATOM     72  C   UNL A   1      37.061  32.676  28.674  1.00  0.00     0.134 A 
ATOM     73  C   UNL A   1      35.931  30.582  28.907  1.00  0.00     0.134 A 
ATOM     74  F   UNL A   1      38.108  33.483  28.901  1.00  0.00    -0.206 F 
ATOM     75  C   UNL A   1      35.960  33.201  27.995  1.00  0.00     0.040 A 
ATOM     76  C   UNL A   1      34.837  31.081  28.201  1.00  0.00     0.040 A 
ATOM     77  F   UNL A   1      35.873  29.313  29.338  1.00  0.00    -0.206 F 
ATOM     78  C   UNL A   1      34.846  32.399  27.750  1.00  0.00     0.006 A 
ENDBRANCH  50  71
BRANCH  62  79
ATOM     79  C   UNL A   1      39.142  32.046  35.754  1.00  0.00     0.057 A 
ATOM     80  C   UNL A   1      38.251  31.502  36.687  1.00  0.00     0.134 A 
ATOM     81  C   UNL A   1      39.546  33.374  35.941  1.00  0.00     0.134 A 
ATOM     82  F   UNL A   1      37.814  30.240  36.554  1.00  0.00    -0.206 F 
ATOM     83  C   UNL A   1      37.761  32.257  37.753  1.00  0.00     0.040 A 
ATOM     84  C   UNL A   1      39.082  34.131  37.018  1.00  0.00     0.040 A 
ATOM     85  F   UNL A   1      40.403  33.953  35.088  1.00  0.00    -0.206 F 
ATOM     86  C   UNL A   1      38.181  33.575  37.924  1.00  0.00     0.006 A 
ENDBRANCH  62  79
ENDBRANCH  36  37
ENDBRANCH  29  31
ENDBRANCH  28  29
ENDBRANCH  27  28
ENDBRANCH   1  27
TORSDOF 15
ENDMDL
MODEL 2
REMARK VINA RESULT:     -12.5      3.142      7.791
REMARK SMILES CCc1nc(-c2cccnc2)nc(Oc2ccc(C(=O)OCCOC(=O)c3ccc(-c4c5nc(c(-c6c(F)cccc6F)c6ccc([nH]6)c(-c6c(F)cccc6F)c6nc(c(-c7c(F)cccc7F)c7ccc4[nH]7)C=C6)C=C5)cc3)cc2)c1C
REMARK SMILES IDX 22 1 21 2 19 3 20 4 18 5 15 6 16 7 82 8 17 9 81 10 14 11
REMARK SMILES IDX 13 12 3 13 4 14 83 15 5 16 84 17 12 18 2 19 1 20 6 21 7 22
REMARK SMILES IDX 11 23 8 24 10 25 9 26 23 27 24 28 25 29 26 30 27 31 28 32
REMARK SMILES IDX 80 33 29 34 79 35 30 36 31 37 32 38 73 39 33 40 78 41 72 42
REMARK SMILES IDX 74 43 34 44 77 45 71 46 70 47 35 49 61 50 44 51 60 52 45 53
REMARK SMILES IDX 48 54 59 55 75 56 46 57 47 58 58 60 76 61 49 62 36 63 37 64
REMARK SMILES IDX 42 65 38 66 39 67 41 68 43 69 40 70 62 71 63 72 68 73 64 74
REMARK SMILES IDX 65 75 67 76 69 77 66 78 50 79 51 80 56 81 52 82 53 83 55 84
REMARK SMILES IDX 57 85 54 86
REMARK H PARENT 74 48 48 59
REMARK Flexibility Score: inf
ROOT
ATOM      1  C   UNL A   1      31.168  29.587  24.312  1.00  0.00     0.275 C 
ENDROOT
BRANCH   1   2
ATOM      2  O   UNL A   1      30.545  28.333  24.655  1.00  0.00    -0.458 OA
BRANCH   2   3
ATOM      3  C   UNL A   1      30.449  27.445  23.641  1.00  0.00     0.338 C 
ATOM      4  O   UNL A   1      30.433  27.702  22.445  1.00  0.00    -0.246 OA
BRANCH   3   5
ATOM      5  C   UNL A   1      30.411  26.054  24.141  1.00  0.00     0.060 A 
ATOM      6  C   UNL A   1      30.855  23.566  25.265  1.00  0.00     0.129 A 
ATOM      7  C   UNL A   1      30.415  24.601  26.082  1.00  0.00     0.048 A 
ATOM      8  C   UNL A   1      30.897  23.705  23.876  1.00  0.00     0.048 A 
ATOM      9  C   UNL A   1      30.257  25.858  25.523  1.00  0.00     0.019 A 
ATOM     10  C   UNL A   1      30.669  24.960  23.306  1.00  0.00     0.019 A 
BRANCH   6  11
ATOM     11  O   UNL A   1      31.312  22.449  25.896  1.00  0.00    -0.439 OA
BRANCH  11  12
ATOM     12  C   UNL A   1      32.578  21.972  25.636  1.00  0.00     0.226 A 
ATOM     13  C   UNL A   1      34.883  21.938  25.126  1.00  0.00     0.051 A 
ATOM     14  N   UNL A   1      34.815  20.609  24.898  1.00  0.00    -0.233 NA
ATOM     15  C   UNL A   1      33.802  22.656  25.645  1.00  0.00     0.033 A 
ATOM     16  C   UNL A   1      33.628  20.015  25.066  1.00  0.00     0.165 A 
ATOM     17  C   UNL A   1      34.034  24.041  26.153  1.00  0.00     0.052 C 
ATOM     18  N   UNL A   1      32.497  20.658  25.355  1.00  0.00    -0.193 NA
BRANCH  13  19
ATOM     19  C   UNL A   1      36.147  22.582  24.587  1.00  0.00     0.053 C 
ATOM     20  C   UNL A   1      36.223  22.953  23.114  1.00  0.00     0.011 C 
ENDBRANCH  13  19
BRANCH  16  21
ATOM     21  C   UNL A   1      33.553  18.570  24.911  1.00  0.00     0.038 A 
ATOM     22  C   UNL A   1      34.474  17.854  24.136  1.00  0.00     0.015 A 
ATOM     23  C   UNL A   1      32.534  17.830  25.506  1.00  0.00     0.123 A 
ATOM     24  C   UNL A   1      34.353  16.473  23.997  1.00  0.00     0.021 A 
ATOM     25  N   UNL A   1      32.379  16.487  25.382  1.00  0.00    -0.264 NA
ATOM     26  C   UNL A   1      33.296  15.842  24.630  1.00  0.00     0.111 A 
ENDBRANCH  16  21
ENDBRANCH  11  12
ENDBRANCH   6  11
ENDBRANCH   3   5
ENDBRANCH   2   3
ENDBRANCH   1   2
BRANCH   1  27
ATOM     27  C   UNL A   1      32.547  29.699  24.961  1.00  0.00     0.275 C 
BRANCH  27  28
ATOM     28  O   UNL A   1      32.428  29.825  26.392  1.00  0.00    -0.458 OA
BRANCH  28  29
ATOM     29  C   UNL A   1      32.897  30.980  26.915  1.00  0.00     0.338 C 
ATOM     30  O   UNL A   1      32.297  32.034  27.050  1.00  0.00    -0.246 OA
BRANCH  29  31
ATOM     31  C   UNL A   1      34.280  30.804  27.385  1.00  0.00     0.060 A 
ATOM     32  C   UNL A   1      34.730  29.521  27.669  1.00  0.00     0.016 A 
ATOM     33  C   UNL A   1      35.063  31.902  27.725  1.00  0.00     0.016 A 
ATOM     34  C   UNL A   1      35.885  29.328  28.422  1.00  0.00     0.010 A 
ATOM     35  C   UNL A   1      36.300  31.699  28.357  1.00  0.00     0.010 A 
ATOM     36  C   UNL A   1      36.707  30.412  28.759  1.00  0.00    -0.014 A 
BRANCH  36  37
ATOM     37  C   UNL A   1      37.967  30.200  29.535  1.00  0.00     0.031 A 
ATOM     38  C   UNL A   1      39.076  29.343  28.974  1.00  0.00     0.074 A 
ATOM     39  C   UNL A   1      38.128  30.769  30.749  1.00  0.00     0.049 A 
ATOM     40  N   UNL A   1      40.142  28.871  29.573  1.00  0.00    -0.248 NA
ATOM     41  C   UNL A   1      38.966  28.949  27.560  1.00  0.00     0.031 C 
ATOM     42  C   UNL A   1      37.166  31.650  31.414  1.00  0.00     0.029 A 
ATOM     43  N   UNL A   1      39.167  30.687  31.649  1.00  0.00    -0.354 N 
ATOM     44  C   UNL A   1      40.787  28.073  28.634  1.00  0.00     0.074 A 
ATOM     45  C   UNL A   1      39.997  28.127  27.422  1.00  0.00     0.031 C 
ATOM     46  C   UNL A   1      37.668  32.053  32.589  1.00  0.00     0.029 A 
ATOM     47  C   UNL A   1      38.940  31.378  32.815  1.00  0.00     0.049 A 
ATOM     48  H   UNL A   1      39.993  30.182  31.473  1.00  0.00     0.167 HD
ATOM     49  C   UNL A   1      41.930  27.358  28.772  1.00  0.00     0.037 A 
ATOM     50  C   UNL A   1      39.637  31.425  33.967  1.00  0.00     0.037 A 
ATOM     51  C   UNL A   1      42.757  27.366  29.951  1.00  0.00     0.049 A 
ATOM     52  C   UNL A   1      40.892  30.611  34.097  1.00  0.00     0.074 A 
ATOM     53  C   UNL A   1      43.957  26.709  30.165  1.00  0.00     0.029 A 
ATOM     54  N   UNL A   1      42.481  28.078  31.107  1.00  0.00    -0.354 N 
ATOM     55  N   UNL A   1      41.468  29.834  33.214  1.00  0.00    -0.248 NA
ATOM     56  C   UNL A   1      41.586  30.668  35.392  1.00  0.00     0.031 C 
ATOM     57  C   UNL A   1      44.386  26.990  31.466  1.00  0.00     0.029 A 
ATOM     58  C   UNL A   1      43.478  27.860  32.044  1.00  0.00     0.049 A 
ATOM     59  H   UNL A   1      41.693  28.652  31.243  1.00  0.00     0.167 HD
ATOM     60  C   UNL A   1      42.597  29.322  33.839  1.00  0.00     0.074 A 
ATOM     61  C   UNL A   1      42.639  29.895  35.168  1.00  0.00     0.031 C 
ATOM     62  C   UNL A   1      43.513  28.447  33.358  1.00  0.00     0.037 A 
BRANCH  49  63
ATOM     63  C   UNL A   1      42.357  26.477  27.632  1.00  0.00     0.057 A 
ATOM     64  C   UNL A   1      41.916  25.156  27.500  1.00  0.00     0.134 A 
ATOM     65  C   UNL A   1      43.158  26.997  26.605  1.00  0.00     0.134 A 
ATOM     66  F   UNL A   1      41.154  24.595  28.452  1.00  0.00    -0.206 F 
ATOM     67  C   UNL A   1      42.263  24.379  26.393  1.00  0.00     0.040 A 
ATOM     68  C   UNL A   1      43.491  26.238  25.482  1.00  0.00     0.040 A 
ATOM     69  F   UNL A   1      43.606  28.260  26.664  1.00  0.00    -0.206 F 
ATOM     70  C   UNL A   1      43.045  24.923  25.375  1.00  0.00     0.006 A 
ENDBRANCH  49  63
BRANCH  50  71
ATOM     71  C   UNL A   1      39.127  32.216  35.117  1.00  0.00     0.057 A 
ATOM     72  C   UNL A   1      38.292  31.643  36.083  1.00  0.00     0.134 A 
ATOM     73  C   UNL A   1      39.445  33.573  35.265  1.00  0.00     0.134 A 
ATOM     74  F   UNL A   1      37.930  30.356  35.983  1.00  0.00    -0.206 F 
ATOM     75  C   UNL A   1      37.775  32.394  37.140  1.00  0.00     0.040 A 
ATOM     76  C   UNL A   1      38.964  34.327  36.336  1.00  0.00     0.040 A 
ATOM     77  F   UNL A   1      40.242  34.183  34.376  1.00  0.00    -0.206 F 
ATOM     78  C   UNL A   1      38.118  33.738  37.273  1.00  0.00     0.006 A 
ENDBRANCH  50  71
BRANCH  62  79
ATOM     79  C   UNL A   1      44.658  28.092  34.259  1.00  0.00     0.057 A 
ATOM     80  C   UNL A   1      45.831  28.856  34.297  1.00  0.00     0.134 A 
ATOM     81  C   UNL A   1      44.574  26.987  35.115  1.00  0.00     0.134 A 
ATOM     82  F   UNL A   1      45.978  29.918  33.490  1.00  0.00    -0.206 F 
ATOM     83  C   UNL A   1      46.892  28.519  35.139  1.00  0.00     0.040 A 
ATOM     84  C   UNL A   1      45.618  26.656  35.979  1.00  0.00     0.040 A 
ATOM     85  F   UNL A   1      43.475  26.219  35.132  1.00  0.00    -0.206 F 
ATOM     86  C   UNL A   1      46.784  27.419  35.988  1.00  0.00     0.006 A 
ENDBRANCH  62  79
ENDBRANCH  36  37
ENDBRANCH  29  31
ENDBRANCH  28  29
ENDBRANCH  27  28
ENDBRANCH   1  27
TORSDOF 15
ENDMDL
MODEL 3
REMARK VINA RESULT:     -12.5      5.449     10.668
REMARK SMILES CCc1nc(-c2cccnc2)nc(Oc2ccc(C(=O)OCCOC(=O)c3ccc(-c4c5nc(c(-c6c(F)cccc6F)c6ccc([nH]6)c(-c6c(F)cccc6F)c6nc(c(-c7c(F)cccc7F)c7ccc4[nH]7)C=C6)C=C5)cc3)cc2)c1C
REMARK SMILES IDX 22 1 21 2 19 3 20 4 18 5 15 6 16 7 82 8 17 9 81 10 14 11
REMARK SMILES IDX 13 12 3 13 4 14 83 15 5 16 84 17 12 18 2 19 1 20 6 21 7 22
REMARK SMILES IDX 11 23 8 24 10 25 9 26 23 27 24 28 25 29 26 30 27 31 28 32
REMARK SMILES IDX 80 33 29 34 79 35 30 36 31 37 32 38 73 39 33 40 78 41 72 42
REMARK SMILES IDX 74 43 34 44 77 45 71 46 70 47 35 49 61 50 44 51 60 52 45 53
REMARK SMILES IDX 48 54 59 55 75 56 46 57 47 58 58 60 76 61 49 62 36 63 37 64
REMARK SMILES IDX 42 65 38 66 39 67 41 68 43 69 40 70 62 71 63 72 68 73 64 74
REMARK SMILES IDX 65 75 67 76 69 77 66 78 50 79 51 80 56 81 52 82 53 83 55 84
REMARK SMILES IDX 57 85 54 86
REMARK H PARENT 74 48 48 59
REMARK Flexibility Score: inf
ROOT
ATOM      1  C   UNL A   1      34.587  34.612  29.809  1.00  0.00     0.275 C 
ENDROOT
BRANCH   1   2
ATOM      2  O   UNL A   1      34.616  33.574  28.809  1.00  0.00    -0.458 OA
BRANCH   2   3
ATOM      3  C   UNL A   1      33.444  33.364  28.167  1.00  0.00     0.338 C 
ATOM      4  O   UNL A   1      32.525  34.161  28.048  1.00  0.00    -0.246 OA
BRANCH   3   5
ATOM      5  C   UNL A   1      33.398  32.021  27.550  1.00  0.00     0.060 A 
ATOM      6  C   UNL A   1      33.033  29.368  26.861  1.00  0.00     0.129 A 
ATOM      7  C   UNL A   1      32.005  30.271  26.615  1.00  0.00     0.048 A 
ATOM      8  C   UNL A   1      34.297  29.799  27.269  1.00  0.00     0.048 A 
ATOM      9  C   UNL A   1      32.173  31.584  27.022  1.00  0.00     0.019 A 
ATOM     10  C   UNL A   1      34.484  31.141  27.614  1.00  0.00     0.019 A 
BRANCH   6  11
ATOM     11  O   UNL A   1      32.716  28.048  26.757  1.00  0.00    -0.439 OA
BRANCH  11  12
ATOM     12  C   UNL A   1      32.482  27.483  25.522  1.00  0.00     0.226 A 
ATOM     13  C   UNL A   1      32.768  26.156  23.591  1.00  0.00     0.051 A 
ATOM     14  N   UNL A   1      31.793  26.851  22.966  1.00  0.00    -0.233 NA
ATOM     15  C   UNL A   1      33.059  26.344  24.945  1.00  0.00     0.033 A 
ATOM     16  C   UNL A   1      31.191  27.826  23.658  1.00  0.00     0.165 A 
ATOM     17  C   UNL A   1      33.926  25.346  25.640  1.00  0.00     0.052 C 
ATOM     18  N   UNL A   1      31.549  28.213  24.883  1.00  0.00    -0.193 NA
BRANCH  13  19
ATOM     19  C   UNL A   1      33.619  25.325  22.648  1.00  0.00     0.053 C 
ATOM     20  C   UNL A   1      33.141  23.940  22.241  1.00  0.00     0.011 C 
ENDBRANCH  13  19
BRANCH  16  21
ATOM     21  C   UNL A   1      30.079  28.527  23.034  1.00  0.00     0.038 A 
ATOM     22  C   UNL A   1      28.745  28.231  23.340  1.00  0.00     0.015 A 
ATOM     23  C   UNL A   1      30.293  29.511  22.072  1.00  0.00     0.123 A 
ATOM     24  C   UNL A   1      27.710  28.912  22.703  1.00  0.00     0.021 A 
ATOM     25  N   UNL A   1      29.309  30.186  21.423  1.00  0.00    -0.264 NA
ATOM     26  C   UNL A   1      28.040  29.869  21.758  1.00  0.00     0.111 A 
ENDBRANCH  16  21
ENDBRANCH  11  12
ENDBRANCH   6  11
ENDBRANCH   3   5
ENDBRANCH   2   3
ENDBRANCH   1   2
BRANCH   1  27
ATOM     27  C   UNL A   1      34.382  34.015  31.200  1.00  0.00     0.275 C 
BRANCH  27  28
ATOM     28  O   UNL A   1      34.675  32.603  31.196  1.00  0.00    -0.458 OA
BRANCH  28  29
ATOM     29  C   UNL A   1      35.577  32.194  32.117  1.00  0.00     0.338 C 
ATOM     30  O   UNL A   1      35.535  32.361  33.324  1.00  0.00    -0.246 OA
BRANCH  29  31
ATOM     31  C   UNL A   1      36.656  31.429  31.472  1.00  0.00     0.060 A 
ATOM     32  C   UNL A   1      37.544  30.723  32.274  1.00  0.00     0.016 A 
ATOM     33  C   UNL A   1      36.908  31.560  30.110  1.00  0.00     0.016 A 
ATOM     34  C   UNL A   1      38.756  30.271  31.758  1.00  0.00     0.010 A 
ATOM     35  C   UNL A   1      38.061  30.978  29.563  1.00  0.00     0.010 A 
ATOM     36  C   UNL A   1      39.027  30.367  30.386  1.00  0.00    -0.014 A 
BRANCH  36  37
ATOM     37  C   UNL A   1      40.312  29.848  29.826  1.00  0.00     0.031 A 
ATOM     38  C   UNL A   1      41.506  30.761  29.677  1.00  0.00     0.074 A 
ATOM     39  C   UNL A   1      40.422  28.558  29.443  1.00  0.00     0.049 A 
ATOM     40  N   UNL A   1      42.626  30.560  29.027  1.00  0.00    -0.248 NA
ATOM     41  C   UNL A   1      41.425  32.079  30.327  1.00  0.00     0.031 C 
ATOM     42  C   UNL A   1      39.373  27.542  29.554  1.00  0.00     0.029 A 
ATOM     43  N   UNL A   1      41.474  27.876  28.875  1.00  0.00    -0.354 N 
ATOM     44  C   UNL A   1      43.347  31.745  29.132  1.00  0.00     0.074 A 
ATOM     45  C   UNL A   1      42.542  32.661  29.913  1.00  0.00     0.031 C 
ATOM     46  C   UNL A   1      39.840  26.368  29.107  1.00  0.00     0.029 A 
ATOM     47  C   UNL A   1      41.184  26.565  28.578  1.00  0.00     0.049 A 
ATOM     48  H   UNL A   1      42.351  28.287  28.699  1.00  0.00     0.167 HD
ATOM     49  C   UNL A   1      44.567  32.043  28.621  1.00  0.00     0.037 A 
ATOM     50  C   UNL A   1      41.885  25.634  27.903  1.00  0.00     0.037 A 
ATOM     51  C   UNL A   1      45.402  31.108  27.912  1.00  0.00     0.049 A 
ATOM     52  C   UNL A   1      43.227  25.996  27.335  1.00  0.00     0.074 A 
ATOM     53  C   UNL A   1      46.672  31.307  27.397  1.00  0.00     0.029 A 
ATOM     54  N   UNL A   1      45.060  29.795  27.632  1.00  0.00    -0.354 N 
ATOM     55  N   UNL A   1      43.877  27.130  27.412  1.00  0.00    -0.248 NA
ATOM     56  C   UNL A   1      43.925  24.951  26.571  1.00  0.00     0.031 C 
ATOM     57  C   UNL A   1      47.082  30.126  26.770  1.00  0.00     0.029 A 
ATOM     58  C   UNL A   1      46.086  29.178  26.936  1.00  0.00     0.049 A 
ATOM     59  H   UNL A   1      44.212  29.364  27.890  1.00  0.00     0.167 HD
ATOM     60  C   UNL A   1      45.066  26.932  26.721  1.00  0.00     0.074 A 
ATOM     61  C   UNL A   1      45.057  25.563  26.253  1.00  0.00     0.031 C 
ATOM     62  C   UNL A   1      46.070  27.811  26.487  1.00  0.00     0.037 A 
BRANCH  49  63
ATOM     63  C   UNL A   1      45.078  33.446  28.780  1.00  0.00     0.057 A 
ATOM     64  C   UNL A   1      45.933  33.820  29.823  1.00  0.00     0.134 A 
ATOM     65  C   UNL A   1      44.773  34.418  27.815  1.00  0.00     0.134 A 
ATOM     66  F   UNL A   1      46.258  32.941  30.783  1.00  0.00    -0.206 F 
ATOM     67  C   UNL A   1      46.458  35.111  29.908  1.00  0.00     0.040 A 
ATOM     68  C   UNL A   1      45.310  35.704  27.877  1.00  0.00     0.040 A 
ATOM     69  F   UNL A   1      43.967  34.123  26.784  1.00  0.00    -0.206 F 
ATOM     70  C   UNL A   1      46.155  36.055  28.927  1.00  0.00     0.006 A 
ENDBRANCH  49  63
BRANCH  50  71
ATOM     71  C   UNL A   1      41.302  24.288  27.664  1.00  0.00     0.057 A 
ATOM     72  C   UNL A   1      41.746  23.166  28.373  1.00  0.00     0.134 A 
ATOM     73  C   UNL A   1      40.302  24.087  26.704  1.00  0.00     0.134 A 
ATOM     74  F   UNL A   1      42.720  23.287  29.287  1.00  0.00    -0.206 F 
ATOM     75  C   UNL A   1      41.234  21.892  28.121  1.00  0.00     0.040 A 
ATOM     76  C   UNL A   1      39.756  22.825  26.466  1.00  0.00     0.040 A 
ATOM     77  F   UNL A   1      39.829  25.120  25.992  1.00  0.00    -0.206 F 
ATOM     78  C   UNL A   1      40.229  21.721  27.170  1.00  0.00     0.006 A 
ENDBRANCH  50  71
BRANCH  62  79
ATOM     79  C   UNL A   1      47.259  27.303  25.728  1.00  0.00     0.057 A 
ATOM     80  C   UNL A   1      48.298  26.609  26.361  1.00  0.00     0.134 A 
ATOM     81  C   UNL A   1      47.353  27.490  24.344  1.00  0.00     0.134 A 
ATOM     82  F   UNL A   1      48.274  26.412  27.688  1.00  0.00    -0.206 F 
ATOM     83  C   UNL A   1      49.401  26.139  25.647  1.00  0.00     0.040 A 
ATOM     84  C   UNL A   1      48.438  27.002  23.615  1.00  0.00     0.040 A 
ATOM     85  F   UNL A   1      46.388  28.139  23.676  1.00  0.00    -0.206 F 
ATOM     86  C   UNL A   1      49.470  26.330  24.268  1.00  0.00     0.006 A 
ENDBRANCH  62  79
ENDBRANCH  36  37
ENDBRANCH  29  31
ENDBRANCH  28  29
ENDBRANCH  27  28
ENDBRANCH   1  27
TORSDOF 15
ENDMDL
