MODEL 1
REMARK VINA RESULT:     -10.7      0.000      0.000
REMARK SMILES Cc1nn(C)c2nc(C3CC3)c(Cl)c(C(=O)OCCOC(=O)c3ccc(-c4c5nc(c(-c6c(F)cccc6F)c6ccc([nH]6)c(-c6c(F)cccc6F)c6nc(c(-c7c(F)cccc7F)c7ccc4[nH]7)C=C6)C=C5)cc3)c12
REMARK SMILES IDX 19 1 18 2 17 3 15 4 16 5 14 6 1 7 2 8 3 9 77 10 4 11 6 12
REMARK SMILES IDX 5 13 7 14 12 15 8 16 13 17 9 18 10 19 11 20 20 21 21 22
REMARK SMILES IDX 22 23 23 24 24 25 76 26 25 27 75 28 26 29 27 30 28 31 69 32
REMARK SMILES IDX 29 33 74 34 68 35 70 36 30 37 73 38 67 39 66 40 31 42 57 43
REMARK SMILES IDX 40 44 56 45 41 46 44 47 55 48 71 49 42 50 43 51 54 53 72 54
REMARK SMILES IDX 45 55 32 56 33 57 38 58 34 59 35 60 37 61 39 62 36 63 58 64
REMARK SMILES IDX 59 65 64 66 60 67 61 68 63 69 65 70 62 71 46 72 47 73 52 74
REMARK SMILES IDX 48 75 49 76 51 77 53 78 50 79
REMARK H PARENT 70 41 44 52
REMARK Flexibility Score: inf
ROOT
ATOM      1  C   UNL A   1      41.404  43.574  20.317  1.00  0.00     0.275 C 
ENDROOT
BRANCH   1   2
ATOM      2  C   UNL A   1      42.054  43.169  18.988  1.00  0.00     0.275 C 
BRANCH   2   3
ATOM      3  O   UNL A   1      42.084  44.291  18.098  1.00  0.00    -0.458 OA
BRANCH   3   4
ATOM      4  C   UNL A   1      43.269  44.584  17.523  1.00  0.00     0.340 C 
ATOM      5  O   UNL A   1      43.777  44.053  16.549  1.00  0.00    -0.246 OA
BRANCH   4   6
ATOM      6  C   UNL A   1      43.763  45.821  18.135  1.00  0.00     0.093 A 
ATOM      7  C   UNL A   1      45.503  43.238  19.592  1.00  0.00     0.069 C 
ATOM      8  C   UNL A   1      45.509  44.709  19.793  1.00  0.00     0.070 A 
ATOM      9  N   UNL A   1      46.366  45.238  20.681  1.00  0.00    -0.176 NA
ATOM     10  C   UNL A   1      44.748  45.715  19.128  1.00  0.00     0.058 A 
ATOM     11  N   UNL A   1      46.194  46.568  20.545  1.00  0.00    -0.250 N 
ATOM     12  C   UNL A   1      45.239  46.906  19.626  1.00  0.00     0.159 A 
ATOM     13  C   UNL A   1      47.051  47.483  21.257  1.00  0.00     0.176 C 
ATOM     14  N   UNL A   1      44.900  48.147  19.245  1.00  0.00    -0.231 NA
ATOM     15  C   UNL A   1      43.325  47.099  17.731  1.00  0.00     0.078 A 
ATOM     16  C   UNL A   1      43.942  48.247  18.275  1.00  0.00     0.065 A 
ATOM     17  Cl  UNL A   1      41.984  47.192  16.631  1.00  0.00    -0.081 Cl
BRANCH  16  18
ATOM     18  C   UNL A   1      43.694  49.712  17.895  1.00  0.00     0.040 C 
ATOM     19  C   UNL A   1      44.712  50.817  17.843  1.00  0.00     0.011 C 
ATOM     20  C   UNL A   1      44.114  50.286  16.567  1.00  0.00     0.011 C 
ENDBRANCH  16  18
ENDBRANCH   4   6
ENDBRANCH   3   4
ENDBRANCH   2   3
ENDBRANCH   1   2
BRANCH   1  21
ATOM     21  O   UNL A   1      42.345  43.704  21.409  1.00  0.00    -0.458 OA
BRANCH  21  22
ATOM     22  C   UNL A   1      41.958  43.101  22.566  1.00  0.00     0.338 C 
ATOM     23  O   UNL A   1      40.811  42.841  22.896  1.00  0.00    -0.246 OA
BRANCH  22  24
ATOM     24  C   UNL A   1      43.109  42.730  23.420  1.00  0.00     0.060 A 
ATOM     25  C   UNL A   1      42.853  42.074  24.629  1.00  0.00     0.016 A 
ATOM     26  C   UNL A   1      44.412  43.104  23.112  1.00  0.00     0.016 A 
ATOM     27  C   UNL A   1      43.894  41.732  25.502  1.00  0.00     0.010 A 
ATOM     28  C   UNL A   1      45.443  42.812  24.019  1.00  0.00     0.010 A 
ATOM     29  C   UNL A   1      45.211  42.102  25.218  1.00  0.00    -0.014 A 
BRANCH  29  30
ATOM     30  C   UNL A   1      46.335  41.629  26.094  1.00  0.00     0.031 A 
ATOM     31  C   UNL A   1      46.319  42.189  27.477  1.00  0.00     0.074 A 
ATOM     32  C   UNL A   1      47.044  40.485  25.922  1.00  0.00     0.049 A 
ATOM     33  N   UNL A   1      45.511  41.704  28.374  1.00  0.00    -0.248 NA
ATOM     34  C   UNL A   1      46.943  43.450  27.872  1.00  0.00     0.031 C 
ATOM     35  C   UNL A   1      46.553  39.329  25.164  1.00  0.00     0.029 A 
ATOM     36  N   UNL A   1      48.194  40.010  26.537  1.00  0.00    -0.354 N 
ATOM     37  C   UNL A   1      45.433  42.616  29.402  1.00  0.00     0.074 A 
ATOM     38  C   UNL A   1      46.379  43.663  29.075  1.00  0.00     0.031 C 
ATOM     39  C   UNL A   1      47.292  38.247  25.484  1.00  0.00     0.029 A 
ATOM     40  C   UNL A   1      48.396  38.632  26.371  1.00  0.00     0.049 A 
ATOM     41  H   UNL A   1      48.811  40.587  27.042  1.00  0.00     0.167 HD
ATOM     42  C   UNL A   1      44.553  42.458  30.424  1.00  0.00     0.037 A 
ATOM     43  C   UNL A   1      48.883  37.776  27.319  1.00  0.00     0.037 A 
ATOM     44  C   UNL A   1      43.678  41.324  30.312  1.00  0.00     0.049 A 
ATOM     45  C   UNL A   1      47.847  37.886  28.405  1.00  0.00     0.074 A 
ATOM     46  C   UNL A   1      42.424  41.071  29.801  1.00  0.00     0.029 A 
ATOM     47  N   UNL A   1      44.162  40.090  30.674  1.00  0.00    -0.354 N 
ATOM     48  N   UNL A   1      46.669  37.325  28.414  1.00  0.00    -0.248 NA
ATOM     49  C   UNL A   1      48.033  38.952  29.389  1.00  0.00     0.031 C 
ATOM     50  C   UNL A   1      42.432  39.685  29.443  1.00  0.00     0.029 A 
ATOM     51  C   UNL A   1      43.705  39.199  29.734  1.00  0.00     0.049 A 
ATOM     52  H   UNL A   1      44.726  39.885  31.454  1.00  0.00     0.167 HD
ATOM     53  C   UNL A   1      45.880  38.148  29.217  1.00  0.00     0.074 A 
ATOM     54  C   UNL A   1      46.787  39.113  29.808  1.00  0.00     0.031 C 
ATOM     55  C   UNL A   1      44.518  38.122  29.217  1.00  0.00     0.037 A 
BRANCH  42  56
ATOM     56  C   UNL A   1      44.545  43.252  31.660  1.00  0.00     0.057 A 
ATOM     57  C   UNL A   1      43.472  44.133  31.855  1.00  0.00     0.134 A 
ATOM     58  C   UNL A   1      45.642  43.353  32.514  1.00  0.00     0.134 A 
ATOM     59  F   UNL A   1      42.408  44.087  31.035  1.00  0.00    -0.206 F 
ATOM     60  C   UNL A   1      43.503  45.114  32.840  1.00  0.00     0.040 A 
ATOM     61  C   UNL A   1      45.681  44.330  33.514  1.00  0.00     0.040 A 
ATOM     62  F   UNL A   1      46.706  42.552  32.359  1.00  0.00    -0.206 F 
ATOM     63  C   UNL A   1      44.618  45.222  33.668  1.00  0.00     0.006 A 
ENDBRANCH  42  56
BRANCH  43  64
ATOM     64  C   UNL A   1      50.349  37.775  27.645  1.00  0.00     0.057 A 
ATOM     65  C   UNL A   1      51.042  36.560  27.774  1.00  0.00     0.134 A 
ATOM     66  C   UNL A   1      51.110  38.928  27.911  1.00  0.00     0.134 A 
ATOM     67  F   UNL A   1      50.388  35.391  27.690  1.00  0.00    -0.206 F 
ATOM     68  C   UNL A   1      52.422  36.501  28.016  1.00  0.00     0.040 A 
ATOM     69  C   UNL A   1      52.494  38.889  28.118  1.00  0.00     0.040 A 
ATOM     70  F   UNL A   1      50.539  40.138  27.980  1.00  0.00    -0.206 F 
ATOM     71  C   UNL A   1      53.160  37.672  28.151  1.00  0.00     0.006 A 
ENDBRANCH  43  64
BRANCH  55  72
ATOM     72  C   UNL A   1      43.886  37.032  28.422  1.00  0.00     0.057 A 
ATOM     73  C   UNL A   1      43.482  37.264  27.104  1.00  0.00     0.134 A 
ATOM     74  C   UNL A   1      43.721  35.737  28.931  1.00  0.00     0.134 A 
ATOM     75  F   UNL A   1      43.615  38.481  26.555  1.00  0.00    -0.206 F 
ATOM     76  C   UNL A   1      42.966  36.239  26.309  1.00  0.00     0.040 A 
ATOM     77  C   UNL A   1      43.225  34.699  28.140  1.00  0.00     0.040 A 
ATOM     78  F   UNL A   1      44.066  35.444  30.195  1.00  0.00    -0.206 F 
ATOM     79  C   UNL A   1      42.850  34.948  26.822  1.00  0.00     0.006 A 
ENDBRANCH  55  72
ENDBRANCH  29  30
ENDBRANCH  22  24
ENDBRANCH  21  22
ENDBRANCH   1  21
TORSDOF 12
ENDMDL
MODEL 2
REMARK VINA RESULT:     -10.5      1.003      2.299
REMARK SMILES Cc1nn(C)c2nc(C3CC3)c(Cl)c(C(=O)OCCOC(=O)c3ccc(-c4c5nc(c(-c6c(F)cccc6F)c6ccc([nH]6)c(-c6c(F)cccc6F)c6nc(c(-c7c(F)cccc7F)c7ccc4[nH]7)C=C6)C=C5)cc3)c12
REMARK SMILES IDX 19 1 18 2 17 3 15 4 16 5 14 6 1 7 2 8 3 9 77 10 4 11 6 12
REMARK SMILES IDX 5 13 7 14 12 15 8 16 13 17 9 18 10 19 11 20 20 21 21 22
REMARK SMILES IDX 22 23 23 24 24 25 76 26 25 27 75 28 26 29 27 30 28 31 69 32
REMARK SMILES IDX 29 33 74 34 68 35 70 36 30 37 73 38 67 39 66 40 31 42 57 43
REMARK SMILES IDX 40 44 56 45 41 46 44 47 55 48 71 49 42 50 43 51 54 53 72 54
REMARK SMILES IDX 45 55 32 56 33 57 38 58 34 59 35 60 37 61 39 62 36 63 58 64
REMARK SMILES IDX 59 65 64 66 60 67 61 68 63 69 65 70 62 71 46 72 47 73 52 74
REMARK SMILES IDX 48 75 49 76 51 77 53 78 50 79
REMARK H PARENT 70 41 44 52
REMARK Flexibility Score: inf
ROOT
ATOM      1  C   UNL A   1      41.539  43.329  20.328  1.00  0.00     0.275 C 
ENDROOT
BRANCH   1   2
ATOM      2  C   UNL A   1      42.142  43.012  18.953  1.00  0.00     0.275 C 
BRANCH   2   3
ATOM      3  O   UNL A   1      42.187  44.201  18.155  1.00  0.00    -0.458 OA
BRANCH   3   4
ATOM      4  C   UNL A   1      43.366  44.504  17.574  1.00  0.00     0.340 C 
ATOM      5  O   UNL A   1      43.806  44.086  16.516  1.00  0.00    -0.246 OA
BRANCH   4   6
ATOM      6  C   UNL A   1      43.958  45.612  18.330  1.00  0.00     0.093 A 
ATOM      7  C   UNL A   1      41.697  47.006  16.147  1.00  0.00     0.069 C 
ATOM      8  C   UNL A   1      42.633  47.581  17.146  1.00  0.00     0.070 A 
ATOM      9  N   UNL A   1      42.643  48.911  17.334  1.00  0.00    -0.176 NA
ATOM     10  C   UNL A   1      43.539  46.915  18.023  1.00  0.00     0.058 A 
ATOM     11  N   UNL A   1      43.504  49.086  18.357  1.00  0.00    -0.250 N 
ATOM     12  C   UNL A   1      44.065  47.923  18.807  1.00  0.00     0.159 A 
ATOM     13  C   UNL A   1      43.679  50.394  18.935  1.00  0.00     0.176 C 
ATOM     14  N   UNL A   1      44.906  47.790  19.843  1.00  0.00    -0.231 NA
ATOM     15  C   UNL A   1      44.885  45.413  19.374  1.00  0.00     0.078 A 
ATOM     16  C   UNL A   1      45.310  46.519  20.143  1.00  0.00     0.065 A 
ATOM     17  Cl  UNL A   1      45.515  43.813  19.612  1.00  0.00    -0.081 Cl
BRANCH  16  18
ATOM     18  C   UNL A   1      46.218  46.506  21.379  1.00  0.00     0.040 C 
ATOM     19  C   UNL A   1      47.195  45.432  21.771  1.00  0.00     0.011 C 
ATOM     20  C   UNL A   1      47.699  46.770  21.299  1.00  0.00     0.011 C 
ENDBRANCH  16  18
ENDBRANCH   4   6
ENDBRANCH   3   4
ENDBRANCH   2   3
ENDBRANCH   1   2
BRANCH   1  21
ATOM     21  O   UNL A   1      42.527  43.580  21.354  1.00  0.00    -0.458 OA
BRANCH  21  22
ATOM     22  C   UNL A   1      42.155  43.200  22.606  1.00  0.00     0.338 C 
ATOM     23  O   UNL A   1      41.013  43.158  23.038  1.00  0.00    -0.246 OA
BRANCH  22  24
ATOM     24  C   UNL A   1      43.309  42.780  23.433  1.00  0.00     0.060 A 
ATOM     25  C   UNL A   1      43.054  42.106  24.632  1.00  0.00     0.016 A 
ATOM     26  C   UNL A   1      44.617  43.125  23.112  1.00  0.00     0.016 A 
ATOM     27  C   UNL A   1      44.098  41.716  25.481  1.00  0.00     0.010 A 
ATOM     28  C   UNL A   1      45.653  42.786  23.995  1.00  0.00     0.010 A 
ATOM     29  C   UNL A   1      45.421  42.057  25.183  1.00  0.00    -0.014 A 
BRANCH  29  30
ATOM     30  C   UNL A   1      46.545  41.535  26.031  1.00  0.00     0.031 A 
ATOM     31  C   UNL A   1      46.641  42.159  27.383  1.00  0.00     0.074 A 
ATOM     32  C   UNL A   1      47.152  40.330  25.885  1.00  0.00     0.049 A 
ATOM     33  N   UNL A   1      45.842  41.783  28.338  1.00  0.00    -0.248 NA
ATOM     34  C   UNL A   1      47.382  43.382  27.685  1.00  0.00     0.031 C 
ATOM     35  C   UNL A   1      46.534  39.184  25.209  1.00  0.00     0.029 A 
ATOM     36  N   UNL A   1      48.288  39.792  26.471  1.00  0.00    -0.354 N 
ATOM     37  C   UNL A   1      45.887  42.747  29.321  1.00  0.00     0.074 A 
ATOM     38  C   UNL A   1      46.896  43.696  28.900  1.00  0.00     0.031 C 
ATOM     39  C   UNL A   1      47.199  38.061  25.551  1.00  0.00     0.029 A 
ATOM     40  C   UNL A   1      48.372  38.396  26.366  1.00  0.00     0.049 A 
ATOM     41  H   UNL A   1      48.973  40.339  26.919  1.00  0.00     0.167 HD
ATOM     42  C   UNL A   1      45.048  42.708  30.389  1.00  0.00     0.037 A 
ATOM     43  C   UNL A   1      48.835  37.548  27.334  1.00  0.00     0.037 A 
ATOM     44  C   UNL A   1      44.081  41.646  30.374  1.00  0.00     0.049 A 
ATOM     45  C   UNL A   1      47.866  37.794  28.458  1.00  0.00     0.074 A 
ATOM     46  C   UNL A   1      42.787  41.473  29.932  1.00  0.00     0.029 A 
ATOM     47  N   UNL A   1      44.483  40.395  30.775  1.00  0.00    -0.354 N 
ATOM     48  N   UNL A   1      46.649  37.332  28.548  1.00  0.00    -0.248 NA
ATOM     49  C   UNL A   1      48.183  38.886  29.377  1.00  0.00     0.031 C 
ATOM     50  C   UNL A   1      42.668  40.076  29.645  1.00  0.00     0.029 A 
ATOM     51  C   UNL A   1      43.910  39.502  29.903  1.00  0.00     0.049 A 
ATOM     52  H   UNL A   1      45.066  40.181  31.539  1.00  0.00     0.167 HD
ATOM     53  C   UNL A   1      45.968  38.253  29.343  1.00  0.00     0.074 A 
ATOM     54  C   UNL A   1      46.976  39.167  29.843  1.00  0.00     0.031 C 
ATOM     55  C   UNL A   1      44.609  38.339  29.405  1.00  0.00     0.037 A 
BRANCH  42  56
ATOM     56  C   UNL A   1      45.163  43.558  31.582  1.00  0.00     0.057 A 
ATOM     57  C   UNL A   1      46.002  43.113  32.613  1.00  0.00     0.134 A 
ATOM     58  C   UNL A   1      44.318  44.636  31.841  1.00  0.00     0.134 A 
ATOM     59  F   UNL A   1      46.811  42.059  32.413  1.00  0.00    -0.206 F 
ATOM     60  C   UNL A   1      45.974  43.691  33.877  1.00  0.00     0.040 A 
ATOM     61  C   UNL A   1      44.287  45.232  33.106  1.00  0.00     0.040 A 
ATOM     62  F   UNL A   1      43.478  45.088  30.899  1.00  0.00    -0.206 F 
ATOM     63  C   UNL A   1      45.105  44.749  34.130  1.00  0.00     0.006 A 
ENDBRANCH  42  56
BRANCH  43  64
ATOM     64  C   UNL A   1      50.310  37.442  27.594  1.00  0.00     0.057 A 
ATOM     65  C   UNL A   1      50.919  36.181  27.706  1.00  0.00     0.134 A 
ATOM     66  C   UNL A   1      51.165  38.539  27.811  1.00  0.00     0.134 A 
ATOM     67  F   UNL A   1      50.178  35.062  27.665  1.00  0.00    -0.206 F 
ATOM     68  C   UNL A   1      52.300  36.023  27.885  1.00  0.00     0.040 A 
ATOM     69  C   UNL A   1      52.551  38.400  27.955  1.00  0.00     0.040 A 
ATOM     70  F   UNL A   1      50.687  39.788  27.892  1.00  0.00    -0.206 F 
ATOM     71  C   UNL A   1      53.127  37.138  27.973  1.00  0.00     0.006 A 
ENDBRANCH  43  64
BRANCH  55  72
ATOM     72  C   UNL A   1      43.854  37.267  28.696  1.00  0.00     0.057 A 
ATOM     73  C   UNL A   1      43.497  37.428  27.354  1.00  0.00     0.134 A 
ATOM     74  C   UNL A   1      43.523  36.054  29.313  1.00  0.00     0.134 A 
ATOM     75  F   UNL A   1      43.787  38.565  26.703  1.00  0.00    -0.206 F 
ATOM     76  C   UNL A   1      42.865  36.407  26.641  1.00  0.00     0.040 A 
ATOM     77  C   UNL A   1      42.910  35.019  28.605  1.00  0.00     0.040 A 
ATOM     78  F   UNL A   1      43.815  35.835  30.605  1.00  0.00    -0.206 F 
ATOM     79  C   UNL A   1      42.584  35.192  27.262  1.00  0.00     0.006 A 
ENDBRANCH  55  72
ENDBRANCH  29  30
ENDBRANCH  22  24
ENDBRANCH  21  22
ENDBRANCH   1  21
TORSDOF 12
ENDMDL
MODEL 3
REMARK VINA RESULT:     -10.3     11.029     17.590
REMARK SMILES Cc1nn(C)c2nc(C3CC3)c(Cl)c(C(=O)OCCOC(=O)c3ccc(-c4c5nc(c(-c6c(F)cccc6F)c6ccc([nH]6)c(-c6c(F)cccc6F)c6nc(c(-c7c(F)cccc7F)c7ccc4[nH]7)C=C6)C=C5)cc3)c12
REMARK SMILES IDX 19 1 18 2 17 3 15 4 16 5 14 6 1 7 2 8 3 9 77 10 4 11 6 12
REMARK SMILES IDX 5 13 7 14 12 15 8 16 13 17 9 18 10 19 11 20 20 21 21 22
REMARK SMILES IDX 22 23 23 24 24 25 76 26 25 27 75 28 26 29 27 30 28 31 69 32
REMARK SMILES IDX 29 33 74 34 68 35 70 36 30 37 73 38 67 39 66 40 31 42 57 43
REMARK SMILES IDX 40 44 56 45 41 46 44 47 55 48 71 49 42 50 43 51 54 53 72 54
REMARK SMILES IDX 45 55 32 56 33 57 38 58 34 59 35 60 37 61 39 62 36 63 58 64
REMARK SMILES IDX 59 65 64 66 60 67 61 68 63 69 65 70 62 71 46 72 47 73 52 74
REMARK SMILES IDX 48 75 49 76 51 77 53 78 50 79
REMARK H PARENT 70 41 44 52
REMARK Flexibility Score: inf
ROOT
ATOM      1  C   UNL A   1      44.677  26.457  26.536  1.00  0.00     0.275 C 
ENDROOT
BRANCH   1   2
ATOM      2  C   UNL A   1      45.397  25.517  25.562  1.00  0.00     0.275 C 
BRANCH   2   3
ATOM      3  O   UNL A   1      45.044  24.158  25.844  1.00  0.00    -0.458 OA
BRANCH   3   4
ATOM      4  C   UNL A   1      44.654  23.397  24.800  1.00  0.00     0.340 C 
ATOM      5  O   UNL A   1      45.166  23.328  23.695  1.00  0.00    -0.246 OA
BRANCH   4   6
ATOM      6  C   UNL A   1      43.620  22.478  25.285  1.00  0.00     0.093 A 
ATOM      7  C   UNL A   1      46.404  20.570  24.625  1.00  0.00     0.069 C 
ATOM      8  C   UNL A   1      45.035  20.242  25.100  1.00  0.00     0.070 A 
ATOM      9  N   UNL A   1      44.740  18.966  25.396  1.00  0.00    -0.176 NA
ATOM     10  C   UNL A   1      43.935  21.113  25.356  1.00  0.00     0.058 A 
ATOM     11  N   UNL A   1      43.487  19.029  25.887  1.00  0.00    -0.250 N 
ATOM     12  C   UNL A   1      42.961  20.291  25.887  1.00  0.00     0.159 A 
ATOM     13  C   UNL A   1      42.869  17.850  26.440  1.00  0.00     0.176 C 
ATOM     14  N   UNL A   1      41.763  20.658  26.368  1.00  0.00    -0.231 NA
ATOM     15  C   UNL A   1      42.355  22.918  25.725  1.00  0.00     0.078 A 
ATOM     16  C   UNL A   1      41.460  21.989  26.301  1.00  0.00     0.065 A 
ATOM     17  Cl  UNL A   1      41.933  24.581  25.461  1.00  0.00    -0.081 Cl
BRANCH  16  18
ATOM     18  C   UNL A   1      40.094  22.276  26.935  1.00  0.00     0.040 C 
ATOM     19  C   UNL A   1      39.322  23.565  26.875  1.00  0.00     0.011 C 
ATOM     20  C   UNL A   1      38.826  22.357  26.126  1.00  0.00     0.011 C 
ENDBRANCH  16  18
ENDBRANCH   4   6
ENDBRANCH   3   4
ENDBRANCH   2   3
ENDBRANCH   1   2
BRANCH   1  21
ATOM     21  O   UNL A   1      44.431  27.777  25.998  1.00  0.00    -0.458 OA
BRANCH  21  22
ATOM     22  C   UNL A   1      43.142  28.008  25.627  1.00  0.00     0.338 C 
ATOM     23  O   UNL A   1      42.653  27.774  24.533  1.00  0.00    -0.246 OA
BRANCH  22  24
ATOM     24  C   UNL A   1      42.329  28.560  26.734  1.00  0.00     0.060 A 
ATOM     25  C   UNL A   1      40.938  28.419  26.668  1.00  0.00     0.016 A 
ATOM     26  C   UNL A   1      42.888  29.299  27.770  1.00  0.00     0.016 A 
ATOM     27  C   UNL A   1      40.108  28.954  27.662  1.00  0.00     0.010 A 
ATOM     28  C   UNL A   1      42.048  29.884  28.729  1.00  0.00     0.010 A 
ATOM     29  C   UNL A   1      40.646  29.706  28.710  1.00  0.00    -0.014 A 
BRANCH  29  30
ATOM     30  C   UNL A   1      39.768  30.173  29.834  1.00  0.00     0.031 A 
ATOM     31  C   UNL A   1      39.942  29.420  31.111  1.00  0.00     0.074 A 
ATOM     32  C   UNL A   1      39.208  31.405  29.941  1.00  0.00     0.049 A 
ATOM     33  N   UNL A   1      40.952  29.672  31.890  1.00  0.00    -0.248 NA
ATOM     34  C   UNL A   1      39.224  28.196  31.459  1.00  0.00     0.031 C 
ATOM     35  C   UNL A   1      39.720  32.594  29.250  1.00  0.00     0.029 A 
ATOM     36  N   UNL A   1      38.260  31.916  30.815  1.00  0.00    -0.354 N 
ATOM     37  C   UNL A   1      41.076  28.616  32.766  1.00  0.00     0.074 A 
ATOM     38  C   UNL A   1      39.950  27.746  32.499  1.00  0.00     0.031 C 
ATOM     39  C   UNL A   1      39.207  33.696  29.835  1.00  0.00     0.029 A 
ATOM     40  C   UNL A   1      38.229  33.318  30.860  1.00  0.00     0.049 A 
ATOM     41  H   UNL A   1      37.664  31.347  31.354  1.00  0.00     0.167 HD
ATOM     42  C   UNL A   1      42.132  28.520  33.614  1.00  0.00     0.037 A 
ATOM     43  C   UNL A   1      38.038  34.077  31.981  1.00  0.00     0.037 A 
ATOM     44  C   UNL A   1      43.126  29.548  33.479  1.00  0.00     0.049 A 
ATOM     45  C   UNL A   1      39.218  33.689  32.829  1.00  0.00     0.074 A 
ATOM     46  C   UNL A   1      44.297  29.726  32.773  1.00  0.00     0.029 A 
ATOM     47  N   UNL A   1      42.890  30.765  34.073  1.00  0.00    -0.354 N 
ATOM     48  N   UNL A   1      40.448  34.102  32.684  1.00  0.00    -0.248 NA
ATOM     49  C   UNL A   1      39.056  32.520  33.693  1.00  0.00     0.031 C 
ATOM     50  C   UNL A   1      44.422  31.140  32.596  1.00  0.00     0.029 A 
ATOM     51  C   UNL A   1      43.300  31.723  33.180  1.00  0.00     0.049 A 
ATOM     52  H   UNL A   1      42.503  30.918  34.965  1.00  0.00     0.167 HD
ATOM     53  C   UNL A   1      41.239  33.084  33.216  1.00  0.00     0.074 A 
ATOM     54  C   UNL A   1      40.320  32.157  33.846  1.00  0.00     0.031 C 
ATOM     55  C   UNL A   1      42.571  32.951  32.961  1.00  0.00     0.037 A 
BRANCH  42  56
ATOM     56  C   UNL A   1      42.240  27.558  34.720  1.00  0.00     0.057 A 
ATOM     57  C   UNL A   1      42.807  26.309  34.436  1.00  0.00     0.134 A 
ATOM     58  C   UNL A   1      41.604  27.727  35.949  1.00  0.00     0.134 A 
ATOM     59  F   UNL A   1      43.405  26.096  33.251  1.00  0.00    -0.206 F 
ATOM     60  C   UNL A   1      42.711  25.244  35.325  1.00  0.00     0.040 A 
ATOM     61  C   UNL A   1      41.507  26.667  36.856  1.00  0.00     0.040 A 
ATOM     62  F   UNL A   1      41.023  28.895  36.264  1.00  0.00    -0.206 F 
ATOM     63  C   UNL A   1      42.048  25.419  36.537  1.00  0.00     0.006 A 
ENDBRANCH  42  56
BRANCH  43  64
ATOM     64  C   UNL A   1      36.665  34.201  32.576  1.00  0.00     0.057 A 
ATOM     65  C   UNL A   1      35.530  34.142  31.750  1.00  0.00     0.134 A 
ATOM     66  C   UNL A   1      36.402  34.449  33.936  1.00  0.00     0.134 A 
ATOM     67  F   UNL A   1      35.662  34.057  30.417  1.00  0.00    -0.206 F 
ATOM     68  C   UNL A   1      34.224  34.189  32.259  1.00  0.00     0.040 A 
ATOM     69  C   UNL A   1      35.105  34.463  34.464  1.00  0.00     0.040 A 
ATOM     70  F   UNL A   1      37.393  34.687  34.805  1.00  0.00    -0.206 F 
ATOM     71  C   UNL A   1      34.009  34.313  33.626  1.00  0.00     0.006 A 
ENDBRANCH  43  64
BRANCH  55  72
ATOM     72  C   UNL A   1      43.205  34.065  32.201  1.00  0.00     0.057 A 
ATOM     73  C   UNL A   1      43.759  35.155  32.878  1.00  0.00     0.134 A 
ATOM     74  C   UNL A   1      43.320  34.044  30.804  1.00  0.00     0.134 A 
ATOM     75  F   UNL A   1      43.685  35.235  34.216  1.00  0.00    -0.206 F 
ATOM     76  C   UNL A   1      44.433  36.171  32.196  1.00  0.00     0.040 A 
ATOM     77  C   UNL A   1      44.009  35.042  30.114  1.00  0.00     0.040 A 
ATOM     78  F   UNL A   1      42.794  33.040  30.084  1.00  0.00    -0.206 F 
ATOM     79  C   UNL A   1      44.573  36.108  30.811  1.00  0.00     0.006 A 
ENDBRANCH  55  72
ENDBRANCH  29  30
ENDBRANCH  22  24
ENDBRANCH  21  22
ENDBRANCH   1  21
TORSDOF 12
ENDMDL
