MODEL 1
REMARK VINA RESULT:     -11.7      0.000      0.000
REMARK SMILES Nc1c(CC(=O)OCCOC(=O)c2ccc(-c3c4nc(c(-c5c(F)cccc5F)c5ccc([nH]5)c(-c5c(F)cccc5F)c5nc(c(-c6c(F)cccc6F)c6ccc3[nH]6)C=C5)C=C4)cc2)cccc1C(=O)c1ccc(Br)cc1
REMARK SMILES IDX 8 1 7 2 5 3 6 4 4 5 3 6 2 7 70 8 67 9 69 10 68 11 1 12 71 15
REMARK SMILES IDX 72 16 73 17 74 18 79 19 75 20 78 21 76 22 77 23 9 24 10 25
REMARK SMILES IDX 11 26 12 27 13 28 14 29 66 30 15 31 65 32 16 33 17 34 18 35
REMARK SMILES IDX 59 36 19 37 64 38 58 39 60 40 20 41 63 42 57 43 56 44 21 46
REMARK SMILES IDX 47 47 30 48 46 49 31 50 34 51 45 52 61 53 32 54 33 55 44 57
REMARK SMILES IDX 62 58 35 59 22 60 23 61 28 62 24 63 25 64 27 65 29 66 26 67
REMARK SMILES IDX 48 68 49 69 54 70 50 71 51 72 53 73 55 74 52 75 36 76 37 77
REMARK SMILES IDX 42 78 38 79 39 80 41 81 43 82 40 83
REMARK H PARENT 1 13 1 14 60 45 34 56
REMARK Flexibility Score: inf
ROOT
ATOM      1  C   UNL A   1      31.031  29.153  24.877  1.00  0.00     0.274 C 
ENDROOT
BRANCH   1   2
ATOM      2  O   UNL A   1      30.936  29.268  23.444  1.00  0.00    -0.462 OA
BRANCH   2   3
ATOM      3  C   UNL A   1      31.456  28.243  22.724  1.00  0.00     0.310 C 
ATOM      4  O   UNL A   1      30.809  27.519  21.972  1.00  0.00    -0.252 OA
BRANCH   3   5
ATOM      5  C   UNL A   1      32.947  28.077  22.880  1.00  0.00     0.160 C 
BRANCH   5   6
ATOM      6  C   UNL A   1      33.427  26.911  23.714  1.00  0.00    -0.013 A 
ATOM      7  C   UNL A   1      33.637  25.636  23.150  1.00  0.00     0.047 A 
ATOM      8  C   UNL A   1      34.288  24.659  23.945  1.00  0.00     0.046 A 
ATOM      9  C   UNL A   1      33.662  27.126  25.087  1.00  0.00     0.006 A 
ATOM     10  C   UNL A   1      34.518  24.895  25.312  1.00  0.00     0.014 A 
ATOM     11  C   UNL A   1      34.181  26.114  25.885  1.00  0.00     0.001 A 
BRANCH   7  12
ATOM     12  N   UNL A   1      33.294  25.417  21.815  1.00  0.00    -0.398 N 
ATOM     13  H   UNL A   1      33.709  24.677  21.315  1.00  0.00     0.156 HD
ATOM     14  H   UNL A   1      32.637  26.003  21.373  1.00  0.00     0.156 HD
ENDBRANCH   7  12
BRANCH   8  15
ATOM     15  C   UNL A   1      34.759  23.339  23.429  1.00  0.00     0.195 C 
ATOM     16  O   UNL A   1      35.625  23.284  22.559  1.00  0.00    -0.289 OA
BRANCH  15  17
ATOM     17  C   UNL A   1      34.212  22.068  23.954  1.00  0.00     0.023 A 
ATOM     18  C   UNL A   1      32.884  21.752  23.647  1.00  0.00     0.013 A 
ATOM     19  C   UNL A   1      35.016  21.156  24.648  1.00  0.00     0.013 A 
ATOM     20  C   UNL A   1      32.379  20.492  23.970  1.00  0.00     0.016 A 
ATOM     21  C   UNL A   1      34.507  19.897  24.974  1.00  0.00     0.016 A 
ATOM     22  C   UNL A   1      33.199  19.567  24.618  1.00  0.00     0.018 A 
ATOM     23  Br  UNL A   1      32.537  17.836  24.993  1.00  0.00    -0.051 Br
ENDBRANCH  15  17
ENDBRANCH   8  15
ENDBRANCH   5   6
ENDBRANCH   3   5
ENDBRANCH   2   3
ENDBRANCH   1   2
BRANCH   1  24
ATOM     24  C   UNL A   1      31.443  30.492  25.482  1.00  0.00     0.275 C 
BRANCH  24  25
ATOM     25  O   UNL A   1      32.719  30.363  26.134  1.00  0.00    -0.458 OA
BRANCH  25  26
ATOM     26  C   UNL A   1      33.050  31.374  26.968  1.00  0.00     0.338 C 
ATOM     27  O   UNL A   1      32.409  32.377  27.226  1.00  0.00    -0.246 OA
BRANCH  26  28
ATOM     28  C   UNL A   1      34.372  31.113  27.553  1.00  0.00     0.060 A 
ATOM     29  C   UNL A   1      34.743  29.816  27.916  1.00  0.00     0.016 A 
ATOM     30  C   UNL A   1      35.203  32.194  27.840  1.00  0.00     0.016 A 
ATOM     31  C   UNL A   1      35.925  29.602  28.622  1.00  0.00     0.010 A 
ATOM     32  C   UNL A   1      36.423  31.968  28.477  1.00  0.00     0.010 A 
ATOM     33  C   UNL A   1      36.784  30.673  28.895  1.00  0.00    -0.014 A 
BRANCH  33  34
ATOM     34  C   UNL A   1      38.066  30.483  29.617  1.00  0.00     0.031 A 
ATOM     35  C   UNL A   1      39.130  29.607  29.021  1.00  0.00     0.074 A 
ATOM     36  C   UNL A   1      38.246  31.027  30.835  1.00  0.00     0.049 A 
ATOM     37  N   UNL A   1      40.171  29.060  29.592  1.00  0.00    -0.248 NA
ATOM     38  C   UNL A   1      38.992  29.292  27.590  1.00  0.00     0.031 C 
ATOM     39  C   UNL A   1      37.321  31.943  31.503  1.00  0.00     0.029 A 
ATOM     40  N   UNL A   1      39.263  30.859  31.742  1.00  0.00    -0.354 N 
ATOM     41  C   UNL A   1      40.783  28.296  28.608  1.00  0.00     0.074 A 
ATOM     42  C   UNL A   1      40.002  28.454  27.400  1.00  0.00     0.031 C 
ATOM     43  C   UNL A   1      37.804  32.247  32.718  1.00  0.00     0.029 A 
ATOM     44  C   UNL A   1      39.028  31.486  32.941  1.00  0.00     0.049 A 
ATOM     45  H   UNL A   1      40.078  30.341  31.552  1.00  0.00     0.167 HD
ATOM     46  C   UNL A   1      41.892  27.524  28.712  1.00  0.00     0.037 A 
ATOM     47  C   UNL A   1      39.690  31.407  34.111  1.00  0.00     0.037 A 
ATOM     48  C   UNL A   1      42.678  27.400  29.911  1.00  0.00     0.049 A 
ATOM     49  C   UNL A   1      40.883  30.503  34.222  1.00  0.00     0.074 A 
ATOM     50  C   UNL A   1      43.820  26.646  30.122  1.00  0.00     0.029 A 
ATOM     51  N   UNL A   1      42.407  28.059  31.100  1.00  0.00    -0.354 N 
ATOM     52  N   UNL A   1      41.426  29.739  33.306  1.00  0.00    -0.248 NA
ATOM     53  C   UNL A   1      41.545  30.435  35.532  1.00  0.00     0.031 C 
ATOM     54  C   UNL A   1      44.225  26.830  31.448  1.00  0.00     0.029 A 
ATOM     55  C   UNL A   1      43.355  27.725  32.051  1.00  0.00     0.049 A 
ATOM     56  H   UNL A   1      41.652  28.673  31.247  1.00  0.00     0.167 HD
ATOM     57  C   UNL A   1      42.504  29.118  33.920  1.00  0.00     0.074 A 
ATOM     58  C   UNL A   1      42.541  29.595  35.286  1.00  0.00     0.031 C 
ATOM     59  C   UNL A   1      43.386  28.231  33.398  1.00  0.00     0.037 A 
BRANCH  46  60
ATOM     60  C   UNL A   1      42.300  26.729  27.508  1.00  0.00     0.057 A 
ATOM     61  C   UNL A   1      43.136  27.259  26.518  1.00  0.00     0.134 A 
ATOM     62  C   UNL A   1      41.876  25.403  27.359  1.00  0.00     0.134 A 
ATOM     63  F   UNL A   1      43.564  28.528  26.596  1.00  0.00    -0.206 F 
ATOM     64  C   UNL A   1      43.526  26.499  25.413  1.00  0.00     0.040 A 
ATOM     65  C   UNL A   1      42.275  24.627  26.268  1.00  0.00     0.040 A 
ATOM     66  F   UNL A   1      41.076  24.835  28.273  1.00  0.00    -0.206 F 
ATOM     67  C   UNL A   1      43.101  25.177  25.289  1.00  0.00     0.006 A 
ENDBRANCH  46  60
BRANCH  47  68
ATOM     68  C   UNL A   1      39.203  32.174  35.285  1.00  0.00     0.057 A 
ATOM     69  C   UNL A   1      39.574  33.509  35.476  1.00  0.00     0.134 A 
ATOM     70  C   UNL A   1      38.348  31.597  36.232  1.00  0.00     0.134 A 
ATOM     71  F   UNL A   1      40.409  34.106  34.613  1.00  0.00    -0.206 F 
ATOM     72  C   UNL A   1      39.118  34.244  36.571  1.00  0.00     0.040 A 
ATOM     73  C   UNL A   1      37.865  32.327  37.319  1.00  0.00     0.040 A 
ATOM     74  F   UNL A   1      37.953  30.322  36.102  1.00  0.00    -0.206 F 
ATOM     75  C   UNL A   1      38.254  33.653  37.492  1.00  0.00     0.006 A 
ENDBRANCH  47  68
BRANCH  59  76
ATOM     76  C   UNL A   1      44.497  27.766  34.287  1.00  0.00     0.057 A 
ATOM     77  C   UNL A   1      45.696  28.478  34.402  1.00  0.00     0.134 A 
ATOM     78  C   UNL A   1      44.336  26.625  35.082  1.00  0.00     0.134 A 
ATOM     79  F   UNL A   1      45.911  29.573  33.657  1.00  0.00    -0.206 F 
ATOM     80  C   UNL A   1      46.704  28.064  35.274  1.00  0.00     0.040 A 
ATOM     81  C   UNL A   1      45.330  26.211  35.969  1.00  0.00     0.040 A 
ATOM     82  F   UNL A   1      43.206  25.905  35.019  1.00  0.00    -0.206 F 
ATOM     83  C   UNL A   1      46.518  26.933  36.066  1.00  0.00     0.006 A 
ENDBRANCH  59  76
ENDBRANCH  33  34
ENDBRANCH  26  28
ENDBRANCH  25  26
ENDBRANCH  24  25
ENDBRANCH   1  24
TORSDOF 15
ENDMDL
MODEL 2
REMARK VINA RESULT:     -11.6      2.913      7.845
REMARK SMILES Nc1c(CC(=O)OCCOC(=O)c2ccc(-c3c4nc(c(-c5c(F)cccc5F)c5ccc([nH]5)c(-c5c(F)cccc5F)c5nc(c(-c6c(F)cccc6F)c6ccc3[nH]6)C=C5)C=C4)cc2)cccc1C(=O)c1ccc(Br)cc1
REMARK SMILES IDX 8 1 7 2 5 3 6 4 4 5 3 6 2 7 70 8 67 9 69 10 68 11 1 12 71 15
REMARK SMILES IDX 72 16 73 17 74 18 79 19 75 20 78 21 76 22 77 23 9 24 10 25
REMARK SMILES IDX 11 26 12 27 13 28 14 29 66 30 15 31 65 32 16 33 17 34 18 35
REMARK SMILES IDX 59 36 19 37 64 38 58 39 60 40 20 41 63 42 57 43 56 44 21 46
REMARK SMILES IDX 47 47 30 48 46 49 31 50 34 51 45 52 61 53 32 54 33 55 44 57
REMARK SMILES IDX 62 58 35 59 22 60 23 61 28 62 24 63 25 64 27 65 29 66 26 67
REMARK SMILES IDX 48 68 49 69 54 70 50 71 51 72 53 73 55 74 52 75 36 76 37 77
REMARK SMILES IDX 42 78 38 79 39 80 41 81 43 82 40 83
REMARK H PARENT 1 13 1 14 60 45 34 56
REMARK Flexibility Score: inf
ROOT
ATOM      1  C   UNL A   1      40.605  20.408  26.455  1.00  0.00     0.274 C 
ENDROOT
BRANCH   1   2
ATOM      2  O   UNL A   1      39.642  21.448  26.715  1.00  0.00    -0.462 OA
BRANCH   2   3
ATOM      3  C   UNL A   1      38.621  21.556  25.829  1.00  0.00     0.310 C 
ATOM      4  O   UNL A   1      38.134  20.616  25.206  1.00  0.00    -0.252 OA
BRANCH   3   5
ATOM      5  C   UNL A   1      38.072  22.954  25.692  1.00  0.00     0.160 C 
BRANCH   5   6
ATOM      6  C   UNL A   1      36.721  23.101  25.031  1.00  0.00    -0.013 A 
ATOM      7  C   UNL A   1      35.543  23.278  25.787  1.00  0.00     0.047 A 
ATOM      8  C   UNL A   1      34.356  23.621  25.093  1.00  0.00     0.046 A 
ATOM      9  C   UNL A   1      36.659  23.058  23.624  1.00  0.00     0.006 A 
ATOM     10  C   UNL A   1      34.317  23.576  23.688  1.00  0.00     0.014 A 
ATOM     11  C   UNL A   1      35.458  23.269  22.959  1.00  0.00     0.001 A 
BRANCH   7  12
ATOM     12  N   UNL A   1      35.611  23.208  27.179  1.00  0.00    -0.398 N 
ATOM     13  H   UNL A   1      35.082  23.831  27.730  1.00  0.00     0.156 HD
ATOM     14  H   UNL A   1      36.189  22.538  27.611  1.00  0.00     0.156 HD
ENDBRANCH   7  12
BRANCH   8  15
ATOM     15  C   UNL A   1      33.086  24.035  25.762  1.00  0.00     0.195 C 
ATOM     16  O   UNL A   1      32.325  23.192  26.231  1.00  0.00    -0.289 OA
BRANCH  15  17
ATOM     17  C   UNL A   1      32.712  25.461  25.889  1.00  0.00     0.023 A 
ATOM     18  C   UNL A   1      33.743  26.395  26.050  1.00  0.00     0.013 A 
ATOM     19  C   UNL A   1      31.386  25.886  25.752  1.00  0.00     0.013 A 
ATOM     20  C   UNL A   1      33.455  27.759  26.000  1.00  0.00     0.016 A 
ATOM     21  C   UNL A   1      31.100  27.253  25.707  1.00  0.00     0.016 A 
ATOM     22  C   UNL A   1      32.137  28.180  25.814  1.00  0.00     0.018 A 
ATOM     23  Br  UNL A   1      31.758  30.027  25.676  1.00  0.00    -0.051 Br
ENDBRANCH  15  17
ENDBRANCH   8  15
ENDBRANCH   5   6
ENDBRANCH   3   5
ENDBRANCH   2   3
ENDBRANCH   1   2
BRANCH   1  24
ATOM     24  C   UNL A   1      41.932  21.023  26.022  1.00  0.00     0.275 C 
BRANCH  24  25
ATOM     25  O   UNL A   1      41.727  22.383  25.598  1.00  0.00    -0.458 OA
BRANCH  25  26
ATOM     26  C   UNL A   1      42.800  23.197  25.716  1.00  0.00     0.338 C 
ATOM     27  O   UNL A   1      43.907  23.057  25.228  1.00  0.00    -0.246 OA
BRANCH  26  28
ATOM     28  C   UNL A   1      42.458  24.337  26.577  1.00  0.00     0.060 A 
ATOM     29  C   UNL A   1      43.055  25.583  26.372  1.00  0.00     0.016 A 
ATOM     30  C   UNL A   1      41.614  24.125  27.665  1.00  0.00     0.016 A 
ATOM     31  C   UNL A   1      42.854  26.610  27.293  1.00  0.00     0.010 A 
ATOM     32  C   UNL A   1      41.353  25.178  28.542  1.00  0.00     0.010 A 
ATOM     33  C   UNL A   1      41.988  26.423  28.377  1.00  0.00    -0.014 A 
BRANCH  33  34
ATOM     34  C   UNL A   1      41.725  27.500  29.362  1.00  0.00     0.031 A 
ATOM     35  C   UNL A   1      42.520  27.551  30.635  1.00  0.00     0.074 A 
ATOM     36  C   UNL A   1      40.728  28.380  29.155  1.00  0.00     0.049 A 
ATOM     37  N   UNL A   1      42.267  28.190  31.747  1.00  0.00    -0.248 NA
ATOM     38  C   UNL A   1      43.762  26.761  30.663  1.00  0.00     0.031 C 
ATOM     39  C   UNL A   1      39.918  28.478  27.941  1.00  0.00     0.029 A 
ATOM     40  N   UNL A   1      40.206  29.342  29.984  1.00  0.00    -0.354 N 
ATOM     41  C   UNL A   1      43.286  27.841  32.623  1.00  0.00     0.074 A 
ATOM     42  C   UNL A   1      44.166  26.938  31.913  1.00  0.00     0.031 C 
ATOM     43  C   UNL A   1      38.993  29.437  28.105  1.00  0.00     0.029 A 
ATOM     44  C   UNL A   1      39.096  29.962  29.463  1.00  0.00     0.049 A 
ATOM     45  H   UNL A   1      40.588  29.566  30.863  1.00  0.00     0.167 HD
ATOM     46  C   UNL A   1      43.459  28.233  33.908  1.00  0.00     0.037 A 
ATOM     47  C   UNL A   1      38.221  30.810  30.035  1.00  0.00     0.037 A 
ATOM     48  C   UNL A   1      42.593  29.155  34.593  1.00  0.00     0.049 A 
ATOM     49  C   UNL A   1      38.399  31.189  31.476  1.00  0.00     0.074 A 
ATOM     50  C   UNL A   1      42.680  29.620  35.895  1.00  0.00     0.029 A 
ATOM     51  N   UNL A   1      41.485  29.764  34.024  1.00  0.00    -0.354 N 
ATOM     52  N   UNL A   1      39.330  30.813  32.318  1.00  0.00    -0.248 NA
ATOM     53  C   UNL A   1      37.395  32.093  32.054  1.00  0.00     0.031 C 
ATOM     54  C   UNL A   1      41.609  30.491  36.120  1.00  0.00     0.029 A 
ATOM     55  C   UNL A   1      40.876  30.595  34.948  1.00  0.00     0.049 A 
ATOM     56  H   UNL A   1      41.177  29.626  33.099  1.00  0.00     0.167 HD
ATOM     57  C   UNL A   1      39.040  31.451  33.516  1.00  0.00     0.074 A 
ATOM     58  C   UNL A   1      37.846  32.240  33.292  1.00  0.00     0.031 C 
ATOM     59  C   UNL A   1      39.703  31.390  34.696  1.00  0.00     0.037 A 
BRANCH  46  60
ATOM     60  C   UNL A   1      44.608  27.639  34.666  1.00  0.00     0.057 A 
ATOM     61  C   UNL A   1      45.862  28.259  34.716  1.00  0.00     0.134 A 
ATOM     62  C   UNL A   1      44.443  26.448  35.384  1.00  0.00     0.134 A 
ATOM     63  F   UNL A   1      46.088  29.394  34.038  1.00  0.00    -0.206 F 
ATOM     64  C   UNL A   1      46.918  27.706  35.444  1.00  0.00     0.040 A 
ATOM     65  C   UNL A   1      45.485  25.896  36.132  1.00  0.00     0.040 A 
ATOM     66  F   UNL A   1      43.266  25.807  35.379  1.00  0.00    -0.206 F 
ATOM     67  C   UNL A   1      46.729  26.524  36.160  1.00  0.00     0.006 A 
ENDBRANCH  46  60
BRANCH  47  68
ATOM     68  C   UNL A   1      37.069  31.320  29.249  1.00  0.00     0.057 A 
ATOM     69  C   UNL A   1      37.074  32.616  28.724  1.00  0.00     0.134 A 
ATOM     70  C   UNL A   1      35.947  30.521  28.995  1.00  0.00     0.134 A 
ATOM     71  F   UNL A   1      38.113  33.432  28.954  1.00  0.00    -0.206 F 
ATOM     72  C   UNL A   1      36.001  33.104  27.977  1.00  0.00     0.040 A 
ATOM     73  C   UNL A   1      34.878  30.988  28.230  1.00  0.00     0.040 A 
ATOM     74  F   UNL A   1      35.885  29.268  29.469  1.00  0.00    -0.206 F 
ATOM     75  C   UNL A   1      34.902  32.286  27.723  1.00  0.00     0.006 A 
ENDBRANCH  47  68
BRANCH  59  76
ATOM     76  C   UNL A   1      39.188  32.240  35.816  1.00  0.00     0.057 A 
ATOM     77  C   UNL A   1      38.287  31.744  36.764  1.00  0.00     0.134 A 
ATOM     78  C   UNL A   1      39.651  33.551  35.978  1.00  0.00     0.134 A 
ATOM     79  F   UNL A   1      37.801  30.498  36.653  1.00  0.00    -0.206 F 
ATOM     80  C   UNL A   1      37.856  32.528  37.834  1.00  0.00     0.040 A 
ATOM     81  C   UNL A   1      39.240  34.340  37.053  1.00  0.00     0.040 A 
ATOM     82  F   UNL A   1      40.521  34.079  35.103  1.00  0.00    -0.206 F 
ATOM     83  C   UNL A   1      38.339  33.827  37.984  1.00  0.00     0.006 A 
ENDBRANCH  59  76
ENDBRANCH  33  34
ENDBRANCH  26  28
ENDBRANCH  25  26
ENDBRANCH  24  25
ENDBRANCH   1  24
TORSDOF 15
ENDMDL
MODEL 3
REMARK VINA RESULT:     -11.5      1.004      1.775
REMARK SMILES Nc1c(CC(=O)OCCOC(=O)c2ccc(-c3c4nc(c(-c5c(F)cccc5F)c5ccc([nH]5)c(-c5c(F)cccc5F)c5nc(c(-c6c(F)cccc6F)c6ccc3[nH]6)C=C5)C=C4)cc2)cccc1C(=O)c1ccc(Br)cc1
REMARK SMILES IDX 8 1 7 2 5 3 6 4 4 5 3 6 2 7 70 8 67 9 69 10 68 11 1 12 71 15
REMARK SMILES IDX 72 16 73 17 74 18 79 19 75 20 78 21 76 22 77 23 9 24 10 25
REMARK SMILES IDX 11 26 12 27 13 28 14 29 66 30 15 31 65 32 16 33 17 34 18 35
REMARK SMILES IDX 59 36 19 37 64 38 58 39 60 40 20 41 63 42 57 43 56 44 21 46
REMARK SMILES IDX 47 47 30 48 46 49 31 50 34 51 45 52 61 53 32 54 33 55 44 57
REMARK SMILES IDX 62 58 35 59 22 60 23 61 28 62 24 63 25 64 27 65 29 66 26 67
REMARK SMILES IDX 48 68 49 69 54 70 50 71 51 72 53 73 55 74 52 75 36 76 37 77
REMARK SMILES IDX 42 78 38 79 39 80 41 81 43 82 40 83
REMARK H PARENT 1 13 1 14 60 45 34 56
REMARK Flexibility Score: inf
ROOT
ATOM      1  C   UNL A   1      31.478  29.318  24.095  1.00  0.00     0.274 C 
ENDROOT
BRANCH   1   2
ATOM      2  O   UNL A   1      30.194  28.708  23.862  1.00  0.00    -0.462 OA
BRANCH   2   3
ATOM      3  C   UNL A   1      30.197  27.561  23.139  1.00  0.00     0.310 C 
ATOM      4  O   UNL A   1      30.645  27.454  22.001  1.00  0.00    -0.252 OA
BRANCH   3   5
ATOM      5  C   UNL A   1      29.636  26.370  23.875  1.00  0.00     0.160 C 
BRANCH   5   6
ATOM      6  C   UNL A   1      30.628  25.445  24.544  1.00  0.00    -0.013 A 
ATOM      7  C   UNL A   1      31.366  24.494  23.807  1.00  0.00     0.047 A 
ATOM      8  C   UNL A   1      32.421  23.819  24.469  1.00  0.00     0.046 A 
ATOM      9  C   UNL A   1      30.802  25.551  25.938  1.00  0.00     0.006 A 
ATOM     10  C   UNL A   1      32.582  23.943  25.860  1.00  0.00     0.014 A 
ATOM     11  C   UNL A   1      31.757  24.784  26.595  1.00  0.00     0.001 A 
BRANCH   7  12
ATOM     12  N   UNL A   1      31.098  24.331  22.447  1.00  0.00    -0.398 N 
ATOM     13  H   UNL A   1      31.750  23.871  21.869  1.00  0.00     0.156 HD
ATOM     14  H   UNL A   1      30.258  24.675  22.065  1.00  0.00     0.156 HD
ENDBRANCH   7  12
BRANCH   8  15
ATOM     15  C   UNL A   1      33.415  22.941  23.779  1.00  0.00     0.195 C 
ATOM     16  O   UNL A   1      34.208  23.415  22.970  1.00  0.00    -0.289 OA
BRANCH  15  17
ATOM     17  C   UNL A   1      33.480  21.489  24.056  1.00  0.00     0.023 A 
ATOM     18  C   UNL A   1      32.430  20.687  23.593  1.00  0.00     0.013 A 
ATOM     19  C   UNL A   1      34.597  20.910  24.669  1.00  0.00     0.013 A 
ATOM     20  C   UNL A   1      32.530  19.298  23.677  1.00  0.00     0.016 A 
ATOM     21  C   UNL A   1      34.694  19.519  24.755  1.00  0.00     0.016 A 
ATOM     22  C   UNL A   1      33.668  18.722  24.244  1.00  0.00     0.018 A 
ATOM     23  Br  UNL A   1      33.835  16.839  24.293  1.00  0.00    -0.051 Br
ENDBRANCH  15  17
ENDBRANCH   8  15
ENDBRANCH   5   6
ENDBRANCH   3   5
ENDBRANCH   2   3
ENDBRANCH   1   2
BRANCH   1  24
ATOM     24  C   UNL A   1      31.803  29.298  25.586  1.00  0.00     0.275 C 
BRANCH  24  25
ATOM     25  O   UNL A   1      33.069  29.944  25.819  1.00  0.00    -0.458 OA
BRANCH  25  26
ATOM     26  C   UNL A   1      33.051  30.943  26.730  1.00  0.00     0.338 C 
ATOM     27  O   UNL A   1      32.211  31.812  26.876  1.00  0.00    -0.246 OA
BRANCH  26  28
ATOM     28  C   UNL A   1      34.255  30.862  27.568  1.00  0.00     0.060 A 
ATOM     29  C   UNL A   1      35.017  32.004  27.824  1.00  0.00     0.016 A 
ATOM     30  C   UNL A   1      34.681  29.612  28.009  1.00  0.00     0.016 A 
ATOM     31  C   UNL A   1      36.244  31.891  28.475  1.00  0.00     0.010 A 
ATOM     32  C   UNL A   1      35.872  29.511  28.729  1.00  0.00     0.010 A 
ATOM     33  C   UNL A   1      36.675  30.646  28.949  1.00  0.00    -0.014 A 
BRANCH  33  34
ATOM     34  C   UNL A   1      37.960  30.487  29.673  1.00  0.00     0.031 A 
ATOM     35  C   UNL A   1      39.034  29.613  29.092  1.00  0.00     0.074 A 
ATOM     36  C   UNL A   1      38.135  31.058  30.879  1.00  0.00     0.049 A 
ATOM     37  N   UNL A   1      40.084  29.092  29.673  1.00  0.00    -0.248 NA
ATOM     38  C   UNL A   1      38.899  29.268  27.668  1.00  0.00     0.031 C 
ATOM     39  C   UNL A   1      37.198  31.974  31.530  1.00  0.00     0.029 A 
ATOM     40  N   UNL A   1      39.155  30.922  31.787  1.00  0.00    -0.354 N 
ATOM     41  C   UNL A   1      40.705  28.316  28.703  1.00  0.00     0.074 A 
ATOM     42  C   UNL A   1      39.919  28.440  27.494  1.00  0.00     0.031 C 
ATOM     43  C   UNL A   1      37.679  32.310  32.738  1.00  0.00     0.029 A 
ATOM     44  C   UNL A   1      38.914  31.570  32.974  1.00  0.00     0.049 A 
ATOM     45  H   UNL A   1      39.977  30.411  31.607  1.00  0.00     0.167 HD
ATOM     46  C   UNL A   1      41.824  27.562  28.820  1.00  0.00     0.037 A 
ATOM     47  C   UNL A   1      39.578  31.523  34.145  1.00  0.00     0.037 A 
ATOM     48  C   UNL A   1      42.613  27.472  30.020  1.00  0.00     0.049 A 
ATOM     49  C   UNL A   1      40.783  30.638  34.271  1.00  0.00     0.074 A 
ATOM     50  C   UNL A   1      43.765  26.738  30.244  1.00  0.00     0.029 A 
ATOM     51  N   UNL A   1      42.335  28.152  31.196  1.00  0.00    -0.354 N 
ATOM     52  N   UNL A   1      41.335  29.862  33.370  1.00  0.00    -0.248 NA
ATOM     53  C   UNL A   1      41.448  30.605  35.581  1.00  0.00     0.031 C 
ATOM     54  C   UNL A   1      44.170  26.954  31.566  1.00  0.00     0.029 A 
ATOM     55  C   UNL A   1      43.289  27.850  32.152  1.00  0.00     0.049 A 
ATOM     56  H   UNL A   1      41.572  28.759  31.332  1.00  0.00     0.167 HD
ATOM     57  C   UNL A   1      42.423  29.269  33.994  1.00  0.00     0.074 A 
ATOM     58  C   UNL A   1      42.455  29.774  35.351  1.00  0.00     0.031 C 
ATOM     59  C   UNL A   1      43.315  28.383  33.489  1.00  0.00     0.037 A 
BRANCH  46  60
ATOM     60  C   UNL A   1      42.240  26.749  27.632  1.00  0.00     0.057 A 
ATOM     61  C   UNL A   1      41.813  25.429  27.450  1.00  0.00     0.134 A 
ATOM     62  C   UNL A   1      43.053  27.311  26.639  1.00  0.00     0.134 A 
ATOM     63  F   UNL A   1      41.045  24.829  28.372  1.00  0.00    -0.206 F 
ATOM     64  C   UNL A   1      42.191  24.690  26.327  1.00  0.00     0.040 A 
ATOM     65  C   UNL A   1      43.421  26.589  25.502  1.00  0.00     0.040 A 
ATOM     66  F   UNL A   1      43.495  28.572  26.752  1.00  0.00    -0.206 F 
ATOM     67  C   UNL A   1      42.992  25.272  25.346  1.00  0.00     0.006 A 
ENDBRANCH  46  60
BRANCH  47  68
ATOM     68  C   UNL A   1      39.083  32.307  35.304  1.00  0.00     0.057 A 
ATOM     69  C   UNL A   1      38.243  31.726  36.259  1.00  0.00     0.134 A 
ATOM     70  C   UNL A   1      39.448  33.646  35.490  1.00  0.00     0.134 A 
ATOM     71  F   UNL A   1      37.844  30.453  36.120  1.00  0.00    -0.206 F 
ATOM     72  C   UNL A   1      37.777  32.449  37.357  1.00  0.00     0.040 A 
ATOM     73  C   UNL A   1      39.009  34.375  36.596  1.00  0.00     0.040 A 
ATOM     74  F   UNL A   1      40.254  34.258  34.611  1.00  0.00    -0.206 F 
ATOM     75  C   UNL A   1      38.166  33.776  37.531  1.00  0.00     0.006 A 
ENDBRANCH  47  68
BRANCH  59  76
ATOM     76  C   UNL A   1      44.434  27.951  34.385  1.00  0.00     0.057 A 
ATOM     77  C   UNL A   1      45.626  28.677  34.478  1.00  0.00     0.134 A 
ATOM     78  C   UNL A   1      44.287  26.828  35.208  1.00  0.00     0.134 A 
ATOM     79  F   UNL A   1      45.828  29.755  33.705  1.00  0.00    -0.206 F 
ATOM     80  C   UNL A   1      46.641  28.295  35.356  1.00  0.00     0.040 A 
ATOM     81  C   UNL A   1      45.287  26.446  36.102  1.00  0.00     0.040 A 
ATOM     82  F   UNL A   1      43.163  26.096  35.167  1.00  0.00    -0.206 F 
ATOM     83  C   UNL A   1      46.468  27.181  36.177  1.00  0.00     0.006 A 
ENDBRANCH  59  76
ENDBRANCH  33  34
ENDBRANCH  26  28
ENDBRANCH  25  26
ENDBRANCH  24  25
ENDBRANCH   1  24
TORSDOF 15
ENDMDL
