MODEL 1
REMARK VINA RESULT:     -10.8      0.000      0.000
REMARK SMILES CC(C)CCn1cc(C(=O)OCCOC(=O)c2ccc(-c3c4nc(c(-c5c(F)cccc5F)c5ccc([nH]5)c(-c5c(F)cccc5F)c5nc(c(-c6c(F)cccc6F)c6ccc3[nH]6)C=C5)C=C4)cc2)c(-c2ccoc2)n1
REMARK SMILES IDX 12 1 11 2 9 3 10 4 8 5 6 6 7 7 77 8 71 9 5 10 4 11 2 12 1 13
REMARK SMILES IDX 3 14 72 15 73 16 76 17 74 18 75 19 13 20 14 21 15 22 16 23
REMARK SMILES IDX 17 24 18 25 70 26 19 27 69 28 20 29 21 30 22 31 63 32 23 33
REMARK SMILES IDX 68 34 62 35 64 36 24 37 67 38 61 39 60 40 25 42 51 43 34 44
REMARK SMILES IDX 50 45 35 46 38 47 49 48 65 49 36 50 37 51 48 53 66 54 39 55
REMARK SMILES IDX 26 56 27 57 32 58 28 59 29 60 31 61 33 62 30 63 52 64 53 65
REMARK SMILES IDX 58 66 54 67 55 68 57 69 59 70 56 71 40 72 41 73 46 74 42 75
REMARK SMILES IDX 43 76 45 77 47 78 44 79
REMARK H PARENT 64 41 38 52
REMARK Flexibility Score: inf
ROOT
ATOM      1  C   UNL A   1      37.701  21.639  24.800  1.00  0.00     0.275 C 
ENDROOT
BRANCH   1   2
ATOM      2  O   UNL A   1      36.298  21.743  24.496  1.00  0.00    -0.458 OA
BRANCH   2   3
ATOM      3  C   UNL A   1      35.411  21.742  25.542  1.00  0.00     0.342 C 
ATOM      4  O   UNL A   1      35.610  22.315  26.610  1.00  0.00    -0.246 OA
BRANCH   3   5
ATOM      5  C   UNL A   1      34.206  20.999  25.231  1.00  0.00     0.106 A 
ATOM      6  N   UNL A   1      32.868  19.376  24.573  1.00  0.00    -0.271 N 
ATOM      7  C   UNL A   1      34.171  19.766  24.599  1.00  0.00     0.125 A 
ATOM      8  N   UNL A   1      32.025  20.321  25.005  1.00  0.00    -0.172 NA
ATOM      9  C   UNL A   1      32.832  21.314  25.404  1.00  0.00     0.110 A 
BRANCH   6  10
ATOM     10  C   UNL A   1      32.359  18.065  24.217  1.00  0.00     0.144 C 
BRANCH  10  11
ATOM     11  C   UNL A   1      33.460  17.011  24.041  1.00  0.00     0.027 C 
BRANCH  11  12
ATOM     12  C   UNL A   1      33.799  16.203  25.312  1.00  0.00    -0.016 C 
ATOM     13  C   UNL A   1      32.909  14.972  25.468  1.00  0.00     0.007 C 
ATOM     14  C   UNL A   1      35.272  15.798  25.294  1.00  0.00     0.007 C 
ENDBRANCH  11  12
ENDBRANCH  10  11
ENDBRANCH   6  10
BRANCH   9  15
ATOM     15  C   UNL A   1      32.256  22.570  25.862  1.00  0.00     0.041 A 
ATOM     16  C   UNL A   1      32.141  23.775  25.134  1.00  0.00     0.052 A 
ATOM     17  C   UNL A   1      31.810  22.839  27.136  1.00  0.00     0.205 A 
ATOM     18  C   UNL A   1      31.604  24.694  26.011  1.00  0.00     0.195 A 
ATOM     19  O   UNL A   1      31.388  24.127  27.228  1.00  0.00    -0.472 OA
ENDBRANCH   9  15
ENDBRANCH   3   5
ENDBRANCH   2   3
ENDBRANCH   1   2
BRANCH   1  20
ATOM     20  C   UNL A   1      38.118  20.209  25.131  1.00  0.00     0.275 C 
BRANCH  20  21
ATOM     21  O   UNL A   1      38.954  20.173  26.286  1.00  0.00    -0.458 OA
BRANCH  21  22
ATOM     22  C   UNL A   1      40.225  19.810  26.016  1.00  0.00     0.338 C 
ATOM     23  O   UNL A   1      40.600  18.773  25.491  1.00  0.00    -0.246 OA
BRANCH  22  24
ATOM     24  C   UNL A   1      41.163  20.753  26.613  1.00  0.00     0.060 A 
ATOM     25  C   UNL A   1      41.144  20.822  28.007  1.00  0.00     0.016 A 
ATOM     26  C   UNL A   1      41.754  21.742  25.818  1.00  0.00     0.016 A 
ATOM     27  C   UNL A   1      41.534  21.992  28.608  1.00  0.00     0.010 A 
ATOM     28  C   UNL A   1      42.162  22.906  26.423  1.00  0.00     0.010 A 
ATOM     29  C   UNL A   1      41.955  23.048  27.796  1.00  0.00    -0.014 A 
BRANCH  29  30
ATOM     30  C   UNL A   1      42.263  24.304  28.452  1.00  0.00     0.031 A 
ATOM     31  C   UNL A   1      41.234  25.347  28.201  1.00  0.00     0.074 A 
ATOM     32  C   UNL A   1      43.329  24.397  29.271  1.00  0.00     0.049 A 
ATOM     33  N   UNL A   1      41.403  26.553  27.773  1.00  0.00    -0.248 NA
ATOM     34  C   UNL A   1      39.816  24.936  28.282  1.00  0.00     0.031 C 
ATOM     35  C   UNL A   1      44.236  23.317  29.684  1.00  0.00     0.029 A 
ATOM     36  N   UNL A   1      43.758  25.447  30.019  1.00  0.00    -0.354 N 
ATOM     37  C   UNL A   1      40.128  27.116  27.729  1.00  0.00     0.074 A 
ATOM     38  C   UNL A   1      39.190  26.040  27.882  1.00  0.00     0.031 C 
ATOM     39  C   UNL A   1      44.919  23.702  30.784  1.00  0.00     0.029 A 
ATOM     40  C   UNL A   1      44.593  25.085  31.071  1.00  0.00     0.049 A 
ATOM     41  H   UNL A   1      43.501  26.379  29.833  1.00  0.00     0.167 HD
ATOM     42  C   UNL A   1      39.959  28.457  27.856  1.00  0.00     0.037 A 
ATOM     43  C   UNL A   1      44.884  25.846  32.155  1.00  0.00     0.037 A 
ATOM     44  C   UNL A   1      41.141  29.166  27.442  1.00  0.00     0.049 A 
ATOM     45  C   UNL A   1      44.530  27.250  31.820  1.00  0.00     0.074 A 
ATOM     46  C   UNL A   1      41.836  29.275  26.254  1.00  0.00     0.029 A 
ATOM     47  N   UNL A   1      41.992  29.613  28.421  1.00  0.00    -0.354 N 
ATOM     48  N   UNL A   1      45.168  27.961  30.931  1.00  0.00    -0.248 NA
ATOM     49  C   UNL A   1      43.174  27.688  32.113  1.00  0.00     0.031 C 
ATOM     50  C   UNL A   1      43.209  29.338  26.632  1.00  0.00     0.029 A 
ATOM     51  C   UNL A   1      43.273  29.330  28.026  1.00  0.00     0.049 A 
ATOM     52  H   UNL A   1      41.729  30.058  29.259  1.00  0.00     0.167 HD
ATOM     53  C   UNL A   1      44.172  28.647  30.247  1.00  0.00     0.074 A 
ATOM     54  C   UNL A   1      42.973  28.496  31.068  1.00  0.00     0.031 C 
ATOM     55  C   UNL A   1      44.343  29.021  28.945  1.00  0.00     0.037 A 
BRANCH  42  56
ATOM     56  C   UNL A   1      38.925  29.060  28.779  1.00  0.00     0.057 A 
ATOM     57  C   UNL A   1      38.956  28.716  30.142  1.00  0.00     0.134 A 
ATOM     58  C   UNL A   1      37.732  29.681  28.349  1.00  0.00     0.134 A 
ATOM     59  F   UNL A   1      40.035  28.127  30.679  1.00  0.00    -0.206 F 
ATOM     60  C   UNL A   1      37.844  28.870  30.980  1.00  0.00     0.040 A 
ATOM     61  C   UNL A   1      36.633  29.880  29.188  1.00  0.00     0.040 A 
ATOM     62  F   UNL A   1      37.514  30.042  27.080  1.00  0.00    -0.206 F 
ATOM     63  C   UNL A   1      36.673  29.437  30.498  1.00  0.00     0.006 A 
ENDBRANCH  42  56
BRANCH  43  64
ATOM     64  C   UNL A   1      45.082  25.378  33.546  1.00  0.00     0.057 A 
ATOM     65  C   UNL A   1      46.078  25.918  34.368  1.00  0.00     0.134 A 
ATOM     66  C   UNL A   1      44.135  24.553  34.184  1.00  0.00     0.134 A 
ATOM     67  F   UNL A   1      46.992  26.760  33.866  1.00  0.00    -0.206 F 
ATOM     68  C   UNL A   1      46.134  25.648  35.744  1.00  0.00     0.040 A 
ATOM     69  C   UNL A   1      44.184  24.269  35.552  1.00  0.00     0.040 A 
ATOM     70  F   UNL A   1      43.082  24.061  33.516  1.00  0.00    -0.206 F 
ATOM     71  C   UNL A   1      45.182  24.824  36.340  1.00  0.00     0.006 A 
ENDBRANCH  43  64
BRANCH  55  72
ATOM     72  C   UNL A   1      45.717  28.879  28.351  1.00  0.00     0.057 A 
ATOM     73  C   UNL A   1      46.183  27.717  27.715  1.00  0.00     0.134 A 
ATOM     74  C   UNL A   1      46.536  30.009  28.282  1.00  0.00     0.134 A 
ATOM     75  F   UNL A   1      45.424  26.616  27.643  1.00  0.00    -0.206 F 
ATOM     76  C   UNL A   1      47.426  27.674  27.077  1.00  0.00     0.040 A 
ATOM     77  C   UNL A   1      47.764  29.990  27.617  1.00  0.00     0.040 A 
ATOM     78  F   UNL A   1      46.130  31.172  28.815  1.00  0.00    -0.206 F 
ATOM     79  C   UNL A   1      48.218  28.816  27.020  1.00  0.00     0.006 A 
ENDBRANCH  55  72
ENDBRANCH  29  30
ENDBRANCH  22  24
ENDBRANCH  21  22
ENDBRANCH  20  21
ENDBRANCH   1  20
TORSDOF 15
ENDMDL
MODEL 2
REMARK VINA RESULT:     -10.7      4.046      8.356
REMARK SMILES CC(C)CCn1cc(C(=O)OCCOC(=O)c2ccc(-c3c4nc(c(-c5c(F)cccc5F)c5ccc([nH]5)c(-c5c(F)cccc5F)c5nc(c(-c6c(F)cccc6F)c6ccc3[nH]6)C=C5)C=C4)cc2)c(-c2ccoc2)n1
REMARK SMILES IDX 12 1 11 2 9 3 10 4 8 5 6 6 7 7 77 8 71 9 5 10 4 11 2 12 1 13
REMARK SMILES IDX 3 14 72 15 73 16 76 17 74 18 75 19 13 20 14 21 15 22 16 23
REMARK SMILES IDX 17 24 18 25 70 26 19 27 69 28 20 29 21 30 22 31 63 32 23 33
REMARK SMILES IDX 68 34 62 35 64 36 24 37 67 38 61 39 60 40 25 42 51 43 34 44
REMARK SMILES IDX 50 45 35 46 38 47 49 48 65 49 36 50 37 51 48 53 66 54 39 55
REMARK SMILES IDX 26 56 27 57 32 58 28 59 29 60 31 61 33 62 30 63 52 64 53 65
REMARK SMILES IDX 58 66 54 67 55 68 57 69 59 70 56 71 40 72 41 73 46 74 42 75
REMARK SMILES IDX 43 76 45 77 47 78 44 79
REMARK H PARENT 64 41 38 52
REMARK Flexibility Score: inf
ROOT
ATOM      1  C   UNL A   1      33.073  29.791  27.043  1.00  0.00     0.275 C 
ENDROOT
BRANCH   1   2
ATOM      2  O   UNL A   1      32.158  29.651  25.941  1.00  0.00    -0.458 OA
BRANCH   2   3
ATOM      3  C   UNL A   1      32.621  29.068  24.790  1.00  0.00     0.342 C 
ATOM      4  O   UNL A   1      33.792  28.749  24.605  1.00  0.00    -0.246 OA
BRANCH   3   5
ATOM      5  C   UNL A   1      31.561  28.859  23.823  1.00  0.00     0.106 A 
ATOM      6  N   UNL A   1      29.732  29.170  22.633  1.00  0.00    -0.271 N 
ATOM      7  C   UNL A   1      30.425  29.644  23.703  1.00  0.00     0.125 A 
ATOM      8  N   UNL A   1      30.246  28.042  22.129  1.00  0.00    -0.172 NA
ATOM      9  C   UNL A   1      31.357  27.844  22.850  1.00  0.00     0.110 A 
BRANCH   6  10
ATOM     10  C   UNL A   1      28.600  29.801  21.981  1.00  0.00     0.144 C 
BRANCH  10  11
ATOM     11  C   UNL A   1      28.833  31.281  21.652  1.00  0.00     0.027 C 
BRANCH  11  12
ATOM     12  C   UNL A   1      28.095  32.277  22.571  1.00  0.00    -0.016 C 
ATOM     13  C   UNL A   1      27.358  31.576  23.711  1.00  0.00     0.007 C 
ATOM     14  C   UNL A   1      29.082  33.304  23.126  1.00  0.00     0.007 C 
ENDBRANCH  11  12
ENDBRANCH  10  11
ENDBRANCH   6  10
BRANCH   9  15
ATOM     15  C   UNL A   1      32.146  26.639  22.641  1.00  0.00     0.041 A 
ATOM     16  C   UNL A   1      32.190  25.490  23.462  1.00  0.00     0.052 A 
ATOM     17  C   UNL A   1      33.080  26.445  21.649  1.00  0.00     0.205 A 
ATOM     18  C   UNL A   1      33.132  24.658  22.894  1.00  0.00     0.195 A 
ATOM     19  O   UNL A   1      33.669  25.228  21.782  1.00  0.00    -0.472 OA
ENDBRANCH   9  15
ENDBRANCH   3   5
ENDBRANCH   2   3
ENDBRANCH   1   2
BRANCH   1  20
ATOM     20  C   UNL A   1      33.549  31.230  27.223  1.00  0.00     0.275 C 
BRANCH  20  21
ATOM     21  O   UNL A   1      34.227  31.394  28.466  1.00  0.00    -0.458 OA
BRANCH  21  22
ATOM     22  C   UNL A   1      35.440  31.972  28.341  1.00  0.00     0.338 C 
ATOM     23  O   UNL A   1      35.747  32.888  27.594  1.00  0.00    -0.246 OA
BRANCH  22  24
ATOM     24  C   UNL A   1      36.439  31.230  29.099  1.00  0.00     0.060 A 
ATOM     25  C   UNL A   1      37.531  31.974  29.550  1.00  0.00     0.016 A 
ATOM     26  C   UNL A   1      36.451  29.831  29.049  1.00  0.00     0.016 A 
ATOM     27  C   UNL A   1      38.722  31.327  29.756  1.00  0.00     0.010 A 
ATOM     28  C   UNL A   1      37.640  29.182  29.274  1.00  0.00     0.010 A 
ATOM     29  C   UNL A   1      38.778  29.949  29.529  1.00  0.00    -0.014 A 
BRANCH  29  30
ATOM     30  C   UNL A   1      40.073  29.311  29.655  1.00  0.00     0.031 A 
ATOM     31  C   UNL A   1      40.563  29.284  31.059  1.00  0.00     0.074 A 
ATOM     32  C   UNL A   1      40.652  28.734  28.583  1.00  0.00     0.049 A 
ATOM     33  N   UNL A   1      41.705  29.676  31.516  1.00  0.00    -0.248 NA
ATOM     34  C   UNL A   1      39.590  28.924  32.111  1.00  0.00     0.031 C 
ATOM     35  C   UNL A   1      40.084  28.579  27.236  1.00  0.00     0.029 A 
ATOM     36  N   UNL A   1      41.818  28.042  28.495  1.00  0.00    -0.354 N 
ATOM     37  C   UNL A   1      41.665  29.419  32.886  1.00  0.00     0.074 A 
ATOM     38  C   UNL A   1      40.300  29.125  33.218  1.00  0.00     0.031 C 
ATOM     39  C   UNL A   1      40.775  27.631  26.565  1.00  0.00     0.029 A 
ATOM     40  C   UNL A   1      41.897  27.212  27.382  1.00  0.00     0.049 A 
ATOM     41  H   UNL A   1      42.541  28.121  29.159  1.00  0.00     0.167 HD
ATOM     42  C   UNL A   1      42.810  29.191  33.581  1.00  0.00     0.037 A 
ATOM     43  C   UNL A   1      42.760  26.178  27.219  1.00  0.00     0.037 A 
ATOM     44  C   UNL A   1      43.936  29.812  32.934  1.00  0.00     0.049 A 
ATOM     45  C   UNL A   1      43.860  26.358  28.202  1.00  0.00     0.074 A 
ATOM     46  C   UNL A   1      44.276  31.113  32.624  1.00  0.00     0.029 A 
ATOM     47  N   UNL A   1      44.749  29.014  32.168  1.00  0.00    -0.354 N 
ATOM     48  N   UNL A   1      44.733  27.325  28.135  1.00  0.00    -0.248 NA
ATOM     49  C   UNL A   1      43.689  25.762  29.518  1.00  0.00     0.031 C 
ATOM     50  C   UNL A   1      44.938  31.033  31.365  1.00  0.00     0.029 A 
ATOM     51  C   UNL A   1      45.023  29.687  31.007  1.00  0.00     0.049 A 
ATOM     52  H   UNL A   1      45.077  28.119  32.410  1.00  0.00     0.167 HD
ATOM     53  C   UNL A   1      44.894  27.746  29.450  1.00  0.00     0.074 A 
ATOM     54  C   UNL A   1      44.284  26.697  30.263  1.00  0.00     0.031 C 
ATOM     55  C   UNL A   1      45.244  29.034  29.738  1.00  0.00     0.037 A 
BRANCH  42  56
ATOM     56  C   UNL A   1      42.954  28.040  34.550  1.00  0.00     0.057 A 
ATOM     57  C   UNL A   1      42.964  26.729  34.042  1.00  0.00     0.134 A 
ATOM     58  C   UNL A   1      42.755  28.136  35.944  1.00  0.00     0.134 A 
ATOM     59  F   UNL A   1      43.152  26.499  32.733  1.00  0.00    -0.206 F 
ATOM     60  C   UNL A   1      42.680  25.613  34.839  1.00  0.00     0.040 A 
ATOM     61  C   UNL A   1      42.515  27.026  36.756  1.00  0.00     0.040 A 
ATOM     62  F   UNL A   1      42.681  29.304  36.592  1.00  0.00    -0.206 F 
ATOM     63  C   UNL A   1      42.437  25.762  36.197  1.00  0.00     0.006 A 
ENDBRANCH  42  56
BRANCH  43  64
ATOM     64  C   UNL A   1      42.486  24.886  26.548  1.00  0.00     0.057 A 
ATOM     65  C   UNL A   1      43.283  24.422  25.495  1.00  0.00     0.134 A 
ATOM     66  C   UNL A   1      41.575  23.957  27.087  1.00  0.00     0.134 A 
ATOM     67  F   UNL A   1      44.220  25.213  24.952  1.00  0.00    -0.206 F 
ATOM     68  C   UNL A   1      43.176  23.114  25.001  1.00  0.00     0.040 A 
ATOM     69  C   UNL A   1      41.452  22.653  26.600  1.00  0.00     0.040 A 
ATOM     70  F   UNL A   1      40.830  24.259  28.160  1.00  0.00    -0.206 F 
ATOM     71  C   UNL A   1      42.261  22.223  25.557  1.00  0.00     0.006 A 
ENDBRANCH  43  64
BRANCH  55  72
ATOM     72  C   UNL A   1      45.676  29.913  28.597  1.00  0.00     0.057 A 
ATOM     73  C   UNL A   1      44.796  30.689  27.825  1.00  0.00     0.134 A 
ATOM     74  C   UNL A   1      47.044  30.101  28.377  1.00  0.00     0.134 A 
ATOM     75  F   UNL A   1      43.475  30.651  28.034  1.00  0.00    -0.206 F 
ATOM     76  C   UNL A   1      45.260  31.579  26.852  1.00  0.00     0.040 A 
ATOM     77  C   UNL A   1      47.520  31.012  27.433  1.00  0.00     0.040 A 
ATOM     78  F   UNL A   1      47.945  29.438  29.120  1.00  0.00    -0.206 F 
ATOM     79  C   UNL A   1      46.627  31.748  26.658  1.00  0.00     0.006 A 
ENDBRANCH  55  72
ENDBRANCH  29  30
ENDBRANCH  22  24
ENDBRANCH  21  22
ENDBRANCH  20  21
ENDBRANCH   1  20
TORSDOF 15
ENDMDL
MODEL 3
REMARK VINA RESULT:     -10.6      3.542      7.922
REMARK SMILES CC(C)CCn1cc(C(=O)OCCOC(=O)c2ccc(-c3c4nc(c(-c5c(F)cccc5F)c5ccc([nH]5)c(-c5c(F)cccc5F)c5nc(c(-c6c(F)cccc6F)c6ccc3[nH]6)C=C5)C=C4)cc2)c(-c2ccoc2)n1
REMARK SMILES IDX 12 1 11 2 9 3 10 4 8 5 6 6 7 7 77 8 71 9 5 10 4 11 2 12 1 13
REMARK SMILES IDX 3 14 72 15 73 16 76 17 74 18 75 19 13 20 14 21 15 22 16 23
REMARK SMILES IDX 17 24 18 25 70 26 19 27 69 28 20 29 21 30 22 31 63 32 23 33
REMARK SMILES IDX 68 34 62 35 64 36 24 37 67 38 61 39 60 40 25 42 51 43 34 44
REMARK SMILES IDX 50 45 35 46 38 47 49 48 65 49 36 50 37 51 48 53 66 54 39 55
REMARK SMILES IDX 26 56 27 57 32 58 28 59 29 60 31 61 33 62 30 63 52 64 53 65
REMARK SMILES IDX 58 66 54 67 55 68 57 69 59 70 56 71 40 72 41 73 46 74 42 75
REMARK SMILES IDX 43 76 45 77 47 78 44 79
REMARK H PARENT 64 41 38 52
REMARK Flexibility Score: inf
ROOT
ATOM      1  C   UNL A   1      34.349  28.946  27.211  1.00  0.00     0.275 C 
ENDROOT
BRANCH   1   2
ATOM      2  O   UNL A   1      32.971  29.361  27.238  1.00  0.00    -0.458 OA
BRANCH   2   3
ATOM      3  C   UNL A   1      32.004  28.390  27.185  1.00  0.00     0.342 C 
ATOM      4  O   UNL A   1      31.582  27.788  28.169  1.00  0.00    -0.246 OA
BRANCH   3   5
ATOM      5  C   UNL A   1      31.529  28.170  25.833  1.00  0.00     0.106 A 
ATOM      6  N   UNL A   1      30.829  28.557  23.779  1.00  0.00    -0.271 N 
ATOM      7  C   UNL A   1      31.113  29.165  24.962  1.00  0.00     0.125 A 
ATOM      8  N   UNL A   1      30.884  27.221  23.845  1.00  0.00    -0.172 NA
ATOM      9  C   UNL A   1      31.305  26.978  25.093  1.00  0.00     0.110 A 
BRANCH   6  10
ATOM     10  C   UNL A   1      30.573  29.206  22.508  1.00  0.00     0.144 C 
BRANCH  10  11
ATOM     11  C   UNL A   1      29.104  29.602  22.310  1.00  0.00     0.027 C 
BRANCH  11  12
ATOM     12  C   UNL A   1      28.816  31.114  22.421  1.00  0.00    -0.016 C 
ATOM     13  C   UNL A   1      28.546  31.752  21.060  1.00  0.00     0.007 C 
ATOM     14  C   UNL A   1      27.638  31.353  23.365  1.00  0.00     0.007 C 
ENDBRANCH  11  12
ENDBRANCH  10  11
ENDBRANCH   6  10
BRANCH   9  15
ATOM     15  C   UNL A   1      31.400  25.605  25.566  1.00  0.00     0.041 A 
ATOM     16  C   UNL A   1      30.344  24.773  26.001  1.00  0.00     0.052 A 
ATOM     17  C   UNL A   1      32.563  24.898  25.774  1.00  0.00     0.205 A 
ATOM     18  C   UNL A   1      30.936  23.601  26.420  1.00  0.00     0.195 A 
ATOM     19  O   UNL A   1      32.286  23.665  26.273  1.00  0.00    -0.472 OA
ENDBRANCH   9  15
ENDBRANCH   3   5
ENDBRANCH   2   3
ENDBRANCH   1   2
BRANCH   1  20
ATOM     20  C   UNL A   1      35.311  30.116  27.390  1.00  0.00     0.275 C 
BRANCH  20  21
ATOM     21  O   UNL A   1      35.897  30.104  28.690  1.00  0.00    -0.458 OA
BRANCH  21  22
ATOM     22  C   UNL A   1      37.172  30.547  28.706  1.00  0.00     0.338 C 
ATOM     23  O   UNL A   1      37.552  31.695  28.871  1.00  0.00    -0.246 OA
BRANCH  22  24
ATOM     24  C   UNL A   1      38.085  29.485  28.302  1.00  0.00     0.060 A 
ATOM     25  C   UNL A   1      38.115  28.365  29.135  1.00  0.00     0.016 A 
ATOM     26  C   UNL A   1      39.088  29.752  27.363  1.00  0.00     0.016 A 
ATOM     27  C   UNL A   1      39.262  27.614  29.179  1.00  0.00     0.010 A 
ATOM     28  C   UNL A   1      40.229  28.987  27.394  1.00  0.00     0.010 A 
ATOM     29  C   UNL A   1      40.335  27.992  28.368  1.00  0.00    -0.014 A 
BRANCH  29  30
ATOM     30  C   UNL A   1      41.567  27.242  28.511  1.00  0.00     0.031 A 
ATOM     31  C   UNL A   1      42.321  27.610  29.739  1.00  0.00     0.074 A 
ATOM     32  C   UNL A   1      41.868  26.260  27.639  1.00  0.00     0.049 A 
ATOM     33  N   UNL A   1      43.561  27.953  29.845  1.00  0.00    -0.248 NA
ATOM     34  C   UNL A   1      41.547  27.775  30.987  1.00  0.00     0.031 C 
ATOM     35  C   UNL A   1      41.033  25.753  26.540  1.00  0.00     0.029 A 
ATOM     36  N   UNL A   1      42.927  25.409  27.624  1.00  0.00    -0.354 N 
ATOM     37  C   UNL A   1      43.771  28.178  31.205  1.00  0.00     0.074 A 
ATOM     38  C   UNL A   1      42.478  28.223  31.826  1.00  0.00     0.031 C 
ATOM     39  C   UNL A   1      41.490  24.542  26.152  1.00  0.00     0.029 A 
ATOM     40  C   UNL A   1      42.710  24.253  26.881  1.00  0.00     0.049 A 
ATOM     41  H   UNL A   1      43.771  25.593  28.096  1.00  0.00     0.167 HD
ATOM     42  C   UNL A   1      45.005  28.022  31.750  1.00  0.00     0.037 A 
ATOM     43  C   UNL A   1      43.427  23.105  26.966  1.00  0.00     0.037 A 
ATOM     44  C   UNL A   1      46.031  28.211  30.758  1.00  0.00     0.049 A 
ATOM     45  C   UNL A   1      44.711  23.432  27.637  1.00  0.00     0.074 A 
ATOM     46  C   UNL A   1      46.419  29.266  29.957  1.00  0.00     0.029 A 
ATOM     47  N   UNL A   1      46.602  27.090  30.211  1.00  0.00    -0.354 N 
ATOM     48  N   UNL A   1      45.637  24.176  27.097  1.00  0.00    -0.248 NA
ATOM     49  C   UNL A   1      44.752  23.342  29.089  1.00  0.00     0.031 C 
ATOM     50  C   UNL A   1      46.809  28.671  28.723  1.00  0.00     0.029 A 
ATOM     51  C   UNL A   1      46.700  27.286  28.859  1.00  0.00     0.049 A 
ATOM     52  H   UNL A   1      46.891  26.287  30.702  1.00  0.00     0.167 HD
ATOM     53  C   UNL A   1      46.093  24.981  28.134  1.00  0.00     0.074 A 
ATOM     54  C   UNL A   1      45.564  24.370  29.352  1.00  0.00     0.031 C 
ATOM     55  C   UNL A   1      46.606  26.222  27.888  1.00  0.00     0.037 A 
BRANCH  42  56
ATOM     56  C   UNL A   1      45.235  27.252  33.030  1.00  0.00     0.057 A 
ATOM     57  C   UNL A   1      44.697  25.958  33.144  1.00  0.00     0.134 A 
ATOM     58  C   UNL A   1      45.661  27.829  34.246  1.00  0.00     0.134 A 
ATOM     59  F   UNL A   1      44.262  25.295  32.061  1.00  0.00    -0.206 F 
ATOM     60  C   UNL A   1      44.491  25.338  34.382  1.00  0.00     0.040 A 
ATOM     61  C   UNL A   1      45.501  27.200  35.483  1.00  0.00     0.040 A 
ATOM     62  F   UNL A   1      46.164  29.065  34.331  1.00  0.00    -0.206 F 
ATOM     63  C   UNL A   1      44.877  25.967  35.558  1.00  0.00     0.006 A 
ENDBRANCH  42  56
BRANCH  43  64
ATOM     64  C   UNL A   1      42.912  21.721  26.849  1.00  0.00     0.057 A 
ATOM     65  C   UNL A   1      41.798  21.288  27.577  1.00  0.00     0.134 A 
ATOM     66  C   UNL A   1      43.358  20.855  25.831  1.00  0.00     0.134 A 
ATOM     67  F   UNL A   1      41.263  22.066  28.529  1.00  0.00    -0.206 F 
ATOM     68  C   UNL A   1      41.167  20.063  27.315  1.00  0.00     0.040 A 
ATOM     69  C   UNL A   1      42.744  19.628  25.564  1.00  0.00     0.040 A 
ATOM     70  F   UNL A   1      44.354  21.209  25.007  1.00  0.00    -0.206 F 
ATOM     71  C   UNL A   1      41.638  19.230  26.303  1.00  0.00     0.006 A 
ENDBRANCH  43  64
BRANCH  55  72
ATOM     72  C   UNL A   1      46.881  26.593  26.456  1.00  0.00     0.057 A 
ATOM     73  C   UNL A   1      45.986  27.309  25.645  1.00  0.00     0.134 A 
ATOM     74  C   UNL A   1      48.156  26.355  25.936  1.00  0.00     0.134 A 
ATOM     75  F   UNL A   1      44.779  27.671  26.096  1.00  0.00    -0.206 F 
ATOM     76  C   UNL A   1      46.336  27.731  24.358  1.00  0.00     0.040 A 
ATOM     77  C   UNL A   1      48.529  26.801  24.666  1.00  0.00     0.040 A 
ATOM     78  F   UNL A   1      49.083  25.729  26.678  1.00  0.00    -0.206 F 
ATOM     79  C   UNL A   1      47.614  27.484  23.868  1.00  0.00     0.006 A 
ENDBRANCH  55  72
ENDBRANCH  29  30
ENDBRANCH  22  24
ENDBRANCH  21  22
ENDBRANCH  20  21
ENDBRANCH   1  20
TORSDOF 15
ENDMDL
