MODEL 1
REMARK VINA RESULT:     -13.8      0.000      0.000
REMARK SMILES C[C@]12c3ccccc3[C@](C)(c3ccccc31)[C@@H]1C(=O)N(c3ccc(C(=O)OCCOC(=O)c4ccc(-c5c6nc(c(-c7c(F)cccc7F)c7ccc([nH]7)c(-c7c(F)cccc7F)c7nc(c(-c8c(F)cccc8F)c8ccc5[nH]8)C=C7)C=C6)cc4)cc3)C(=O)[C@H]12
REMARK SMILES IDX 29 1 28 2 27 3 25 4 26 5 24 6 21 7 22 8 88 9 23 10 87 11
REMARK SMILES IDX 20 12 1 13 2 14 16 15 3 16 91 17 15 18 11 19 8 20 4 21 17 22
REMARK SMILES IDX 89 23 14 24 12 25 9 26 7 27 5 28 18 29 90 30 13 31 10 32
REMARK SMILES IDX 6 33 19 34 30 35 31 36 32 37 33 38 34 39 86 40 35 41 85 42
REMARK SMILES IDX 36 43 37 44 38 45 79 46 39 47 84 48 78 49 80 50 40 51 83 52
REMARK SMILES IDX 77 53 76 54 41 56 67 57 50 58 66 59 51 60 54 61 65 62 81 63
REMARK SMILES IDX 52 64 53 65 64 67 82 68 55 69 42 70 43 71 48 72 44 73 45 74
REMARK SMILES IDX 47 75 49 76 46 77 68 78 69 79 74 80 70 81 71 82 73 83 75 84
REMARK SMILES IDX 72 85 56 86 57 87 62 88 58 89 59 90 61 91 63 92 60 93
REMARK H PARENT 80 55 54 66
REMARK Flexibility Score: inf
ROOT
ATOM      1  C   UNL A   1      44.114  22.292  24.532  1.00  0.00     0.275 C 
ENDROOT
BRANCH   1   2
ATOM      2  C   UNL A   1      43.774  21.333  25.675  1.00  0.00     0.275 C 
BRANCH   2   3
ATOM      3  O   UNL A   1      42.568  20.593  25.393  1.00  0.00    -0.458 OA
BRANCH   3   4
ATOM      4  C   UNL A   1      41.786  20.293  26.462  1.00  0.00     0.338 C 
ATOM      5  O   UNL A   1      42.157  19.842  27.529  1.00  0.00    -0.246 OA
BRANCH   4   6
ATOM      6  C   UNL A   1      40.388  20.733  26.216  1.00  0.00     0.060 A 
ATOM      7  C   UNL A   1      37.865  21.773  25.609  1.00  0.00     0.052 A 
ATOM      8  C   UNL A   1      38.810  22.579  26.237  1.00  0.00     0.028 A 
ATOM      9  C   UNL A   1      38.157  20.432  25.328  1.00  0.00     0.028 A 
ATOM     10  C   UNL A   1      40.040  22.036  26.599  1.00  0.00     0.018 A 
ATOM     11  C   UNL A   1      39.434  19.922  25.593  1.00  0.00     0.018 A 
BRANCH   7  12
ATOM     12  N   UNL A   1      36.611  22.307  25.299  1.00  0.00    -0.250 N 
ATOM     13  C   UNL A   1      34.120  26.034  25.942  1.00  0.00     0.022 C 
ATOM     14  C   UNL A   1      33.743  24.767  25.175  1.00  0.00     0.030 C 
ATOM     15  C   UNL A   1      33.496  24.961  23.655  1.00  0.00    -0.033 A 
ATOM     16  C   UNL A   1      32.438  24.073  25.681  1.00  0.00    -0.033 A 
ATOM     17  C   UNL A   1      34.741  23.609  25.427  1.00  0.00     0.108 C 
ATOM     18  C   UNL A   1      33.609  26.154  22.949  1.00  0.00     0.005 A 
ATOM     19  C   UNL A   1      33.078  23.767  22.966  1.00  0.00    -0.033 A 
ATOM     20  C   UNL A   1      32.175  22.816  25.036  1.00  0.00    -0.033 A 
ATOM     21  C   UNL A   1      31.588  24.549  26.677  1.00  0.00     0.005 A 
ATOM     22  C   UNL A   1      34.612  22.596  24.282  1.00  0.00     0.108 C 
ATOM     23  C   UNL A   1      36.232  23.624  25.582  1.00  0.00     0.238 C 
ATOM     24  C   UNL A   1      33.315  26.169  21.583  1.00  0.00     0.000 A 
ATOM     25  C   UNL A   1      32.774  23.800  21.608  1.00  0.00     0.005 A 
ATOM     26  C   UNL A   1      33.131  22.488  23.861  1.00  0.00     0.030 C 
ATOM     27  C   UNL A   1      31.074  22.061  25.430  1.00  0.00     0.005 A 
ATOM     28  C   UNL A   1      30.485  23.780  27.049  1.00  0.00     0.000 A 
ATOM     29  C   UNL A   1      35.583  21.555  24.729  1.00  0.00     0.238 C 
ATOM     30  O   UNL A   1      36.907  24.550  25.993  1.00  0.00    -0.274 OA
ATOM     31  C   UNL A   1      32.896  25.007  20.922  1.00  0.00     0.000 A 
ATOM     32  C   UNL A   1      32.842  21.176  23.136  1.00  0.00     0.022 C 
ATOM     33  C   UNL A   1      30.236  22.546  26.438  1.00  0.00     0.000 A 
ATOM     34  O   UNL A   1      35.521  20.357  24.522  1.00  0.00    -0.274 OA
ENDBRANCH   7  12
ENDBRANCH   4   6
ENDBRANCH   3   4
ENDBRANCH   2   3
ENDBRANCH   1   2
BRANCH   1  35
ATOM     35  O   UNL A   1      43.470  23.565  24.729  1.00  0.00    -0.458 OA
BRANCH  35  36
ATOM     36  C   UNL A   1      44.273  24.579  25.123  1.00  0.00     0.338 C 
ATOM     37  O   UNL A   1      45.324  24.939  24.621  1.00  0.00    -0.246 OA
BRANCH  36  38
ATOM     38  C   UNL A   1      43.619  25.302  26.223  1.00  0.00     0.060 A 
ATOM     39  C   UNL A   1      42.681  24.698  27.056  1.00  0.00     0.016 A 
ATOM     40  C   UNL A   1      44.034  26.607  26.471  1.00  0.00     0.016 A 
ATOM     41  C   UNL A   1      42.142  25.434  28.121  1.00  0.00     0.010 A 
ATOM     42  C   UNL A   1      43.536  27.324  27.555  1.00  0.00     0.010 A 
ATOM     43  C   UNL A   1      42.567  26.753  28.386  1.00  0.00    -0.014 A 
BRANCH  43  44
ATOM     44  C   UNL A   1      42.031  27.523  29.544  1.00  0.00     0.031 A 
ATOM     45  C   UNL A   1      42.688  27.450  30.899  1.00  0.00     0.074 A 
ATOM     46  C   UNL A   1      40.911  28.256  29.390  1.00  0.00     0.049 A 
ATOM     47  N   UNL A   1      42.377  28.087  32.004  1.00  0.00    -0.248 NA
ATOM     48  C   UNL A   1      43.819  26.523  31.048  1.00  0.00     0.031 C 
ATOM     49  C   UNL A   1      40.115  28.337  28.164  1.00  0.00     0.029 A 
ATOM     50  N   UNL A   1      40.252  29.081  30.268  1.00  0.00    -0.354 N 
ATOM     51  C   UNL A   1      43.263  27.627  32.973  1.00  0.00     0.074 A 
ATOM     52  C   UNL A   1      44.085  26.618  32.343  1.00  0.00     0.031 C 
ATOM     53  C   UNL A   1      39.110  29.209  28.349  1.00  0.00     0.029 A 
ATOM     54  C   UNL A   1      39.174  29.728  29.711  1.00  0.00     0.049 A 
ATOM     55  H   UNL A   1      40.523  29.196  31.207  1.00  0.00     0.167 HD
ATOM     56  C   UNL A   1      43.401  28.030  34.260  1.00  0.00     0.037 A 
ATOM     57  C   UNL A   1      38.345  30.651  30.233  1.00  0.00     0.037 A 
ATOM     58  C   UNL A   1      42.612  29.063  34.879  1.00  0.00     0.049 A 
ATOM     59  C   UNL A   1      38.547  31.110  31.651  1.00  0.00     0.074 A 
ATOM     60  C   UNL A   1      42.742  29.608  36.147  1.00  0.00     0.029 A 
ATOM     61  N   UNL A   1      41.546  29.709  34.275  1.00  0.00    -0.354 N 
ATOM     62  N   UNL A   1      39.460  30.748  32.517  1.00  0.00    -0.248 NA
ATOM     63  C   UNL A   1      37.602  32.116  32.159  1.00  0.00     0.031 C 
ATOM     64  C   UNL A   1      41.732  30.560  36.321  1.00  0.00     0.029 A 
ATOM     65  C   UNL A   1      40.996  30.634  35.149  1.00  0.00     0.049 A 
ATOM     66  H   UNL A   1      41.226  29.537  33.361  1.00  0.00     0.167 HD
ATOM     67  C   UNL A   1      39.217  31.499  33.660  1.00  0.00     0.074 A 
ATOM     68  C   UNL A   1      38.083  32.351  33.370  1.00  0.00     0.031 C 
ATOM     69  C   UNL A   1      39.873  31.481  34.846  1.00  0.00     0.037 A 
BRANCH  56  70
ATOM     70  C   UNL A   1      44.467  27.367  35.085  1.00  0.00     0.057 A 
ATOM     71  C   UNL A   1      45.779  27.860  35.100  1.00  0.00     0.134 A 
ATOM     72  C   UNL A   1      44.207  26.208  35.830  1.00  0.00     0.134 A 
ATOM     73  F   UNL A   1      46.101  28.958  34.399  1.00  0.00    -0.206 F 
ATOM     74  C   UNL A   1      46.790  27.227  35.824  1.00  0.00     0.040 A 
ATOM     75  C   UNL A   1      45.204  25.582  36.581  1.00  0.00     0.040 A 
ATOM     76  F   UNL A   1      42.973  25.686  35.864  1.00  0.00    -0.206 F 
ATOM     77  C   UNL A   1      46.502  26.088  36.574  1.00  0.00     0.006 A 
ENDBRANCH  56  70
BRANCH  57  78
ATOM     78  C   UNL A   1      37.274  31.253  29.400  1.00  0.00     0.057 A 
ATOM     79  C   UNL A   1      36.082  30.574  29.131  1.00  0.00     0.134 A 
ATOM     80  C   UNL A   1      37.412  32.547  28.884  1.00  0.00     0.134 A 
ATOM     81  F   UNL A   1      35.891  29.329  29.592  1.00  0.00    -0.206 F 
ATOM     82  C   UNL A   1      35.061  31.162  28.379  1.00  0.00     0.040 A 
ATOM     83  C   UNL A   1      36.392  33.157  28.153  1.00  0.00     0.040 A 
ATOM     84  F   UNL A   1      38.525  33.256  29.127  1.00  0.00    -0.206 F 
ATOM     85  C   UNL A   1      35.212  32.460  27.897  1.00  0.00     0.006 A 
ENDBRANCH  57  78
BRANCH  69  86
ATOM     86  C   UNL A   1      39.397  32.433  35.901  1.00  0.00     0.057 A 
ATOM     87  C   UNL A   1      39.937  33.722  35.997  1.00  0.00     0.134 A 
ATOM     88  C   UNL A   1      38.414  32.073  36.832  1.00  0.00     0.134 A 
ATOM     89  F   UNL A   1      40.887  34.128  35.142  1.00  0.00    -0.206 F 
ATOM     90  C   UNL A   1      39.514  34.619  36.979  1.00  0.00     0.040 A 
ATOM     91  C   UNL A   1      37.965  32.969  37.802  1.00  0.00     0.040 A 
ATOM     92  F   UNL A   1      37.846  30.858  36.783  1.00  0.00    -0.206 F 
ATOM     93  C   UNL A   1      38.519  34.245  37.880  1.00  0.00     0.006 A 
ENDBRANCH  69  86
ENDBRANCH  43  44
ENDBRANCH  36  38
ENDBRANCH  35  36
ENDBRANCH   1  35
TORSDOF 12
ENDMDL
MODEL 2
REMARK VINA RESULT:     -13.5      0.612      5.827
REMARK SMILES C[C@]12c3ccccc3[C@](C)(c3ccccc31)[C@@H]1C(=O)N(c3ccc(C(=O)OCCOC(=O)c4ccc(-c5c6nc(c(-c7c(F)cccc7F)c7ccc([nH]7)c(-c7c(F)cccc7F)c7nc(c(-c8c(F)cccc8F)c8ccc5[nH]8)C=C7)C=C6)cc4)cc3)C(=O)[C@H]12
REMARK SMILES IDX 29 1 28 2 27 3 25 4 26 5 24 6 21 7 22 8 88 9 23 10 87 11
REMARK SMILES IDX 20 12 1 13 2 14 16 15 3 16 91 17 15 18 11 19 8 20 4 21 17 22
REMARK SMILES IDX 89 23 14 24 12 25 9 26 7 27 5 28 18 29 90 30 13 31 10 32
REMARK SMILES IDX 6 33 19 34 30 35 31 36 32 37 33 38 34 39 86 40 35 41 85 42
REMARK SMILES IDX 36 43 37 44 38 45 79 46 39 47 84 48 78 49 80 50 40 51 83 52
REMARK SMILES IDX 77 53 76 54 41 56 67 57 50 58 66 59 51 60 54 61 65 62 81 63
REMARK SMILES IDX 52 64 53 65 64 67 82 68 55 69 42 70 43 71 48 72 44 73 45 74
REMARK SMILES IDX 47 75 49 76 46 77 68 78 69 79 74 80 70 81 71 82 73 83 75 84
REMARK SMILES IDX 72 85 56 86 57 87 62 88 58 89 59 90 61 91 63 92 60 93
REMARK H PARENT 80 55 54 66
REMARK Flexibility Score: inf
ROOT
ATOM      1  C   UNL A   1      43.711  22.424  24.603  1.00  0.00     0.275 C 
ENDROOT
BRANCH   1   2
ATOM      2  C   UNL A   1      43.781  21.388  25.728  1.00  0.00     0.275 C 
BRANCH   2   3
ATOM      3  O   UNL A   1      42.620  21.467  26.581  1.00  0.00    -0.458 OA
BRANCH   3   4
ATOM      4  C   UNL A   1      41.802  20.384  26.580  1.00  0.00     0.338 C 
ATOM      5  O   UNL A   1      42.107  19.243  26.873  1.00  0.00    -0.246 OA
BRANCH   4   6
ATOM      6  C   UNL A   1      40.400  20.798  26.309  1.00  0.00     0.060 A 
ATOM      7  C   UNL A   1      37.870  21.798  25.667  1.00  0.00     0.052 A 
ATOM      8  C   UNL A   1      38.775  22.601  26.355  1.00  0.00     0.028 A 
ATOM      9  C   UNL A   1      38.206  20.478  25.342  1.00  0.00     0.028 A 
ATOM     10  C   UNL A   1      40.007  22.076  26.733  1.00  0.00     0.018 A 
ATOM     11  C   UNL A   1      39.487  19.989  25.625  1.00  0.00     0.018 A 
BRANCH   7  12
ATOM     12  N   UNL A   1      36.612  22.313  25.340  1.00  0.00    -0.250 N 
ATOM     13  C   UNL A   1      34.084  26.030  25.887  1.00  0.00     0.022 C 
ATOM     14  C   UNL A   1      33.721  24.742  25.149  1.00  0.00     0.030 C 
ATOM     15  C   UNL A   1      33.478  24.897  23.624  1.00  0.00    -0.033 A 
ATOM     16  C   UNL A   1      32.421  24.048  25.666  1.00  0.00    -0.033 A 
ATOM     17  C   UNL A   1      34.730  23.600  25.431  1.00  0.00     0.108 C 
ATOM     18  C   UNL A   1      33.583  26.075  22.890  1.00  0.00     0.005 A 
ATOM     19  C   UNL A   1      33.074  23.684  22.961  1.00  0.00    -0.033 A 
ATOM     20  C   UNL A   1      32.173  22.773  25.050  1.00  0.00    -0.033 A 
ATOM     21  C   UNL A   1      31.563  24.539  26.648  1.00  0.00     0.005 A 
ATOM     22  C   UNL A   1      34.614  22.559  24.310  1.00  0.00     0.108 C 
ATOM     23  C   UNL A   1      36.219  23.633  25.591  1.00  0.00     0.238 C 
ATOM     24  C   UNL A   1      33.293  26.055  21.524  1.00  0.00     0.000 A 
ATOM     25  C   UNL A   1      32.775  23.682  21.602  1.00  0.00     0.005 A 
ATOM     26  C   UNL A   1      33.136  22.427  23.887  1.00  0.00     0.030 C 
ATOM     27  C   UNL A   1      31.077  22.017  25.459  1.00  0.00     0.005 A 
ATOM     28  C   UNL A   1      30.466  23.768  27.034  1.00  0.00     0.000 A 
ATOM     29  C   UNL A   1      35.593  21.538  24.785  1.00  0.00     0.238 C 
ATOM     30  O   UNL A   1      36.884  24.574  25.983  1.00  0.00    -0.274 OA
ATOM     31  C   UNL A   1      32.887  24.874  20.888  1.00  0.00     0.000 A 
ATOM     32  C   UNL A   1      32.862  21.095  23.191  1.00  0.00     0.022 C 
ATOM     33  C   UNL A   1      30.231  22.517  26.452  1.00  0.00     0.000 A 
ATOM     34  O   UNL A   1      35.544  20.335  24.605  1.00  0.00    -0.274 OA
ENDBRANCH   7  12
ENDBRANCH   4   6
ENDBRANCH   3   4
ENDBRANCH   2   3
ENDBRANCH   1   2
BRANCH   1  35
ATOM     35  O   UNL A   1      43.026  23.611  25.047  1.00  0.00    -0.458 OA
BRANCH  35  36
ATOM     36  C   UNL A   1      43.801  24.702  25.242  1.00  0.00     0.338 C 
ATOM     37  O   UNL A   1      44.770  25.057  24.594  1.00  0.00    -0.246 OA
BRANCH  36  38
ATOM     38  C   UNL A   1      43.219  25.509  26.325  1.00  0.00     0.060 A 
ATOM     39  C   UNL A   1      42.353  24.969  27.271  1.00  0.00     0.016 A 
ATOM     40  C   UNL A   1      43.634  26.833  26.433  1.00  0.00     0.016 A 
ATOM     41  C   UNL A   1      41.884  25.786  28.310  1.00  0.00     0.010 A 
ATOM     42  C   UNL A   1      43.208  27.633  27.489  1.00  0.00     0.010 A 
ATOM     43  C   UNL A   1      42.310  27.125  28.433  1.00  0.00    -0.014 A 
BRANCH  43  44
ATOM     44  C   UNL A   1      41.850  27.985  29.561  1.00  0.00     0.031 A 
ATOM     45  C   UNL A   1      40.603  28.825  29.442  1.00  0.00     0.074 A 
ATOM     46  C   UNL A   1      42.588  28.053  30.686  1.00  0.00     0.049 A 
ATOM     47  N   UNL A   1      40.038  29.598  30.339  1.00  0.00    -0.248 NA
ATOM     48  C   UNL A   1      39.916  28.825  28.142  1.00  0.00     0.031 C 
ATOM     49  C   UNL A   1      43.868  27.375  30.900  1.00  0.00     0.029 A 
ATOM     50  N   UNL A   1      42.365  28.718  31.866  1.00  0.00    -0.354 N 
ATOM     51  C   UNL A   1      38.944  30.181  29.708  1.00  0.00     0.074 A 
ATOM     52  C   UNL A   1      38.957  29.719  28.338  1.00  0.00     0.031 C 
ATOM     53  C   UNL A   1      44.287  27.611  32.154  1.00  0.00     0.029 A 
ATOM     54  C   UNL A   1      43.322  28.476  32.823  1.00  0.00     0.049 A 
ATOM     55  H   UNL A   1      41.595  29.313  32.012  1.00  0.00     0.167 HD
ATOM     56  C   UNL A   1      37.998  31.000  30.229  1.00  0.00     0.037 A 
ATOM     57  C   UNL A   1      43.401  28.889  34.102  1.00  0.00     0.037 A 
ATOM     58  C   UNL A   1      37.958  31.428  31.603  1.00  0.00     0.049 A 
ATOM     59  C   UNL A   1      42.315  29.763  34.666  1.00  0.00     0.074 A 
ATOM     60  C   UNL A   1      36.988  32.179  32.247  1.00  0.00     0.029 A 
ATOM     61  N   UNL A   1      38.933  31.144  32.545  1.00  0.00    -0.354 N 
ATOM     62  N   UNL A   1      41.229  30.212  34.088  1.00  0.00    -0.248 NA
ATOM     63  C   UNL A   1      42.467  30.181  36.068  1.00  0.00     0.031 C 
ATOM     64  C   UNL A   1      37.393  32.377  33.571  1.00  0.00     0.029 A 
ATOM     65  C   UNL A   1      38.597  31.719  33.761  1.00  0.00     0.049 A 
ATOM     66  H   UNL A   1      39.744  30.613  32.377  1.00  0.00     0.167 HD
ATOM     67  C   UNL A   1      40.556  30.941  35.061  1.00  0.00     0.074 A 
ATOM     68  C   UNL A   1      41.346  30.858  36.271  1.00  0.00     0.031 C 
ATOM     69  C   UNL A   1      39.388  31.622  34.960  1.00  0.00     0.037 A 
BRANCH  56  70
ATOM     70  C   UNL A   1      36.904  31.470  29.312  1.00  0.00     0.057 A 
ATOM     71  C   UNL A   1      36.908  32.770  28.792  1.00  0.00     0.134 A 
ATOM     72  C   UNL A   1      35.817  30.648  28.982  1.00  0.00     0.134 A 
ATOM     73  F   UNL A   1      37.911  33.615  29.077  1.00  0.00    -0.206 F 
ATOM     74  C   UNL A   1      35.875  33.235  27.977  1.00  0.00     0.040 A 
ATOM     75  C   UNL A   1      34.791  31.092  28.147  1.00  0.00     0.040 A 
ATOM     76  F   UNL A   1      35.752  29.390  29.443  1.00  0.00    -0.206 F 
ATOM     77  C   UNL A   1      34.814  32.392  27.646  1.00  0.00     0.006 A 
ENDBRANCH  56  70
BRANCH  57  78
ATOM     78  C   UNL A   1      44.519  28.439  34.967  1.00  0.00     0.057 A 
ATOM     79  C   UNL A   1      45.687  29.195  35.113  1.00  0.00     0.134 A 
ATOM     80  C   UNL A   1      44.424  27.249  35.699  1.00  0.00     0.134 A 
ATOM     81  F   UNL A   1      45.841  30.342  34.435  1.00  0.00    -0.206 F 
ATOM     82  C   UNL A   1      46.720  28.786  35.959  1.00  0.00     0.040 A 
ATOM     83  C   UNL A   1      45.437  26.841  36.568  1.00  0.00     0.040 A 
ATOM     84  F   UNL A   1      43.320  26.492  35.616  1.00  0.00    -0.206 F 
ATOM     85  C   UNL A   1      46.592  27.611  36.697  1.00  0.00     0.006 A 
ENDBRANCH  57  78
BRANCH  69  86
ATOM     86  C   UNL A   1      38.886  32.300  36.199  1.00  0.00     0.057 A 
ATOM     87  C   UNL A   1      39.201  33.641  36.457  1.00  0.00     0.134 A 
ATOM     88  C   UNL A   1      38.103  31.625  37.144  1.00  0.00     0.134 A 
ATOM     89  F   UNL A   1      39.953  34.342  35.597  1.00  0.00    -0.206 F 
ATOM     90  C   UNL A   1      38.751  34.286  37.610  1.00  0.00     0.040 A 
ATOM     91  C   UNL A   1      37.626  32.267  38.287  1.00  0.00     0.040 A 
ATOM     92  F   UNL A   1      37.754  30.345  36.947  1.00  0.00    -0.206 F 
ATOM     93  C   UNL A   1      37.954  33.600  38.525  1.00  0.00     0.006 A 
ENDBRANCH  69  86
ENDBRANCH  43  44
ENDBRANCH  36  38
ENDBRANCH  35  36
ENDBRANCH   1  35
TORSDOF 12
ENDMDL
MODEL 3
REMARK VINA RESULT:     -13.5      0.172      2.723
REMARK SMILES C[C@]12c3ccccc3[C@](C)(c3ccccc31)[C@@H]1C(=O)N(c3ccc(C(=O)OCCOC(=O)c4ccc(-c5c6nc(c(-c7c(F)cccc7F)c7ccc([nH]7)c(-c7c(F)cccc7F)c7nc(c(-c8c(F)cccc8F)c8ccc5[nH]8)C=C7)C=C6)cc4)cc3)C(=O)[C@H]12
REMARK SMILES IDX 29 1 28 2 27 3 25 4 26 5 24 6 21 7 22 8 88 9 23 10 87 11
REMARK SMILES IDX 20 12 1 13 2 14 16 15 3 16 91 17 15 18 11 19 8 20 4 21 17 22
REMARK SMILES IDX 89 23 14 24 12 25 9 26 7 27 5 28 18 29 90 30 13 31 10 32
REMARK SMILES IDX 6 33 19 34 30 35 31 36 32 37 33 38 34 39 86 40 35 41 85 42
REMARK SMILES IDX 36 43 37 44 38 45 79 46 39 47 84 48 78 49 80 50 40 51 83 52
REMARK SMILES IDX 77 53 76 54 41 56 67 57 50 58 66 59 51 60 54 61 65 62 81 63
REMARK SMILES IDX 52 64 53 65 64 67 82 68 55 69 42 70 43 71 48 72 44 73 45 74
REMARK SMILES IDX 47 75 49 76 46 77 68 78 69 79 74 80 70 81 71 82 73 83 75 84
REMARK SMILES IDX 72 85 56 86 57 87 62 88 58 89 59 90 61 91 63 92 60 93
REMARK H PARENT 80 55 54 66
REMARK Flexibility Score: inf
ROOT
ATOM      1  C   UNL A   1      44.338  22.229  25.029  1.00  0.00     0.275 C 
ENDROOT
BRANCH   1   2
ATOM      2  C   UNL A   1      43.737  21.338  26.119  1.00  0.00     0.275 C 
BRANCH   2   3
ATOM      3  O   UNL A   1      42.604  20.597  25.619  1.00  0.00    -0.458 OA
BRANCH   3   4
ATOM      4  C   UNL A   1      41.745  20.115  26.554  1.00  0.00     0.338 C 
ATOM      5  O   UNL A   1      42.037  19.485  27.552  1.00  0.00    -0.246 OA
BRANCH   4   6
ATOM      6  C   UNL A   1      40.364  20.591  26.276  1.00  0.00     0.060 A 
ATOM      7  C   UNL A   1      37.884  21.697  25.615  1.00  0.00     0.052 A 
ATOM      8  C   UNL A   1      38.834  22.476  26.270  1.00  0.00     0.028 A 
ATOM      9  C   UNL A   1      38.149  20.351  25.333  1.00  0.00     0.028 A 
ATOM     10  C   UNL A   1      40.041  21.901  26.659  1.00  0.00     0.018 A 
ATOM     11  C   UNL A   1      39.406  19.808  25.626  1.00  0.00     0.018 A 
BRANCH   7  12
ATOM     12  N   UNL A   1      36.651  22.265  25.278  1.00  0.00    -0.250 N 
ATOM     13  C   UNL A   1      32.866  21.335  22.971  1.00  0.00     0.022 C 
ATOM     14  C   UNL A   1      33.213  22.607  23.745  1.00  0.00     0.030 C 
ATOM     15  C   UNL A   1      32.300  22.909  24.964  1.00  0.00    -0.033 A 
ATOM     16  C   UNL A   1      33.148  23.916  22.895  1.00  0.00    -0.033 A 
ATOM     17  C   UNL A   1      34.707  22.659  24.151  1.00  0.00     0.108 C 
ATOM     18  C   UNL A   1      31.239  22.129  25.411  1.00  0.00     0.005 A 
ATOM     19  C   UNL A   1      32.603  24.146  25.638  1.00  0.00    -0.033 A 
ATOM     20  C   UNL A   1      33.604  25.079  23.605  1.00  0.00    -0.033 A 
ATOM     21  C   UNL A   1      32.736  24.013  21.568  1.00  0.00     0.005 A 
ATOM     22  C   UNL A   1      34.862  23.646  25.314  1.00  0.00     0.108 C 
ATOM     23  C   UNL A   1      35.629  21.574  24.617  1.00  0.00     0.238 C 
ATOM     24  C   UNL A   1      30.488  22.562  26.507  1.00  0.00     0.000 A 
ATOM     25  C   UNL A   1      31.838  24.571  26.720  1.00  0.00     0.005 A 
ATOM     26  C   UNL A   1      33.900  24.836  25.107  1.00  0.00     0.030 C 
ATOM     27  C   UNL A   1      33.654  26.306  22.949  1.00  0.00     0.005 A 
ATOM     28  C   UNL A   1      32.785  25.254  20.934  1.00  0.00     0.000 A 
ATOM     29  C   UNL A   1      36.341  23.605  25.511  1.00  0.00     0.238 C 
ATOM     30  O   UNL A   1      35.547  20.390  24.348  1.00  0.00    -0.274 OA
ATOM     31  C   UNL A   1      30.780  23.772  27.150  1.00  0.00     0.000 A 
ATOM     32  C   UNL A   1      34.346  26.069  25.889  1.00  0.00     0.022 C 
ATOM     33  C   UNL A   1      33.248  26.386  21.614  1.00  0.00     0.000 A 
ATOM     34  O   UNL A   1      37.055  24.510  25.902  1.00  0.00    -0.274 OA
ENDBRANCH   7  12
ENDBRANCH   4   6
ENDBRANCH   3   4
ENDBRANCH   2   3
ENDBRANCH   1   2
BRANCH   1  35
ATOM     35  O   UNL A   1      43.617  23.473  24.935  1.00  0.00    -0.458 OA
BRANCH  35  36
ATOM     36  C   UNL A   1      44.327  24.590  25.212  1.00  0.00     0.338 C 
ATOM     37  O   UNL A   1      45.307  25.018  24.627  1.00  0.00    -0.246 OA
BRANCH  36  38
ATOM     38  C   UNL A   1      43.657  25.321  26.297  1.00  0.00     0.060 A 
ATOM     39  C   UNL A   1      42.623  24.761  27.042  1.00  0.00     0.016 A 
ATOM     40  C   UNL A   1      44.151  26.580  26.625  1.00  0.00     0.016 A 
ATOM     41  C   UNL A   1      42.070  25.497  28.101  1.00  0.00     0.010 A 
ATOM     42  C   UNL A   1      43.638  27.293  27.704  1.00  0.00     0.010 A 
ATOM     43  C   UNL A   1      42.575  26.769  28.447  1.00  0.00    -0.014 A 
BRANCH  43  44
ATOM     44  C   UNL A   1      42.022  27.536  29.599  1.00  0.00     0.031 A 
ATOM     45  C   UNL A   1      42.660  27.461  30.963  1.00  0.00     0.074 A 
ATOM     46  C   UNL A   1      40.903  28.268  29.431  1.00  0.00     0.049 A 
ATOM     47  N   UNL A   1      42.334  28.094  32.065  1.00  0.00    -0.248 NA
ATOM     48  C   UNL A   1      43.791  26.535  31.125  1.00  0.00     0.031 C 
ATOM     49  C   UNL A   1      40.124  28.350  28.194  1.00  0.00     0.029 A 
ATOM     50  N   UNL A   1      40.230  29.089  30.302  1.00  0.00    -0.354 N 
ATOM     51  C   UNL A   1      43.206  27.634  33.044  1.00  0.00     0.074 A 
ATOM     52  C   UNL A   1      44.039  26.627  32.423  1.00  0.00     0.031 C 
ATOM     53  C   UNL A   1      39.115  29.220  28.368  1.00  0.00     0.029 A 
ATOM     54  C   UNL A   1      39.160  29.736  29.731  1.00  0.00     0.049 A 
ATOM     55  H   UNL A   1      40.489  29.203  31.245  1.00  0.00     0.167 HD
ATOM     56  C   UNL A   1      43.327  28.034  34.335  1.00  0.00     0.037 A 
ATOM     57  C   UNL A   1      38.322  30.657  30.244  1.00  0.00     0.037 A 
ATOM     58  C   UNL A   1      42.528  29.065  34.944  1.00  0.00     0.049 A 
ATOM     59  C   UNL A   1      38.504  31.113  31.666  1.00  0.00     0.074 A 
ATOM     60  C   UNL A   1      42.640  29.607  36.215  1.00  0.00     0.029 A 
ATOM     61  N   UNL A   1      41.469  29.710  34.328  1.00  0.00    -0.354 N 
ATOM     62  N   UNL A   1      39.406  30.750  32.544  1.00  0.00    -0.248 NA
ATOM     63  C   UNL A   1      37.551  32.116  32.163  1.00  0.00     0.031 C 
ATOM     64  C   UNL A   1      41.626  30.557  36.378  1.00  0.00     0.029 A 
ATOM     65  C   UNL A   1      40.906  30.633  35.197  1.00  0.00     0.049 A 
ATOM     66  H   UNL A   1      41.161  29.540  33.409  1.00  0.00     0.167 HD
ATOM     67  C   UNL A   1      39.146  31.498  33.685  1.00  0.00     0.074 A 
ATOM     68  C   UNL A   1      38.015  32.349  33.382  1.00  0.00     0.031 C 
ATOM     69  C   UNL A   1      39.786  31.479  34.880  1.00  0.00     0.037 A 
BRANCH  56  70
ATOM     70  C   UNL A   1      44.383  27.371  35.173  1.00  0.00     0.057 A 
ATOM     71  C   UNL A   1      44.089  26.234  35.936  1.00  0.00     0.134 A 
ATOM     72  C   UNL A   1      45.682  27.889  35.263  1.00  0.00     0.134 A 
ATOM     73  F   UNL A   1      42.861  25.693  35.908  1.00  0.00    -0.206 F 
ATOM     74  C   UNL A   1      45.047  25.635  36.756  1.00  0.00     0.040 A 
ATOM     75  C   UNL A   1      46.657  27.283  36.058  1.00  0.00     0.040 A 
ATOM     76  F   UNL A   1      46.032  28.973  34.555  1.00  0.00    -0.206 F 
ATOM     77  C   UNL A   1      46.339  26.156  36.813  1.00  0.00     0.006 A 
ENDBRANCH  56  70
BRANCH  57  78
ATOM     78  C   UNL A   1      37.262  31.259  29.399  1.00  0.00     0.057 A 
ATOM     79  C   UNL A   1      37.406  32.531  28.834  1.00  0.00     0.134 A 
ATOM     80  C   UNL A   1      36.089  30.552  29.108  1.00  0.00     0.134 A 
ATOM     81  F   UNL A   1      38.504  33.262  29.078  1.00  0.00    -0.206 F 
ATOM     82  C   UNL A   1      36.421  33.077  28.006  1.00  0.00     0.040 A 
ATOM     83  C   UNL A   1      35.109  31.073  28.263  1.00  0.00     0.040 A 
ATOM     84  F   UNL A   1      35.905  29.320  29.604  1.00  0.00    -0.206 F 
ATOM     85  C   UNL A   1      35.275  32.343  27.711  1.00  0.00     0.006 A 
ENDBRANCH  57  78
BRANCH  69  86
ATOM     86  C   UNL A   1      39.294  32.428  35.931  1.00  0.00     0.057 A 
ATOM     87  C   UNL A   1      38.296  32.040  36.834  1.00  0.00     0.134 A 
ATOM     88  C   UNL A   1      39.796  33.731  36.041  1.00  0.00     0.134 A 
ATOM     89  F   UNL A   1      37.768  30.808  36.778  1.00  0.00    -0.206 F 
ATOM     90  C   UNL A   1      37.819  32.913  37.812  1.00  0.00     0.040 A 
ATOM     91  C   UNL A   1      39.344  34.605  37.031  1.00  0.00     0.040 A 
ATOM     92  F   UNL A   1      40.763  34.159  35.216  1.00  0.00    -0.206 F 
ATOM     93  C   UNL A   1      38.349  34.198  37.917  1.00  0.00     0.006 A 
ENDBRANCH  69  86
ENDBRANCH  43  44
ENDBRANCH  36  38
ENDBRANCH  35  36
ENDBRANCH   1  35
TORSDOF 12
ENDMDL
