MODEL 1
REMARK VINA RESULT:     -13.0      0.000      0.000
REMARK SMILES O=C(OCCOC(=O)[C@@H]1CC=CC[C@@H]1C(=O)Nc1sc2c(c1C(=O)N1CCCCC1)CCCC2)c1ccc(-c2c3nc(c(-c4c(F)cccc4F)c4ccc([nH]4)c(-c4c(F)cccc4F)c4nc(c(-c5c(F)cccc5F)c5ccc2[nH]5)C=C4)C=C3)cc1
REMARK SMILES IDX 5 1 4 2 3 3 2 4 1 5 35 6 36 7 88 8 37 9 87 10 38 11 39 12
REMARK SMILES IDX 40 13 81 14 41 15 86 16 80 17 82 18 42 19 85 20 79 21 78 22
REMARK SMILES IDX 43 24 69 25 52 26 68 27 53 28 56 29 67 30 83 31 54 32 55 33
REMARK SMILES IDX 66 35 84 36 57 37 44 38 45 39 50 40 46 41 47 42 49 43 51 44
REMARK SMILES IDX 48 45 70 46 71 47 76 48 72 49 73 50 75 51 77 52 74 53 58 54
REMARK SMILES IDX 59 55 64 56 60 57 61 58 63 59 65 60 62 61 6 62 7 63 8 64
REMARK SMILES IDX 9 65 10 66 14 67 11 68 13 69 12 70 15 71 16 72 17 73 18 75
REMARK SMILES IDX 19 76 22 77 20 78 21 79 34 80 31 81 33 82 32 83 23 84 24 85
REMARK SMILES IDX 25 86 26 87 30 88 27 89 29 90 28 91
REMARK H PARENT 82 23 56 34 17 74
REMARK Flexibility Score: inf
ROOT
ATOM      1  C   UNL A   1      43.787  23.317  24.508  1.00  0.00     0.274 C 
ENDROOT
BRANCH   1   2
ATOM      2  C   UNL A   1      44.509  24.395  25.430  1.00  0.00     0.275 C 
BRANCH   2   3
ATOM      3  O   UNL A   1      44.376  25.772  25.088  1.00  0.00    -0.458 OA
BRANCH   3   4
ATOM      4  C   UNL A   1      43.245  26.393  25.486  1.00  0.00     0.338 C 
ATOM      5  O   UNL A   1      42.399  26.536  24.626  1.00  0.00    -0.246 OA
BRANCH   4   6
ATOM      6  C   UNL A   1      43.223  26.757  27.129  1.00  0.00     0.060 A 
ATOM      7  C   UNL A   1      42.201  25.636  27.722  1.00  0.00     0.016 A 
ATOM      8  C   UNL A   1      43.517  28.373  27.990  1.00  0.00     0.016 A 
ATOM      9  C   UNL A   1      41.372  26.066  28.992  1.00  0.00     0.010 A 
ATOM     10  C   UNL A   1      42.590  29.028  29.224  1.00  0.00     0.010 A 
ATOM     11  C   UNL A   1      41.469  27.914  29.863  1.00  0.00    -0.014 A 
BRANCH  11  12
ATOM     12  C   UNL A   1      41.065  28.659  31.209  1.00  0.00     0.031 A 
ATOM     13  C   UNL A   1      42.000  28.680  32.359  1.00  0.00     0.074 A 
ATOM     14  C   UNL A   1      39.866  29.297  31.278  1.00  0.00     0.049 A 
ATOM     15  N   UNL A   1      42.124  29.594  33.277  1.00  0.00    -0.248 NA
ATOM     16  C   UNL A   1      42.907  27.533  32.511  1.00  0.00     0.031 C 
ATOM     17  C   UNL A   1      38.757  29.129  30.340  1.00  0.00     0.029 A 
ATOM     18  N   UNL A   1      39.466  30.384  32.014  1.00  0.00    -0.354 N 
ATOM     19  C   UNL A   1      43.121  29.131  34.114  1.00  0.00     0.074 A 
ATOM     20  C   UNL A   1      43.644  27.909  33.546  1.00  0.00     0.031 C 
ATOM     21  C   UNL A   1      38.026  30.241  30.296  1.00  0.00     0.029 A 
ATOM     22  C   UNL A   1      38.441  31.088  31.391  1.00  0.00     0.049 A 
ATOM     23  H   UNL A   1      39.860  30.637  32.880  1.00  0.00     0.167 HD
ATOM     24  C   UNL A   1      43.470  29.642  35.312  1.00  0.00     0.037 A 
ATOM     25  C   UNL A   1      37.894  32.286  31.674  1.00  0.00     0.037 A 
ATOM     26  C   UNL A   1      42.767  30.740  35.915  1.00  0.00     0.049 A 
ATOM     27  C   UNL A   1      38.374  32.891  32.954  1.00  0.00     0.074 A 
ATOM     28  C   UNL A   1      42.961  31.305  37.159  1.00  0.00     0.029 A 
ATOM     29  N   UNL A   1      41.676  31.386  35.339  1.00  0.00    -0.354 N 
ATOM     30  N   UNL A   1      39.407  32.540  33.684  1.00  0.00    -0.248 NA
ATOM     31  C   UNL A   1      37.560  33.968  33.520  1.00  0.00     0.031 C 
ATOM     32  C   UNL A   1      41.936  32.228  37.371  1.00  0.00     0.029 A 
ATOM     33  C   UNL A   1      41.163  32.317  36.222  1.00  0.00     0.049 A 
ATOM     34  H   UNL A   1      41.322  31.206  34.439  1.00  0.00     0.167 HD
ATOM     35  C   UNL A   1      39.319  33.291  34.839  1.00  0.00     0.074 A 
ATOM     36  C   UNL A   1      38.201  34.201  34.656  1.00  0.00     0.031 C 
ATOM     37  C   UNL A   1      40.046  33.195  35.976  1.00  0.00     0.037 A 
BRANCH  24  38
ATOM     38  C   UNL A   1      44.516  28.915  36.093  1.00  0.00     0.057 A 
ATOM     39  C   UNL A   1      45.871  29.260  36.031  1.00  0.00     0.134 A 
ATOM     40  C   UNL A   1      44.153  27.849  36.927  1.00  0.00     0.134 A 
ATOM     41  F   UNL A   1      46.287  30.241  35.215  1.00  0.00    -0.206 F 
ATOM     42  C   UNL A   1      46.829  28.576  36.781  1.00  0.00     0.040 A 
ATOM     43  C   UNL A   1      45.096  27.176  37.701  1.00  0.00     0.040 A 
ATOM     44  F   UNL A   1      42.875  27.449  37.004  1.00  0.00    -0.206 F 
ATOM     45  C   UNL A   1      46.438  27.540  37.630  1.00  0.00     0.006 A 
ENDBRANCH  24  38
BRANCH  25  46
ATOM     46  C   UNL A   1      36.791  32.893  30.863  1.00  0.00     0.057 A 
ATOM     47  C   UNL A   1      35.442  32.713  31.199  1.00  0.00     0.134 A 
ATOM     48  C   UNL A   1      37.041  33.631  29.692  1.00  0.00     0.134 A 
ATOM     49  F   UNL A   1      35.104  32.005  32.287  1.00  0.00    -0.206 F 
ATOM     50  C   UNL A   1      34.404  33.212  30.402  1.00  0.00     0.040 A 
ATOM     51  C   UNL A   1      36.019  34.201  28.932  1.00  0.00     0.040 A 
ATOM     52  F   UNL A   1      38.295  33.816  29.253  1.00  0.00    -0.206 F 
ATOM     53  C   UNL A   1      34.693  33.973  29.272  1.00  0.00     0.006 A 
ENDBRANCH  25  46
BRANCH  37  54
ATOM     54  C   UNL A   1      39.645  34.105  37.088  1.00  0.00     0.057 A 
ATOM     55  C   UNL A   1      38.849  33.662  38.151  1.00  0.00     0.134 A 
ATOM     56  C   UNL A   1      40.116  35.422  37.118  1.00  0.00     0.134 A 
ATOM     57  F   UNL A   1      38.359  32.414  38.164  1.00  0.00    -0.206 F 
ATOM     58  C   UNL A   1      38.517  34.513  39.202  1.00  0.00     0.040 A 
ATOM     59  C   UNL A   1      39.826  36.266  38.183  1.00  0.00     0.040 A 
ATOM     60  F   UNL A   1      40.892  35.890  36.129  1.00  0.00    -0.206 F 
ATOM     61  C   UNL A   1      39.017  35.813  39.225  1.00  0.00     0.006 A 
ENDBRANCH  37  54
ENDBRANCH  11  12
ENDBRANCH   4   6
ENDBRANCH   3   4
ENDBRANCH   2   3
ENDBRANCH   1   2
BRANCH   1  62
ATOM     62  O   UNL A   1      44.148  21.870  24.683  1.00  0.00    -0.462 OA
BRANCH  62  63
ATOM     63  C   UNL A   1      43.270  20.952  25.220  1.00  0.00     0.310 C 
ATOM     64  O   UNL A   1      43.458  19.753  25.042  1.00  0.00    -0.252 OA
BRANCH  63  65
ATOM     65  C   UNL A   1      42.067  21.505  26.206  1.00  0.00     0.116 C 
ATOM     66  C   UNL A   1      42.306  21.630  27.766  1.00  0.00     0.043 C 
ATOM     67  C   UNL A   1      40.390  21.421  25.752  1.00  0.00     0.097 C 
ATOM     68  C   UNL A   1      41.192  22.323  28.532  1.00  0.00    -0.030 C 
ATOM     69  C   UNL A   1      39.768  22.669  26.491  1.00  0.00     0.041 C 
ATOM     70  C   UNL A   1      40.068  22.789  27.963  1.00  0.00    -0.030 C 
BRANCH  67  71
ATOM     71  C   UNL A   1      39.144  19.990  25.510  1.00  0.00     0.229 C 
ATOM     72  O   UNL A   1      39.649  18.851  25.446  1.00  0.00    -0.274 OA
ATOM     73  N   UNL A   1      37.522  20.000  25.331  1.00  0.00    -0.317 N 
ATOM     74  H   UNL A   1      37.136  19.106  25.477  1.00  0.00     0.170 HD
BRANCH  73  75
ATOM     75  C   UNL A   1      36.310  21.161  24.955  1.00  0.00     0.108 A 
ATOM     76  S   UNL A   1      36.670  23.655  25.010  1.00  0.00    -0.122 S 
ATOM     77  C   UNL A   1      34.574  20.891  24.487  1.00  0.00     0.078 A 
ATOM     78  C   UNL A   1      34.593  23.983  24.201  1.00  0.00     0.011 A 
ATOM     79  C   UNL A   1      33.672  22.549  24.013  1.00  0.00    -0.019 A 
ATOM     80  C   UNL A   1      34.190  25.406  24.222  1.00  0.00     0.047 C 
ATOM     81  C   UNL A   1      32.196  22.931  24.109  1.00  0.00     0.037 C 
ATOM     82  C   UNL A   1      32.711  25.475  24.529  1.00  0.00     0.006 C 
ATOM     83  C   UNL A   1      31.913  24.417  23.737  1.00  0.00     0.005 C 
BRANCH  77  84
ATOM     84  C   UNL A   1      33.938  19.798  25.293  1.00  0.00     0.257 C 
ATOM     85  O   UNL A   1      33.391  20.035  26.366  1.00  0.00    -0.269 OA
ATOM     86  N   UNL A   1      33.716  18.627  24.584  1.00  0.00    -0.339 N 
ATOM     87  C   UNL A   1      32.407  17.976  24.562  1.00  0.00     0.120 C 
ATOM     88  C   UNL A   1      34.845  17.791  24.251  1.00  0.00     0.120 C 
ATOM     89  C   UNL A   1      32.398  16.669  25.357  1.00  0.00     0.022 C 
ATOM     90  C   UNL A   1      34.911  16.610  25.193  1.00  0.00     0.022 C 
ATOM     91  C   UNL A   1      33.624  15.802  25.053  1.00  0.00     0.004 C 
ENDBRANCH  77  84
ENDBRANCH  73  75
ENDBRANCH  67  71
ENDBRANCH  63  65
ENDBRANCH  62  63
ENDBRANCH   1  62
TORSDOF 14
ENDMDL
MODEL 2
REMARK VINA RESULT:     -12.9      6.023     11.881
REMARK SMILES O=C(OCCOC(=O)[C@@H]1CC=CC[C@@H]1C(=O)Nc1sc2c(c1C(=O)N1CCCCC1)CCCC2)c1ccc(-c2c3nc(c(-c4c(F)cccc4F)c4ccc([nH]4)c(-c4c(F)cccc4F)c4nc(c(-c5c(F)cccc5F)c5ccc2[nH]5)C=C4)C=C3)cc1
REMARK SMILES IDX 5 1 4 2 3 3 2 4 1 5 35 6 36 7 88 8 37 9 87 10 38 11 39 12
REMARK SMILES IDX 40 13 81 14 41 15 86 16 80 17 82 18 42 19 85 20 79 21 78 22
REMARK SMILES IDX 43 24 69 25 52 26 68 27 53 28 56 29 67 30 83 31 54 32 55 33
REMARK SMILES IDX 66 35 84 36 57 37 44 38 45 39 50 40 46 41 47 42 49 43 51 44
REMARK SMILES IDX 48 45 70 46 71 47 76 48 72 49 73 50 75 51 77 52 74 53 58 54
REMARK SMILES IDX 59 55 64 56 60 57 61 58 63 59 65 60 62 61 6 62 7 63 8 64
REMARK SMILES IDX 9 65 10 66 14 67 11 68 13 69 12 70 15 71 16 72 17 73 18 75
REMARK SMILES IDX 19 76 22 77 20 78 21 79 34 80 31 81 33 82 32 83 23 84 24 85
REMARK SMILES IDX 25 86 26 87 30 88 27 89 29 90 28 91
REMARK H PARENT 82 23 56 34 17 74
REMARK Flexibility Score: inf
ROOT
ATOM      1  C   UNL A   1      35.014  33.075  33.321  1.00  0.00     0.274 C 
ENDROOT
BRANCH   1   2
ATOM      2  C   UNL A   1      36.529  32.652  33.077  1.00  0.00     0.275 C 
BRANCH   2   3
ATOM      3  O   UNL A   1      36.959  31.380  33.554  1.00  0.00    -0.458 OA
BRANCH   3   4
ATOM      4  C   UNL A   1      37.301  30.463  32.624  1.00  0.00     0.338 C 
ATOM      5  O   UNL A   1      36.412  29.707  32.287  1.00  0.00    -0.246 OA
BRANCH   4   6
ATOM      6  C   UNL A   1      38.881  30.630  32.068  1.00  0.00     0.060 A 
ATOM      7  C   UNL A   1      38.695  31.599  30.773  1.00  0.00     0.016 A 
ATOM      8  C   UNL A   1      40.325  29.479  32.235  1.00  0.00     0.016 A 
ATOM      9  C   UNL A   1      39.738  31.397  29.608  1.00  0.00     0.010 A 
ATOM     10  C   UNL A   1      41.392  29.034  31.020  1.00  0.00     0.010 A 
ATOM     11  C   UNL A   1      41.221  29.988  29.618  1.00  0.00    -0.014 A 
BRANCH  11  12
ATOM     12  C   UNL A   1      42.569  29.621  28.859  1.00  0.00     0.031 A 
ATOM     13  C   UNL A   1      43.764  30.487  29.001  1.00  0.00     0.074 A 
ATOM     14  C   UNL A   1      42.617  28.491  28.104  1.00  0.00     0.049 A 
ATOM     15  N   UNL A   1      45.017  30.143  28.935  1.00  0.00    -0.248 NA
ATOM     16  C   UNL A   1      43.533  31.920  29.237  1.00  0.00     0.031 C 
ATOM     17  C   UNL A   1      41.461  27.710  27.665  1.00  0.00     0.029 A 
ATOM     18  N   UNL A   1      43.668  27.667  27.783  1.00  0.00    -0.354 N 
ATOM     19  C   UNL A   1      45.722  31.317  29.122  1.00  0.00     0.074 A 
ATOM     20  C   UNL A   1      44.769  32.366  29.405  1.00  0.00     0.031 C 
ATOM     21  C   UNL A   1      41.810  26.436  27.499  1.00  0.00     0.029 A 
ATOM     22  C   UNL A   1      43.253  26.361  27.546  1.00  0.00     0.049 A 
ATOM     23  H   UNL A   1      44.604  27.966  27.728  1.00  0.00     0.167 HD
ATOM     24  C   UNL A   1      47.047  31.498  28.948  1.00  0.00     0.037 A 
ATOM     25  C   UNL A   1      43.960  25.226  27.383  1.00  0.00     0.037 A 
ATOM     26  C   UNL A   1      47.909  30.456  28.463  1.00  0.00     0.049 A 
ATOM     27  C   UNL A   1      45.438  25.433  27.302  1.00  0.00     0.074 A 
ATOM     28  C   UNL A   1      49.255  30.525  28.164  1.00  0.00     0.029 A 
ATOM     29  N   UNL A   1      47.482  29.174  28.130  1.00  0.00    -0.354 N 
ATOM     30  N   UNL A   1      46.129  26.505  27.611  1.00  0.00    -0.248 NA
ATOM     31  C   UNL A   1      46.228  24.336  26.741  1.00  0.00     0.031 C 
ATOM     32  C   UNL A   1      49.620  29.317  27.568  1.00  0.00     0.029 A 
ATOM     33  C   UNL A   1      48.532  28.455  27.591  1.00  0.00     0.049 A 
ATOM     34  H   UNL A   1      46.569  28.830  28.259  1.00  0.00     0.167 HD
ATOM     35  C   UNL A   1      47.422  26.247  27.201  1.00  0.00     0.074 A 
ATOM     36  C   UNL A   1      47.439  24.871  26.733  1.00  0.00     0.031 C 
ATOM     37  C   UNL A   1      48.483  27.084  27.146  1.00  0.00     0.037 A 
BRANCH  24  38
ATOM     38  C   UNL A   1      47.580  32.885  29.112  1.00  0.00     0.057 A 
ATOM     39  C   UNL A   1      47.655  33.788  28.046  1.00  0.00     0.134 A 
ATOM     40  C   UNL A   1      48.024  33.320  30.367  1.00  0.00     0.134 A 
ATOM     41  F   UNL A   1      47.289  33.415  26.810  1.00  0.00    -0.206 F 
ATOM     42  C   UNL A   1      48.143  35.084  28.226  1.00  0.00     0.040 A 
ATOM     43  C   UNL A   1      48.488  34.619  30.566  1.00  0.00     0.040 A 
ATOM     44  F   UNL A   1      48.009  32.490  31.421  1.00  0.00    -0.206 F 
ATOM     45  C   UNL A   1      48.548  35.505  29.493  1.00  0.00     0.006 A 
ENDBRANCH  24  38
BRANCH  25  46
ATOM     46  C   UNL A   1      43.322  23.892  27.150  1.00  0.00     0.057 A 
ATOM     47  C   UNL A   1      43.026  23.430  25.859  1.00  0.00     0.134 A 
ATOM     48  C   UNL A   1      42.935  23.051  28.208  1.00  0.00     0.134 A 
ATOM     49  F   UNL A   1      43.338  24.172  24.786  1.00  0.00    -0.206 F 
ATOM     50  C   UNL A   1      42.360  22.218  25.638  1.00  0.00     0.040 A 
ATOM     51  C   UNL A   1      42.342  21.806  27.999  1.00  0.00     0.040 A 
ATOM     52  F   UNL A   1      43.123  23.423  29.483  1.00  0.00    -0.206 F 
ATOM     53  C   UNL A   1      42.029  21.394  26.711  1.00  0.00     0.006 A 
ENDBRANCH  25  46
BRANCH  37  54
ATOM     54  C   UNL A   1      49.735  26.517  26.567  1.00  0.00     0.057 A 
ATOM     55  C   UNL A   1      50.117  26.771  25.245  1.00  0.00     0.134 A 
ATOM     56  C   UNL A   1      50.595  25.760  27.370  1.00  0.00     0.134 A 
ATOM     57  F   UNL A   1      49.322  27.478  24.428  1.00  0.00    -0.206 F 
ATOM     58  C   UNL A   1      51.309  26.267  24.732  1.00  0.00     0.040 A 
ATOM     59  C   UNL A   1      51.808  25.289  26.881  1.00  0.00     0.040 A 
ATOM     60  F   UNL A   1      50.280  25.499  28.648  1.00  0.00    -0.206 F 
ATOM     61  C   UNL A   1      52.163  25.536  25.555  1.00  0.00     0.006 A 
ENDBRANCH  37  54
ENDBRANCH  11  12
ENDBRANCH   4   6
ENDBRANCH   3   4
ENDBRANCH   2   3
ENDBRANCH   1   2
BRANCH   1  62
ATOM     62  O   UNL A   1      34.016  32.817  32.230  1.00  0.00    -0.462 OA
BRANCH  62  63
ATOM     63  C   UNL A   1      34.006  33.541  31.056  1.00  0.00     0.310 C 
ATOM     64  O   UNL A   1      33.546  34.678  31.045  1.00  0.00    -0.252 OA
BRANCH  63  65
ATOM     65  C   UNL A   1      34.746  32.891  29.731  1.00  0.00     0.116 C 
ATOM     66  C   UNL A   1      36.093  33.517  29.181  1.00  0.00     0.043 C 
ATOM     67  C   UNL A   1      33.878  31.941  28.561  1.00  0.00     0.097 C 
ATOM     68  C   UNL A   1      36.767  32.718  28.078  1.00  0.00    -0.030 C 
ATOM     69  C   UNL A   1      34.984  30.949  28.030  1.00  0.00     0.041 C 
ATOM     70  C   UNL A   1      36.276  31.575  27.572  1.00  0.00    -0.030 C 
BRANCH  67  71
ATOM     71  C   UNL A   1      32.531  32.333  27.261  1.00  0.00     0.229 C 
ATOM     72  O   UNL A   1      32.078  33.495  27.298  1.00  0.00    -0.274 OA
ATOM     73  N   UNL A   1      31.832  31.393  26.125  1.00  0.00    -0.317 N 
ATOM     74  H   UNL A   1      31.360  31.931  25.449  1.00  0.00     0.170 HD
BRANCH  73  75
ATOM     75  C   UNL A   1      31.702  29.709  25.799  1.00  0.00     0.108 A 
ATOM     76  S   UNL A   1      33.133  27.941  26.883  1.00  0.00    -0.122 S 
ATOM     77  C   UNL A   1      30.593  28.851  24.641  1.00  0.00     0.078 A 
ATOM     78  C   UNL A   1      31.940  26.330  25.854  1.00  0.00     0.011 A 
ATOM     79  C   UNL A   1      30.745  26.916  24.772  1.00  0.00    -0.019 A 
ATOM     80  C   UNL A   1      32.537  24.986  26.014  1.00  0.00     0.047 C 
ATOM     81  C   UNL A   1      30.502  25.834  23.721  1.00  0.00     0.037 C 
ATOM     82  C   UNL A   1      32.301  24.208  24.739  1.00  0.00     0.006 C 
ATOM     83  C   UNL A   1      30.863  24.399  24.211  1.00  0.00     0.005 C 
BRANCH  77  84
ATOM     84  C   UNL A   1      30.456  29.589  23.343  1.00  0.00     0.257 C 
ATOM     85  O   UNL A   1      31.250  29.414  22.424  1.00  0.00    -0.269 OA
ATOM     86  N   UNL A   1      29.214  30.178  23.154  1.00  0.00    -0.339 N 
ATOM     87  C   UNL A   1      28.434  29.959  21.937  1.00  0.00     0.120 C 
ATOM     88  C   UNL A   1      28.880  31.357  23.917  1.00  0.00     0.120 C 
ATOM     89  C   UNL A   1      28.379  31.207  21.054  1.00  0.00     0.022 C 
ATOM     90  C   UNL A   1      29.031  32.591  23.056  1.00  0.00     0.022 C 
ATOM     91  C   UNL A   1      28.084  32.473  21.864  1.00  0.00     0.004 C 
ENDBRANCH  77  84
ENDBRANCH  73  75
ENDBRANCH  67  71
ENDBRANCH  63  65
ENDBRANCH  62  63
ENDBRANCH   1  62
TORSDOF 14
ENDMDL
MODEL 3
REMARK VINA RESULT:     -12.7      8.922     14.171
REMARK SMILES O=C(OCCOC(=O)[C@@H]1CC=CC[C@@H]1C(=O)Nc1sc2c(c1C(=O)N1CCCCC1)CCCC2)c1ccc(-c2c3nc(c(-c4c(F)cccc4F)c4ccc([nH]4)c(-c4c(F)cccc4F)c4nc(c(-c5c(F)cccc5F)c5ccc2[nH]5)C=C4)C=C3)cc1
REMARK SMILES IDX 5 1 4 2 3 3 2 4 1 5 35 6 36 7 88 8 37 9 87 10 38 11 39 12
REMARK SMILES IDX 40 13 81 14 41 15 86 16 80 17 82 18 42 19 85 20 79 21 78 22
REMARK SMILES IDX 43 24 69 25 52 26 68 27 53 28 56 29 67 30 83 31 54 32 55 33
REMARK SMILES IDX 66 35 84 36 57 37 44 38 45 39 50 40 46 41 47 42 49 43 51 44
REMARK SMILES IDX 48 45 70 46 71 47 76 48 72 49 73 50 75 51 77 52 74 53 58 54
REMARK SMILES IDX 59 55 64 56 60 57 61 58 63 59 65 60 62 61 6 62 7 63 8 64
REMARK SMILES IDX 9 65 10 66 14 67 11 68 13 69 12 70 15 71 16 72 17 73 18 75
REMARK SMILES IDX 19 76 22 77 20 78 21 79 34 80 31 81 33 82 32 83 23 84 24 85
REMARK SMILES IDX 25 86 26 87 30 88 27 89 29 90 28 91
REMARK H PARENT 82 23 56 34 17 74
REMARK Flexibility Score: inf
ROOT
ATOM      1  C   UNL A   1      47.999  21.535  38.380  1.00  0.00     0.274 C 
ENDROOT
BRANCH   1   2
ATOM      2  C   UNL A   1      47.142  22.112  37.170  1.00  0.00     0.275 C 
BRANCH   2   3
ATOM      3  O   UNL A   1      45.966  22.859  37.472  1.00  0.00    -0.458 OA
BRANCH   3   4
ATOM      4  C   UNL A   1      46.058  24.203  37.386  1.00  0.00     0.338 C 
ATOM      5  O   UNL A   1      46.596  24.749  38.329  1.00  0.00    -0.246 OA
BRANCH   4   6
ATOM      6  C   UNL A   1      45.478  24.823  35.934  1.00  0.00     0.060 A 
ATOM      7  C   UNL A   1      46.526  26.030  35.626  1.00  0.00     0.016 A 
ATOM      8  C   UNL A   1      43.757  24.816  35.244  1.00  0.00     0.016 A 
ATOM      9  C   UNL A   1      45.943  27.258  34.825  1.00  0.00     0.010 A 
ATOM     10  C   UNL A   1      42.957  26.112  34.542  1.00  0.00     0.010 A 
ATOM     11  C   UNL A   1      43.994  27.428  34.230  1.00  0.00    -0.014 A 
BRANCH  11  12
ATOM     12  C   UNL A   1      43.083  28.279  33.242  1.00  0.00     0.031 A 
ATOM     13  C   UNL A   1      42.869  27.824  31.848  1.00  0.00     0.074 A 
ATOM     14  C   UNL A   1      42.484  29.409  33.703  1.00  0.00     0.049 A 
ATOM     15  N   UNL A   1      41.832  28.024  31.088  1.00  0.00    -0.248 NA
ATOM     16  C   UNL A   1      43.952  27.056  31.217  1.00  0.00     0.031 C 
ATOM     17  C   UNL A   1      42.820  30.105  34.944  1.00  0.00     0.029 A 
ATOM     18  N   UNL A   1      41.318  30.028  33.325  1.00  0.00    -0.354 N 
ATOM     19  C   UNL A   1      42.139  27.408  29.890  1.00  0.00     0.074 A 
ATOM     20  C   UNL A   1      43.409  26.738  30.050  1.00  0.00     0.031 C 
ATOM     21  C   UNL A   1      41.750  30.750  35.408  1.00  0.00     0.029 A 
ATOM     22  C   UNL A   1      40.744  30.744  34.370  1.00  0.00     0.049 A 
ATOM     23  H   UNL A   1      40.933  29.970  32.420  1.00  0.00     0.167 HD
ATOM     24  C   UNL A   1      41.454  27.508  28.733  1.00  0.00     0.037 A 
ATOM     25  C   UNL A   1      39.538  31.334  34.478  1.00  0.00     0.037 A 
ATOM     26  C   UNL A   1      40.307  28.360  28.589  1.00  0.00     0.049 A 
ATOM     27  C   UNL A   1      38.744  31.340  33.212  1.00  0.00     0.074 A 
ATOM     28  C   UNL A   1      39.567  28.619  27.453  1.00  0.00     0.029 A 
ATOM     29  N   UNL A   1      39.786  29.156  29.606  1.00  0.00    -0.354 N 
ATOM     30  N   UNL A   1      38.953  30.649  32.116  1.00  0.00    -0.248 NA
ATOM     31  C   UNL A   1      37.628  32.283  33.138  1.00  0.00     0.031 C 
ATOM     32  C   UNL A   1      38.659  29.634  27.760  1.00  0.00     0.029 A 
ATOM     33  C   UNL A   1      38.759  29.936  29.111  1.00  0.00     0.049 A 
ATOM     34  H   UNL A   1      40.102  29.163  30.537  1.00  0.00     0.167 HD
ATOM     35  C   UNL A   1      38.052  31.135  31.191  1.00  0.00     0.074 A 
ATOM     36  C   UNL A   1      37.216  32.093  31.893  1.00  0.00     0.031 C 
ATOM     37  C   UNL A   1      37.963  30.872  29.866  1.00  0.00     0.037 A 
BRANCH  24  38
ATOM     38  C   UNL A   1      42.028  26.829  27.532  1.00  0.00     0.057 A 
ATOM     39  C   UNL A   1      42.885  27.484  26.640  1.00  0.00     0.134 A 
ATOM     40  C   UNL A   1      41.716  25.489  27.269  1.00  0.00     0.134 A 
ATOM     41  F   UNL A   1      43.184  28.782  26.812  1.00  0.00    -0.206 F 
ATOM     42  C   UNL A   1      43.421  26.825  25.533  1.00  0.00     0.040 A 
ATOM     43  C   UNL A   1      42.266  24.812  26.181  1.00  0.00     0.040 A 
ATOM     44  F   UNL A   1      40.874  24.816  28.067  1.00  0.00    -0.206 F 
ATOM     45  C   UNL A   1      43.121  25.481  25.310  1.00  0.00     0.006 A 
ENDBRANCH  24  38
BRANCH  25  46
ATOM     46  C   UNL A   1      39.089  32.056  35.711  1.00  0.00     0.057 A 
ATOM     47  C   UNL A   1      39.490  33.372  35.983  1.00  0.00     0.134 A 
ATOM     48  C   UNL A   1      38.287  31.442  36.688  1.00  0.00     0.134 A 
ATOM     49  F   UNL A   1      40.274  34.034  35.119  1.00  0.00    -0.206 F 
ATOM     50  C   UNL A   1      39.137  34.026  37.171  1.00  0.00     0.040 A 
ATOM     51  C   UNL A   1      37.863  32.108  37.839  1.00  0.00     0.040 A 
ATOM     52  F   UNL A   1      37.894  30.167  36.551  1.00  0.00    -0.206 F 
ATOM     53  C   UNL A   1      38.307  33.398  38.096  1.00  0.00     0.006 A 
ENDBRANCH  25  46
BRANCH  37  54
ATOM     54  C   UNL A   1      36.920  31.632  29.117  1.00  0.00     0.057 A 
ATOM     55  C   UNL A   1      35.687  31.058  28.786  1.00  0.00     0.134 A 
ATOM     56  C   UNL A   1      37.138  32.972  28.782  1.00  0.00     0.134 A 
ATOM     57  F   UNL A   1      35.433  29.772  29.070  1.00  0.00    -0.206 F 
ATOM     58  C   UNL A   1      34.709  31.793  28.121  1.00  0.00     0.040 A 
ATOM     59  C   UNL A   1      36.152  33.727  28.158  1.00  0.00     0.040 A 
ATOM     60  F   UNL A   1      38.299  33.571  29.089  1.00  0.00    -0.206 F 
ATOM     61  C   UNL A   1      34.936  33.134  27.818  1.00  0.00     0.006 A 
ENDBRANCH  37  54
ENDBRANCH  11  12
ENDBRANCH   4   6
ENDBRANCH   3   4
ENDBRANCH   2   3
ENDBRANCH   1   2
BRANCH   1  62
ATOM     62  O   UNL A   1      47.490  21.739  39.778  1.00  0.00    -0.462 OA
BRANCH  62  63
ATOM     63  C   UNL A   1      46.287  21.218  40.207  1.00  0.00     0.310 C 
ATOM     64  O   UNL A   1      45.279  21.915  40.189  1.00  0.00    -0.252 OA
BRANCH  63  65
ATOM     65  C   UNL A   1      46.227  19.615  40.601  1.00  0.00     0.116 C 
ATOM     66  C   UNL A   1      46.050  18.521  39.471  1.00  0.00     0.043 C 
ATOM     67  C   UNL A   1      45.773  19.072  42.190  1.00  0.00     0.097 C 
ATOM     68  C   UNL A   1      46.197  17.083  39.943  1.00  0.00    -0.030 C 
ATOM     69  C   UNL A   1      46.582  17.727  42.341  1.00  0.00     0.041 C 
ATOM     70  C   UNL A   1      46.438  16.733  41.217  1.00  0.00    -0.030 C 
BRANCH  67  71
ATOM     71  C   UNL A   1      44.141  19.086  43.188  1.00  0.00     0.229 C 
ATOM     72  O   UNL A   1      43.813  20.196  43.654  1.00  0.00    -0.274 OA
ATOM     73  N   UNL A   1      43.112  17.882  43.576  1.00  0.00    -0.317 N 
ATOM     74  H   UNL A   1      42.242  18.230  43.878  1.00  0.00     0.170 HD
BRANCH  73  75
ATOM     75  C   UNL A   1      43.146  16.162  43.596  1.00  0.00     0.108 A 
ATOM     76  S   UNL A   1      41.766  14.699  42.077  1.00  0.00    -0.122 S 
ATOM     77  C   UNL A   1      44.101  15.050  44.672  1.00  0.00     0.078 A 
ATOM     78  C   UNL A   1      42.790  12.866  42.895  1.00  0.00     0.011 A 
ATOM     79  C   UNL A   1      43.892  13.181  44.171  1.00  0.00    -0.019 A 
ATOM     80  C   UNL A   1      42.163  11.608  42.435  1.00  0.00     0.047 C 
ATOM     81  C   UNL A   1      43.989  11.916  45.021  1.00  0.00     0.037 C 
ATOM     82  C   UNL A   1      42.242  10.600  43.560  1.00  0.00     0.006 C 
ATOM     83  C   UNL A   1      43.626  10.615  44.244  1.00  0.00     0.005 C 
BRANCH  77  84
ATOM     84  C   UNL A   1      44.136  15.533  46.091  1.00  0.00     0.257 C 
ATOM     85  O   UNL A   1      43.289  15.177  46.904  1.00  0.00    -0.269 OA
ATOM     86  N   UNL A   1      45.347  16.092  46.469  1.00  0.00    -0.339 N 
ATOM     87  C   UNL A   1      46.052  15.659  47.675  1.00  0.00     0.120 C 
ATOM     88  C   UNL A   1      45.699  17.398  45.965  1.00  0.00     0.120 C 
ATOM     89  C   UNL A   1      46.018  16.720  48.776  1.00  0.00     0.022 C 
ATOM     90  C   UNL A   1      45.461  18.446  47.028  1.00  0.00     0.022 C 
ATOM     91  C   UNL A   1      46.332  18.119  48.239  1.00  0.00     0.004 C 
ENDBRANCH  77  84
ENDBRANCH  73  75
ENDBRANCH  67  71
ENDBRANCH  63  65
ENDBRANCH  62  63
ENDBRANCH   1  62
TORSDOF 14
ENDMDL
