MODEL 1
REMARK VINA RESULT:     -11.7      0.000      0.000
REMARK SMILES COC(=O)c1ccccc1-c1ccc(/C=C(\C#N)C(=O)OCCOC(=O)c2ccc(-c3c4nc(c(-c5c(F)cccc5F)c5ccc([nH]5)c(-c5c(F)cccc5F)c5nc(c(-c6c(F)cccc6F)c6ccc3[nH]6)C=C5)C=C4)cc2)o1
REMARK SMILES IDX 22 1 21 2 19 3 20 4 16 5 15 6 14 7 11 8 12 9 81 10 13 11
REMARK SMILES IDX 10 12 5 13 6 14 7 15 9 16 8 17 3 18 4 19 2 20 1 21 17 22
REMARK SMILES IDX 18 23 23 24 24 25 25 26 26 27 27 28 28 29 80 30 29 31 79 32
REMARK SMILES IDX 30 33 31 34 32 35 73 36 33 37 78 38 72 39 74 40 34 41 77 42
REMARK SMILES IDX 71 43 70 44 35 46 61 47 44 48 60 49 45 50 48 51 59 52 75 53
REMARK SMILES IDX 46 54 47 55 58 57 76 58 49 59 36 60 37 61 42 62 38 63 39 64
REMARK SMILES IDX 41 65 43 66 40 67 62 68 63 69 68 70 64 71 65 72 67 73 69 74
REMARK SMILES IDX 66 75 50 76 51 77 56 78 52 79 53 80 55 81 57 82 54 83
REMARK H PARENT 74 45 48 56
REMARK Flexibility Score: inf
ROOT
ATOM      1  C   UNL A   1      31.139  29.370  24.385  1.00  0.00     0.275 C 
ENDROOT
BRANCH   1   2
ATOM      2  O   UNL A   1      30.900  27.971  24.132  1.00  0.00    -0.458 OA
BRANCH   2   3
ATOM      3  C   UNL A   1      30.662  27.643  22.840  1.00  0.00     0.349 C 
ATOM      4  O   UNL A   1      30.159  28.370  21.996  1.00  0.00    -0.245 OA
BRANCH   3   5
ATOM      5  C   UNL A   1      31.097  26.266  22.558  1.00  0.00     0.141 C 
ATOM      6  C   UNL A   1      30.999  25.319  23.515  1.00  0.00     0.074 C 
BRANCH   6   7
ATOM      7  C   UNL A   1      31.661  24.052  23.480  1.00  0.00     0.129 A 
ATOM      8  C   UNL A   1      33.269  22.522  23.708  1.00  0.00     0.135 A 
ATOM      9  C   UNL A   1      32.155  21.842  23.271  1.00  0.00     0.051 A 
ATOM     10  O   UNL A   1      32.969  23.839  23.849  1.00  0.00    -0.457 OA
ATOM     11  C   UNL A   1      31.134  22.814  23.128  1.00  0.00     0.051 A 
BRANCH   8  12
ATOM     12  C   UNL A   1      34.643  22.142  24.009  1.00  0.00     0.032 A 
ATOM     13  C   UNL A   1      34.964  21.045  24.830  1.00  0.00     0.071 A 
ATOM     14  C   UNL A   1      36.297  20.777  25.181  1.00  0.00     0.016 A 
ATOM     15  C   UNL A   1      37.325  21.577  24.686  1.00  0.00     0.001 A 
ATOM     16  C   UNL A   1      35.697  22.923  23.504  1.00  0.00     0.013 A 
ATOM     17  C   UNL A   1      37.026  22.643  23.841  1.00  0.00     0.001 A 
BRANCH  13  18
ATOM     18  C   UNL A   1      33.935  20.131  25.368  1.00  0.00     0.338 C 
ATOM     19  O   UNL A   1      33.306  20.345  26.389  1.00  0.00    -0.246 OA
BRANCH  18  20
ATOM     20  O   UNL A   1      33.861  19.029  24.584  1.00  0.00    -0.465 OA
ATOM     21  C   UNL A   1      32.682  18.250  24.776  1.00  0.00     0.282 C 
ENDBRANCH  18  20
ENDBRANCH  13  18
ENDBRANCH   8  12
ENDBRANCH   6   7
BRANCH   5  22
ATOM     22  C   UNL A   1      32.088  26.092  21.419  1.00  0.00     0.107 C 
ATOM     23  N   UNL A   1      32.909  25.950  20.473  1.00  0.00    -0.192 NA
ENDBRANCH   5  22
ENDBRANCH   3   5
ENDBRANCH   2   3
ENDBRANCH   1   2
BRANCH   1  24
ATOM     24  C   UNL A   1      32.524  29.576  24.998  1.00  0.00     0.275 C 
BRANCH  24  25
ATOM     25  O   UNL A   1      32.428  29.741  26.427  1.00  0.00    -0.458 OA
BRANCH  25  26
ATOM     26  C   UNL A   1      32.899  30.917  26.902  1.00  0.00     0.338 C 
ATOM     27  O   UNL A   1      32.283  31.957  27.054  1.00  0.00    -0.246 OA
BRANCH  26  28
ATOM     28  C   UNL A   1      34.297  30.773  27.331  1.00  0.00     0.060 A 
ATOM     29  C   UNL A   1      34.779  29.504  27.636  1.00  0.00     0.016 A 
ATOM     30  C   UNL A   1      35.060  31.895  27.631  1.00  0.00     0.016 A 
ATOM     31  C   UNL A   1      35.946  29.350  28.373  1.00  0.00     0.010 A 
ATOM     32  C   UNL A   1      36.308  31.729  28.239  1.00  0.00     0.010 A 
ATOM     33  C   UNL A   1      36.747  30.457  28.660  1.00  0.00    -0.014 A 
BRANCH  33  34
ATOM     34  C   UNL A   1      38.018  30.313  29.424  1.00  0.00     0.031 A 
ATOM     35  C   UNL A   1      39.126  29.472  28.855  1.00  0.00     0.074 A 
ATOM     36  C   UNL A   1      38.184  30.900  30.625  1.00  0.00     0.049 A 
ATOM     37  N   UNL A   1      40.135  28.906  29.466  1.00  0.00    -0.248 NA
ATOM     38  C   UNL A   1      39.079  29.215  27.406  1.00  0.00     0.031 C 
ATOM     39  C   UNL A   1      37.246  31.823  31.271  1.00  0.00     0.029 A 
ATOM     40  N   UNL A   1      39.210  30.790  31.534  1.00  0.00    -0.354 N 
ATOM     41  C   UNL A   1      40.784  28.151  28.499  1.00  0.00     0.074 A 
ATOM     42  C   UNL A   1      40.075  28.352  27.253  1.00  0.00     0.031 C 
ATOM     43  C   UNL A   1      37.746  32.209  32.453  1.00  0.00     0.029 A 
ATOM     44  C   UNL A   1      38.973  31.468  32.708  1.00  0.00     0.049 A 
ATOM     45  H   UNL A   1      40.032  30.277  31.362  1.00  0.00     0.167 HD
ATOM     46  C   UNL A   1      41.864  27.347  28.650  1.00  0.00     0.037 A 
ATOM     47  C   UNL A   1      39.618  31.434  33.888  1.00  0.00     0.037 A 
ATOM     48  C   UNL A   1      42.598  27.218  29.880  1.00  0.00     0.049 A 
ATOM     49  C   UNL A   1      40.790  30.511  34.051  1.00  0.00     0.074 A 
ATOM     50  C   UNL A   1      43.705  26.431  30.148  1.00  0.00     0.029 A 
ATOM     51  N   UNL A   1      42.315  27.920  31.042  1.00  0.00    -0.354 N 
ATOM     52  N   UNL A   1      41.331  29.704  33.171  1.00  0.00    -0.248 NA
ATOM     53  C   UNL A   1      41.420  30.468  35.377  1.00  0.00     0.031 C 
ATOM     54  C   UNL A   1      44.076  26.641  31.480  1.00  0.00     0.029 A 
ATOM     55  C   UNL A   1      43.225  27.587  32.029  1.00  0.00     0.049 A 
ATOM     56  H   UNL A   1      41.575  28.562  31.148  1.00  0.00     0.167 HD
ATOM     57  C   UNL A   1      42.376  29.071  33.830  1.00  0.00     0.074 A 
ATOM     58  C   UNL A   1      42.397  29.592  35.181  1.00  0.00     0.031 C 
ATOM     59  C   UNL A   1      43.238  28.139  33.358  1.00  0.00     0.037 A 
BRANCH  46  60
ATOM     60  C   UNL A   1      42.281  26.511  27.477  1.00  0.00     0.057 A 
ATOM     61  C   UNL A   1      43.180  26.969  26.509  1.00  0.00     0.134 A 
ATOM     62  C   UNL A   1      41.790  25.204  27.337  1.00  0.00     0.134 A 
ATOM     63  F   UNL A   1      43.673  28.215  26.575  1.00  0.00    -0.206 F 
ATOM     64  C   UNL A   1      43.564  26.165  25.433  1.00  0.00     0.040 A 
ATOM     65  C   UNL A   1      42.184  24.384  26.280  1.00  0.00     0.040 A 
ATOM     66  F   UNL A   1      40.926  24.702  28.233  1.00  0.00    -0.206 F 
ATOM     67  C   UNL A   1      43.071  24.866  25.321  1.00  0.00     0.006 A 
ENDBRANCH  46  60
BRANCH  47  68
ATOM     68  C   UNL A   1      39.118  32.245  35.026  1.00  0.00     0.057 A 
ATOM     69  C   UNL A   1      39.440  33.602  35.142  1.00  0.00     0.134 A 
ATOM     70  C   UNL A   1      38.288  31.692  36.010  1.00  0.00     0.134 A 
ATOM     71  F   UNL A   1      40.248  34.181  34.243  1.00  0.00    -0.206 F 
ATOM     72  C   UNL A   1      38.957  34.379  36.196  1.00  0.00     0.040 A 
ATOM     73  C   UNL A   1      37.775  32.464  37.054  1.00  0.00     0.040 A 
ATOM     74  F   UNL A   1      37.938  30.399  35.953  1.00  0.00    -0.206 F 
ATOM     75  C   UNL A   1      38.115  33.812  37.150  1.00  0.00     0.006 A 
ENDBRANCH  47  68
BRANCH  59  76
ATOM     76  C   UNL A   1      44.313  27.669  34.289  1.00  0.00     0.057 A 
ATOM     77  C   UNL A   1      45.530  28.347  34.411  1.00  0.00     0.134 A 
ATOM     78  C   UNL A   1      44.096  26.558  35.112  1.00  0.00     0.134 A 
ATOM     79  F   UNL A   1      45.799  29.409  33.637  1.00  0.00    -0.206 F 
ATOM     80  C   UNL A   1      46.502  27.929  35.321  1.00  0.00     0.040 A 
ATOM     81  C   UNL A   1      45.054  26.142  36.038  1.00  0.00     0.040 A 
ATOM     82  F   UNL A   1      42.946  25.872  35.042  1.00  0.00    -0.206 F 
ATOM     83  C   UNL A   1      46.261  26.829  36.142  1.00  0.00     0.006 A 
ENDBRANCH  59  76
ENDBRANCH  33  34
ENDBRANCH  26  28
ENDBRANCH  25  26
ENDBRANCH  24  25
ENDBRANCH   1  24
TORSDOF 16
ENDMDL
MODEL 2
REMARK VINA RESULT:     -11.7      3.394      8.280
REMARK SMILES COC(=O)c1ccccc1-c1ccc(/C=C(\C#N)C(=O)OCCOC(=O)c2ccc(-c3c4nc(c(-c5c(F)cccc5F)c5ccc([nH]5)c(-c5c(F)cccc5F)c5nc(c(-c6c(F)cccc6F)c6ccc3[nH]6)C=C5)C=C4)cc2)o1
REMARK SMILES IDX 22 1 21 2 19 3 20 4 16 5 15 6 14 7 11 8 12 9 81 10 13 11
REMARK SMILES IDX 10 12 5 13 6 14 7 15 9 16 8 17 3 18 4 19 2 20 1 21 17 22
REMARK SMILES IDX 18 23 23 24 24 25 25 26 26 27 27 28 28 29 80 30 29 31 79 32
REMARK SMILES IDX 30 33 31 34 32 35 73 36 33 37 78 38 72 39 74 40 34 41 77 42
REMARK SMILES IDX 71 43 70 44 35 46 61 47 44 48 60 49 45 50 48 51 59 52 75 53
REMARK SMILES IDX 46 54 47 55 58 57 76 58 49 59 36 60 37 61 42 62 38 63 39 64
REMARK SMILES IDX 41 65 43 66 40 67 62 68 63 69 68 70 64 71 65 72 67 73 69 74
REMARK SMILES IDX 66 75 50 76 51 77 56 78 52 79 53 80 55 81 57 82 54 83
REMARK H PARENT 74 45 48 56
REMARK Flexibility Score: inf
ROOT
ATOM      1  C   UNL A   1      34.196  34.911  28.338  1.00  0.00     0.275 C 
ENDROOT
BRANCH   1   2
ATOM      2  O   UNL A   1      33.734  33.651  27.813  1.00  0.00    -0.458 OA
BRANCH   2   3
ATOM      3  C   UNL A   1      34.149  32.551  28.485  1.00  0.00     0.349 C 
ATOM      4  O   UNL A   1      34.632  32.535  29.608  1.00  0.00    -0.245 OA
BRANCH   3   5
ATOM      5  C   UNL A   1      33.943  31.335  27.682  1.00  0.00     0.141 C 
ATOM      6  C   UNL A   1      32.699  30.988  27.292  1.00  0.00     0.074 C 
BRANCH   6   7
ATOM      7  C   UNL A   1      32.329  29.700  26.794  1.00  0.00     0.129 A 
ATOM      8  C   UNL A   1      32.121  27.977  25.391  1.00  0.00     0.135 A 
ATOM      9  C   UNL A   1      31.558  27.570  26.580  1.00  0.00     0.051 A 
ATOM     10  O   UNL A   1      32.596  29.242  25.524  1.00  0.00    -0.457 OA
ATOM     11  C   UNL A   1      31.692  28.665  27.470  1.00  0.00     0.051 A 
BRANCH   8  12
ATOM     12  C   UNL A   1      32.279  27.368  24.077  1.00  0.00     0.032 A 
ATOM     13  C   UNL A   1      31.252  27.365  23.115  1.00  0.00     0.071 A 
ATOM     14  C   UNL A   1      31.407  26.677  21.900  1.00  0.00     0.016 A 
ATOM     15  C   UNL A   1      32.601  26.016  21.619  1.00  0.00     0.001 A 
ATOM     16  C   UNL A   1      33.482  26.713  23.764  1.00  0.00     0.013 A 
ATOM     17  C   UNL A   1      33.641  26.042  22.546  1.00  0.00     0.001 A 
BRANCH  13  18
ATOM     18  C   UNL A   1      29.969  28.068  23.324  1.00  0.00     0.338 C 
ATOM     19  O   UNL A   1      28.910  27.501  23.524  1.00  0.00    -0.246 OA
BRANCH  18  20
ATOM     20  O   UNL A   1      30.165  29.404  23.201  1.00  0.00    -0.465 OA
ATOM     21  C   UNL A   1      29.682  29.958  21.979  1.00  0.00     0.282 C 
ENDBRANCH  18  20
ENDBRANCH  13  18
ENDBRANCH   8  12
ENDBRANCH   6   7
BRANCH   5  22
ATOM     22  C   UNL A   1      35.033  30.279  27.768  1.00  0.00     0.107 C 
ATOM     23  N   UNL A   1      35.937  29.403  27.838  1.00  0.00    -0.192 NA
ENDBRANCH   5  22
ENDBRANCH   3   5
ENDBRANCH   2   3
ENDBRANCH   1   2
BRANCH   1  24
ATOM     24  C   UNL A   1      33.028  35.719  28.902  1.00  0.00     0.275 C 
BRANCH  24  25
ATOM     25  O   UNL A   1      32.532  35.116  30.114  1.00  0.00    -0.458 OA
BRANCH  25  26
ATOM     26  C   UNL A   1      32.805  35.799  31.249  1.00  0.00     0.338 C 
ATOM     27  O   UNL A   1      32.267  36.814  31.654  1.00  0.00    -0.246 OA
BRANCH  26  28
ATOM     28  C   UNL A   1      33.820  35.091  32.041  1.00  0.00     0.060 A 
ATOM     29  C   UNL A   1      35.138  35.536  31.997  1.00  0.00     0.016 A 
ATOM     30  C   UNL A   1      33.518  33.880  32.653  1.00  0.00     0.016 A 
ATOM     31  C   UNL A   1      36.176  34.716  32.422  1.00  0.00     0.010 A 
ATOM     32  C   UNL A   1      34.550  33.123  33.216  1.00  0.00     0.010 A 
ATOM     33  C   UNL A   1      35.898  33.509  33.067  1.00  0.00    -0.014 A 
BRANCH  33  34
ATOM     34  C   UNL A   1      36.993  32.627  33.558  1.00  0.00     0.031 A 
ATOM     35  C   UNL A   1      37.580  32.871  34.920  1.00  0.00     0.074 A 
ATOM     36  C   UNL A   1      37.485  31.630  32.795  1.00  0.00     0.049 A 
ATOM     37  N   UNL A   1      38.739  32.504  35.401  1.00  0.00    -0.248 NA
ATOM     38  C   UNL A   1      36.760  33.655  35.858  1.00  0.00     0.031 C 
ATOM     39  C   UNL A   1      36.963  31.203  31.494  1.00  0.00     0.029 A 
ATOM     40  N   UNL A   1      38.560  30.799  33.004  1.00  0.00    -0.354 N 
ATOM     41  C   UNL A   1      38.828  33.090  36.656  1.00  0.00     0.074 A 
ATOM     42  C   UNL A   1      37.594  33.813  36.877  1.00  0.00     0.031 C 
ATOM     43  C   UNL A   1      37.700  30.182  31.034  1.00  0.00     0.029 A 
ATOM     44  C   UNL A   1      38.819  29.966  31.941  1.00  0.00     0.049 A 
ATOM     45  H   UNL A   1      39.091  30.800  33.833  1.00  0.00     0.167 HD
ATOM     46  C   UNL A   1      39.860  33.041  37.532  1.00  0.00     0.037 A 
ATOM     47  C   UNL A   1      39.878  29.179  31.679  1.00  0.00     0.037 A 
ATOM     48  C   UNL A   1      41.048  32.256  37.325  1.00  0.00     0.049 A 
ATOM     49  C   UNL A   1      41.030  29.163  32.640  1.00  0.00     0.074 A 
ATOM     50  C   UNL A   1      42.158  32.134  38.142  1.00  0.00     0.029 A 
ATOM     51  N   UNL A   1      41.265  31.435  36.229  1.00  0.00    -0.354 N 
ATOM     52  N   UNL A   1      41.167  29.812  33.771  1.00  0.00    -0.248 NA
ATOM     53  C   UNL A   1      42.186  28.334  32.277  1.00  0.00     0.031 C 
ATOM     54  C   UNL A   1      43.056  31.255  37.529  1.00  0.00     0.029 A 
ATOM     55  C   UNL A   1      42.489  30.802  36.349  1.00  0.00     0.049 A 
ATOM     56  H   UNL A   1      40.640  31.319  35.476  1.00  0.00     0.167 HD
ATOM     57  C   UNL A   1      42.415  29.456  34.263  1.00  0.00     0.074 A 
ATOM     58  C   UNL A   1      42.992  28.530  33.311  1.00  0.00     0.031 C 
ATOM     59  C   UNL A   1      43.029  29.864  35.399  1.00  0.00     0.037 A 
BRANCH  46  60
ATOM     60  C   UNL A   1      39.773  33.894  38.762  1.00  0.00     0.057 A 
ATOM     61  C   UNL A   1      39.182  33.445  39.948  1.00  0.00     0.134 A 
ATOM     62  C   UNL A   1      40.324  35.183  38.763  1.00  0.00     0.134 A 
ATOM     63  F   UNL A   1      38.620  32.228  40.009  1.00  0.00    -0.206 F 
ATOM     64  C   UNL A   1      39.125  34.254  41.085  1.00  0.00     0.040 A 
ATOM     65  C   UNL A   1      40.294  35.992  39.899  1.00  0.00     0.040 A 
ATOM     66  F   UNL A   1      40.908  35.674  37.659  1.00  0.00    -0.206 F 
ATOM     67  C   UNL A   1      39.688  35.528  41.065  1.00  0.00     0.006 A 
ENDBRANCH  46  60
BRANCH  47  68
ATOM     68  C   UNL A   1      39.926  28.403  30.413  1.00  0.00     0.057 A 
ATOM     69  C   UNL A   1      39.223  27.201  30.277  1.00  0.00     0.134 A 
ATOM     70  C   UNL A   1      40.654  28.855  29.305  1.00  0.00     0.134 A 
ATOM     71  F   UNL A   1      38.525  26.708  31.310  1.00  0.00    -0.206 F 
ATOM     72  C   UNL A   1      39.243  26.476  29.085  1.00  0.00     0.040 A 
ATOM     73  C   UNL A   1      40.661  28.154  28.098  1.00  0.00     0.040 A 
ATOM     74  F   UNL A   1      41.345  30.002  29.370  1.00  0.00    -0.206 F 
ATOM     75  C   UNL A   1      39.957  26.957  27.988  1.00  0.00     0.006 A 
ENDBRANCH  47  68
BRANCH  59  76
ATOM     76  C   UNL A   1      44.367  29.265  35.706  1.00  0.00     0.057 A 
ATOM     77  C   UNL A   1      45.557  29.867  35.286  1.00  0.00     0.134 A 
ATOM     78  C   UNL A   1      44.458  28.104  36.482  1.00  0.00     0.134 A 
ATOM     79  F   UNL A   1      45.530  30.973  34.528  1.00  0.00    -0.206 F 
ATOM     80  C   UNL A   1      46.799  29.328  35.624  1.00  0.00     0.040 A 
ATOM     81  C   UNL A   1      45.694  27.566  36.841  1.00  0.00     0.040 A 
ATOM     82  F   UNL A   1      43.350  27.485  36.917  1.00  0.00    -0.206 F 
ATOM     83  C   UNL A   1      46.869  28.179  36.410  1.00  0.00     0.006 A 
ENDBRANCH  59  76
ENDBRANCH  33  34
ENDBRANCH  26  28
ENDBRANCH  25  26
ENDBRANCH  24  25
ENDBRANCH   1  24
TORSDOF 16
ENDMDL
MODEL 3
REMARK VINA RESULT:     -11.5      4.012      7.777
REMARK SMILES COC(=O)c1ccccc1-c1ccc(/C=C(\C#N)C(=O)OCCOC(=O)c2ccc(-c3c4nc(c(-c5c(F)cccc5F)c5ccc([nH]5)c(-c5c(F)cccc5F)c5nc(c(-c6c(F)cccc6F)c6ccc3[nH]6)C=C5)C=C4)cc2)o1
REMARK SMILES IDX 22 1 21 2 19 3 20 4 16 5 15 6 14 7 11 8 12 9 81 10 13 11
REMARK SMILES IDX 10 12 5 13 6 14 7 15 9 16 8 17 3 18 4 19 2 20 1 21 17 22
REMARK SMILES IDX 18 23 23 24 24 25 25 26 26 27 27 28 28 29 80 30 29 31 79 32
REMARK SMILES IDX 30 33 31 34 32 35 73 36 33 37 78 38 72 39 74 40 34 41 77 42
REMARK SMILES IDX 71 43 70 44 35 46 61 47 44 48 60 49 45 50 48 51 59 52 75 53
REMARK SMILES IDX 46 54 47 55 58 57 76 58 49 59 36 60 37 61 42 62 38 63 39 64
REMARK SMILES IDX 41 65 43 66 40 67 62 68 63 69 68 70 64 71 65 72 67 73 69 74
REMARK SMILES IDX 66 75 50 76 51 77 56 78 52 79 53 80 55 81 57 82 54 83
REMARK H PARENT 74 45 48 56
REMARK Flexibility Score: inf
ROOT
ATOM      1  C   UNL A   1      33.845  33.670  28.190  1.00  0.00     0.275 C 
ENDROOT
BRANCH   1   2
ATOM      2  O   UNL A   1      34.019  32.300  27.778  1.00  0.00    -0.458 OA
BRANCH   2   3
ATOM      3  C   UNL A   1      32.947  31.730  27.179  1.00  0.00     0.349 C 
ATOM      4  O   UNL A   1      31.874  32.272  26.958  1.00  0.00    -0.245 OA
BRANCH   3   5
ATOM      5  C   UNL A   1      33.232  30.334  26.808  1.00  0.00     0.141 C 
ATOM      6  C   UNL A   1      32.244  29.548  26.332  1.00  0.00     0.074 C 
BRANCH   6   7
ATOM      7  C   UNL A   1      32.309  28.123  26.236  1.00  0.00     0.129 A 
ATOM      8  C   UNL A   1      33.066  26.091  25.707  1.00  0.00     0.135 A 
ATOM      9  C   UNL A   1      31.926  25.891  26.451  1.00  0.00     0.051 A 
ATOM     10  O   UNL A   1      33.304  27.423  25.592  1.00  0.00    -0.457 OA
ATOM     11  C   UNL A   1      31.447  27.182  26.789  1.00  0.00     0.051 A 
BRANCH   8  12
ATOM     12  C   UNL A   1      34.007  25.211  25.026  1.00  0.00     0.032 A 
ATOM     13  C   UNL A   1      33.811  24.769  23.704  1.00  0.00     0.071 A 
ATOM     14  C   UNL A   1      34.687  23.838  23.121  1.00  0.00     0.016 A 
ATOM     15  C   UNL A   1      35.786  23.369  23.837  1.00  0.00     0.001 A 
ATOM     16  C   UNL A   1      35.134  24.741  25.722  1.00  0.00     0.013 A 
ATOM     17  C   UNL A   1      36.015  23.827  25.133  1.00  0.00     0.001 A 
BRANCH  13  18
ATOM     18  C   UNL A   1      32.689  25.243  22.869  1.00  0.00     0.338 C 
ATOM     19  O   UNL A   1      32.633  26.357  22.377  1.00  0.00    -0.246 OA
BRANCH  18  20
ATOM     20  O   UNL A   1      31.743  24.276  22.797  1.00  0.00    -0.465 OA
ATOM     21  C   UNL A   1      30.481  24.646  23.346  1.00  0.00     0.282 C 
ENDBRANCH  18  20
ENDBRANCH  13  18
ENDBRANCH   8  12
ENDBRANCH   6   7
BRANCH   5  22
ATOM     22  C   UNL A   1      34.460  29.705  27.446  1.00  0.00     0.107 C 
ATOM     23  N   UNL A   1      35.479  29.183  27.974  1.00  0.00    -0.192 NA
ENDBRANCH   5  22
ENDBRANCH   3   5
ENDBRANCH   2   3
ENDBRANCH   1   2
BRANCH   1  24
ATOM     24  C   UNL A   1      34.072  33.811  29.695  1.00  0.00     0.275 C 
BRANCH  24  25
ATOM     25  O   UNL A   1      34.296  32.521  30.299  1.00  0.00    -0.458 OA
BRANCH  25  26
ATOM     26  C   UNL A   1      35.299  32.478  31.204  1.00  0.00     0.338 C 
ATOM     27  O   UNL A   1      35.314  32.964  32.321  1.00  0.00    -0.246 OA
BRANCH  26  28
ATOM     28  C   UNL A   1      36.405  31.649  30.705  1.00  0.00     0.060 A 
ATOM     29  C   UNL A   1      36.989  30.720  31.561  1.00  0.00     0.016 A 
ATOM     30  C   UNL A   1      36.996  31.928  29.478  1.00  0.00     0.016 A 
ATOM     31  C   UNL A   1      38.236  30.179  31.273  1.00  0.00     0.010 A 
ATOM     32  C   UNL A   1      38.177  31.268  29.124  1.00  0.00     0.010 A 
ATOM     33  C   UNL A   1      38.837  30.419  30.035  1.00  0.00    -0.014 A 
BRANCH  33  34
ATOM     34  C   UNL A   1      40.159  29.827  29.693  1.00  0.00     0.031 A 
ATOM     35  C   UNL A   1      41.381  30.703  29.701  1.00  0.00     0.074 A 
ATOM     36  C   UNL A   1      40.279  28.529  29.350  1.00  0.00     0.049 A 
ATOM     37  N   UNL A   1      42.530  30.528  29.102  1.00  0.00    -0.248 NA
ATOM     38  C   UNL A   1      41.287  31.955  30.470  1.00  0.00     0.031 C 
ATOM     39  C   UNL A   1      39.211  27.527  29.384  1.00  0.00     0.029 A 
ATOM     40  N   UNL A   1      41.367  27.830  28.883  1.00  0.00    -0.354 N 
ATOM     41  C   UNL A   1      43.258  31.687  29.341  1.00  0.00     0.074 A 
ATOM     42  C   UNL A   1      42.434  32.546  30.164  1.00  0.00     0.031 C 
ATOM     43  C   UNL A   1      39.698  26.345  28.981  1.00  0.00     0.029 A 
ATOM     44  C   UNL A   1      41.073  26.531  28.539  1.00  0.00     0.049 A 
ATOM     45  H   UNL A   1      42.267  28.220  28.804  1.00  0.00     0.167 HD
ATOM     46  C   UNL A   1      44.496  32.005  28.892  1.00  0.00     0.037 A 
ATOM     47  C   UNL A   1      41.793  25.616  27.866  1.00  0.00     0.037 A 
ATOM     48  C   UNL A   1      45.328  31.106  28.137  1.00  0.00     0.049 A 
ATOM     49  C   UNL A   1      43.148  25.994  27.343  1.00  0.00     0.074 A 
ATOM     50  C   UNL A   1      46.596  31.324  27.627  1.00  0.00     0.029 A 
ATOM     51  N   UNL A   1      44.982  29.804  27.808  1.00  0.00    -0.354 N 
ATOM     52  N   UNL A   1      43.787  27.132  27.464  1.00  0.00    -0.248 NA
ATOM     53  C   UNL A   1      43.866  24.978  26.564  1.00  0.00     0.031 C 
ATOM     54  C   UNL A   1      47.008  30.159  26.971  1.00  0.00     0.029 A 
ATOM     55  C   UNL A   1      46.012  29.205  27.105  1.00  0.00     0.049 A 
ATOM     56  H   UNL A   1      44.129  29.370  28.041  1.00  0.00     0.167 HD
ATOM     57  C   UNL A   1      44.991  26.963  26.793  1.00  0.00     0.074 A 
ATOM     58  C   UNL A   1      44.994  25.612  26.273  1.00  0.00     0.031 C 
ATOM     59  C   UNL A   1      46.000  27.850  26.620  1.00  0.00     0.037 A 
BRANCH  46  60
ATOM     60  C   UNL A   1      45.000  33.391  29.159  1.00  0.00     0.057 A 
ATOM     61  C   UNL A   1      44.703  34.474  28.325  1.00  0.00     0.134 A 
ATOM     62  C   UNL A   1      45.777  33.647  30.299  1.00  0.00     0.134 A 
ATOM     63  F   UNL A   1      43.980  34.293  27.210  1.00  0.00    -0.206 F 
ATOM     64  C   UNL A   1      45.174  35.759  28.604  1.00  0.00     0.040 A 
ATOM     65  C   UNL A   1      46.234  34.931  30.600  1.00  0.00     0.040 A 
ATOM     66  F   UNL A   1      46.096  32.653  31.142  1.00  0.00    -0.206 F 
ATOM     67  C   UNL A   1      45.936  35.991  29.748  1.00  0.00     0.006 A 
ENDBRANCH  46  60
BRANCH  47  68
ATOM     68  C   UNL A   1      41.211  24.279  27.586  1.00  0.00     0.057 A 
ATOM     69  C   UNL A   1      41.649  23.142  28.273  1.00  0.00     0.134 A 
ATOM     70  C   UNL A   1      40.188  24.109  26.644  1.00  0.00     0.134 A 
ATOM     71  F   UNL A   1      42.640  23.238  29.172  1.00  0.00    -0.206 F 
ATOM     72  C   UNL A   1      41.093  21.885  28.034  1.00  0.00     0.040 A 
ATOM     73  C   UNL A   1      39.604  22.863  26.413  1.00  0.00     0.040 A 
ATOM     74  F   UNL A   1      39.720  25.160  25.955  1.00  0.00    -0.206 F 
ATOM     75  C   UNL A   1      40.061  21.744  27.108  1.00  0.00     0.006 A 
ENDBRANCH  47  68
BRANCH  59  76
ATOM     76  C   UNL A   1      47.216  27.368  25.891  1.00  0.00     0.057 A 
ATOM     77  C   UNL A   1      48.276  26.745  26.558  1.00  0.00     0.134 A 
ATOM     78  C   UNL A   1      47.293  27.479  24.498  1.00  0.00     0.134 A 
ATOM     79  F   UNL A   1      48.263  26.625  27.894  1.00  0.00    -0.206 F 
ATOM     80  C   UNL A   1      49.379  26.253  25.860  1.00  0.00     0.040 A 
ATOM     81  C   UNL A   1      48.383  26.974  23.788  1.00  0.00     0.040 A 
ATOM     82  F   UNL A   1      46.303  28.062  23.805  1.00  0.00    -0.206 F 
ATOM     83  C   UNL A   1      49.430  26.360  24.471  1.00  0.00     0.006 A 
ENDBRANCH  59  76
ENDBRANCH  33  34
ENDBRANCH  26  28
ENDBRANCH  25  26
ENDBRANCH  24  25
ENDBRANCH   1  24
TORSDOF 16
ENDMDL
