MODEL 1
REMARK VINA RESULT:     -11.3      0.000      0.000
REMARK SMILES O=C(C[NH+]1CC[NH+](Cc2cc(Cl)ccc2[N+](=O)[O-])CC1)OCCOC(=O)c1ccc(-c2c3nc(c(-c4c(F)cccc4F)c4ccc([nH]4)c(-c4c(F)cccc4F)c4nc(c(-c5c(F)cccc5F)c5ccc2[nH]5)C=C4)C=C3)cc1
REMARK SMILES IDX 22 1 21 2 2 3 1 4 3 5 4 6 5 7 20 8 6 10 19 11 7 12 8 14 9 15
REMARK SMILES IDX 10 16 15 17 11 18 14 19 12 20 13 21 16 22 17 23 18 24 23 25
REMARK SMILES IDX 24 26 25 27 26 28 27 29 28 30 80 31 29 32 79 33 30 34 31 35
REMARK SMILES IDX 32 36 73 37 33 38 78 39 72 40 74 41 34 42 77 43 71 44 70 45
REMARK SMILES IDX 35 47 61 48 44 49 60 50 45 51 48 52 59 53 75 54 46 55 47 56
REMARK SMILES IDX 58 58 76 59 49 60 36 61 37 62 42 63 38 64 39 65 41 66 43 67
REMARK SMILES IDX 40 68 62 69 63 70 68 71 64 72 65 73 67 74 69 75 66 76 50 77
REMARK SMILES IDX 51 78 56 79 52 80 53 81 55 82 57 83 54 84
REMARK H PARENT 4 9 7 13 74 46 48 57
REMARK Flexibility Score: inf
ROOT
ATOM      1  C   UNL A   1      42.389  20.714  26.054  1.00  0.00     0.274 C 
ENDROOT
BRANCH   1   2
ATOM      2  O   UNL A   1      41.091  21.335  25.944  1.00  0.00    -0.458 OA
BRANCH   2   3
ATOM      3  C   UNL A   1      39.913  20.656  25.917  1.00  0.00     0.361 C 
ATOM      4  O   UNL A   1      39.906  19.453  25.665  1.00  0.00    -0.245 OA
BRANCH   3   5
ATOM      5  C   UNL A   1      38.625  21.447  26.118  1.00  0.00     0.386 C 
BRANCH   5   6
ATOM      6  N   UNL A   1      37.697  21.581  24.986  1.00  0.00    -0.316 N 
ATOM      7  C   UNL A   1      36.461  20.805  25.032  1.00  0.00     0.325 C 
ATOM      8  C   UNL A   1      37.424  22.994  24.671  1.00  0.00     0.325 C 
ATOM      9  H   UNL A   1      38.215  21.146  24.224  1.00  0.00     0.348 HD
ATOM     10  C   UNL A   1      35.309  21.426  25.851  1.00  0.00     0.324 C 
ATOM     11  C   UNL A   1      36.307  23.650  25.522  1.00  0.00     0.324 C 
ATOM     12  N   UNL A   1      35.074  22.867  25.674  1.00  0.00    -0.322 N 
ATOM     13  H   UNL A   1      34.693  23.170  26.571  1.00  0.00     0.348 HD
BRANCH  12  14
ATOM     14  C   UNL A   1      33.981  23.225  24.754  1.00  0.00     0.306 C 
BRANCH  14  15
ATOM     15  C   UNL A   1      33.264  24.524  25.070  1.00  0.00     0.085 A 
ATOM     16  C   UNL A   1      33.662  25.659  24.329  1.00  0.00     0.037 A 
ATOM     17  C   UNL A   1      32.360  24.728  26.138  1.00  0.00     0.278 A 
ATOM     18  C   UNL A   1      33.326  26.948  24.739  1.00  0.00     0.042 A 
ATOM     19  C   UNL A   1      32.020  26.037  26.539  1.00  0.00     0.088 A 
ATOM     20  Cl  UNL A   1      33.970  28.301  23.895  1.00  0.00    -0.084 Cl
ATOM     21  C   UNL A   1      32.535  27.143  25.861  1.00  0.00     0.027 A 
BRANCH  17  22
ATOM     22  N   UNL A   1      31.743  23.624  26.894  1.00  0.00     0.063 N 
ATOM     23  O   UNL A   1      30.587  23.300  26.587  1.00  0.00    -0.258 OA
ATOM     24  O   UNL A   1      32.412  23.057  27.765  1.00  0.00    -0.258 OA
ENDBRANCH  17  22
ENDBRANCH  14  15
ENDBRANCH  12  14
ENDBRANCH   5   6
ENDBRANCH   3   5
ENDBRANCH   2   3
ENDBRANCH   1   2
BRANCH   1  25
ATOM     25  C   UNL A   1      43.507  21.555  25.438  1.00  0.00     0.275 C 
BRANCH  25  26
ATOM     26  O   UNL A   1      42.970  22.754  24.853  1.00  0.00    -0.458 OA
BRANCH  26  27
ATOM     27  C   UNL A   1      43.749  23.860  24.981  1.00  0.00     0.338 C 
ATOM     28  O   UNL A   1      44.771  24.102  24.379  1.00  0.00    -0.246 OA
BRANCH  27  29
ATOM     29  C   UNL A   1      43.038  24.851  25.828  1.00  0.00     0.060 A 
ATOM     30  C   UNL A   1      43.459  26.187  25.756  1.00  0.00     0.016 A 
ATOM     31  C   UNL A   1      41.957  24.495  26.642  1.00  0.00     0.016 A 
ATOM     32  C   UNL A   1      42.837  27.162  26.535  1.00  0.00     0.010 A 
ATOM     33  C   UNL A   1      41.346  25.468  27.434  1.00  0.00     0.010 A 
ATOM     34  C   UNL A   1      41.816  26.793  27.418  1.00  0.00    -0.014 A 
BRANCH  34  35
ATOM     35  C   UNL A   1      41.454  27.690  28.541  1.00  0.00     0.031 A 
ATOM     36  C   UNL A   1      42.247  27.548  29.810  1.00  0.00     0.074 A 
ATOM     37  C   UNL A   1      40.443  28.569  28.463  1.00  0.00     0.049 A 
ATOM     38  N   UNL A   1      42.072  28.117  30.973  1.00  0.00    -0.248 NA
ATOM     39  C   UNL A   1      43.389  26.618  29.758  1.00  0.00     0.031 C 
ATOM     40  C   UNL A   1      39.626  28.825  27.281  1.00  0.00     0.029 A 
ATOM     41  N   UNL A   1      39.922  29.399  29.424  1.00  0.00    -0.354 N 
ATOM     42  C   UNL A   1      43.070  27.605  31.791  1.00  0.00     0.074 A 
ATOM     43  C   UNL A   1      43.826  26.657  31.005  1.00  0.00     0.031 C 
ATOM     44  C   UNL A   1      38.682  29.731  27.596  1.00  0.00     0.029 A 
ATOM     45  C   UNL A   1      38.814  30.093  29.007  1.00  0.00     0.049 A 
ATOM     46  H   UNL A   1      40.306  29.487  30.327  1.00  0.00     0.167 HD
ATOM     47  C   UNL A   1      43.337  27.896  33.085  1.00  0.00     0.037 A 
ATOM     48  C   UNL A   1      37.988  30.902  29.700  1.00  0.00     0.037 A 
ATOM     49  C   UNL A   1      42.573  28.824  33.871  1.00  0.00     0.049 A 
ATOM     50  C   UNL A   1      38.259  31.167  31.160  1.00  0.00     0.074 A 
ATOM     51  C   UNL A   1      42.767  29.204  35.185  1.00  0.00     0.029 A 
ATOM     52  N   UNL A   1      41.457  29.507  33.412  1.00  0.00    -0.354 N 
ATOM     53  N   UNL A   1      39.223  30.707  31.920  1.00  0.00    -0.248 NA
ATOM     54  C   UNL A   1      37.327  32.067  31.858  1.00  0.00     0.031 C 
ATOM     55  C   UNL A   1      41.734  30.078  35.538  1.00  0.00     0.029 A 
ATOM     56  C   UNL A   1      40.933  30.287  34.426  1.00  0.00     0.049 A 
ATOM     57  H   UNL A   1      41.092  29.446  32.499  1.00  0.00     0.167 HD
ATOM     58  C   UNL A   1      39.036  31.283  33.172  1.00  0.00     0.074 A 
ATOM     59  C   UNL A   1      37.864  32.127  33.070  1.00  0.00     0.031 C 
ATOM     60  C   UNL A   1      39.772  31.133  34.301  1.00  0.00     0.037 A 
BRANCH  47  61
ATOM     61  C   UNL A   1      44.474  27.156  33.724  1.00  0.00     0.057 A 
ATOM     62  C   UNL A   1      44.288  25.931  34.380  1.00  0.00     0.134 A 
ATOM     63  C   UNL A   1      45.766  27.694  33.712  1.00  0.00     0.134 A 
ATOM     64  F   UNL A   1      43.070  25.374  34.447  1.00  0.00    -0.206 F 
ATOM     65  C   UNL A   1      45.340  25.289  35.036  1.00  0.00     0.040 A 
ATOM     66  C   UNL A   1      46.831  27.047  34.338  1.00  0.00     0.040 A 
ATOM     67  F   UNL A   1      46.012  28.864  33.104  1.00  0.00    -0.206 F 
ATOM     68  C   UNL A   1      46.616  25.846  35.014  1.00  0.00     0.006 A 
ENDBRANCH  47  61
BRANCH  48  69
ATOM     69  C   UNL A   1      36.816  31.513  29.023  1.00  0.00     0.057 A 
ATOM     70  C   UNL A   1      35.649  30.778  28.787  1.00  0.00     0.134 A 
ATOM     71  C   UNL A   1      36.835  32.847  28.597  1.00  0.00     0.134 A 
ATOM     72  F   UNL A   1      35.579  29.489  29.148  1.00  0.00    -0.206 F 
ATOM     73  C   UNL A   1      34.545  31.344  28.146  1.00  0.00     0.040 A 
ATOM     74  C   UNL A   1      35.732  33.432  27.974  1.00  0.00     0.040 A 
ATOM     75  F   UNL A   1      37.925  33.605  28.792  1.00  0.00    -0.206 F 
ATOM     76  C   UNL A   1      34.583  32.677  27.744  1.00  0.00     0.006 A 
ENDBRANCH  48  69
BRANCH  60  77
ATOM     77  C   UNL A   1      39.374  31.930  35.509  1.00  0.00     0.057 A 
ATOM     78  C   UNL A   1      39.836  33.233  35.724  1.00  0.00     0.134 A 
ATOM     79  C   UNL A   1      38.443  31.413  36.420  1.00  0.00     0.134 A 
ATOM     80  F   UNL A   1      40.733  33.783  34.893  1.00  0.00    -0.206 F 
ATOM     81  C   UNL A   1      39.393  33.992  36.810  1.00  0.00     0.040 A 
ATOM     82  C   UNL A   1      37.973  32.169  37.493  1.00  0.00     0.040 A 
ATOM     83  F   UNL A   1      37.952  30.174  36.263  1.00  0.00    -0.206 F 
ATOM     84  C   UNL A   1      38.449  33.464  37.691  1.00  0.00     0.006 A 
ENDBRANCH  60  77
ENDBRANCH  34  35
ENDBRANCH  27  29
ENDBRANCH  26  27
ENDBRANCH  25  26
ENDBRANCH   1  25
TORSDOF 15
ENDMDL
MODEL 2
REMARK VINA RESULT:     -11.0      5.260     11.118
REMARK SMILES O=C(C[NH+]1CC[NH+](Cc2cc(Cl)ccc2[N+](=O)[O-])CC1)OCCOC(=O)c1ccc(-c2c3nc(c(-c4c(F)cccc4F)c4ccc([nH]4)c(-c4c(F)cccc4F)c4nc(c(-c5c(F)cccc5F)c5ccc2[nH]5)C=C4)C=C3)cc1
REMARK SMILES IDX 22 1 21 2 2 3 1 4 3 5 4 6 5 7 20 8 6 10 19 11 7 12 8 14 9 15
REMARK SMILES IDX 10 16 15 17 11 18 14 19 12 20 13 21 16 22 17 23 18 24 23 25
REMARK SMILES IDX 24 26 25 27 26 28 27 29 28 30 80 31 29 32 79 33 30 34 31 35
REMARK SMILES IDX 32 36 73 37 33 38 78 39 72 40 74 41 34 42 77 43 71 44 70 45
REMARK SMILES IDX 35 47 61 48 44 49 60 50 45 51 48 52 59 53 75 54 46 55 47 56
REMARK SMILES IDX 58 58 76 59 49 60 36 61 37 62 42 63 38 64 39 65 41 66 43 67
REMARK SMILES IDX 40 68 62 69 63 70 68 71 64 72 65 73 67 74 69 75 66 76 50 77
REMARK SMILES IDX 51 78 56 79 52 80 53 81 55 82 57 83 54 84
REMARK H PARENT 4 9 7 13 74 46 48 57
REMARK Flexibility Score: inf
ROOT
ATOM      1  C   UNL A   1      33.303  34.491  28.273  1.00  0.00     0.274 C 
ENDROOT
BRANCH   1   2
ATOM      2  O   UNL A   1      32.761  34.583  29.607  1.00  0.00    -0.458 OA
BRANCH   2   3
ATOM      3  C   UNL A   1      32.986  35.618  30.460  1.00  0.00     0.361 C 
ATOM      4  O   UNL A   1      32.655  36.757  30.140  1.00  0.00    -0.245 OA
BRANCH   3   5
ATOM      5  C   UNL A   1      33.733  35.328  31.757  1.00  0.00     0.386 C 
BRANCH   5   6
ATOM      6  N   UNL A   1      34.484  34.069  31.872  1.00  0.00    -0.316 N 
ATOM      7  C   UNL A   1      35.906  34.100  31.545  1.00  0.00     0.325 C 
ATOM      8  C   UNL A   1      34.253  33.415  33.172  1.00  0.00     0.325 C 
ATOM      9  H   UNL A   1      34.086  33.506  31.121  1.00  0.00     0.348 HD
ATOM     10  C   UNL A   1      36.843  34.584  32.673  1.00  0.00     0.324 C 
ATOM     11  C   UNL A   1      35.148  33.926  34.330  1.00  0.00     0.324 C 
ATOM     12  N   UNL A   1      36.578  34.062  34.023  1.00  0.00    -0.322 N 
ATOM     13  H   UNL A   1      36.899  34.804  34.644  1.00  0.00     0.348 HD
BRANCH  12  14
ATOM     14  C   UNL A   1      37.424  32.935  34.446  1.00  0.00     0.306 C 
BRANCH  14  15
ATOM     15  C   UNL A   1      38.420  33.247  35.548  1.00  0.00     0.085 A 
ATOM     16  C   UNL A   1      38.908  34.572  35.597  1.00  0.00     0.037 A 
ATOM     17  C   UNL A   1      39.014  32.302  36.414  1.00  0.00     0.278 A 
ATOM     18  C   UNL A   1      40.047  34.899  36.332  1.00  0.00     0.042 A 
ATOM     19  C   UNL A   1      40.161  32.646  37.160  1.00  0.00     0.088 A 
ATOM     20  Cl  UNL A   1      40.694  36.489  36.231  1.00  0.00    -0.084 Cl
ATOM     21  C   UNL A   1      40.694  33.933  37.088  1.00  0.00     0.027 A 
BRANCH  17  22
ATOM     22  N   UNL A   1      38.505  30.929  36.580  1.00  0.00     0.063 N 
ATOM     23  O   UNL A   1      39.118  30.020  36.003  1.00  0.00    -0.258 OA
ATOM     24  O   UNL A   1      37.522  30.746  37.308  1.00  0.00    -0.258 OA
ENDBRANCH  17  22
ENDBRANCH  14  15
ENDBRANCH  12  14
ENDBRANCH   5   6
ENDBRANCH   3   5
ENDBRANCH   2   3
ENDBRANCH   1   2
BRANCH   1  25
ATOM     25  C   UNL A   1      34.589  33.667  28.206  1.00  0.00     0.275 C 
BRANCH  25  26
ATOM     26  O   UNL A   1      34.472  32.488  29.022  1.00  0.00    -0.458 OA
BRANCH  26  27
ATOM     27  C   UNL A   1      34.366  31.319  28.338  1.00  0.00     0.338 C 
ATOM     28  O   UNL A   1      33.480  31.001  27.577  1.00  0.00    -0.246 OA
BRANCH  27  29
ATOM     29  C   UNL A   1      35.629  30.556  28.496  1.00  0.00     0.060 A 
ATOM     30  C   UNL A   1      35.905  30.011  29.760  1.00  0.00     0.016 A 
ATOM     31  C   UNL A   1      36.506  30.337  27.428  1.00  0.00     0.016 A 
ATOM     32  C   UNL A   1      37.081  29.292  29.973  1.00  0.00     0.010 A 
ATOM     33  C   UNL A   1      37.690  29.632  27.645  1.00  0.00     0.010 A 
ATOM     34  C   UNL A   1      38.003  29.150  28.928  1.00  0.00    -0.014 A 
BRANCH  34  35
ATOM     35  C   UNL A   1      39.408  28.793  29.231  1.00  0.00     0.031 A 
ATOM     36  C   UNL A   1      40.242  29.834  29.925  1.00  0.00     0.074 A 
ATOM     37  C   UNL A   1      39.944  27.614  28.878  1.00  0.00     0.049 A 
ATOM     38  N   UNL A   1      41.519  29.832  30.204  1.00  0.00    -0.248 NA
ATOM     39  C   UNL A   1      39.533  31.054  30.347  1.00  0.00     0.031 C 
ATOM     40  C   UNL A   1      39.232  26.514  28.235  1.00  0.00     0.029 A 
ATOM     41  N   UNL A   1      41.235  27.163  28.997  1.00  0.00    -0.354 N 
ATOM     42  C   UNL A   1      41.766  31.052  30.820  1.00  0.00     0.074 A 
ATOM     43  C   UNL A   1      40.518  31.781  30.845  1.00  0.00     0.031 C 
ATOM     44  C   UNL A   1      40.106  25.520  27.988  1.00  0.00     0.029 A 
ATOM     45  C   UNL A   1      41.440  25.931  28.428  1.00  0.00     0.049 A 
ATOM     46  H   UNL A   1      41.946  27.675  29.447  1.00  0.00     0.167 HD
ATOM     47  C   UNL A   1      42.929  31.527  31.322  1.00  0.00     0.037 A 
ATOM     48  C   UNL A   1      42.581  25.234  28.260  1.00  0.00     0.037 A 
ATOM     49  C   UNL A   1      44.172  30.810  31.278  1.00  0.00     0.049 A 
ATOM     50  C   UNL A   1      43.882  25.804  28.766  1.00  0.00     0.074 A 
ATOM     51  C   UNL A   1      45.405  31.192  31.771  1.00  0.00     0.029 A 
ATOM     52  N   UNL A   1      44.338  29.564  30.693  1.00  0.00    -0.354 N 
ATOM     53  N   UNL A   1      44.105  26.943  29.377  1.00  0.00    -0.248 NA
ATOM     54  C   UNL A   1      45.091  24.991  28.560  1.00  0.00     0.031 C 
ATOM     55  C   UNL A   1      46.331  30.198  31.436  1.00  0.00     0.029 A 
ATOM     56  C   UNL A   1      45.661  29.173  30.788  1.00  0.00     0.049 A 
ATOM     57  H   UNL A   1      43.620  29.036  30.274  1.00  0.00     0.167 HD
ATOM     58  C   UNL A   1      45.467  26.970  29.657  1.00  0.00     0.074 A 
ATOM     59  C   UNL A   1      46.020  25.733  29.149  1.00  0.00     0.031 C 
ATOM     60  C   UNL A   1      46.191  27.928  30.287  1.00  0.00     0.037 A 
BRANCH  47  61
ATOM     61  C   UNL A   1      42.898  32.907  31.909  1.00  0.00     0.057 A 
ATOM     62  C   UNL A   1      42.611  33.131  33.263  1.00  0.00     0.134 A 
ATOM     63  C   UNL A   1      43.126  34.027  31.101  1.00  0.00     0.134 A 
ATOM     64  F   UNL A   1      42.360  32.101  34.085  1.00  0.00    -0.206 F 
ATOM     65  C   UNL A   1      42.510  34.424  33.782  1.00  0.00     0.040 A 
ATOM     66  C   UNL A   1      43.057  35.322  31.615  1.00  0.00     0.040 A 
ATOM     67  F   UNL A   1      43.403  33.882  29.797  1.00  0.00    -0.206 F 
ATOM     68  C   UNL A   1      42.737  35.523  32.957  1.00  0.00     0.006 A 
ENDBRANCH  47  61
BRANCH  48  69
ATOM     69  C   UNL A   1      42.547  23.921  27.568  1.00  0.00     0.057 A 
ATOM     70  C   UNL A   1      42.666  23.828  26.177  1.00  0.00     0.134 A 
ATOM     71  C   UNL A   1      42.396  22.725  28.283  1.00  0.00     0.134 A 
ATOM     72  F   UNL A   1      42.788  24.939  25.436  1.00  0.00    -0.206 F 
ATOM     73  C   UNL A   1      42.629  22.597  25.520  1.00  0.00     0.040 A 
ATOM     74  C   UNL A   1      42.378  21.486  27.641  1.00  0.00     0.040 A 
ATOM     75  F   UNL A   1      42.274  22.746  29.619  1.00  0.00    -0.206 F 
ATOM     76  C   UNL A   1      42.492  21.421  26.254  1.00  0.00     0.006 A 
ENDBRANCH  48  69
BRANCH  60  77
ATOM     77  C   UNL A   1      47.652  27.669  30.512  1.00  0.00     0.057 A 
ATOM     78  C   UNL A   1      48.633  28.124  29.623  1.00  0.00     0.134 A 
ATOM     79  C   UNL A   1      48.083  27.031  31.683  1.00  0.00     0.134 A 
ATOM     80  F   UNL A   1      48.285  28.735  28.481  1.00  0.00    -0.206 F 
ATOM     81  C   UNL A   1      49.992  27.946  29.887  1.00  0.00     0.040 A 
ATOM     82  C   UNL A   1      49.439  26.870  31.970  1.00  0.00     0.040 A 
ATOM     83  F   UNL A   1      47.194  26.582  32.582  1.00  0.00    -0.206 F 
ATOM     84  C   UNL A   1      50.399  27.328  31.070  1.00  0.00     0.006 A 
ENDBRANCH  60  77
ENDBRANCH  34  35
ENDBRANCH  27  29
ENDBRANCH  26  27
ENDBRANCH  25  26
ENDBRANCH   1  25
TORSDOF 15
ENDMDL
MODEL 3
REMARK VINA RESULT:     -11.0      3.909      7.744
REMARK SMILES O=C(C[NH+]1CC[NH+](Cc2cc(Cl)ccc2[N+](=O)[O-])CC1)OCCOC(=O)c1ccc(-c2c3nc(c(-c4c(F)cccc4F)c4ccc([nH]4)c(-c4c(F)cccc4F)c4nc(c(-c5c(F)cccc5F)c5ccc2[nH]5)C=C4)C=C3)cc1
REMARK SMILES IDX 22 1 21 2 2 3 1 4 3 5 4 6 5 7 20 8 6 10 19 11 7 12 8 14 9 15
REMARK SMILES IDX 10 16 15 17 11 18 14 19 12 20 13 21 16 22 17 23 18 24 23 25
REMARK SMILES IDX 24 26 25 27 26 28 27 29 28 30 80 31 29 32 79 33 30 34 31 35
REMARK SMILES IDX 32 36 73 37 33 38 78 39 72 40 74 41 34 42 77 43 71 44 70 45
REMARK SMILES IDX 35 47 61 48 44 49 60 50 45 51 48 52 59 53 75 54 46 55 47 56
REMARK SMILES IDX 58 58 76 59 49 60 36 61 37 62 42 63 38 64 39 65 41 66 43 67
REMARK SMILES IDX 40 68 62 69 63 70 68 71 64 72 65 73 67 74 69 75 66 76 50 77
REMARK SMILES IDX 51 78 56 79 52 80 53 81 55 82 57 83 54 84
REMARK H PARENT 4 9 7 13 74 46 48 57
REMARK Flexibility Score: inf
ROOT
ATOM      1  C   UNL A   1      35.411  20.774  24.840  1.00  0.00     0.274 C 
ENDROOT
BRANCH   1   2
ATOM      2  O   UNL A   1      34.405  19.748  24.984  1.00  0.00    -0.458 OA
BRANCH   2   3
ATOM      3  C   UNL A   1      33.100  19.986  25.282  1.00  0.00     0.361 C 
ATOM      4  O   UNL A   1      32.268  19.091  25.147  1.00  0.00    -0.245 OA
BRANCH   3   5
ATOM      5  C   UNL A   1      32.705  21.400  25.693  1.00  0.00     0.386 C 
BRANCH   5   6
ATOM      6  N   UNL A   1      31.839  22.179  24.795  1.00  0.00    -0.316 N 
ATOM      7  C   UNL A   1      31.071  23.274  25.381  1.00  0.00     0.325 C 
ATOM      8  C   UNL A   1      32.562  22.623  23.591  1.00  0.00     0.325 C 
ATOM      9  H   UNL A   1      31.119  21.502  24.542  1.00  0.00     0.348 HD
ATOM     10  C   UNL A   1      31.830  24.607  25.553  1.00  0.00     0.324 C 
ATOM     11  C   UNL A   1      33.374  23.932  23.762  1.00  0.00     0.324 C 
ATOM     12  N   UNL A   1      32.675  25.038  24.429  1.00  0.00    -0.322 N 
ATOM     13  H   UNL A   1      33.420  25.577  24.870  1.00  0.00     0.348 HD
BRANCH  12  14
ATOM     14  C   UNL A   1      32.077  26.039  23.532  1.00  0.00     0.306 C 
BRANCH  14  15
ATOM     15  C   UNL A   1      32.104  27.468  24.041  1.00  0.00     0.085 A 
ATOM     16  C   UNL A   1      33.207  27.828  24.847  1.00  0.00     0.037 A 
ATOM     17  C   UNL A   1      31.056  28.408  23.916  1.00  0.00     0.278 A 
ATOM     18  C   UNL A   1      33.188  28.980  25.632  1.00  0.00     0.042 A 
ATOM     19  C   UNL A   1      31.050  29.575  24.709  1.00  0.00     0.088 A 
ATOM     20  Cl  UNL A   1      34.486  29.288  26.717  1.00  0.00    -0.084 Cl
ATOM     21  C   UNL A   1      32.099  29.837  25.591  1.00  0.00     0.027 A 
BRANCH  17  22
ATOM     22  N   UNL A   1      29.922  28.233  22.991  1.00  0.00     0.063 N 
ATOM     23  O   UNL A   1      30.018  28.748  21.868  1.00  0.00    -0.258 OA
ATOM     24  O   UNL A   1      28.954  27.559  23.361  1.00  0.00    -0.258 OA
ENDBRANCH  17  22
ENDBRANCH  14  15
ENDBRANCH  12  14
ENDBRANCH   5   6
ENDBRANCH   3   5
ENDBRANCH   2   3
ENDBRANCH   1   2
BRANCH   1  25
ATOM     25  C   UNL A   1      36.834  20.242  25.006  1.00  0.00     0.275 C 
BRANCH  25  26
ATOM     26  O   UNL A   1      37.752  21.327  25.229  1.00  0.00    -0.458 OA
BRANCH  26  27
ATOM     27  C   UNL A   1      38.916  20.984  25.839  1.00  0.00     0.338 C 
ATOM     28  O   UNL A   1      39.509  19.933  25.736  1.00  0.00    -0.246 OA
BRANCH  27  29
ATOM     29  C   UNL A   1      39.483  22.187  26.499  1.00  0.00     0.060 A 
ATOM     30  C   UNL A   1      38.924  23.431  26.172  1.00  0.00     0.016 A 
ATOM     31  C   UNL A   1      40.508  22.102  27.448  1.00  0.00     0.016 A 
ATOM     32  C   UNL A   1      39.420  24.598  26.752  1.00  0.00     0.010 A 
ATOM     33  C   UNL A   1      41.016  23.272  28.016  1.00  0.00     0.010 A 
ATOM     34  C   UNL A   1      40.506  24.524  27.632  1.00  0.00    -0.014 A 
BRANCH  34  35
ATOM     35  C   UNL A   1      41.314  25.735  27.907  1.00  0.00     0.031 A 
ATOM     36  C   UNL A   1      40.633  26.857  28.641  1.00  0.00     0.074 A 
ATOM     37  C   UNL A   1      42.585  25.862  27.497  1.00  0.00     0.049 A 
ATOM     38  N   UNL A   1      41.061  28.062  28.909  1.00  0.00    -0.248 NA
ATOM     39  C   UNL A   1      39.269  26.580  29.124  1.00  0.00     0.031 C 
ATOM     40  C   UNL A   1      43.365  24.836  26.810  1.00  0.00     0.029 A 
ATOM     41  N   UNL A   1      43.436  26.936  27.585  1.00  0.00    -0.354 N 
ATOM     42  C   UNL A   1      40.017  28.687  29.578  1.00  0.00     0.074 A 
ATOM     43  C   UNL A   1      38.925  27.744  29.646  1.00  0.00     0.031 C 
ATOM     44  C   UNL A   1      44.576  25.341  26.512  1.00  0.00     0.029 A 
ATOM     45  C   UNL A   1      44.641  26.733  26.960  1.00  0.00     0.049 A 
ATOM     46  H   UNL A   1      43.204  27.771  28.052  1.00  0.00     0.167 HD
ATOM     47  C   UNL A   1      39.969  29.938  30.092  1.00  0.00     0.037 A 
ATOM     48  C   UNL A   1      45.662  27.587  26.751  1.00  0.00     0.037 A 
ATOM     49  C   UNL A   1      41.048  30.880  30.006  1.00  0.00     0.049 A 
ATOM     50  C   UNL A   1      45.569  29.000  27.272  1.00  0.00     0.074 A 
ATOM     51  C   UNL A   1      41.110  32.168  30.506  1.00  0.00     0.029 A 
ATOM     52  N   UNL A   1      42.253  30.637  29.364  1.00  0.00    -0.354 N 
ATOM     53  N   UNL A   1      44.593  29.576  27.932  1.00  0.00    -0.248 NA
ATOM     54  C   UNL A   1      46.720  29.881  27.020  1.00  0.00     0.031 C 
ATOM     55  C   UNL A   1      42.334  32.723  30.119  1.00  0.00     0.029 A 
ATOM     56  C   UNL A   1      43.056  31.761  29.430  1.00  0.00     0.049 A 
ATOM     57  H   UNL A   1      42.499  29.790  28.926  1.00  0.00     0.167 HD
ATOM     58  C   UNL A   1      45.022  30.870  28.203  1.00  0.00     0.074 A 
ATOM     59  C   UNL A   1      46.348  30.996  27.635  1.00  0.00     0.031 C 
ATOM     60  C   UNL A   1      44.381  31.862  28.869  1.00  0.00     0.037 A 
BRANCH  47  61
ATOM     61  C   UNL A   1      38.682  30.352  30.741  1.00  0.00     0.057 A 
ATOM     62  C   UNL A   1      38.438  30.144  32.106  1.00  0.00     0.134 A 
ATOM     63  C   UNL A   1      37.661  30.937  29.983  1.00  0.00     0.134 A 
ATOM     64  F   UNL A   1      39.367  29.566  32.882  1.00  0.00    -0.206 F 
ATOM     65  C   UNL A   1      37.208  30.464  32.684  1.00  0.00     0.040 A 
ATOM     66  C   UNL A   1      36.438  31.290  30.556  1.00  0.00     0.040 A 
ATOM     67  F   UNL A   1      37.829  31.162  28.672  1.00  0.00    -0.206 F 
ATOM     68  C   UNL A   1      36.205  31.042  31.908  1.00  0.00     0.006 A 
ENDBRANCH  47  61
BRANCH  48  69
ATOM     69  C   UNL A   1      46.860  27.133  26.001  1.00  0.00     0.057 A 
ATOM     70  C   UNL A   1      47.910  26.467  26.642  1.00  0.00     0.134 A 
ATOM     71  C   UNL A   1      46.983  27.353  24.623  1.00  0.00     0.134 A 
ATOM     72  F   UNL A   1      47.863  26.249  27.965  1.00  0.00    -0.206 F 
ATOM     73  C   UNL A   1      49.042  26.041  25.944  1.00  0.00     0.040 A 
ATOM     74  C   UNL A   1      48.099  26.915  23.908  1.00  0.00     0.040 A 
ATOM     75  F   UNL A   1      46.012  27.988  23.949  1.00  0.00    -0.206 F 
ATOM     76  C   UNL A   1      49.135  26.259  24.571  1.00  0.00     0.006 A 
ENDBRANCH  48  69
BRANCH  60  77
ATOM     77  C   UNL A   1      45.111  33.158  29.071  1.00  0.00     0.057 A 
ATOM     78  C   UNL A   1      45.979  33.360  30.149  1.00  0.00     0.134 A 
ATOM     79  C   UNL A   1      45.007  34.181  28.120  1.00  0.00     0.134 A 
ATOM     80  F   UNL A   1      46.118  32.422  31.098  1.00  0.00    -0.206 F 
ATOM     81  C   UNL A   1      46.714  34.541  30.279  1.00  0.00     0.040 A 
ATOM     82  C   UNL A   1      45.755  35.354  28.224  1.00  0.00     0.040 A 
ATOM     83  F   UNL A   1      44.201  34.044  27.056  1.00  0.00    -0.206 F 
ATOM     84  C   UNL A   1      46.612  35.537  29.308  1.00  0.00     0.006 A 
ENDBRANCH  60  77
ENDBRANCH  34  35
ENDBRANCH  27  29
ENDBRANCH  26  27
ENDBRANCH  25  26
ENDBRANCH   1  25
TORSDOF 15
ENDMDL
