MODEL 1
REMARK VINA RESULT:     -12.3      0.000      0.000
REMARK SMILES COc1ccc([C@H]2CC(c3ccccc3)=NN2C(=O)CCCC(=O)OCCOC(=O)c2ccc(-c3c4nc(c(-c5c(F)cccc5F)c5ccc([nH]5)c(-c5c(F)cccc5F)c5nc(c(-c6c(F)cccc6F)c6ccc3[nH]6)C=C5)C=C4)cc2)cc1
REMARK SMILES IDX 23 1 24 2 22 3 21 4 20 5 18 6 19 7 17 8 7 9 8 10 9 11 16 12
REMARK SMILES IDX 6 13 3 14 4 15 86 16 5 17 85 18 2 19 1 20 10 21 11 22 15 23
REMARK SMILES IDX 12 24 14 25 13 26 25 27 26 28 27 29 28 30 29 31 30 32 31 33
REMARK SMILES IDX 32 34 84 35 33 36 83 37 34 38 35 39 36 40 77 41 37 42 82 43
REMARK SMILES IDX 76 44 78 45 38 46 81 47 75 48 74 49 39 51 65 52 48 53 64 54
REMARK SMILES IDX 49 55 52 56 63 57 79 58 50 59 51 60 62 62 80 63 53 64 40 65
REMARK SMILES IDX 41 66 46 67 42 68 43 69 45 70 47 71 44 72 66 73 67 74 72 75
REMARK SMILES IDX 68 76 69 77 71 78 73 79 70 80 54 81 55 82 60 83 56 84 57 85
REMARK SMILES IDX 59 86 61 87 58 88
REMARK H PARENT 78 50 52 61
REMARK Flexibility Score: inf
ROOT
ATOM      1  C   UNL A   1      33.346  33.008  27.737  1.00  0.00     0.305 C 
ATOM      2  O   UNL A   1      32.185  33.319  27.499  1.00  0.00    -0.252 OA
ENDROOT
BRANCH   1   3
ATOM      3  C   UNL A   1      33.801  31.578  27.874  1.00  0.00     0.123 C 
BRANCH   3   4
ATOM      4  C   UNL A   1      32.925  30.551  27.163  1.00  0.00     0.022 C 
BRANCH   4   5
ATOM      5  C   UNL A   1      33.411  29.105  27.217  1.00  0.00     0.103 C 
BRANCH   5   6
ATOM      6  C   UNL A   1      32.336  28.029  27.269  1.00  0.00     0.243 C 
ATOM      7  O   UNL A   1      31.366  28.174  28.016  1.00  0.00    -0.273 OA
BRANCH   6   8
ATOM      8  N   UNL A   1      32.437  27.026  26.320  1.00  0.00    -0.225 N 
ATOM      9  C   UNL A   1      31.361  26.333  25.603  1.00  0.00     0.147 C 
ATOM     10  C   UNL A   1      32.050  25.128  24.981  1.00  0.00     0.091 C 
ATOM     11  C   UNL A   1      33.480  25.481  25.266  1.00  0.00     0.071 C 
ATOM     12  N   UNL A   1      33.680  26.525  26.008  1.00  0.00    -0.174 NA
BRANCH   9  13
ATOM     13  C   UNL A   1      30.694  27.204  24.548  1.00  0.00    -0.023 A 
ATOM     14  C   UNL A   1      29.536  28.835  22.548  1.00  0.00     0.118 A 
ATOM     15  C   UNL A   1      30.828  29.078  22.993  1.00  0.00     0.047 A 
ATOM     16  C   UNL A   1      28.826  27.768  23.091  1.00  0.00     0.047 A 
ATOM     17  C   UNL A   1      31.382  28.303  24.018  1.00  0.00     0.010 A 
ATOM     18  C   UNL A   1      29.395  26.959  24.081  1.00  0.00     0.010 A 
BRANCH  14  19
ATOM     19  O   UNL A   1      28.888  29.557  21.585  1.00  0.00    -0.497 OA
ATOM     20  C   UNL A   1      28.879  30.975  21.733  1.00  0.00     0.278 C 
ENDBRANCH  14  19
ENDBRANCH   9  13
BRANCH  11  21
ATOM     21  C   UNL A   1      34.558  24.595  24.818  1.00  0.00    -0.002 A 
ATOM     22  C   UNL A   1      34.407  23.918  23.605  1.00  0.00     0.010 A 
ATOM     23  C   UNL A   1      35.722  24.458  25.576  1.00  0.00     0.010 A 
ATOM     24  C   UNL A   1      35.436  23.101  23.141  1.00  0.00     0.001 A 
ATOM     25  C   UNL A   1      36.740  23.623  25.115  1.00  0.00     0.001 A 
ATOM     26  C   UNL A   1      36.599  22.949  23.898  1.00  0.00     0.000 A 
ENDBRANCH  11  21
ENDBRANCH   6   8
ENDBRANCH   5   6
ENDBRANCH   4   5
ENDBRANCH   3   4
ENDBRANCH   1   3
BRANCH   1  27
ATOM     27  O   UNL A   1      34.355  33.895  27.918  1.00  0.00    -0.462 OA
BRANCH  27  28
ATOM     28  C   UNL A   1      34.034  34.990  28.797  1.00  0.00     0.274 C 
BRANCH  28  29
ATOM     29  C   UNL A   1      34.122  34.573  30.266  1.00  0.00     0.275 C 
BRANCH  29  30
ATOM     30  O   UNL A   1      35.347  33.865  30.554  1.00  0.00    -0.458 OA
BRANCH  30  31
ATOM     31  C   UNL A   1      35.196  32.659  31.146  1.00  0.00     0.338 C 
ATOM     32  O   UNL A   1      34.300  32.331  31.916  1.00  0.00    -0.246 OA
BRANCH  31  33
ATOM     33  C   UNL A   1      36.269  31.716  30.766  1.00  0.00     0.060 A 
ATOM     34  C   UNL A   1      37.007  31.025  31.724  1.00  0.00     0.016 A 
ATOM     35  C   UNL A   1      36.648  31.636  29.425  1.00  0.00     0.016 A 
ATOM     36  C   UNL A   1      38.183  30.357  31.350  1.00  0.00     0.010 A 
ATOM     37  C   UNL A   1      37.779  30.897  29.051  1.00  0.00     0.010 A 
ATOM     38  C   UNL A   1      38.613  30.300  30.013  1.00  0.00    -0.014 A 
BRANCH  38  39
ATOM     39  C   UNL A   1      39.948  29.727  29.612  1.00  0.00     0.031 A 
ATOM     40  C   UNL A   1      41.183  30.609  29.607  1.00  0.00     0.074 A 
ATOM     41  C   UNL A   1      40.123  28.436  29.259  1.00  0.00     0.049 A 
ATOM     42  N   UNL A   1      42.332  30.431  29.001  1.00  0.00    -0.248 NA
ATOM     43  C   UNL A   1      41.102  31.864  30.370  1.00  0.00     0.031 C 
ATOM     44  C   UNL A   1      39.096  27.397  29.254  1.00  0.00     0.029 A 
ATOM     45  N   UNL A   1      41.256  27.776  28.830  1.00  0.00    -0.354 N 
ATOM     46  C   UNL A   1      43.058  31.601  29.206  1.00  0.00     0.074 A 
ATOM     47  C   UNL A   1      42.231  32.466  30.022  1.00  0.00     0.031 C 
ATOM     48  C   UNL A   1      39.650  26.229  28.897  1.00  0.00     0.029 A 
ATOM     49  C   UNL A   1      41.044  26.453  28.525  1.00  0.00     0.049 A 
ATOM     50  H   UNL A   1      42.135  28.213  28.748  1.00  0.00     0.167 HD
ATOM     51  C   UNL A   1      44.290  31.935  28.747  1.00  0.00     0.037 A 
ATOM     52  C   UNL A   1      41.838  25.529  27.949  1.00  0.00     0.037 A 
ATOM     53  C   UNL A   1      45.181  31.042  28.051  1.00  0.00     0.049 A 
ATOM     54  C   UNL A   1      43.213  25.896  27.470  1.00  0.00     0.074 A 
ATOM     55  C   UNL A   1      46.465  31.289  27.590  1.00  0.00     0.029 A 
ATOM     56  N   UNL A   1      44.902  29.719  27.753  1.00  0.00    -0.354 N 
ATOM     57  N   UNL A   1      43.831  27.048  27.540  1.00  0.00    -0.248 NA
ATOM     58  C   UNL A   1      43.987  24.839  26.797  1.00  0.00     0.031 C 
ATOM     59  C   UNL A   1      46.955  30.120  26.996  1.00  0.00     0.029 A 
ATOM     60  C   UNL A   1      45.988  29.137  27.116  1.00  0.00     0.049 A 
ATOM     61  H   UNL A   1      44.057  29.259  27.962  1.00  0.00     0.167 HD
ATOM     62  C   UNL A   1      45.056  26.861  26.909  1.00  0.00     0.074 A 
ATOM     63  C   UNL A   1      45.108  25.476  26.491  1.00  0.00     0.031 C 
ATOM     64  C   UNL A   1      46.040  27.765  26.688  1.00  0.00     0.037 A 
BRANCH  51  65
ATOM     65  C   UNL A   1      44.744  33.353  28.942  1.00  0.00     0.057 A 
ATOM     66  C   UNL A   1      44.422  34.382  28.051  1.00  0.00     0.134 A 
ATOM     67  C   UNL A   1      45.490  33.695  30.080  1.00  0.00     0.134 A 
ATOM     68  F   UNL A   1      43.721  34.121  26.937  1.00  0.00    -0.206 F 
ATOM     69  C   UNL A   1      44.848  35.695  28.270  1.00  0.00     0.040 A 
ATOM     70  C   UNL A   1      45.896  35.006  30.325  1.00  0.00     0.040 A 
ATOM     71  F   UNL A   1      45.823  32.758  30.982  1.00  0.00    -0.206 F 
ATOM     72  C   UNL A   1      45.581  36.010  29.413  1.00  0.00     0.006 A 
ENDBRANCH  51  65
BRANCH  52  73
ATOM     73  C   UNL A   1      41.308  24.162  27.720  1.00  0.00     0.057 A 
ATOM     74  C   UNL A   1      40.383  23.907  26.702  1.00  0.00     0.134 A 
ATOM     75  C   UNL A   1      41.738  23.077  28.494  1.00  0.00     0.134 A 
ATOM     76  F   UNL A   1      39.912  24.912  25.951  1.00  0.00    -0.206 F 
ATOM     77  C   UNL A   1      39.913  22.617  26.453  1.00  0.00     0.040 A 
ATOM     78  C   UNL A   1      41.297  21.779  28.239  1.00  0.00     0.040 A 
ATOM     79  F   UNL A   1      42.621  23.261  29.485  1.00  0.00    -0.206 F 
ATOM     80  C   UNL A   1      40.380  21.546  27.214  1.00  0.00     0.006 A 
ENDBRANCH  52  73
BRANCH  64  81
ATOM     81  C   UNL A   1      47.264  27.288  25.965  1.00  0.00     0.057 A 
ATOM     82  C   UNL A   1      48.330  26.685  26.645  1.00  0.00     0.134 A 
ATOM     83  C   UNL A   1      47.371  27.411  24.574  1.00  0.00     0.134 A 
ATOM     84  F   UNL A   1      48.295  26.549  27.979  1.00  0.00    -0.206 F 
ATOM     85  C   UNL A   1      49.466  26.235  25.969  1.00  0.00     0.040 A 
ATOM     86  C   UNL A   1      48.495  26.949  23.885  1.00  0.00     0.040 A 
ATOM     87  F   UNL A   1      46.384  27.975  23.862  1.00  0.00    -0.206 F 
ATOM     88  C   UNL A   1      49.548  26.364  24.583  1.00  0.00     0.006 A 
ENDBRANCH  64  81
ENDBRANCH  38  39
ENDBRANCH  31  33
ENDBRANCH  30  31
ENDBRANCH  29  30
ENDBRANCH  28  29
ENDBRANCH  27  28
ENDBRANCH   1  27
TORSDOF 18
ENDMDL
MODEL 2
REMARK VINA RESULT:     -12.1      5.031      9.947
REMARK SMILES COc1ccc([C@H]2CC(c3ccccc3)=NN2C(=O)CCCC(=O)OCCOC(=O)c2ccc(-c3c4nc(c(-c5c(F)cccc5F)c5ccc([nH]5)c(-c5c(F)cccc5F)c5nc(c(-c6c(F)cccc6F)c6ccc3[nH]6)C=C5)C=C4)cc2)cc1
REMARK SMILES IDX 23 1 24 2 22 3 21 4 20 5 18 6 19 7 17 8 7 9 8 10 9 11 16 12
REMARK SMILES IDX 6 13 3 14 4 15 86 16 5 17 85 18 2 19 1 20 10 21 11 22 15 23
REMARK SMILES IDX 12 24 14 25 13 26 25 27 26 28 27 29 28 30 29 31 30 32 31 33
REMARK SMILES IDX 32 34 84 35 33 36 83 37 34 38 35 39 36 40 77 41 37 42 82 43
REMARK SMILES IDX 76 44 78 45 38 46 81 47 75 48 74 49 39 51 65 52 48 53 64 54
REMARK SMILES IDX 49 55 52 56 63 57 79 58 50 59 51 60 62 62 80 63 53 64 40 65
REMARK SMILES IDX 41 66 46 67 42 68 43 69 45 70 47 71 44 72 66 73 67 74 72 75
REMARK SMILES IDX 68 76 69 77 71 78 73 79 70 80 54 81 55 82 60 83 56 84 57 85
REMARK SMILES IDX 59 86 61 87 58 88
REMARK H PARENT 78 50 52 61
REMARK Flexibility Score: inf
ROOT
ATOM      1  C   UNL A   1      40.601  21.365  26.877  1.00  0.00     0.305 C 
ATOM      2  O   UNL A   1      40.739  20.830  27.971  1.00  0.00    -0.252 OA
ENDROOT
BRANCH   1   3
ATOM      3  C   UNL A   1      39.669  22.526  26.643  1.00  0.00     0.123 C 
BRANCH   3   4
ATOM      4  C   UNL A   1      38.408  22.193  25.851  1.00  0.00     0.022 C 
BRANCH   4   5
ATOM      5  C   UNL A   1      37.418  23.338  25.658  1.00  0.00     0.103 C 
BRANCH   5   6
ATOM      6  C   UNL A   1      36.584  23.305  24.386  1.00  0.00     0.243 C 
ATOM      7  O   UNL A   1      37.015  22.719  23.390  1.00  0.00    -0.273 OA
BRANCH   6   8
ATOM      8  N   UNL A   1      35.294  23.794  24.495  1.00  0.00    -0.225 N 
ATOM      9  C   UNL A   1      34.109  23.437  23.706  1.00  0.00     0.147 C 
ATOM     10  C   UNL A   1      33.103  24.529  24.037  1.00  0.00     0.091 C 
ATOM     11  C   UNL A   1      33.827  25.205  25.165  1.00  0.00     0.071 C 
ATOM     12  N   UNL A   1      35.033  24.794  25.404  1.00  0.00    -0.174 NA
BRANCH   9  13
ATOM     13  C   UNL A   1      33.567  22.055  24.041  1.00  0.00    -0.023 A 
ATOM     14  C   UNL A   1      32.558  19.510  24.754  1.00  0.00     0.118 A 
ATOM     15  C   UNL A   1      33.407  20.196  25.611  1.00  0.00     0.047 A 
ATOM     16  C   UNL A   1      32.200  20.102  23.545  1.00  0.00     0.047 A 
ATOM     17  C   UNL A   1      33.946  21.431  25.237  1.00  0.00     0.010 A 
ATOM     18  C   UNL A   1      32.697  21.361  23.189  1.00  0.00     0.010 A 
BRANCH  14  19
ATOM     19  O   UNL A   1      32.013  18.283  25.004  1.00  0.00    -0.497 OA
ATOM     20  C   UNL A   1      32.916  17.216  25.287  1.00  0.00     0.278 C 
ENDBRANCH  14  19
ENDBRANCH   9  13
BRANCH  11  21
ATOM     21  C   UNL A   1      33.216  26.347  25.850  1.00  0.00    -0.002 A 
ATOM     22  C   UNL A   1      33.926  27.548  25.910  1.00  0.00     0.010 A 
ATOM     23  C   UNL A   1      31.939  26.240  26.403  1.00  0.00     0.010 A 
ATOM     24  C   UNL A   1      33.349  28.659  26.523  1.00  0.00     0.001 A 
ATOM     25  C   UNL A   1      31.375  27.350  27.032  1.00  0.00     0.001 A 
ATOM     26  C   UNL A   1      32.077  28.557  27.089  1.00  0.00     0.000 A 
ENDBRANCH  11  21
ENDBRANCH   6   8
ENDBRANCH   5   6
ENDBRANCH   4   5
ENDBRANCH   3   4
ENDBRANCH   1   3
BRANCH   1  27
ATOM     27  O   UNL A   1      41.246  20.979  25.749  1.00  0.00    -0.462 OA
BRANCH  27  28
ATOM     28  C   UNL A   1      42.601  20.538  25.960  1.00  0.00     0.274 C 
BRANCH  28  29
ATOM     29  C   UNL A   1      43.610  21.539  25.395  1.00  0.00     0.275 C 
BRANCH  29  30
ATOM     30  O   UNL A   1      42.961  22.688  24.810  1.00  0.00    -0.458 OA
BRANCH  30  31
ATOM     31  C   UNL A   1      43.612  23.864  24.963  1.00  0.00     0.338 C 
ATOM     32  O   UNL A   1      44.690  24.170  24.465  1.00  0.00    -0.246 OA
BRANCH  31  33
ATOM     33  C   UNL A   1      42.874  24.798  25.837  1.00  0.00     0.060 A 
ATOM     34  C   UNL A   1      42.632  26.116  25.459  1.00  0.00     0.016 A 
ATOM     35  C   UNL A   1      42.547  24.389  27.132  1.00  0.00     0.016 A 
ATOM     36  C   UNL A   1      42.176  27.042  26.409  1.00  0.00     0.010 A 
ATOM     37  C   UNL A   1      42.014  25.304  28.051  1.00  0.00     0.010 A 
ATOM     38  C   UNL A   1      41.884  26.668  27.732  1.00  0.00    -0.014 A 
BRANCH  38  39
ATOM     39  C   UNL A   1      41.547  27.671  28.806  1.00  0.00     0.031 A 
ATOM     40  C   UNL A   1      42.401  27.761  30.057  1.00  0.00     0.074 A 
ATOM     41  C   UNL A   1      40.509  28.530  28.716  1.00  0.00     0.049 A 
ATOM     42  N   UNL A   1      42.119  28.293  31.222  1.00  0.00    -0.248 NA
ATOM     43  C   UNL A   1      43.738  27.153  29.989  1.00  0.00     0.031 C 
ATOM     44  C   UNL A   1      39.598  28.666  27.582  1.00  0.00     0.029 A 
ATOM     45  N   UNL A   1      40.047  29.465  29.619  1.00  0.00    -0.354 N 
ATOM     46  C   UNL A   1      43.188  27.975  32.056  1.00  0.00     0.074 A 
ATOM     47  C   UNL A   1      44.137  27.234  31.251  1.00  0.00     0.031 C 
ATOM     48  C   UNL A   1      38.727  29.655  27.830  1.00  0.00     0.029 A 
ATOM     49  C   UNL A   1      38.932  30.144  29.190  1.00  0.00     0.049 A 
ATOM     50  H   UNL A   1      40.477  29.631  30.490  1.00  0.00     0.167 HD
ATOM     51  C   UNL A   1      43.360  28.258  33.371  1.00  0.00     0.037 A 
ATOM     52  C   UNL A   1      38.113  31.009  29.823  1.00  0.00     0.037 A 
ATOM     53  C   UNL A   1      42.496  29.106  34.153  1.00  0.00     0.049 A 
ATOM     54  C   UNL A   1      38.327  31.342  31.271  1.00  0.00     0.074 A 
ATOM     55  C   UNL A   1      42.624  29.478  35.481  1.00  0.00     0.029 A 
ATOM     56  N   UNL A   1      41.370  29.749  33.669  1.00  0.00    -0.354 N 
ATOM     57  N   UNL A   1      39.258  30.918  32.087  1.00  0.00    -0.248 NA
ATOM     58  C   UNL A   1      37.347  32.247  31.896  1.00  0.00     0.031 C 
ATOM     59  C   UNL A   1      41.564  30.332  35.807  1.00  0.00     0.029 A 
ATOM     60  C   UNL A   1      40.794  30.516  34.671  1.00  0.00     0.049 A 
ATOM     61  H   UNL A   1      41.027  29.673  32.749  1.00  0.00     0.167 HD
ATOM     62  C   UNL A   1      38.972  31.490  33.321  1.00  0.00     0.074 A 
ATOM     63  C   UNL A   1      37.798  32.317  33.140  1.00  0.00     0.031 C 
ATOM     64  C   UNL A   1      39.620  31.330  34.499  1.00  0.00     0.037 A 
BRANCH  51  65
ATOM     65  C   UNL A   1      44.514  27.606  34.078  1.00  0.00     0.057 A 
ATOM     66  C   UNL A   1      45.765  28.217  34.209  1.00  0.00     0.134 A 
ATOM     67  C   UNL A   1      44.343  26.348  34.675  1.00  0.00     0.134 A 
ATOM     68  F   UNL A   1      45.998  29.415  33.652  1.00  0.00    -0.206 F 
ATOM     69  C   UNL A   1      46.814  27.589  34.887  1.00  0.00     0.040 A 
ATOM     70  C   UNL A   1      45.373  25.724  35.379  1.00  0.00     0.040 A 
ATOM     71  F   UNL A   1      43.163  25.712  34.597  1.00  0.00    -0.206 F 
ATOM     72  C   UNL A   1      46.617  26.343  35.478  1.00  0.00     0.006 A 
ENDBRANCH  51  65
BRANCH  52  73
ATOM     73  C   UNL A   1      36.949  31.567  29.091  1.00  0.00     0.057 A 
ATOM     74  C   UNL A   1      35.787  30.813  28.899  1.00  0.00     0.134 A 
ATOM     75  C   UNL A   1      36.962  32.877  28.595  1.00  0.00     0.134 A 
ATOM     76  F   UNL A   1      35.729  29.543  29.324  1.00  0.00    -0.206 F 
ATOM     77  C   UNL A   1      34.673  31.346  28.250  1.00  0.00     0.040 A 
ATOM     78  C   UNL A   1      35.847  33.431  27.969  1.00  0.00     0.040 A 
ATOM     79  F   UNL A   1      38.050  33.646  28.747  1.00  0.00    -0.206 F 
ATOM     80  C   UNL A   1      34.696  32.664  27.795  1.00  0.00     0.006 A 
ENDBRANCH  52  73
BRANCH  64  81
ATOM     81  C   UNL A   1      39.082  32.066  35.689  1.00  0.00     0.057 A 
ATOM     82  C   UNL A   1      38.245  31.441  36.623  1.00  0.00     0.134 A 
ATOM     83  C   UNL A   1      39.421  33.405  35.919  1.00  0.00     0.134 A 
ATOM     84  F   UNL A   1      37.873  30.163  36.453  1.00  0.00    -0.206 F 
ATOM     85  C   UNL A   1      37.751  32.126  37.734  1.00  0.00     0.040 A 
ATOM     86  C   UNL A   1      38.946  34.096  37.036  1.00  0.00     0.040 A 
ATOM     87  F   UNL A   1      40.222  34.061  35.067  1.00  0.00    -0.206 F 
ATOM     88  C   UNL A   1      38.105  33.458  37.945  1.00  0.00     0.006 A 
ENDBRANCH  64  81
ENDBRANCH  38  39
ENDBRANCH  31  33
ENDBRANCH  30  31
ENDBRANCH  29  30
ENDBRANCH  28  29
ENDBRANCH  27  28
ENDBRANCH   1  27
TORSDOF 18
ENDMDL
MODEL 3
REMARK VINA RESULT:     -11.8      1.135      3.483
REMARK SMILES COc1ccc([C@H]2CC(c3ccccc3)=NN2C(=O)CCCC(=O)OCCOC(=O)c2ccc(-c3c4nc(c(-c5c(F)cccc5F)c5ccc([nH]5)c(-c5c(F)cccc5F)c5nc(c(-c6c(F)cccc6F)c6ccc3[nH]6)C=C5)C=C4)cc2)cc1
REMARK SMILES IDX 23 1 24 2 22 3 21 4 20 5 18 6 19 7 17 8 7 9 8 10 9 11 16 12
REMARK SMILES IDX 6 13 3 14 4 15 86 16 5 17 85 18 2 19 1 20 10 21 11 22 15 23
REMARK SMILES IDX 12 24 14 25 13 26 25 27 26 28 27 29 28 30 29 31 30 32 31 33
REMARK SMILES IDX 32 34 84 35 33 36 83 37 34 38 35 39 36 40 77 41 37 42 82 43
REMARK SMILES IDX 76 44 78 45 38 46 81 47 75 48 74 49 39 51 65 52 48 53 64 54
REMARK SMILES IDX 49 55 52 56 63 57 79 58 50 59 51 60 62 62 80 63 53 64 40 65
REMARK SMILES IDX 41 66 46 67 42 68 43 69 45 70 47 71 44 72 66 73 67 74 72 75
REMARK SMILES IDX 68 76 69 77 71 78 73 79 70 80 54 81 55 82 60 83 56 84 57 85
REMARK SMILES IDX 59 86 61 87 58 88
REMARK H PARENT 78 50 52 61
REMARK Flexibility Score: inf
ROOT
ATOM      1  C   UNL A   1      32.763  32.650  27.469  1.00  0.00     0.305 C 
ATOM      2  O   UNL A   1      31.863  33.433  27.189  1.00  0.00    -0.252 OA
ENDROOT
BRANCH   1   3
ATOM      3  C   UNL A   1      32.649  31.162  27.266  1.00  0.00     0.123 C 
BRANCH   3   4
ATOM      4  C   UNL A   1      33.974  30.437  27.045  1.00  0.00     0.022 C 
BRANCH   4   5
ATOM      5  C   UNL A   1      33.982  28.945  27.369  1.00  0.00     0.103 C 
BRANCH   5   6
ATOM      6  C   UNL A   1      32.745  28.157  26.965  1.00  0.00     0.243 C 
ATOM      7  O   UNL A   1      31.993  27.714  27.837  1.00  0.00    -0.273 OA
BRANCH   6   8
ATOM      8  N   UNL A   1      32.448  28.147  25.613  1.00  0.00    -0.225 N 
ATOM      9  C   UNL A   1      33.339  27.866  24.482  1.00  0.00     0.147 C 
ATOM     10  C   UNL A   1      32.556  28.344  23.268  1.00  0.00     0.091 C 
ATOM     11  C   UNL A   1      31.226  28.606  23.913  1.00  0.00     0.071 C 
ATOM     12  N   UNL A   1      31.181  28.499  25.205  1.00  0.00    -0.174 NA
BRANCH   9  13
ATOM     13  C   UNL A   1      33.706  26.394  24.367  1.00  0.00    -0.023 A 
ATOM     14  C   UNL A   1      34.398  23.667  24.064  1.00  0.00     0.118 A 
ATOM     15  C   UNL A   1      33.721  24.338  23.054  1.00  0.00     0.047 A 
ATOM     16  C   UNL A   1      34.744  24.362  25.220  1.00  0.00     0.047 A 
ATOM     17  C   UNL A   1      33.334  25.671  23.225  1.00  0.00     0.010 A 
ATOM     18  C   UNL A   1      34.403  25.711  25.374  1.00  0.00     0.010 A 
BRANCH  14  19
ATOM     19  O   UNL A   1      34.784  22.358  24.015  1.00  0.00    -0.497 OA
ATOM     20  C   UNL A   1      33.818  21.382  24.402  1.00  0.00     0.278 C 
ENDBRANCH  14  19
ENDBRANCH   9  13
BRANCH  11  21
ATOM     21  C   UNL A   1      30.098  29.078  23.106  1.00  0.00    -0.002 A 
ATOM     22  C   UNL A   1      28.841  28.506  23.316  1.00  0.00     0.010 A 
ATOM     23  C   UNL A   1      30.276  30.099  22.171  1.00  0.00     0.010 A 
ATOM     24  C   UNL A   1      27.746  28.966  22.586  1.00  0.00     0.001 A 
ATOM     25  C   UNL A   1      29.179  30.541  21.431  1.00  0.00     0.001 A 
ATOM     26  C   UNL A   1      27.917  29.979  21.641  1.00  0.00     0.000 A 
ENDBRANCH  11  21
ENDBRANCH   6   8
ENDBRANCH   5   6
ENDBRANCH   4   5
ENDBRANCH   3   4
ENDBRANCH   1   3
BRANCH   1  27
ATOM     27  O   UNL A   1      33.954  33.013  28.005  1.00  0.00    -0.462 OA
BRANCH  27  28
ATOM     28  C   UNL A   1      33.922  34.247  28.747  1.00  0.00     0.274 C 
BRANCH  28  29
ATOM     29  C   UNL A   1      34.221  34.018  30.229  1.00  0.00     0.275 C 
BRANCH  29  30
ATOM     30  O   UNL A   1      34.298  32.613  30.552  1.00  0.00    -0.458 OA
BRANCH  30  31
ATOM     31  C   UNL A   1      35.171  32.290  31.534  1.00  0.00     0.338 C 
ATOM     32  O   UNL A   1      35.137  32.677  32.697  1.00  0.00    -0.246 OA
BRANCH  31  33
ATOM     33  C   UNL A   1      36.234  31.382  31.055  1.00  0.00     0.060 A 
ATOM     34  C   UNL A   1      36.951  30.570  31.930  1.00  0.00     0.016 A 
ATOM     35  C   UNL A   1      36.627  31.456  29.717  1.00  0.00     0.016 A 
ATOM     36  C   UNL A   1      38.121  29.933  31.491  1.00  0.00     0.010 A 
ATOM     37  C   UNL A   1      37.751  30.748  29.268  1.00  0.00     0.010 A 
ATOM     38  C   UNL A   1      38.565  30.028  30.161  1.00  0.00    -0.014 A 
BRANCH  38  39
ATOM     39  C   UNL A   1      39.896  29.486  29.707  1.00  0.00     0.031 A 
ATOM     40  C   UNL A   1      41.114  30.390  29.671  1.00  0.00     0.074 A 
ATOM     41  C   UNL A   1      40.082  28.202  29.332  1.00  0.00     0.049 A 
ATOM     42  N   UNL A   1      42.244  30.242  29.023  1.00  0.00    -0.248 NA
ATOM     43  C   UNL A   1      41.036  31.635  30.451  1.00  0.00     0.031 C 
ATOM     44  C   UNL A   1      39.075  27.144  29.349  1.00  0.00     0.029 A 
ATOM     45  N   UNL A   1      41.212  27.569  28.855  1.00  0.00    -0.354 N 
ATOM     46  C   UNL A   1      42.954  31.423  29.217  1.00  0.00     0.074 A 
ATOM     47  C   UNL A   1      42.140  32.262  30.072  1.00  0.00     0.031 C 
ATOM     48  C   UNL A   1      39.638  25.991  28.958  1.00  0.00     0.029 A 
ATOM     49  C   UNL A   1      41.014  26.246  28.542  1.00  0.00     0.049 A 
ATOM     50  H   UNL A   1      42.080  28.024  28.749  1.00  0.00     0.167 HD
ATOM     51  C   UNL A   1      44.163  31.786  28.721  1.00  0.00     0.037 A 
ATOM     52  C   UNL A   1      41.806  25.344  27.927  1.00  0.00     0.037 A 
ATOM     53  C   UNL A   1      45.047  30.919  27.983  1.00  0.00     0.049 A 
ATOM     54  C   UNL A   1      43.156  25.744  27.406  1.00  0.00     0.074 A 
ATOM     55  C   UNL A   1      46.308  31.196  27.482  1.00  0.00     0.029 A 
ATOM     56  N   UNL A   1      44.782  29.594  27.678  1.00  0.00    -0.354 N 
ATOM     57  N   UNL A   1      43.754  26.905  27.469  1.00  0.00    -0.248 NA
ATOM     58  C   UNL A   1      43.925  24.710  26.693  1.00  0.00     0.031 C 
ATOM     59  C   UNL A   1      46.800  30.043  26.857  1.00  0.00     0.029 A 
ATOM     60  C   UNL A   1      45.856  29.041  26.998  1.00  0.00     0.049 A 
ATOM     61  H   UNL A   1      43.953  29.115  27.911  1.00  0.00     0.167 HD
ATOM     62  C   UNL A   1      44.959  26.750  26.794  1.00  0.00     0.074 A 
ATOM     63  C   UNL A   1      45.023  25.372  26.357  1.00  0.00     0.031 C 
ATOM     64  C   UNL A   1      45.919  27.675  26.550  1.00  0.00     0.037 A 
BRANCH  51  65
ATOM     65  C   UNL A   1      44.598  33.210  28.918  1.00  0.00     0.057 A 
ATOM     66  C   UNL A   1      44.305  34.226  28.002  1.00  0.00     0.134 A 
ATOM     67  C   UNL A   1      45.292  33.571  30.083  1.00  0.00     0.134 A 
ATOM     68  F   UNL A   1      43.653  33.946  26.863  1.00  0.00    -0.206 F 
ATOM     69  C   UNL A   1      44.710  35.545  28.223  1.00  0.00     0.040 A 
ATOM     70  C   UNL A   1      45.677  34.889  30.329  1.00  0.00     0.040 A 
ATOM     71  F   UNL A   1      45.594  32.647  31.009  1.00  0.00    -0.206 F 
ATOM     72  C   UNL A   1      45.393  35.879  29.392  1.00  0.00     0.006 A 
ENDBRANCH  51  65
BRANCH  52  73
ATOM     73  C   UNL A   1      41.293  23.970  27.699  1.00  0.00     0.057 A 
ATOM     74  C   UNL A   1      40.370  23.702  26.684  1.00  0.00     0.134 A 
ATOM     75  C   UNL A   1      41.740  22.891  28.472  1.00  0.00     0.134 A 
ATOM     76  F   UNL A   1      39.883  24.701  25.933  1.00  0.00    -0.206 F 
ATOM     77  C   UNL A   1      39.916  22.406  26.436  1.00  0.00     0.040 A 
ATOM     78  C   UNL A   1      41.316  21.587  28.218  1.00  0.00     0.040 A 
ATOM     79  F   UNL A   1      42.623  23.088  29.461  1.00  0.00    -0.206 F 
ATOM     80  C   UNL A   1      40.400  21.342  27.196  1.00  0.00     0.006 A 
ENDBRANCH  52  73
BRANCH  64  81
ATOM     81  C   UNL A   1      47.126  27.230  25.780  1.00  0.00     0.057 A 
ATOM     82  C   UNL A   1      47.245  27.462  24.404  1.00  0.00     0.134 A 
ATOM     83  C   UNL A   1      48.191  26.586  26.422  1.00  0.00     0.134 A 
ATOM     84  F   UNL A   1      46.254  28.064  23.728  1.00  0.00    -0.206 F 
ATOM     85  C   UNL A   1      48.374  27.054  23.690  1.00  0.00     0.040 A 
ATOM     86  C   UNL A   1      49.332  26.188  25.722  1.00  0.00     0.040 A 
ATOM     87  F   UNL A   1      48.142  26.338  27.739  1.00  0.00    -0.206 F 
ATOM     88  C   UNL A   1      49.423  26.418  24.351  1.00  0.00     0.006 A 
ENDBRANCH  64  81
ENDBRANCH  38  39
ENDBRANCH  31  33
ENDBRANCH  30  31
ENDBRANCH  29  30
ENDBRANCH  28  29
ENDBRANCH  27  28
ENDBRANCH   1  27
TORSDOF 18
ENDMDL
