MODEL 1
REMARK VINA RESULT:      -9.7      0.000      0.000
REMARK SMILES COCCNC(=O)Cn1ccc(C(=O)OCCOC(=O)c2ccc(-c3c4nc(c(-c5c(F)cccc5F)c5ccc([nH]5)c(-c5c(F)cccc5F)c5nc(c(-c6c(F)cccc6F)c6ccc3[nH]6)C=C5)C=C4)cc2)c1
REMARK SMILES IDX 15 1 13 2 14 3 12 4 9 5 10 6 75 7 11 8 8 9 6 10 5 11 7 13
REMARK SMILES IDX 4 14 3 15 2 16 1 17 16 18 17 19 18 20 19 21 20 22 21 23
REMARK SMILES IDX 22 24 74 25 23 26 73 27 24 28 25 29 26 30 67 31 27 32 72 33
REMARK SMILES IDX 66 34 68 35 28 36 71 37 65 38 64 39 29 41 55 42 38 43 54 44
REMARK SMILES IDX 39 45 42 46 53 47 69 48 40 49 41 50 52 52 70 53 43 54 30 55
REMARK SMILES IDX 31 56 36 57 32 58 33 59 35 60 37 61 34 62 56 63 57 64 62 65
REMARK SMILES IDX 58 66 59 67 61 68 63 69 60 70 44 71 45 72 50 73 46 74 47 75
REMARK SMILES IDX 49 76 51 77 48 78
REMARK H PARENT 5 12 68 40 42 51
REMARK Flexibility Score: inf
ROOT
ATOM      1  O   UNL A   1      37.652  21.855  25.565  1.00  0.00    -0.458 OA
ENDROOT
BRANCH   1   2
ATOM      2  C   UNL A   1      37.277  23.171  25.739  1.00  0.00     0.339 C 
ATOM      3  O   UNL A   1      38.046  24.107  25.703  1.00  0.00    -0.246 OA
BRANCH   2   4
ATOM      4  C   UNL A   1      35.833  23.335  25.819  1.00  0.00     0.077 A 
ATOM      5  N   UNL A   1      33.620  23.002  25.873  1.00  0.00    -0.344 N 
ATOM      6  C   UNL A   1      33.809  24.347  25.734  1.00  0.00     0.087 A 
ATOM      7  C   UNL A   1      34.843  22.370  25.809  1.00  0.00     0.101 A 
ATOM      8  C   UNL A   1      35.157  24.592  25.856  1.00  0.00     0.035 A 
BRANCH   5   9
ATOM      9  C   UNL A   1      32.355  22.309  26.084  1.00  0.00     0.221 C 
BRANCH   9  10
ATOM     10  C   UNL A   1      31.115  23.179  26.154  1.00  0.00     0.239 C 
ATOM     11  N   UNL A   1      30.553  23.718  25.035  1.00  0.00    -0.352 N 
ATOM     12  H   UNL A   1      29.825  24.356  25.211  1.00  0.00     0.163 HD
ATOM     13  O   UNL A   1      30.622  23.489  27.242  1.00  0.00    -0.273 OA
BRANCH  11  14
ATOM     14  C   UNL A   1      30.844  23.509  23.622  1.00  0.00     0.144 C 
BRANCH  14  15
ATOM     15  C   UNL A   1      31.410  24.759  22.924  1.00  0.00     0.181 C 
BRANCH  15  16
ATOM     16  O   UNL A   1      32.566  24.480  22.127  1.00  0.00    -0.383 OA
ATOM     17  C   UNL A   1      33.092  23.170  22.309  1.00  0.00     0.194 C 
ENDBRANCH  15  16
ENDBRANCH  14  15
ENDBRANCH  11  14
ENDBRANCH   9  10
ENDBRANCH   5   9
ENDBRANCH   2   4
ENDBRANCH   1   2
BRANCH   1  18
ATOM     18  C   UNL A   1      38.999  21.563  25.958  1.00  0.00     0.275 C 
BRANCH  18  19
ATOM     19  C   UNL A   1      39.422  20.131  25.600  1.00  0.00     0.275 C 
BRANCH  19  20
ATOM     20  O   UNL A   1      40.279  19.511  26.571  1.00  0.00    -0.458 OA
BRANCH  20  21
ATOM     21  C   UNL A   1      41.561  19.379  26.159  1.00  0.00     0.338 C 
ATOM     22  O   UNL A   1      42.085  18.374  25.705  1.00  0.00    -0.246 OA
BRANCH  21  23
ATOM     23  C   UNL A   1      42.346  20.584  26.444  1.00  0.00     0.060 A 
ATOM     24  C   UNL A   1      42.287  21.115  27.737  1.00  0.00     0.016 A 
ATOM     25  C   UNL A   1      42.902  21.309  25.385  1.00  0.00     0.016 A 
ATOM     26  C   UNL A   1      42.730  22.407  27.968  1.00  0.00     0.010 A 
ATOM     27  C   UNL A   1      43.307  22.618  25.605  1.00  0.00     0.010 A 
ATOM     28  C   UNL A   1      43.196  23.169  26.891  1.00  0.00    -0.014 A 
BRANCH  28  29
ATOM     29  C   UNL A   1      43.622  24.558  27.148  1.00  0.00     0.031 A 
ATOM     30  C   UNL A   1      42.448  25.525  27.263  1.00  0.00     0.074 A 
ATOM     31  C   UNL A   1      44.969  24.769  27.236  1.00  0.00     0.049 A 
ATOM     32  N   UNL A   1      42.429  26.819  27.182  1.00  0.00    -0.248 NA
ATOM     33  C   UNL A   1      41.079  24.971  27.459  1.00  0.00     0.031 C 
ATOM     34  C   UNL A   1      45.980  23.703  27.087  1.00  0.00     0.029 A 
ATOM     35  N   UNL A   1      45.765  25.876  27.461  1.00  0.00    -0.354 N 
ATOM     36  C   UNL A   1      41.134  27.231  27.550  1.00  0.00     0.074 A 
ATOM     37  C   UNL A   1      40.317  26.057  27.579  1.00  0.00     0.031 C 
ATOM     38  C   UNL A   1      47.226  24.209  27.159  1.00  0.00     0.029 A 
ATOM     39  C   UNL A   1      47.165  25.639  27.387  1.00  0.00     0.049 A 
ATOM     40  H   UNL A   1      45.390  26.765  27.659  1.00  0.00     0.167 HD
ATOM     41  C   UNL A   1      40.844  28.492  27.975  1.00  0.00     0.037 A 
ATOM     42  C   UNL A   1      48.207  26.523  27.487  1.00  0.00     0.037 A 
ATOM     43  C   UNL A   1      41.985  29.338  27.875  1.00  0.00     0.049 A 
ATOM     44  C   UNL A   1      47.613  27.791  27.939  1.00  0.00     0.074 A 
ATOM     45  C   UNL A   1      42.648  29.888  26.811  1.00  0.00     0.029 A 
ATOM     46  N   UNL A   1      42.766  29.460  28.998  1.00  0.00    -0.354 N 
ATOM     47  N   UNL A   1      47.162  27.999  29.140  1.00  0.00    -0.248 NA
ATOM     48  C   UNL A   1      47.470  28.901  26.991  1.00  0.00     0.031 C 
ATOM     49  C   UNL A   1      43.987  29.978  27.245  1.00  0.00     0.029 A 
ATOM     50  C   UNL A   1      44.070  29.580  28.584  1.00  0.00     0.049 A 
ATOM     51  H   UNL A   1      42.449  29.461  29.931  1.00  0.00     0.167 HD
ATOM     52  C   UNL A   1      46.375  29.113  28.974  1.00  0.00     0.074 A 
ATOM     53  C   UNL A   1      46.845  29.773  27.778  1.00  0.00     0.031 C 
ATOM     54  C   UNL A   1      45.110  29.101  29.468  1.00  0.00     0.037 A 
BRANCH  41  55
ATOM     55  C   UNL A   1      39.657  29.012  28.732  1.00  0.00     0.057 A 
ATOM     56  C   UNL A   1      39.532  28.678  30.099  1.00  0.00     0.134 A 
ATOM     57  C   UNL A   1      38.503  29.509  28.115  1.00  0.00     0.134 A 
ATOM     58  F   UNL A   1      40.582  28.213  30.794  1.00  0.00    -0.206 F 
ATOM     59  C   UNL A   1      38.312  28.733  30.775  1.00  0.00     0.040 A 
ATOM     60  C   UNL A   1      37.285  29.611  28.798  1.00  0.00     0.040 A 
ATOM     61  F   UNL A   1      38.483  29.820  26.811  1.00  0.00    -0.206 F 
ATOM     62  C   UNL A   1      37.177  29.187  30.119  1.00  0.00     0.006 A 
ENDBRANCH  41  55
BRANCH  42  63
ATOM     63  C   UNL A   1      49.705  26.535  27.267  1.00  0.00     0.057 A 
ATOM     64  C   UNL A   1      50.689  26.523  28.262  1.00  0.00     0.134 A 
ATOM     65  C   UNL A   1      50.235  26.444  25.948  1.00  0.00     0.134 A 
ATOM     66  F   UNL A   1      50.387  26.666  29.554  1.00  0.00    -0.206 F 
ATOM     67  C   UNL A   1      52.060  26.352  27.978  1.00  0.00     0.040 A 
ATOM     68  C   UNL A   1      51.587  26.229  25.654  1.00  0.00     0.040 A 
ATOM     69  F   UNL A   1      49.457  26.546  24.862  1.00  0.00    -0.206 F 
ATOM     70  C   UNL A   1      52.509  26.167  26.678  1.00  0.00     0.006 A 
ENDBRANCH  42  63
BRANCH  54  71
ATOM     71  C   UNL A   1      44.931  28.159  30.648  1.00  0.00     0.057 A 
ATOM     72  C   UNL A   1      45.594  28.405  31.859  1.00  0.00     0.134 A 
ATOM     73  C   UNL A   1      44.241  26.940  30.579  1.00  0.00     0.134 A 
ATOM     74  F   UNL A   1      46.268  29.551  32.039  1.00  0.00    -0.206 F 
ATOM     75  C   UNL A   1      45.600  27.477  32.912  1.00  0.00     0.040 A 
ATOM     76  C   UNL A   1      44.226  26.006  31.622  1.00  0.00     0.040 A 
ATOM     77  F   UNL A   1      43.554  26.606  29.489  1.00  0.00    -0.206 F 
ATOM     78  C   UNL A   1      44.921  26.268  32.792  1.00  0.00     0.006 A 
ENDBRANCH  54  71
ENDBRANCH  28  29
ENDBRANCH  21  23
ENDBRANCH  20  21
ENDBRANCH  19  20
ENDBRANCH  18  19
ENDBRANCH   1  18
TORSDOF 16
ENDMDL
MODEL 2
REMARK VINA RESULT:      -9.5      4.485      8.597
REMARK SMILES COCCNC(=O)Cn1ccc(C(=O)OCCOC(=O)c2ccc(-c3c4nc(c(-c5c(F)cccc5F)c5ccc([nH]5)c(-c5c(F)cccc5F)c5nc(c(-c6c(F)cccc6F)c6ccc3[nH]6)C=C5)C=C4)cc2)c1
REMARK SMILES IDX 15 1 13 2 14 3 12 4 9 5 10 6 75 7 11 8 8 9 6 10 5 11 7 13
REMARK SMILES IDX 4 14 3 15 2 16 1 17 16 18 17 19 18 20 19 21 20 22 21 23
REMARK SMILES IDX 22 24 74 25 23 26 73 27 24 28 25 29 26 30 67 31 27 32 72 33
REMARK SMILES IDX 66 34 68 35 28 36 71 37 65 38 64 39 29 41 55 42 38 43 54 44
REMARK SMILES IDX 39 45 42 46 53 47 69 48 40 49 41 50 52 52 70 53 43 54 30 55
REMARK SMILES IDX 31 56 36 57 32 58 33 59 35 60 37 61 34 62 56 63 57 64 62 65
REMARK SMILES IDX 58 66 59 67 61 68 63 69 60 70 44 71 45 72 50 73 46 74 47 75
REMARK SMILES IDX 49 76 51 77 48 78
REMARK H PARENT 5 12 68 40 42 51
REMARK Flexibility Score: inf
ROOT
ATOM      1  O   UNL A   1      33.609  33.457  29.222  1.00  0.00    -0.458 OA
ENDROOT
BRANCH   1   2
ATOM      2  C   UNL A   1      34.347  33.050  28.131  1.00  0.00     0.339 C 
ATOM      3  O   UNL A   1      35.337  33.622  27.727  1.00  0.00    -0.246 OA
BRANCH   2   4
ATOM      4  C   UNL A   1      33.902  31.769  27.601  1.00  0.00     0.077 A 
ATOM      5  N   UNL A   1      32.728  30.106  26.671  1.00  0.00    -0.344 N 
ATOM      6  C   UNL A   1      33.810  29.531  27.273  1.00  0.00     0.087 A 
ATOM      7  C   UNL A   1      32.716  31.452  26.965  1.00  0.00     0.101 A 
ATOM      8  C   UNL A   1      34.628  30.545  27.715  1.00  0.00     0.035 A 
BRANCH   5   9
ATOM      9  C   UNL A   1      31.738  29.448  25.827  1.00  0.00     0.221 C 
BRANCH   9  10
ATOM     10  C   UNL A   1      32.100  29.293  24.363  1.00  0.00     0.239 C 
ATOM     11  N   UNL A   1      31.153  29.329  23.382  1.00  0.00    -0.352 N 
ATOM     12  H   UNL A   1      31.486  29.102  22.484  1.00  0.00     0.163 HD
ATOM     13  O   UNL A   1      33.261  29.051  24.021  1.00  0.00    -0.273 OA
BRANCH  11  14
ATOM     14  C   UNL A   1      29.731  29.647  23.435  1.00  0.00     0.144 C 
BRANCH  14  15
ATOM     15  C   UNL A   1      29.165  30.144  22.093  1.00  0.00     0.181 C 
BRANCH  15  16
ATOM     16  O   UNL A   1      29.147  31.571  21.987  1.00  0.00    -0.383 OA
ATOM     17  C   UNL A   1      28.388  32.218  23.004  1.00  0.00     0.194 C 
ENDBRANCH  15  16
ENDBRANCH  14  15
ENDBRANCH  11  14
ENDBRANCH   9  10
ENDBRANCH   5   9
ENDBRANCH   2   4
ENDBRANCH   1   2
BRANCH   1  18
ATOM     18  C   UNL A   1      34.274  34.400  30.073  1.00  0.00     0.275 C 
BRANCH  18  19
ATOM     19  C   UNL A   1      34.349  33.931  31.532  1.00  0.00     0.275 C 
BRANCH  19  20
ATOM     20  O   UNL A   1      34.461  32.508  31.688  1.00  0.00    -0.458 OA
BRANCH  20  21
ATOM     21  C   UNL A   1      35.456  32.129  32.523  1.00  0.00     0.338 C 
ATOM     22  O   UNL A   1      35.632  32.505  33.671  1.00  0.00    -0.246 OA
BRANCH  21  23
ATOM     23  C   UNL A   1      36.436  31.277  31.843  1.00  0.00     0.060 A 
ATOM     24  C   UNL A   1      37.365  30.588  32.630  1.00  0.00     0.016 A 
ATOM     25  C   UNL A   1      36.592  31.379  30.457  1.00  0.00     0.016 A 
ATOM     26  C   UNL A   1      38.495  30.047  32.039  1.00  0.00     0.010 A 
ATOM     27  C   UNL A   1      37.743  30.875  29.869  1.00  0.00     0.010 A 
ATOM     28  C   UNL A   1      38.703  30.233  30.668  1.00  0.00    -0.014 A 
BRANCH  28  29
ATOM     29  C   UNL A   1      39.933  29.687  30.065  1.00  0.00     0.031 A 
ATOM     30  C   UNL A   1      41.040  30.728  29.938  1.00  0.00     0.074 A 
ATOM     31  C   UNL A   1      39.898  28.368  29.712  1.00  0.00     0.049 A 
ATOM     32  N   UNL A   1      42.113  30.713  29.209  1.00  0.00    -0.248 NA
ATOM     33  C   UNL A   1      40.922  31.998  30.707  1.00  0.00     0.031 C 
ATOM     34  C   UNL A   1      38.721  27.497  29.899  1.00  0.00     0.029 A 
ATOM     35  N   UNL A   1      40.802  27.492  29.139  1.00  0.00    -0.354 N 
ATOM     36  C   UNL A   1      42.890  31.818  29.606  1.00  0.00     0.074 A 
ATOM     37  C   UNL A   1      42.056  32.640  30.426  1.00  0.00     0.031 C 
ATOM     38  C   UNL A   1      38.950  26.266  29.404  1.00  0.00     0.029 A 
ATOM     39  C   UNL A   1      40.296  26.192  28.871  1.00  0.00     0.049 A 
ATOM     40  H   UNL A   1      41.729  27.751  28.933  1.00  0.00     0.167 HD
ATOM     41  C   UNL A   1      44.230  31.910  29.375  1.00  0.00     0.037 A 
ATOM     42  C   UNL A   1      40.901  25.129  28.253  1.00  0.00     0.037 A 
ATOM     43  C   UNL A   1      44.687  30.816  28.588  1.00  0.00     0.049 A 
ATOM     44  C   UNL A   1      42.317  25.503  28.112  1.00  0.00     0.074 A 
ATOM     45  C   UNL A   1      44.520  30.479  27.272  1.00  0.00     0.029 A 
ATOM     46  N   UNL A   1      45.182  29.730  29.267  1.00  0.00    -0.354 N 
ATOM     47  N   UNL A   1      43.158  25.563  29.101  1.00  0.00    -0.248 NA
ATOM     48  C   UNL A   1      42.839  25.874  26.793  1.00  0.00     0.031 C 
ATOM     49  C   UNL A   1      44.549  29.069  27.268  1.00  0.00     0.029 A 
ATOM     50  C   UNL A   1      44.836  28.606  28.557  1.00  0.00     0.049 A 
ATOM     51  H   UNL A   1      45.691  29.751  30.110  1.00  0.00     0.167 HD
ATOM     52  C   UNL A   1      44.182  26.313  28.576  1.00  0.00     0.074 A 
ATOM     53  C   UNL A   1      44.084  26.194  27.140  1.00  0.00     0.031 C 
ATOM     54  C   UNL A   1      44.651  27.370  29.287  1.00  0.00     0.037 A 
BRANCH  41  55
ATOM     55  C   UNL A   1      45.265  32.791  30.010  1.00  0.00     0.057 A 
ATOM     56  C   UNL A   1      45.552  32.610  31.381  1.00  0.00     0.134 A 
ATOM     57  C   UNL A   1      45.715  33.989  29.443  1.00  0.00     0.134 A 
ATOM     58  F   UNL A   1      45.185  31.489  32.021  1.00  0.00    -0.206 F 
ATOM     59  C   UNL A   1      46.150  33.603  32.160  1.00  0.00     0.040 A 
ATOM     60  C   UNL A   1      46.358  34.973  30.206  1.00  0.00     0.040 A 
ATOM     61  F   UNL A   1      45.466  34.297  28.163  1.00  0.00    -0.206 F 
ATOM     62  C   UNL A   1      46.542  34.798  31.575  1.00  0.00     0.006 A 
ENDBRANCH  41  55
BRANCH  42  63
ATOM     63  C   UNL A   1      40.519  23.767  27.712  1.00  0.00     0.057 A 
ATOM     64  C   UNL A   1      39.556  23.504  26.732  1.00  0.00     0.134 A 
ATOM     65  C   UNL A   1      41.242  22.608  28.118  1.00  0.00     0.134 A 
ATOM     66  F   UNL A   1      38.736  24.454  26.277  1.00  0.00    -0.206 F 
ATOM     67  C   UNL A   1      39.385  22.231  26.151  1.00  0.00     0.040 A 
ATOM     68  C   UNL A   1      41.115  21.350  27.519  1.00  0.00     0.040 A 
ATOM     69  F   UNL A   1      42.131  22.641  29.120  1.00  0.00    -0.206 F 
ATOM     70  C   UNL A   1      40.189  21.158  26.515  1.00  0.00     0.006 A 
ENDBRANCH  42  63
BRANCH  54  71
ATOM     71  C   UNL A   1      44.447  27.229  30.787  1.00  0.00     0.057 A 
ATOM     72  C   UNL A   1      45.160  26.265  31.513  1.00  0.00     0.134 A 
ATOM     73  C   UNL A   1      43.459  27.915  31.511  1.00  0.00     0.134 A 
ATOM     74  F   UNL A   1      46.141  25.566  30.923  1.00  0.00    -0.206 F 
ATOM     75  C   UNL A   1      44.879  25.980  32.858  1.00  0.00     0.040 A 
ATOM     76  C   UNL A   1      43.171  27.652  32.855  1.00  0.00     0.040 A 
ATOM     77  F   UNL A   1      42.732  28.870  30.935  1.00  0.00    -0.206 F 
ATOM     78  C   UNL A   1      43.874  26.668  33.532  1.00  0.00     0.006 A 
ENDBRANCH  54  71
ENDBRANCH  28  29
ENDBRANCH  21  23
ENDBRANCH  20  21
ENDBRANCH  19  20
ENDBRANCH  18  19
ENDBRANCH   1  18
TORSDOF 16
ENDMDL
MODEL 3
REMARK VINA RESULT:      -9.4      1.380      2.151
REMARK SMILES COCCNC(=O)Cn1ccc(C(=O)OCCOC(=O)c2ccc(-c3c4nc(c(-c5c(F)cccc5F)c5ccc([nH]5)c(-c5c(F)cccc5F)c5nc(c(-c6c(F)cccc6F)c6ccc3[nH]6)C=C5)C=C4)cc2)c1
REMARK SMILES IDX 15 1 13 2 14 3 12 4 9 5 10 6 75 7 11 8 8 9 6 10 5 11 7 13
REMARK SMILES IDX 4 14 3 15 2 16 1 17 16 18 17 19 18 20 19 21 20 22 21 23
REMARK SMILES IDX 22 24 74 25 23 26 73 27 24 28 25 29 26 30 67 31 27 32 72 33
REMARK SMILES IDX 66 34 68 35 28 36 71 37 65 38 64 39 29 41 55 42 38 43 54 44
REMARK SMILES IDX 39 45 42 46 53 47 69 48 40 49 41 50 52 52 70 53 43 54 30 55
REMARK SMILES IDX 31 56 36 57 32 58 33 59 35 60 37 61 34 62 56 63 57 64 62 65
REMARK SMILES IDX 58 66 59 67 61 68 63 69 60 70 44 71 45 72 50 73 46 74 47 75
REMARK SMILES IDX 49 76 51 77 48 78
REMARK H PARENT 5 12 68 40 42 51
REMARK Flexibility Score: inf
ROOT
ATOM      1  O   UNL A   1      37.642  21.747  24.538  1.00  0.00    -0.458 OA
ENDROOT
BRANCH   1   2
ATOM      2  C   UNL A   1      36.294  21.512  24.711  1.00  0.00     0.339 C 
ATOM      3  O   UNL A   1      35.827  20.443  25.038  1.00  0.00    -0.246 OA
BRANCH   2   4
ATOM      4  C   UNL A   1      35.498  22.727  24.610  1.00  0.00     0.077 A 
ATOM      5  N   UNL A   1      34.104  24.347  23.946  1.00  0.00    -0.344 N 
ATOM      6  C   UNL A   1      34.825  24.855  24.988  1.00  0.00     0.087 A 
ATOM      7  C   UNL A   1      34.587  23.095  23.637  1.00  0.00     0.101 A 
ATOM      8  C   UNL A   1      35.576  23.829  25.513  1.00  0.00     0.035 A 
BRANCH   5   9
ATOM      9  C   UNL A   1      32.982  24.979  23.262  1.00  0.00     0.221 C 
BRANCH   9  10
ATOM     10  C   UNL A   1      33.303  25.701  21.968  1.00  0.00     0.239 C 
ATOM     11  N   UNL A   1      33.510  27.049  21.932  1.00  0.00    -0.352 N 
ATOM     12  H   UNL A   1      33.596  27.424  21.026  1.00  0.00     0.163 HD
ATOM     13  O   UNL A   1      33.310  25.097  20.892  1.00  0.00    -0.273 OA
BRANCH  11  14
ATOM     14  C   UNL A   1      33.629  28.029  23.005  1.00  0.00     0.144 C 
BRANCH  14  15
ATOM     15  C   UNL A   1      32.349  28.855  23.222  1.00  0.00     0.181 C 
BRANCH  15  16
ATOM     16  O   UNL A   1      31.235  28.372  22.465  1.00  0.00    -0.383 OA
ATOM     17  C   UNL A   1      30.224  29.348  22.236  1.00  0.00     0.194 C 
ENDBRANCH  15  16
ENDBRANCH  14  15
ENDBRANCH  11  14
ENDBRANCH   9  10
ENDBRANCH   5   9
ENDBRANCH   2   4
ENDBRANCH   1   2
BRANCH   1  18
ATOM     18  C   UNL A   1      38.462  21.355  25.646  1.00  0.00     0.275 C 
BRANCH  18  19
ATOM     19  C   UNL A   1      39.234  20.055  25.382  1.00  0.00     0.275 C 
BRANCH  19  20
ATOM     20  O   UNL A   1      40.082  19.643  26.465  1.00  0.00    -0.458 OA
BRANCH  20  21
ATOM     21  C   UNL A   1      41.377  19.482  26.110  1.00  0.00     0.338 C 
ATOM     22  O   UNL A   1      41.899  18.464  25.685  1.00  0.00    -0.246 OA
BRANCH  21  23
ATOM     23  C   UNL A   1      42.175  20.672  26.423  1.00  0.00     0.060 A 
ATOM     24  C   UNL A   1      42.150  21.151  27.737  1.00  0.00     0.016 A 
ATOM     25  C   UNL A   1      42.706  21.437  25.380  1.00  0.00     0.016 A 
ATOM     26  C   UNL A   1      42.604  22.431  28.007  1.00  0.00     0.010 A 
ATOM     27  C   UNL A   1      43.123  22.735  25.641  1.00  0.00     0.010 A 
ATOM     28  C   UNL A   1      43.046  23.235  26.951  1.00  0.00    -0.014 A 
BRANCH  28  29
ATOM     29  C   UNL A   1      43.485  24.611  27.252  1.00  0.00     0.031 A 
ATOM     30  C   UNL A   1      42.319  25.581  27.410  1.00  0.00     0.074 A 
ATOM     31  C   UNL A   1      44.834  24.808  27.335  1.00  0.00     0.049 A 
ATOM     32  N   UNL A   1      42.308  26.877  27.373  1.00  0.00    -0.248 NA
ATOM     33  C   UNL A   1      40.948  25.030  27.598  1.00  0.00     0.031 C 
ATOM     34  C   UNL A   1      45.836  23.741  27.141  1.00  0.00     0.029 A 
ATOM     35  N   UNL A   1      45.640  25.902  27.591  1.00  0.00    -0.354 N 
ATOM     36  C   UNL A   1      41.019  27.286  27.767  1.00  0.00     0.074 A 
ATOM     37  C   UNL A   1      40.195  26.117  27.762  1.00  0.00     0.031 C 
ATOM     38  C   UNL A   1      47.086  24.236  27.219  1.00  0.00     0.029 A 
ATOM     39  C   UNL A   1      47.037  25.658  27.497  1.00  0.00     0.049 A 
ATOM     40  H   UNL A   1      45.273  26.786  27.823  1.00  0.00     0.167 HD
ATOM     41  C   UNL A   1      40.743  28.533  28.238  1.00  0.00     0.037 A 
ATOM     42  C   UNL A   1      48.086  26.530  27.619  1.00  0.00     0.037 A 
ATOM     43  C   UNL A   1      41.889  29.374  28.157  1.00  0.00     0.049 A 
ATOM     44  C   UNL A   1      47.506  27.786  28.119  1.00  0.00     0.074 A 
ATOM     45  C   UNL A   1      42.547  29.955  27.107  1.00  0.00     0.029 A 
ATOM     46  N   UNL A   1      42.679  29.452  29.276  1.00  0.00    -0.354 N 
ATOM     47  N   UNL A   1      47.066  27.955  29.330  1.00  0.00    -0.248 NA
ATOM     48  C   UNL A   1      47.363  28.929  27.211  1.00  0.00     0.031 C 
ATOM     49  C   UNL A   1      43.890  30.021  27.531  1.00  0.00     0.029 A 
ATOM     50  C   UNL A   1      43.981  29.577  28.856  1.00  0.00     0.049 A 
ATOM     51  H   UNL A   1      42.371  29.423  30.211  1.00  0.00     0.167 HD
ATOM     52  C   UNL A   1      46.286  29.080  29.210  1.00  0.00     0.074 A 
ATOM     53  C   UNL A   1      46.751  29.778  28.034  1.00  0.00     0.031 C 
ATOM     54  C   UNL A   1      45.025  29.060  29.713  1.00  0.00     0.037 A 
BRANCH  41  55
ATOM     55  C   UNL A   1      39.566  29.035  29.022  1.00  0.00     0.057 A 
ATOM     56  C   UNL A   1      39.436  28.635  30.370  1.00  0.00     0.134 A 
ATOM     57  C   UNL A   1      38.420  29.582  28.433  1.00  0.00     0.134 A 
ATOM     58  F   UNL A   1      40.478  28.118  31.040  1.00  0.00    -0.206 F 
ATOM     59  C   UNL A   1      38.218  28.677  31.051  1.00  0.00     0.040 A 
ATOM     60  C   UNL A   1      37.204  29.671  29.123  1.00  0.00     0.040 A 
ATOM     61  F   UNL A   1      38.404  29.958  27.146  1.00  0.00    -0.206 F 
ATOM     62  C   UNL A   1      37.091  29.183  30.421  1.00  0.00     0.006 A 
ENDBRANCH  41  55
BRANCH  42  63
ATOM     63  C   UNL A   1      49.583  26.539  27.387  1.00  0.00     0.057 A 
ATOM     64  C   UNL A   1      50.230  26.440  26.150  1.00  0.00     0.134 A 
ATOM     65  C   UNL A   1      50.474  26.776  28.473  1.00  0.00     0.134 A 
ATOM     66  F   UNL A   1      49.567  26.154  25.028  1.00  0.00    -0.206 F 
ATOM     67  C   UNL A   1      51.618  26.638  25.997  1.00  0.00     0.040 A 
ATOM     68  C   UNL A   1      51.844  27.020  28.330  1.00  0.00     0.040 A 
ATOM     69  F   UNL A   1      50.052  26.796  29.745  1.00  0.00    -0.206 F 
ATOM     70  C   UNL A   1      52.424  26.966  27.079  1.00  0.00     0.006 A 
ENDBRANCH  42  63
BRANCH  54  71
ATOM     71  C   UNL A   1      44.848  28.080  30.863  1.00  0.00     0.057 A 
ATOM     72  C   UNL A   1      45.480  28.308  32.093  1.00  0.00     0.134 A 
ATOM     73  C   UNL A   1      44.196  26.844  30.744  1.00  0.00     0.134 A 
ATOM     74  F   UNL A   1      46.117  29.467  32.320  1.00  0.00    -0.206 F 
ATOM     75  C   UNL A   1      45.491  27.350  33.119  1.00  0.00     0.040 A 
ATOM     76  C   UNL A   1      44.186  25.880  31.759  1.00  0.00     0.040 A 
ATOM     77  F   UNL A   1      43.541  26.523  29.630  1.00  0.00    -0.206 F 
ATOM     78  C   UNL A   1      44.850  26.127  32.950  1.00  0.00     0.006 A 
ENDBRANCH  54  71
ENDBRANCH  28  29
ENDBRANCH  21  23
ENDBRANCH  20  21
ENDBRANCH  19  20
ENDBRANCH  18  19
ENDBRANCH   1  18
TORSDOF 16
ENDMDL
