MODEL 1
REMARK VINA RESULT:     -12.0      0.000      0.000
REMARK SMILES CC1(C)CN(CC(=O)OCCOC(=O)c2ccc(-c3c4nc(c(-c5c(F)cccc5F)c5ccc([nH]5)c(-c5c(F)cccc5F)c5nc(c(-c6c(F)cccc6F)c6ccc3[nH]6)C=C5)C=C4)cc2)c2ccc(S(=O)(=O)N3CCCCC3)cc21
REMARK SMILES IDX 10 1 9 2 7 3 8 4 6 5 5 6 1 7 2 8 3 9 4 10 83 11 69 12 82 13
REMARK SMILES IDX 70 14 72 15 71 16 73 17 74 18 75 19 76 20 77 21 81 22 78 23
REMARK SMILES IDX 80 24 79 25 11 26 12 27 13 28 14 29 15 30 16 31 68 32 17 33
REMARK SMILES IDX 67 34 18 35 19 36 20 37 61 38 21 39 66 40 60 41 62 42 22 43
REMARK SMILES IDX 65 44 59 45 58 46 23 48 49 49 32 50 48 51 33 52 36 53 47 54
REMARK SMILES IDX 63 55 34 56 35 57 46 59 64 60 37 61 24 62 25 63 30 64 26 65
REMARK SMILES IDX 27 66 29 67 31 68 28 69 50 70 51 71 56 72 52 73 53 74 55 75
REMARK SMILES IDX 57 76 54 77 38 78 39 79 44 80 40 81 41 82 43 83 45 84 42 85
REMARK H PARENT 62 47 36 58
REMARK Flexibility Score: inf
ROOT
ATOM      1  C   UNL A   1      43.934  21.695  25.379  1.00  0.00     0.274 C 
ENDROOT
BRANCH   1   2
ATOM      2  O   UNL A   1      42.491  21.645  25.368  1.00  0.00    -0.461 OA
BRANCH   2   3
ATOM      3  C   UNL A   1      41.942  20.494  25.837  1.00  0.00     0.325 C 
ATOM      4  O   UNL A   1      42.259  19.371  25.447  1.00  0.00    -0.250 OA
BRANCH   3   5
ATOM      5  C   UNL A   1      40.875  20.669  26.916  1.00  0.00     0.239 C 
BRANCH   5   6
ATOM      6  N   UNL A   1      40.062  21.872  26.873  1.00  0.00    -0.359 N 
ATOM      7  C   UNL A   1      38.942  24.957  28.385  1.00  0.00     0.018 C 
ATOM      8  C   UNL A   1      39.487  24.218  27.161  1.00  0.00     0.009 C 
ATOM      9  C   UNL A   1      40.160  25.191  26.177  1.00  0.00     0.018 C 
ATOM     10  C   UNL A   1      40.472  23.085  27.574  1.00  0.00     0.128 C 
ATOM     11  C   UNL A   1      38.443  23.436  26.399  1.00  0.00    -0.016 A 
ATOM     12  C   UNL A   1      38.897  22.130  26.194  1.00  0.00     0.041 A 
ATOM     13  C   UNL A   1      37.265  23.910  25.830  1.00  0.00     0.028 A 
ATOM     14  C   UNL A   1      38.192  21.309  25.338  1.00  0.00     0.027 A 
ATOM     15  C   UNL A   1      36.541  23.063  24.983  1.00  0.00     0.083 A 
ATOM     16  C   UNL A   1      37.012  21.770  24.729  1.00  0.00     0.024 A 
BRANCH  15  17
ATOM     17  S   UNL A   1      35.080  23.763  24.237  1.00  0.00     0.243 S 
ATOM     18  O   UNL A   1      35.077  25.164  24.601  1.00  0.00    -0.207 OA
ATOM     19  O   UNL A   1      35.115  23.358  22.844  1.00  0.00    -0.207 OA
BRANCH  17  20
ATOM     20  N   UNL A   1      33.705  23.048  24.939  1.00  0.00    -0.198 NA
ATOM     21  C   UNL A   1      33.069  23.753  26.074  1.00  0.00     0.102 C 
ATOM     22  C   UNL A   1      32.804  22.287  24.042  1.00  0.00     0.102 C 
ATOM     23  C   UNL A   1      32.147  22.817  26.851  1.00  0.00     0.017 C 
ATOM     24  C   UNL A   1      31.904  21.358  24.849  1.00  0.00     0.017 C 
ATOM     25  C   UNL A   1      31.152  22.124  25.929  1.00  0.00     0.003 C 
ENDBRANCH  17  20
ENDBRANCH  15  17
ENDBRANCH   5   6
ENDBRANCH   3   5
ENDBRANCH   2   3
ENDBRANCH   1   2
BRANCH   1  26
ATOM     26  C   UNL A   1      44.449  22.723  24.374  1.00  0.00     0.275 C 
BRANCH  26  27
ATOM     27  O   UNL A   1      43.823  23.993  24.626  1.00  0.00    -0.458 OA
BRANCH  27  28
ATOM     28  C   UNL A   1      44.640  24.964  25.085  1.00  0.00     0.338 C 
ATOM     29  O   UNL A   1      45.758  25.254  24.700  1.00  0.00    -0.246 OA
BRANCH  28  30
ATOM     30  C   UNL A   1      43.993  25.654  26.213  1.00  0.00     0.060 A 
ATOM     31  C   UNL A   1      43.630  24.892  27.319  1.00  0.00     0.016 A 
ATOM     32  C   UNL A   1      43.831  27.042  26.223  1.00  0.00     0.016 A 
ATOM     33  C   UNL A   1      43.047  25.520  28.417  1.00  0.00     0.010 A 
ATOM     34  C   UNL A   1      43.333  27.679  27.359  1.00  0.00     0.010 A 
ATOM     35  C   UNL A   1      42.897  26.918  28.450  1.00  0.00    -0.014 A 
BRANCH  35  36
ATOM     36  C   UNL A   1      42.239  27.554  29.617  1.00  0.00     0.031 A 
ATOM     37  C   UNL A   1      42.866  27.470  30.979  1.00  0.00     0.074 A 
ATOM     38  C   UNL A   1      41.104  28.255  29.433  1.00  0.00     0.049 A 
ATOM     39  N   UNL A   1      42.536  28.101  32.078  1.00  0.00    -0.248 NA
ATOM     40  C   UNL A   1      44.006  26.553  31.135  1.00  0.00     0.031 C 
ATOM     41  C   UNL A   1      40.372  28.362  28.170  1.00  0.00     0.029 A 
ATOM     42  N   UNL A   1      40.385  29.032  30.304  1.00  0.00    -0.354 N 
ATOM     43  C   UNL A   1      43.437  27.671  33.045  1.00  0.00     0.074 A 
ATOM     44  C   UNL A   1      44.276  26.670  32.426  1.00  0.00     0.031 C 
ATOM     45  C   UNL A   1      39.340  29.205  28.332  1.00  0.00     0.029 A 
ATOM     46  C   UNL A   1      39.324  29.675  29.715  1.00  0.00     0.049 A 
ATOM     47  H   UNL A   1      40.608  29.120  31.259  1.00  0.00     0.167 HD
ATOM     48  C   UNL A   1      43.575  28.093  34.324  1.00  0.00     0.037 A 
ATOM     49  C   UNL A   1      38.451  30.561  30.229  1.00  0.00     0.037 A 
ATOM     50  C   UNL A   1      42.730  29.083  34.940  1.00  0.00     0.049 A 
ATOM     51  C   UNL A   1      38.603  30.992  31.662  1.00  0.00     0.074 A 
ATOM     52  C   UNL A   1      42.809  29.613  36.215  1.00  0.00     0.029 A 
ATOM     53  N   UNL A   1      41.641  29.681  34.324  1.00  0.00    -0.354 N 
ATOM     54  N   UNL A   1      39.518  30.649  32.537  1.00  0.00    -0.248 NA
ATOM     55  C   UNL A   1      37.607  31.942  32.173  1.00  0.00     0.031 C 
ATOM     56  C   UNL A   1      41.734  30.492  36.389  1.00  0.00     0.029 A 
ATOM     57  C   UNL A   1      41.018  30.551  35.203  1.00  0.00     0.049 A 
ATOM     58  H   UNL A   1      41.352  29.510  33.398  1.00  0.00     0.167 HD
ATOM     59  C   UNL A   1      39.220  31.357  33.695  1.00  0.00     0.074 A 
ATOM     60  C   UNL A   1      38.055  32.165  33.400  1.00  0.00     0.031 C 
ATOM     61  C   UNL A   1      39.854  31.342  34.894  1.00  0.00     0.037 A 
BRANCH  48  62
ATOM     62  C   UNL A   1      44.681  27.478  35.132  1.00  0.00     0.057 A 
ATOM     63  C   UNL A   1      44.489  26.267  35.808  1.00  0.00     0.134 A 
ATOM     64  C   UNL A   1      45.941  28.084  35.241  1.00  0.00     0.134 A 
ATOM     65  F   UNL A   1      43.307  25.635  35.753  1.00  0.00    -0.206 F 
ATOM     66  C   UNL A   1      45.512  25.677  36.553  1.00  0.00     0.040 A 
ATOM     67  C   UNL A   1      46.980  27.488  35.958  1.00  0.00     0.040 A 
ATOM     68  F   UNL A   1      46.197  29.239  34.607  1.00  0.00    -0.206 F 
ATOM     69  C   UNL A   1      46.765  26.283  36.621  1.00  0.00     0.006 A 
ENDBRANCH  48  62
BRANCH  49  70
ATOM     70  C   UNL A   1      37.375  31.125  29.376  1.00  0.00     0.057 A 
ATOM     71  C   UNL A   1      36.225  30.387  29.071  1.00  0.00     0.134 A 
ATOM     72  C   UNL A   1      37.464  32.424  28.859  1.00  0.00     0.134 A 
ATOM     73  F   UNL A   1      36.083  29.135  29.530  1.00  0.00    -0.206 F 
ATOM     74  C   UNL A   1      35.205  30.917  28.280  1.00  0.00     0.040 A 
ATOM     75  C   UNL A   1      36.440  32.975  28.088  1.00  0.00     0.040 A 
ATOM     76  F   UNL A   1      38.534  33.185  29.129  1.00  0.00    -0.206 F 
ATOM     77  C   UNL A   1      35.307  32.219  27.794  1.00  0.00     0.006 A 
ENDBRANCH  49  70
BRANCH  61  78
ATOM     78  C   UNL A   1      39.307  32.242  35.964  1.00  0.00     0.057 A 
ATOM     79  C   UNL A   1      38.322  31.781  36.847  1.00  0.00     0.134 A 
ATOM     80  C   UNL A   1      39.739  33.567  36.111  1.00  0.00     0.134 A 
ATOM     81  F   UNL A   1      37.857  30.527  36.757  1.00  0.00    -0.206 F 
ATOM     82  C   UNL A   1      37.787  32.606  37.838  1.00  0.00     0.040 A 
ATOM     83  C   UNL A   1      39.233  34.391  37.116  1.00  0.00     0.040 A 
ATOM     84  F   UNL A   1      40.690  34.065  35.306  1.00  0.00    -0.206 F 
ATOM     85  C   UNL A   1      38.249  33.912  37.980  1.00  0.00     0.006 A 
ENDBRANCH  61  78
ENDBRANCH  35  36
ENDBRANCH  28  30
ENDBRANCH  27  28
ENDBRANCH  26  27
ENDBRANCH   1  26
TORSDOF 14
ENDMDL
MODEL 2
REMARK VINA RESULT:     -11.8      4.944     10.392
REMARK SMILES CC1(C)CN(CC(=O)OCCOC(=O)c2ccc(-c3c4nc(c(-c5c(F)cccc5F)c5ccc([nH]5)c(-c5c(F)cccc5F)c5nc(c(-c6c(F)cccc6F)c6ccc3[nH]6)C=C5)C=C4)cc2)c2ccc(S(=O)(=O)N3CCCCC3)cc21
REMARK SMILES IDX 10 1 9 2 7 3 8 4 6 5 5 6 1 7 2 8 3 9 4 10 83 11 69 12 82 13
REMARK SMILES IDX 70 14 72 15 71 16 73 17 74 18 75 19 76 20 77 21 81 22 78 23
REMARK SMILES IDX 80 24 79 25 11 26 12 27 13 28 14 29 15 30 16 31 68 32 17 33
REMARK SMILES IDX 67 34 18 35 19 36 20 37 61 38 21 39 66 40 60 41 62 42 22 43
REMARK SMILES IDX 65 44 59 45 58 46 23 48 49 49 32 50 48 51 33 52 36 53 47 54
REMARK SMILES IDX 63 55 34 56 35 57 46 59 64 60 37 61 24 62 25 63 30 64 26 65
REMARK SMILES IDX 27 66 29 67 31 68 28 69 50 70 51 71 56 72 52 73 53 74 55 75
REMARK SMILES IDX 57 76 54 77 38 78 39 79 44 80 40 81 41 82 43 83 45 84 42 85
REMARK H PARENT 62 47 36 58
REMARK Flexibility Score: inf
ROOT
ATOM      1  C   UNL A   1      34.901  34.090  31.526  1.00  0.00     0.274 C 
ENDROOT
BRANCH   1   2
ATOM      2  O   UNL A   1      34.040  33.382  30.607  1.00  0.00    -0.461 OA
BRANCH   2   3
ATOM      3  C   UNL A   1      33.662  34.080  29.504  1.00  0.00     0.325 C 
ATOM      4  O   UNL A   1      32.790  34.949  29.504  1.00  0.00    -0.250 OA
BRANCH   3   5
ATOM      5  C   UNL A   1      34.404  33.724  28.218  1.00  0.00     0.239 C 
BRANCH   5   6
ATOM      6  N   UNL A   1      34.811  32.342  28.033  1.00  0.00    -0.359 N 
ATOM      7  C   UNL A   1      37.387  29.888  27.399  1.00  0.00     0.018 C 
ATOM      8  C   UNL A   1      36.193  30.350  28.237  1.00  0.00     0.009 C 
ATOM      9  C   UNL A   1      36.195  29.684  29.624  1.00  0.00     0.018 C 
ATOM     10  C   UNL A   1      36.161  31.901  28.372  1.00  0.00     0.128 C 
ATOM     11  C   UNL A   1      34.851  30.084  27.597  1.00  0.00    -0.016 A 
ATOM     12  C   UNL A   1      34.088  31.255  27.610  1.00  0.00     0.041 A 
ATOM     13  C   UNL A   1      34.331  28.864  27.176  1.00  0.00     0.028 A 
ATOM     14  C   UNL A   1      32.754  31.181  27.265  1.00  0.00     0.027 A 
ATOM     15  C   UNL A   1      32.983  28.801  26.804  1.00  0.00     0.083 A 
ATOM     16  C   UNL A   1      32.195  29.956  26.861  1.00  0.00     0.024 A 
BRANCH  15  17
ATOM     17  S   UNL A   1      32.371  27.190  26.343  1.00  0.00     0.243 S 
ATOM     18  O   UNL A   1      33.485  26.279  26.499  1.00  0.00    -0.207 OA
ATOM     19  O   UNL A   1      31.147  27.003  27.097  1.00  0.00    -0.207 OA
BRANCH  17  20
ATOM     20  N   UNL A   1      31.953  27.210  24.694  1.00  0.00    -0.198 NA
ATOM     21  C   UNL A   1      32.629  26.241  23.803  1.00  0.00     0.102 C 
ATOM     22  C   UNL A   1      30.555  27.561  24.353  1.00  0.00     0.102 C 
ATOM     23  C   UNL A   1      32.483  26.649  22.340  1.00  0.00     0.017 C 
ATOM     24  C   UNL A   1      30.446  27.971  22.889  1.00  0.00     0.017 C 
ATOM     25  C   UNL A   1      31.025  26.899  21.975  1.00  0.00     0.003 C 
ENDBRANCH  17  20
ENDBRANCH  15  17
ENDBRANCH   5   6
ENDBRANCH   3   5
ENDBRANCH   2   3
ENDBRANCH   1   2
BRANCH   1  26
ATOM     26  C   UNL A   1      34.902  33.416  32.896  1.00  0.00     0.275 C 
BRANCH  26  27
ATOM     27  O   UNL A   1      35.582  32.152  32.807  1.00  0.00    -0.458 OA
BRANCH  27  28
ATOM     28  C   UNL A   1      36.743  32.067  33.490  1.00  0.00     0.338 C 
ATOM     29  O   UNL A   1      36.958  32.360  34.652  1.00  0.00    -0.246 OA
BRANCH  28  30
ATOM     30  C   UNL A   1      37.804  31.583  32.591  1.00  0.00     0.060 A 
ATOM     31  C   UNL A   1      37.917  32.179  31.338  1.00  0.00     0.016 A 
ATOM     32  C   UNL A   1      38.732  30.625  33.007  1.00  0.00     0.016 A 
ATOM     33  C   UNL A   1      38.932  31.769  30.478  1.00  0.00     0.010 A 
ATOM     34  C   UNL A   1      39.802  30.283  32.180  1.00  0.00     0.010 A 
ATOM     35  C   UNL A   1      39.885  30.821  30.891  1.00  0.00    -0.014 A 
BRANCH  35  36
ATOM     36  C   UNL A   1      40.931  30.376  29.938  1.00  0.00     0.031 A 
ATOM     37  C   UNL A   1      42.065  31.293  29.576  1.00  0.00     0.074 A 
ATOM     38  C   UNL A   1      40.886  29.124  29.446  1.00  0.00     0.049 A 
ATOM     39  N   UNL A   1      43.157  31.027  28.904  1.00  0.00    -0.248 NA
ATOM     40  C   UNL A   1      41.959  32.693  30.015  1.00  0.00     0.031 C 
ATOM     41  C   UNL A   1      39.808  28.162  29.682  1.00  0.00     0.029 A 
ATOM     42  N   UNL A   1      41.784  28.437  28.671  1.00  0.00    -0.354 N 
ATOM     43  C   UNL A   1      43.871  32.218  28.856  1.00  0.00     0.074 A 
ATOM     44  C   UNL A   1      43.056  33.224  29.499  1.00  0.00     0.031 C 
ATOM     45  C   UNL A   1      40.133  26.991  29.111  1.00  0.00     0.029 A 
ATOM     46  C   UNL A   1      41.428  27.129  28.450  1.00  0.00     0.049 A 
ATOM     47  H   UNL A   1      42.604  28.843  28.306  1.00  0.00     0.167 HD
ATOM     48  C   UNL A   1      45.107  32.446  28.354  1.00  0.00     0.037 A 
ATOM     49  C   UNL A   1      42.085  26.147  27.806  1.00  0.00     0.037 A 
ATOM     50  C   UNL A   1      45.911  31.443  27.706  1.00  0.00     0.049 A 
ATOM     51  C   UNL A   1      43.444  26.432  27.226  1.00  0.00     0.074 A 
ATOM     52  C   UNL A   1      47.192  31.558  27.198  1.00  0.00     0.029 A 
ATOM     53  N   UNL A   1      45.499  30.141  27.465  1.00  0.00    -0.354 N 
ATOM     54  N   UNL A   1      44.148  27.538  27.272  1.00  0.00    -0.248 NA
ATOM     55  C   UNL A   1      44.101  25.329  26.515  1.00  0.00     0.031 C 
ATOM     56  C   UNL A   1      47.536  30.339  26.601  1.00  0.00     0.029 A 
ATOM     57  C   UNL A   1      46.489  29.449  26.786  1.00  0.00     0.049 A 
ATOM     58  H   UNL A   1      44.631  29.764  27.736  1.00  0.00     0.167 HD
ATOM     59  C   UNL A   1      45.340  27.256  26.616  1.00  0.00     0.074 A 
ATOM     60  C   UNL A   1      45.270  25.870  26.203  1.00  0.00     0.031 C 
ATOM     61  C   UNL A   1      46.398  28.070  26.377  1.00  0.00     0.037 A 
BRANCH  48  62
ATOM     62  C   UNL A   1      45.653  33.839  28.488  1.00  0.00     0.057 A 
ATOM     63  C   UNL A   1      45.408  34.806  27.505  1.00  0.00     0.134 A 
ATOM     64  C   UNL A   1      46.423  34.226  29.595  1.00  0.00     0.134 A 
ATOM     65  F   UNL A   1      44.684  34.503  26.417  1.00  0.00    -0.206 F 
ATOM     66  C   UNL A   1      45.899  36.107  27.623  1.00  0.00     0.040 A 
ATOM     67  C   UNL A   1      46.893  35.533  29.738  1.00  0.00     0.040 A 
ATOM     68  F   UNL A   1      46.684  33.354  30.580  1.00  0.00    -0.206 F 
ATOM     69  C   UNL A   1      46.635  36.477  28.747  1.00  0.00     0.006 A 
ENDBRANCH  48  62
BRANCH  49  70
ATOM     70  C   UNL A   1      41.485  24.794  27.702  1.00  0.00     0.057 A 
ATOM     71  C   UNL A   1      40.450  24.524  26.799  1.00  0.00     0.134 A 
ATOM     72  C   UNL A   1      41.943  23.733  28.494  1.00  0.00     0.134 A 
ATOM     73  F   UNL A   1      39.961  25.499  26.019  1.00  0.00    -0.206 F 
ATOM     74  C   UNL A   1      39.889  23.251  26.689  1.00  0.00     0.040 A 
ATOM     75  C   UNL A   1      41.409  22.449  28.376  1.00  0.00     0.040 A 
ATOM     76  F   UNL A   1      42.942  23.926  29.367  1.00  0.00    -0.206 F 
ATOM     77  C   UNL A   1      40.376  22.206  27.473  1.00  0.00     0.006 A 
ENDBRANCH  49  70
BRANCH  61  78
ATOM     78  C   UNL A   1      47.569  27.471  25.653  1.00  0.00     0.057 A 
ATOM     79  C   UNL A   1      47.626  27.490  24.253  1.00  0.00     0.134 A 
ATOM     80  C   UNL A   1      48.628  26.858  26.335  1.00  0.00     0.134 A 
ATOM     81  F   UNL A   1      46.641  28.052  23.538  1.00  0.00    -0.206 F 
ATOM     82  C   UNL A   1      48.695  26.923  23.559  1.00  0.00     0.040 A 
ATOM     83  C   UNL A   1      49.717  26.314  25.653  1.00  0.00     0.040 A 
ATOM     84  F   UNL A   1      48.640  26.819  27.676  1.00  0.00    -0.206 F 
ATOM     85  C   UNL A   1      49.749  26.340  24.260  1.00  0.00     0.006 A 
ENDBRANCH  61  78
ENDBRANCH  35  36
ENDBRANCH  28  30
ENDBRANCH  27  28
ENDBRANCH  26  27
ENDBRANCH   1  26
TORSDOF 14
ENDMDL
MODEL 3
REMARK VINA RESULT:     -11.5      3.126      8.284
REMARK SMILES CC1(C)CN(CC(=O)OCCOC(=O)c2ccc(-c3c4nc(c(-c5c(F)cccc5F)c5ccc([nH]5)c(-c5c(F)cccc5F)c5nc(c(-c6c(F)cccc6F)c6ccc3[nH]6)C=C5)C=C4)cc2)c2ccc(S(=O)(=O)N3CCCCC3)cc21
REMARK SMILES IDX 10 1 9 2 7 3 8 4 6 5 5 6 1 7 2 8 3 9 4 10 83 11 69 12 82 13
REMARK SMILES IDX 70 14 72 15 71 16 73 17 74 18 75 19 76 20 77 21 81 22 78 23
REMARK SMILES IDX 80 24 79 25 11 26 12 27 13 28 14 29 15 30 16 31 68 32 17 33
REMARK SMILES IDX 67 34 18 35 19 36 20 37 61 38 21 39 66 40 60 41 62 42 22 43
REMARK SMILES IDX 65 44 59 45 58 46 23 48 49 49 32 50 48 51 33 52 36 53 47 54
REMARK SMILES IDX 63 55 34 56 35 57 46 59 64 60 37 61 24 62 25 63 30 64 26 65
REMARK SMILES IDX 27 66 29 67 31 68 28 69 50 70 51 71 56 72 52 73 53 74 55 75
REMARK SMILES IDX 57 76 54 77 38 78 39 79 44 80 40 81 41 82 43 83 45 84 42 85
REMARK H PARENT 62 47 36 58
REMARK Flexibility Score: inf
ROOT
ATOM      1  C   UNL A   1      32.509  31.642  27.248  1.00  0.00     0.274 C 
ENDROOT
BRANCH   1   2
ATOM      2  O   UNL A   1      33.850  31.168  27.502  1.00  0.00    -0.461 OA
BRANCH   2   3
ATOM      3  C   UNL A   1      34.063  29.851  27.246  1.00  0.00     0.325 C 
ATOM      4  O   UNL A   1      35.176  29.325  27.220  1.00  0.00    -0.250 OA
BRANCH   3   5
ATOM      5  C   UNL A   1      32.808  29.022  26.987  1.00  0.00     0.239 C 
BRANCH   5   6
ATOM      6  N   UNL A   1      32.669  28.394  25.685  1.00  0.00    -0.359 N 
ATOM      7  C   UNL A   1      30.857  27.960  22.587  1.00  0.00     0.018 C 
ATOM      8  C   UNL A   1      32.185  28.213  23.308  1.00  0.00     0.009 C 
ATOM      9  C   UNL A   1      33.209  28.874  22.370  1.00  0.00     0.018 C 
ATOM     10  C   UNL A   1      31.980  29.071  24.591  1.00  0.00     0.128 C 
ATOM     11  C   UNL A   1      32.818  26.969  23.885  1.00  0.00    -0.016 A 
ATOM     12  C   UNL A   1      33.152  27.195  25.223  1.00  0.00     0.041 A 
ATOM     13  C   UNL A   1      33.180  25.804  23.216  1.00  0.00     0.028 A 
ATOM     14  C   UNL A   1      33.931  26.263  25.878  1.00  0.00     0.027 A 
ATOM     15  C   UNL A   1      33.948  24.852  23.895  1.00  0.00     0.083 A 
ATOM     16  C   UNL A   1      34.333  25.088  25.219  1.00  0.00     0.024 A 
BRANCH  15  17
ATOM     17  S   UNL A   1      34.431  23.417  22.951  1.00  0.00     0.243 S 
ATOM     18  O   UNL A   1      33.658  23.463  21.728  1.00  0.00    -0.207 OA
ATOM     19  O   UNL A   1      35.881  23.438  22.915  1.00  0.00    -0.207 OA
BRANCH  17  20
ATOM     20  N   UNL A   1      33.966  22.017  23.798  1.00  0.00    -0.198 NA
ATOM     21  C   UNL A   1      34.974  21.377  24.673  1.00  0.00     0.102 C 
ATOM     22  C   UNL A   1      32.555  21.929  24.239  1.00  0.00     0.102 C 
ATOM     23  C   UNL A   1      34.571  19.946  25.016  1.00  0.00     0.017 C 
ATOM     24  C   UNL A   1      32.183  20.487  24.565  1.00  0.00     0.017 C 
ATOM     25  C   UNL A   1      33.154  19.884  25.572  1.00  0.00     0.003 C 
ENDBRANCH  17  20
ENDBRANCH  15  17
ENDBRANCH   5   6
ENDBRANCH   3   5
ENDBRANCH   2   3
ENDBRANCH   1   2
BRANCH   1  26
ATOM     26  C   UNL A   1      32.482  33.166  27.155  1.00  0.00     0.275 C 
BRANCH  26  27
ATOM     27  O   UNL A   1      32.199  33.719  28.452  1.00  0.00    -0.458 OA
BRANCH  27  28
ATOM     28  C   UNL A   1      33.003  34.731  28.841  1.00  0.00     0.338 C 
ATOM     29  O   UNL A   1      32.765  35.925  28.842  1.00  0.00    -0.246 OA
BRANCH  28  30
ATOM     30  C   UNL A   1      34.307  34.187  29.255  1.00  0.00     0.060 A 
ATOM     31  C   UNL A   1      34.322  33.230  30.265  1.00  0.00     0.016 A 
ATOM     32  C   UNL A   1      35.487  34.543  28.597  1.00  0.00     0.016 A 
ATOM     33  C   UNL A   1      35.535  32.671  30.655  1.00  0.00     0.010 A 
ATOM     34  C   UNL A   1      36.688  33.914  28.926  1.00  0.00     0.010 A 
ATOM     35  C   UNL A   1      36.728  33.003  29.988  1.00  0.00    -0.014 A 
BRANCH  35  36
ATOM     36  C   UNL A   1      38.010  32.419  30.452  1.00  0.00     0.031 A 
ATOM     37  C   UNL A   1      38.697  32.970  31.669  1.00  0.00     0.074 A 
ATOM     38  C   UNL A   1      38.522  31.355  29.807  1.00  0.00     0.049 A 
ATOM     39  N   UNL A   1      39.723  32.489  32.325  1.00  0.00    -0.248 NA
ATOM     40  C   UNL A   1      38.173  34.230  32.219  1.00  0.00     0.031 C 
ATOM     41  C   UNL A   1      37.976  30.765  28.583  1.00  0.00     0.029 A 
ATOM     42  N   UNL A   1      39.600  30.562  30.108  1.00  0.00    -0.354 N 
ATOM     43  C   UNL A   1      39.953  33.375  33.370  1.00  0.00     0.074 A 
ATOM     44  C   UNL A   1      39.012  34.462  33.217  1.00  0.00     0.031 C 
ATOM     45  C   UNL A   1      38.687  29.671  28.269  1.00  0.00     0.029 A 
ATOM     46  C   UNL A   1      39.752  29.498  29.253  1.00  0.00     0.049 A 
ATOM     47  H   UNL A   1      40.205  30.740  30.863  1.00  0.00     0.167 HD
ATOM     48  C   UNL A   1      40.844  33.278  34.385  1.00  0.00     0.037 A 
ATOM     49  C   UNL A   1      40.638  28.485  29.276  1.00  0.00     0.037 A 
ATOM     50  C   UNL A   1      41.786  32.199  34.528  1.00  0.00     0.049 A 
ATOM     51  C   UNL A   1      41.641  28.415  30.395  1.00  0.00     0.074 A 
ATOM     52  C   UNL A   1      42.704  31.982  35.539  1.00  0.00     0.029 A 
ATOM     53  N   UNL A   1      41.937  31.162  33.620  1.00  0.00    -0.354 N 
ATOM     54  N   UNL A   1      41.785  29.209  31.429  1.00  0.00    -0.248 NA
ATOM     55  C   UNL A   1      42.596  27.301  30.354  1.00  0.00     0.031 C 
ATOM     56  C   UNL A   1      43.448  30.842  35.216  1.00  0.00     0.029 A 
ATOM     57  C   UNL A   1      42.957  30.318  34.030  1.00  0.00     0.049 A 
ATOM     58  H   UNL A   1      41.400  31.043  32.804  1.00  0.00     0.167 HD
ATOM     59  C   UNL A   1      42.832  28.677  32.173  1.00  0.00     0.074 A 
ATOM     60  C   UNL A   1      43.269  27.482  31.481  1.00  0.00     0.031 C 
ATOM     61  C   UNL A   1      43.382  29.136  33.324  1.00  0.00     0.037 A 
BRANCH  48  62
ATOM     62  C   UNL A   1      40.834  34.375  35.411  1.00  0.00     0.057 A 
ATOM     63  C   UNL A   1      40.026  34.284  36.552  1.00  0.00     0.134 A 
ATOM     64  C   UNL A   1      41.626  35.524  35.271  1.00  0.00     0.134 A 
ATOM     65  F   UNL A   1      39.238  33.216  36.746  1.00  0.00    -0.206 F 
ATOM     66  C   UNL A   1      40.015  35.290  37.519  1.00  0.00     0.040 A 
ATOM     67  C   UNL A   1      41.646  36.522  36.248  1.00  0.00     0.040 A 
ATOM     68  F   UNL A   1      42.433  35.668  34.209  1.00  0.00    -0.206 F 
ATOM     69  C   UNL A   1      40.834  36.408  37.374  1.00  0.00     0.006 A 
ENDBRANCH  48  62
BRANCH  49  70
ATOM     70  C   UNL A   1      40.598  27.437  28.225  1.00  0.00     0.057 A 
ATOM     71  C   UNL A   1      39.820  26.284  28.377  1.00  0.00     0.134 A 
ATOM     72  C   UNL A   1      41.326  27.573  27.037  1.00  0.00     0.134 A 
ATOM     73  F   UNL A   1      39.106  26.090  29.495  1.00  0.00    -0.206 F 
ATOM     74  C   UNL A   1      39.769  25.301  27.387  1.00  0.00     0.040 A 
ATOM     75  C   UNL A   1      41.265  26.611  26.028  1.00  0.00     0.040 A 
ATOM     76  F   UNL A   1      42.078  28.663  26.827  1.00  0.00    -0.206 F 
ATOM     77  C   UNL A   1      40.486  25.468  26.203  1.00  0.00     0.006 A 
ENDBRANCH  49  70
BRANCH  61  78
ATOM     78  C   UNL A   1      44.502  28.328  33.912  1.00  0.00     0.057 A 
ATOM     79  C   UNL A   1      44.233  27.270  34.790  1.00  0.00     0.134 A 
ATOM     80  C   UNL A   1      45.846  28.606  33.627  1.00  0.00     0.134 A 
ATOM     81  F   UNL A   1      42.970  26.956  35.113  1.00  0.00    -0.206 F 
ATOM     82  C   UNL A   1      45.260  26.517  35.362  1.00  0.00     0.040 A 
ATOM     83  C   UNL A   1      46.880  27.842  34.169  1.00  0.00     0.040 A 
ATOM     84  F   UNL A   1      46.171  29.597  32.783  1.00  0.00    -0.206 F 
ATOM     85  C   UNL A   1      46.587  26.797  35.045  1.00  0.00     0.006 A 
ENDBRANCH  61  78
ENDBRANCH  35  36
ENDBRANCH  28  30
ENDBRANCH  27  28
ENDBRANCH  26  27
ENDBRANCH   1  26
TORSDOF 14
ENDMDL
