MODEL 1
REMARK VINA RESULT:     -11.0      0.000      0.000
REMARK SMILES O=C(/C=C/C(=O)OCCOC(=O)c1ccc(-c2c3nc(c(-c4c(F)cccc4F)c4ccc([nH]4)c(-c4c(F)cccc4F)c4nc(c(-c5c(F)cccc5F)c5ccc2[nH]5)C=C4)C=C3)cc1)NNC(=O)CSc1ccc2ccccc2n1
REMARK SMILES IDX 7 1 5 2 6 3 4 4 3 5 2 6 1 7 67 8 68 10 69 11 70 13 71 14
REMARK SMILES IDX 72 15 73 16 74 17 82 18 75 19 81 20 76 21 80 22 77 23 79 24
REMARK SMILES IDX 78 25 8 26 9 27 10 28 11 29 12 30 13 31 14 32 66 33 15 34
REMARK SMILES IDX 65 35 16 36 17 37 18 38 59 39 19 40 64 41 58 42 60 43 20 44
REMARK SMILES IDX 63 45 57 46 56 47 21 49 47 50 30 51 46 52 31 53 34 54 45 55
REMARK SMILES IDX 61 56 32 57 33 58 44 60 62 61 35 62 22 63 23 64 28 65 24 66
REMARK SMILES IDX 25 67 27 68 29 69 26 70 48 71 49 72 54 73 50 74 51 75 53 76
REMARK SMILES IDX 55 77 52 78 36 79 37 80 42 81 38 82 39 83 41 84 43 85 40 86
REMARK H PARENT 67 9 68 12 60 48 34 59
REMARK Flexibility Score: inf
ROOT
ATOM      1  O   UNL A   1      33.504  30.750  26.590  1.00  0.00    -0.459 OA
ENDROOT
BRANCH   1   2
ATOM      2  C   UNL A   1      33.958  29.489  26.774  1.00  0.00     0.331 C 
ATOM      3  O   UNL A   1      35.121  29.152  26.931  1.00  0.00    -0.247 OA
BRANCH   2   4
ATOM      4  C   UNL A   1      32.869  28.497  26.871  1.00  0.00     0.099 C 
ATOM      5  C   UNL A   1      32.973  27.206  26.528  1.00  0.00     0.080 C 
BRANCH   5   6
ATOM      6  C   UNL A   1      31.798  26.304  26.565  1.00  0.00     0.262 C 
ATOM      7  O   UNL A   1      30.675  26.743  26.779  1.00  0.00    -0.268 OA
ATOM      8  N   UNL A   1      32.111  24.963  26.467  1.00  0.00    -0.264 N 
ATOM      9  H   UNL A   1      33.039  24.676  26.307  1.00  0.00     0.191 HD
BRANCH   8  10
ATOM     10  N   UNL A   1      31.090  24.023  26.596  1.00  0.00    -0.267 N 
ATOM     11  C   UNL A   1      31.100  22.769  26.032  1.00  0.00     0.248 C 
ATOM     12  H   UNL A   1      30.304  24.276  27.132  1.00  0.00     0.191 HD
ATOM     13  O   UNL A   1      30.148  22.010  26.220  1.00  0.00    -0.272 OA
BRANCH  11  14
ATOM     14  C   UNL A   1      32.300  22.348  25.201  1.00  0.00     0.178 C 
BRANCH  14  15
ATOM     15  S   UNL A   1      31.895  22.553  23.440  1.00  0.00    -0.096 SA
BRANCH  15  16
ATOM     16  C   UNL A   1      32.079  24.302  23.183  1.00  0.00     0.097 A 
ATOM     17  C   UNL A   1      33.269  24.927  22.836  1.00  0.00     0.036 A 
ATOM     18  N   UNL A   1      30.932  24.996  23.357  1.00  0.00    -0.241 NA
ATOM     19  C   UNL A   1      33.286  26.315  22.708  1.00  0.00     0.013 A 
ATOM     20  C   UNL A   1      30.940  26.331  23.216  1.00  0.00     0.072 A 
ATOM     21  C   UNL A   1      32.112  27.049  22.911  1.00  0.00     0.000 A 
ATOM     22  C   UNL A   1      29.758  27.039  23.382  1.00  0.00     0.029 A 
ATOM     23  C   UNL A   1      32.078  28.453  22.823  1.00  0.00     0.010 A 
ATOM     24  C   UNL A   1      29.717  28.433  23.291  1.00  0.00     0.002 A 
ATOM     25  C   UNL A   1      30.882  29.142  23.023  1.00  0.00     0.001 A 
ENDBRANCH  15  16
ENDBRANCH  14  15
ENDBRANCH  11  14
ENDBRANCH   8  10
ENDBRANCH   5   6
ENDBRANCH   2   4
ENDBRANCH   1   2
BRANCH   1  26
ATOM     26  C   UNL A   1      32.074  30.918  26.649  1.00  0.00     0.275 C 
BRANCH  26  27
ATOM     27  C   UNL A   1      31.685  32.329  27.107  1.00  0.00     0.275 C 
BRANCH  27  28
ATOM     28  O   UNL A   1      32.753  33.278  26.923  1.00  0.00    -0.458 OA
BRANCH  28  29
ATOM     29  C   UNL A   1      33.187  33.877  28.054  1.00  0.00     0.338 C 
ATOM     30  O   UNL A   1      32.616  34.746  28.698  1.00  0.00    -0.246 OA
BRANCH  29  31
ATOM     31  C   UNL A   1      34.417  33.231  28.539  1.00  0.00     0.060 A 
ATOM     32  C   UNL A   1      34.269  32.147  29.412  1.00  0.00     0.016 A 
ATOM     33  C   UNL A   1      35.689  33.705  28.211  1.00  0.00     0.016 A 
ATOM     34  C   UNL A   1      35.389  31.540  29.969  1.00  0.00     0.010 A 
ATOM     35  C   UNL A   1      36.817  33.091  28.771  1.00  0.00     0.010 A 
ATOM     36  C   UNL A   1      36.672  32.012  29.660  1.00  0.00    -0.014 A 
BRANCH  36  37
ATOM     37  C   UNL A   1      37.845  31.366  30.296  1.00  0.00     0.031 A 
ATOM     38  C   UNL A   1      38.195  31.663  31.725  1.00  0.00     0.074 A 
ATOM     39  C   UNL A   1      38.561  30.467  29.597  1.00  0.00     0.049 A 
ATOM     40  N   UNL A   1      39.153  31.158  32.461  1.00  0.00    -0.248 NA
ATOM     41  C   UNL A   1      37.357  32.651  32.418  1.00  0.00     0.031 C 
ATOM     42  C   UNL A   1      38.306  30.081  28.209  1.00  0.00     0.029 A 
ATOM     43  N   UNL A   1      39.643  29.708  29.963  1.00  0.00    -0.354 N 
ATOM     44  C   UNL A   1      39.039  31.770  33.703  1.00  0.00     0.074 A 
ATOM     45  C   UNL A   1      37.933  32.701  33.611  1.00  0.00     0.031 C 
ATOM     46  C   UNL A   1      39.199  29.148  27.844  1.00  0.00     0.029 A 
ATOM     47  C   UNL A   1      40.106  28.892  28.961  1.00  0.00     0.049 A 
ATOM     48  H   UNL A   1      40.049  29.744  30.860  1.00  0.00     0.167 HD
ATOM     49  C   UNL A   1      39.782  31.568  34.817  1.00  0.00     0.037 A 
ATOM     50  C   UNL A   1      41.150  28.044  28.941  1.00  0.00     0.037 A 
ATOM     51  C   UNL A   1      40.880  30.640  34.907  1.00  0.00     0.049 A 
ATOM     52  C   UNL A   1      41.994  27.880  30.174  1.00  0.00     0.074 A 
ATOM     53  C   UNL A   1      41.669  30.340  36.005  1.00  0.00     0.029 A 
ATOM     54  N   UNL A   1      41.354  29.871  33.856  1.00  0.00    -0.354 N 
ATOM     55  N   UNL A   1      41.853  28.438  31.351  1.00  0.00    -0.248 NA
ATOM     56  C   UNL A   1      43.144  26.970  30.072  1.00  0.00     0.031 C 
ATOM     57  C   UNL A   1      42.648  29.423  35.605  1.00  0.00     0.029 A 
ATOM     58  C   UNL A   1      42.442  29.119  34.269  1.00  0.00     0.049 A 
ATOM     59  H   UNL A   1      40.973  29.861  32.948  1.00  0.00     0.167 HD
ATOM     60  C   UNL A   1      42.884  27.937  32.135  1.00  0.00     0.074 A 
ATOM     61  C   UNL A   1      43.633  27.016  31.303  1.00  0.00     0.031 C 
ATOM     62  C   UNL A   1      43.184  28.215  33.428  1.00  0.00     0.037 A 
BRANCH  49  63
ATOM     63  C   UNL A   1      39.442  32.387  36.028  1.00  0.00     0.057 A 
ATOM     64  C   UNL A   1      40.024  33.638  36.262  1.00  0.00     0.134 A 
ATOM     65  C   UNL A   1      38.503  31.926  36.958  1.00  0.00     0.134 A 
ATOM     66  F   UNL A   1      40.942  34.131  35.415  1.00  0.00    -0.206 F 
ATOM     67  C   UNL A   1      39.702  34.392  37.392  1.00  0.00     0.040 A 
ATOM     68  C   UNL A   1      38.156  32.680  38.081  1.00  0.00     0.040 A 
ATOM     69  F   UNL A   1      37.904  30.736  36.791  1.00  0.00    -0.206 F 
ATOM     70  C   UNL A   1      38.761  33.916  38.303  1.00  0.00     0.006 A 
ENDBRANCH  49  63
BRANCH  50  71
ATOM     71  C   UNL A   1      41.454  27.281  27.707  1.00  0.00     0.057 A 
ATOM     72  C   UNL A   1      41.042  25.952  27.560  1.00  0.00     0.134 A 
ATOM     73  C   UNL A   1      42.153  27.864  26.644  1.00  0.00     0.134 A 
ATOM     74  F   UNL A   1      40.382  25.337  28.552  1.00  0.00    -0.206 F 
ATOM     75  C   UNL A   1      41.323  25.226  26.402  1.00  0.00     0.040 A 
ATOM     76  C   UNL A   1      42.421  27.157  25.472  1.00  0.00     0.040 A 
ATOM     77  F   UNL A   1      42.569  29.137  26.725  1.00  0.00    -0.206 F 
ATOM     78  C   UNL A   1      42.009  25.831  25.352  1.00  0.00     0.006 A 
ENDBRANCH  50  71
BRANCH  62  79
ATOM     79  C   UNL A   1      44.364  27.504  34.022  1.00  0.00     0.057 A 
ATOM     80  C   UNL A   1      44.246  26.229  34.590  1.00  0.00     0.134 A 
ATOM     81  C   UNL A   1      45.636  28.091  34.008  1.00  0.00     0.134 A 
ATOM     82  F   UNL A   1      43.052  25.619  34.648  1.00  0.00    -0.206 F 
ATOM     83  C   UNL A   1      45.347  25.572  35.143  1.00  0.00     0.040 A 
ATOM     84  C   UNL A   1      46.749  27.433  34.537  1.00  0.00     0.040 A 
ATOM     85  F   UNL A   1      45.819  29.307  33.474  1.00  0.00    -0.206 F 
ATOM     86  C   UNL A   1      46.603  26.173  35.112  1.00  0.00     0.006 A 
ENDBRANCH  62  79
ENDBRANCH  36  37
ENDBRANCH  29  31
ENDBRANCH  28  29
ENDBRANCH  27  28
ENDBRANCH  26  27
ENDBRANCH   1  26
TORSDOF 16
ENDMDL
MODEL 2
REMARK VINA RESULT:     -10.8      3.610      8.456
REMARK SMILES O=C(/C=C/C(=O)OCCOC(=O)c1ccc(-c2c3nc(c(-c4c(F)cccc4F)c4ccc([nH]4)c(-c4c(F)cccc4F)c4nc(c(-c5c(F)cccc5F)c5ccc2[nH]5)C=C4)C=C3)cc1)NNC(=O)CSc1ccc2ccccc2n1
REMARK SMILES IDX 7 1 5 2 6 3 4 4 3 5 2 6 1 7 67 8 68 10 69 11 70 13 71 14
REMARK SMILES IDX 72 15 73 16 74 17 82 18 75 19 81 20 76 21 80 22 77 23 79 24
REMARK SMILES IDX 78 25 8 26 9 27 10 28 11 29 12 30 13 31 14 32 66 33 15 34
REMARK SMILES IDX 65 35 16 36 17 37 18 38 59 39 19 40 64 41 58 42 60 43 20 44
REMARK SMILES IDX 63 45 57 46 56 47 21 49 47 50 30 51 46 52 31 53 34 54 45 55
REMARK SMILES IDX 61 56 32 57 33 58 44 60 62 61 35 62 22 63 23 64 28 65 24 66
REMARK SMILES IDX 25 67 27 68 29 69 26 70 48 71 49 72 54 73 50 74 51 75 53 76
REMARK SMILES IDX 55 77 52 78 36 79 37 80 42 81 38 82 39 83 41 84 43 85 40 86
REMARK H PARENT 67 9 68 12 60 48 34 59
REMARK Flexibility Score: inf
ROOT
ATOM      1  O   UNL A   1      42.280  21.719  26.946  1.00  0.00    -0.459 OA
ENDROOT
BRANCH   1   2
ATOM      2  C   UNL A   1      41.393  20.708  27.100  1.00  0.00     0.331 C 
ATOM      3  O   UNL A   1      41.390  19.875  27.993  1.00  0.00    -0.247 OA
BRANCH   2   4
ATOM      4  C   UNL A   1      40.307  20.743  26.101  1.00  0.00     0.099 C 
ATOM      5  C   UNL A   1      39.299  21.625  26.093  1.00  0.00     0.080 C 
BRANCH   5   6
ATOM      6  C   UNL A   1      38.197  21.523  25.107  1.00  0.00     0.262 C 
ATOM      7  O   UNL A   1      37.830  20.434  24.685  1.00  0.00    -0.268 OA
ATOM      8  N   UNL A   1      37.738  22.741  24.643  1.00  0.00    -0.264 N 
ATOM      9  H   UNL A   1      38.086  23.582  25.018  1.00  0.00     0.191 HD
BRANCH   8  10
ATOM     10  N   UNL A   1      36.775  22.757  23.636  1.00  0.00    -0.267 N 
ATOM     11  C   UNL A   1      35.557  23.386  23.724  1.00  0.00     0.248 C 
ATOM     12  H   UNL A   1      36.984  22.282  22.799  1.00  0.00     0.191 HD
ATOM     13  O   UNL A   1      34.781  23.348  22.767  1.00  0.00    -0.272 OA
BRANCH  11  14
ATOM     14  C   UNL A   1      35.205  24.129  25.002  1.00  0.00     0.178 C 
BRANCH  14  15
ATOM     15  S   UNL A   1      34.791  22.915  26.291  1.00  0.00    -0.096 SA
BRANCH  15  16
ATOM     16  C   UNL A   1      33.965  21.628  25.385  1.00  0.00     0.097 A 
ATOM     17  C   UNL A   1      32.699  21.744  24.828  1.00  0.00     0.036 A 
ATOM     18  N   UNL A   1      34.692  20.493  25.279  1.00  0.00    -0.241 NA
ATOM     19  C   UNL A   1      32.148  20.639  24.179  1.00  0.00     0.013 A 
ATOM     20  C   UNL A   1      34.172  19.434  24.637  1.00  0.00     0.072 A 
ATOM     21  C   UNL A   1      32.878  19.449  24.084  1.00  0.00     0.000 A 
ATOM     22  C   UNL A   1      34.926  18.274  24.518  1.00  0.00     0.029 A 
ATOM     23  C   UNL A   1      32.360  18.297  23.465  1.00  0.00     0.010 A 
ATOM     24  C   UNL A   1      34.418  17.128  23.902  1.00  0.00     0.002 A 
ATOM     25  C   UNL A   1      33.128  17.135  23.384  1.00  0.00     0.001 A 
ENDBRANCH  15  16
ENDBRANCH  14  15
ENDBRANCH  11  14
ENDBRANCH   8  10
ENDBRANCH   5   6
ENDBRANCH   2   4
ENDBRANCH   1   2
BRANCH   1  26
ATOM     26  C   UNL A   1      43.482  21.394  26.221  1.00  0.00     0.275 C 
BRANCH  26  27
ATOM     27  C   UNL A   1      43.559  22.142  24.884  1.00  0.00     0.275 C 
BRANCH  27  28
ATOM     28  O   UNL A   1      42.880  23.413  24.928  1.00  0.00    -0.458 OA
BRANCH  28  29
ATOM     29  C   UNL A   1      43.666  24.472  25.224  1.00  0.00     0.338 C 
ATOM     30  O   UNL A   1      44.671  24.838  24.629  1.00  0.00    -0.246 OA
BRANCH  29  31
ATOM     31  C   UNL A   1      43.068  25.270  26.306  1.00  0.00     0.060 A 
ATOM     32  C   UNL A   1      43.682  26.487  26.618  1.00  0.00     0.016 A 
ATOM     33  C   UNL A   1      41.974  24.818  27.049  1.00  0.00     0.016 A 
ATOM     34  C   UNL A   1      43.215  27.254  27.680  1.00  0.00     0.010 A 
ATOM     35  C   UNL A   1      41.503  25.593  28.118  1.00  0.00     0.010 A 
ATOM     36  C   UNL A   1      42.127  26.809  28.444  1.00  0.00    -0.014 A 
BRANCH  36  37
ATOM     37  C   UNL A   1      41.674  27.631  29.591  1.00  0.00     0.031 A 
ATOM     38  C   UNL A   1      42.393  27.565  30.907  1.00  0.00     0.074 A 
ATOM     39  C   UNL A   1      40.645  28.483  29.426  1.00  0.00     0.049 A 
ATOM     40  N   UNL A   1      42.170  28.244  32.004  1.00  0.00    -0.248 NA
ATOM     41  C   UNL A   1      43.510  26.615  31.000  1.00  0.00     0.031 C 
ATOM     42  C   UNL A   1      39.880  28.651  28.190  1.00  0.00     0.029 A 
ATOM     43  N   UNL A   1      40.073  29.372  30.298  1.00  0.00    -0.354 N 
ATOM     44  C   UNL A   1      43.114  27.801  32.921  1.00  0.00     0.074 A 
ATOM     45  C   UNL A   1      43.896  26.778  32.259  1.00  0.00     0.031 C 
ATOM     46  C   UNL A   1      38.947  29.597  28.379  1.00  0.00     0.029 A 
ATOM     47  C   UNL A   1      39.027  30.078  29.756  1.00  0.00     0.049 A 
ATOM     48  H   UNL A   1      40.382  29.494  31.226  1.00  0.00     0.167 HD
ATOM     49  C   UNL A   1      43.315  28.216  34.195  1.00  0.00     0.037 A 
ATOM     50  C   UNL A   1      38.218  30.999  30.311  1.00  0.00     0.037 A 
ATOM     51  C   UNL A   1      42.539  29.235  34.853  1.00  0.00     0.049 A 
ATOM     52  C   UNL A   1      38.426  31.401  31.744  1.00  0.00     0.074 A 
ATOM     53  C   UNL A   1      42.692  29.748  36.130  1.00  0.00     0.029 A 
ATOM     54  N   UNL A   1      41.453  29.889  34.290  1.00  0.00    -0.354 N 
ATOM     55  N   UNL A   1      39.345  31.000  32.588  1.00  0.00    -0.248 NA
ATOM     56  C   UNL A   1      37.483  32.380  32.300  1.00  0.00     0.031 C 
ATOM     57  C   UNL A   1      41.671  30.680  36.355  1.00  0.00     0.029 A 
ATOM     58  C   UNL A   1      40.908  30.779  35.202  1.00  0.00     0.049 A 
ATOM     59  H   UNL A   1      41.119  29.742  33.376  1.00  0.00     0.167 HD
ATOM     60  C   UNL A   1      39.101  31.688  33.770  1.00  0.00     0.074 A 
ATOM     61  C   UNL A   1      37.958  32.544  33.526  1.00  0.00     0.031 C 
ATOM     62  C   UNL A   1      39.764  31.617  34.950  1.00  0.00     0.037 A 
BRANCH  49  63
ATOM     63  C   UNL A   1      44.411  27.546  34.971  1.00  0.00     0.057 A 
ATOM     64  C   UNL A   1      45.723  28.034  34.971  1.00  0.00     0.134 A 
ATOM     65  C   UNL A   1      44.142  26.412  35.748  1.00  0.00     0.134 A 
ATOM     66  F   UNL A   1      46.049  29.109  34.237  1.00  0.00    -0.206 F 
ATOM     67  C   UNL A   1      46.736  27.403  35.696  1.00  0.00     0.040 A 
ATOM     68  C   UNL A   1      45.142  25.785  36.495  1.00  0.00     0.040 A 
ATOM     69  F   UNL A   1      42.905  25.896  35.796  1.00  0.00    -0.206 F 
ATOM     70  C   UNL A   1      46.445  26.277  36.465  1.00  0.00     0.006 A 
ENDBRANCH  49  63
BRANCH  50  71
ATOM     71  C   UNL A   1      37.135  31.607  29.502  1.00  0.00     0.057 A 
ATOM     72  C   UNL A   1      35.936  30.924  29.271  1.00  0.00     0.134 A 
ATOM     73  C   UNL A   1      37.269  32.887  28.951  1.00  0.00     0.134 A 
ATOM     74  F   UNL A   1      35.758  29.689  29.761  1.00  0.00    -0.206 F 
ATOM     75  C   UNL A   1      34.910  31.489  28.511  1.00  0.00     0.040 A 
ATOM     76  C   UNL A   1      36.243  33.472  28.208  1.00  0.00     0.040 A 
ATOM     77  F   UNL A   1      38.393  33.592  29.143  1.00  0.00    -0.206 F 
ATOM     78  C   UNL A   1      35.061  32.769  27.983  1.00  0.00     0.006 A 
ENDBRANCH  50  71
BRANCH  62  79
ATOM     79  C   UNL A   1      39.275  32.498  36.061  1.00  0.00     0.057 A 
ATOM     80  C   UNL A   1      39.754  33.804  36.230  1.00  0.00     0.134 A 
ATOM     81  C   UNL A   1      38.300  32.045  36.959  1.00  0.00     0.134 A 
ATOM     82  F   UNL A   1      40.699  34.292  35.412  1.00  0.00    -0.206 F 
ATOM     83  C   UNL A   1      39.297  34.620  37.267  1.00  0.00     0.040 A 
ATOM     84  C   UNL A   1      37.819  32.861  37.986  1.00  0.00     0.040 A 
ATOM     85  F   UNL A   1      37.795  30.807  36.850  1.00  0.00    -0.206 F 
ATOM     86  C   UNL A   1      38.322  34.149  38.144  1.00  0.00     0.006 A 
ENDBRANCH  62  79
ENDBRANCH  36  37
ENDBRANCH  29  31
ENDBRANCH  28  29
ENDBRANCH  27  28
ENDBRANCH  26  27
ENDBRANCH   1  26
TORSDOF 16
ENDMDL
MODEL 3
REMARK VINA RESULT:     -10.8      3.615      8.693
REMARK SMILES O=C(/C=C/C(=O)OCCOC(=O)c1ccc(-c2c3nc(c(-c4c(F)cccc4F)c4ccc([nH]4)c(-c4c(F)cccc4F)c4nc(c(-c5c(F)cccc5F)c5ccc2[nH]5)C=C4)C=C3)cc1)NNC(=O)CSc1ccc2ccccc2n1
REMARK SMILES IDX 7 1 5 2 6 3 4 4 3 5 2 6 1 7 67 8 68 10 69 11 70 13 71 14
REMARK SMILES IDX 72 15 73 16 74 17 82 18 75 19 81 20 76 21 80 22 77 23 79 24
REMARK SMILES IDX 78 25 8 26 9 27 10 28 11 29 12 30 13 31 14 32 66 33 15 34
REMARK SMILES IDX 65 35 16 36 17 37 18 38 59 39 19 40 64 41 58 42 60 43 20 44
REMARK SMILES IDX 63 45 57 46 56 47 21 49 47 50 30 51 46 52 31 53 34 54 45 55
REMARK SMILES IDX 61 56 32 57 33 58 44 60 62 61 35 62 22 63 23 64 28 65 24 66
REMARK SMILES IDX 25 67 27 68 29 69 26 70 48 71 49 72 54 73 50 74 51 75 53 76
REMARK SMILES IDX 55 77 52 78 36 79 37 80 42 81 38 82 39 83 41 84 43 85 40 86
REMARK H PARENT 67 9 68 12 60 48 34 59
REMARK Flexibility Score: inf
ROOT
ATOM      1  O   UNL A   1      42.190  21.848  27.019  1.00  0.00    -0.459 OA
ENDROOT
BRANCH   1   2
ATOM      2  C   UNL A   1      41.344  20.796  27.103  1.00  0.00     0.331 C 
ATOM      3  O   UNL A   1      41.352  19.924  27.958  1.00  0.00    -0.247 OA
BRANCH   2   4
ATOM      4  C   UNL A   1      40.284  20.831  26.076  1.00  0.00     0.099 C 
ATOM      5  C   UNL A   1      39.168  21.569  26.149  1.00  0.00     0.080 C 
BRANCH   5   6
ATOM      6  C   UNL A   1      38.110  21.465  25.116  1.00  0.00     0.262 C 
ATOM      7  O   UNL A   1      37.766  20.376  24.675  1.00  0.00    -0.268 OA
ATOM      8  N   UNL A   1      37.667  22.682  24.636  1.00  0.00    -0.264 N 
ATOM      9  H   UNL A   1      37.994  23.524  25.028  1.00  0.00     0.191 HD
BRANCH   8  10
ATOM     10  N   UNL A   1      36.749  22.697  23.588  1.00  0.00    -0.267 N 
ATOM     11  C   UNL A   1      35.544  23.359  23.608  1.00  0.00     0.248 C 
ATOM     12  H   UNL A   1      36.980  22.197  22.772  1.00  0.00     0.191 HD
ATOM     13  O   UNL A   1      34.809  23.317  22.619  1.00  0.00    -0.272 OA
BRANCH  11  14
ATOM     14  C   UNL A   1      35.157  24.142  24.852  1.00  0.00     0.178 C 
BRANCH  14  15
ATOM     15  S   UNL A   1      34.695  22.969  26.163  1.00  0.00    -0.096 SA
BRANCH  15  16
ATOM     16  C   UNL A   1      33.910  21.649  25.267  1.00  0.00     0.097 A 
ATOM     17  C   UNL A   1      32.679  21.748  24.635  1.00  0.00     0.036 A 
ATOM     18  N   UNL A   1      34.632  20.506  25.250  1.00  0.00    -0.241 NA
ATOM     19  C   UNL A   1      32.155  20.621  24.003  1.00  0.00     0.013 A 
ATOM     20  C   UNL A   1      34.141  19.424  24.626  1.00  0.00     0.072 A 
ATOM     21  C   UNL A   1      32.880  19.423  24.000  1.00  0.00     0.000 A 
ATOM     22  C   UNL A   1      34.891  18.256  24.599  1.00  0.00     0.029 A 
ATOM     23  C   UNL A   1      32.388  18.248  23.403  1.00  0.00     0.010 A 
ATOM     24  C   UNL A   1      34.408  17.087  24.004  1.00  0.00     0.002 A 
ATOM     25  C   UNL A   1      33.149  17.080  23.415  1.00  0.00     0.001 A 
ENDBRANCH  15  16
ENDBRANCH  14  15
ENDBRANCH  11  14
ENDBRANCH   8  10
ENDBRANCH   5   6
ENDBRANCH   2   4
ENDBRANCH   1   2
BRANCH   1  26
ATOM     26  C   UNL A   1      43.421  21.608  26.308  1.00  0.00     0.275 C 
BRANCH  26  27
ATOM     27  C   UNL A   1      43.447  22.331  24.956  1.00  0.00     0.275 C 
BRANCH  27  28
ATOM     28  O   UNL A   1      42.773  23.603  25.002  1.00  0.00    -0.458 OA
BRANCH  28  29
ATOM     29  C   UNL A   1      43.567  24.662  25.281  1.00  0.00     0.338 C 
ATOM     30  O   UNL A   1      44.563  25.022  24.669  1.00  0.00    -0.246 OA
BRANCH  29  31
ATOM     31  C   UNL A   1      42.986  25.468  26.367  1.00  0.00     0.060 A 
ATOM     32  C   UNL A   1      43.556  26.722  26.607  1.00  0.00     0.016 A 
ATOM     33  C   UNL A   1      41.956  24.991  27.182  1.00  0.00     0.016 A 
ATOM     34  C   UNL A   1      43.108  27.502  27.668  1.00  0.00     0.010 A 
ATOM     35  C   UNL A   1      41.505  25.779  28.249  1.00  0.00     0.010 A 
ATOM     36  C   UNL A   1      42.084  27.033  28.503  1.00  0.00    -0.014 A 
BRANCH  36  37
ATOM     37  C   UNL A   1      41.651  27.872  29.646  1.00  0.00     0.031 A 
ATOM     38  C   UNL A   1      40.452  28.765  29.522  1.00  0.00     0.074 A 
ATOM     39  C   UNL A   1      42.310  27.783  30.815  1.00  0.00     0.049 A 
ATOM     40  N   UNL A   1      39.898  29.533  30.427  1.00  0.00    -0.248 NA
ATOM     41  C   UNL A   1      39.785  28.798  28.213  1.00  0.00     0.031 C 
ATOM     42  C   UNL A   1      43.477  26.937  31.063  1.00  0.00     0.029 A 
ATOM     43  N   UNL A   1      42.085  28.405  32.016  1.00  0.00    -0.354 N 
ATOM     44  C   UNL A   1      38.821  30.144  29.798  1.00  0.00     0.074 A 
ATOM     45  C   UNL A   1      38.815  29.676  28.428  1.00  0.00     0.031 C 
ATOM     46  C   UNL A   1      43.859  27.083  32.342  1.00  0.00     0.029 A 
ATOM     47  C   UNL A   1      42.983  28.054  32.994  1.00  0.00     0.049 A 
ATOM     48  H   UNL A   1      41.349  29.043  32.164  1.00  0.00     0.167 HD
ATOM     49  C   UNL A   1      37.917  31.009  30.318  1.00  0.00     0.037 A 
ATOM     50  C   UNL A   1      43.096  28.477  34.266  1.00  0.00     0.037 A 
ATOM     51  C   UNL A   1      37.923  31.472  31.682  1.00  0.00     0.049 A 
ATOM     52  C   UNL A   1      42.114  29.480  34.802  1.00  0.00     0.074 A 
ATOM     53  C   UNL A   1      37.026  32.320  32.309  1.00  0.00     0.029 A 
ATOM     54  N   UNL A   1      38.880  31.136  32.627  1.00  0.00    -0.354 N 
ATOM     55  N   UNL A   1      41.079  30.022  34.207  1.00  0.00    -0.248 NA
ATOM     56  C   UNL A   1      42.317  29.931  36.186  1.00  0.00     0.031 C 
ATOM     57  C   UNL A   1      37.466  32.532  33.621  1.00  0.00     0.029 A 
ATOM     58  C   UNL A   1      38.613  31.782  33.824  1.00  0.00     0.049 A 
ATOM     59  H   UNL A   1      39.638  30.528  32.470  1.00  0.00     0.167 HD
ATOM     60  C   UNL A   1      40.500  30.866  35.145  1.00  0.00     0.074 A 
ATOM     61  C   UNL A   1      41.289  30.750  36.355  1.00  0.00     0.031 C 
ATOM     62  C   UNL A   1      39.413  31.666  35.017  1.00  0.00     0.037 A 
BRANCH  49  63
ATOM     63  C   UNL A   1      36.854  31.529  29.395  1.00  0.00     0.057 A 
ATOM     64  C   UNL A   1      36.914  32.817  28.850  1.00  0.00     0.134 A 
ATOM     65  C   UNL A   1      35.770  30.721  29.030  1.00  0.00     0.134 A 
ATOM     66  F   UNL A   1      37.919  33.646  29.171  1.00  0.00    -0.206 F 
ATOM     67  C   UNL A   1      35.919  33.293  27.993  1.00  0.00     0.040 A 
ATOM     68  C   UNL A   1      34.781  31.177  28.156  1.00  0.00     0.040 A 
ATOM     69  F   UNL A   1      35.656  29.475  29.513  1.00  0.00    -0.206 F 
ATOM     70  C   UNL A   1      34.851  32.470  27.640  1.00  0.00     0.006 A 
ENDBRANCH  49  63
BRANCH  50  71
ATOM     71  C   UNL A   1      44.183  27.947  35.123  1.00  0.00     0.057 A 
ATOM     72  C   UNL A   1      45.437  28.567  35.165  1.00  0.00     0.134 A 
ATOM     73  C   UNL A   1      43.991  26.817  35.926  1.00  0.00     0.134 A 
ATOM     74  F   UNL A   1      45.682  29.644  34.406  1.00  0.00    -0.206 F 
ATOM     75  C   UNL A   1      46.466  28.075  35.969  1.00  0.00     0.040 A 
ATOM     76  C   UNL A   1      45.004  26.327  36.751  1.00  0.00     0.040 A 
ATOM     77  F   UNL A   1      42.809  26.183  35.932  1.00  0.00    -0.206 F 
ATOM     78  C   UNL A   1      46.248  26.956  36.769  1.00  0.00     0.006 A 
ENDBRANCH  50  71
BRANCH  62  79
ATOM     79  C   UNL A   1      39.008  32.465  36.220  1.00  0.00     0.057 A 
ATOM     80  C   UNL A   1      38.155  31.940  37.200  1.00  0.00     0.134 A 
ATOM     81  C   UNL A   1      39.491  33.766  36.412  1.00  0.00     0.134 A 
ATOM     82  F   UNL A   1      37.646  30.706  37.066  1.00  0.00    -0.206 F 
ATOM     83  C   UNL A   1      37.780  32.688  38.317  1.00  0.00     0.040 A 
ATOM     84  C   UNL A   1      39.141  34.515  37.537  1.00  0.00     0.040 A 
ATOM     85  F   UNL A   1      40.316  34.326  35.515  1.00  0.00    -0.206 F 
ATOM     86  C   UNL A   1      38.278  33.978  38.490  1.00  0.00     0.006 A 
ENDBRANCH  62  79
ENDBRANCH  36  37
ENDBRANCH  29  31
ENDBRANCH  28  29
ENDBRANCH  27  28
ENDBRANCH  26  27
ENDBRANCH   1  26
TORSDOF 16
ENDMDL
