MODEL 1
REMARK VINA RESULT:     -10.9      0.000      0.000
REMARK SMILES O=C(OCCOC(=O)[C@H](CCSc1ccccc1)Cc1ccccc1Br)c1ccc(-c2c3nc(c(-c4c(F)cccc4F)c4ccc([nH]4)c(-c4c(F)cccc4F)c4nc(c(-c5c(F)cccc5F)c5ccc2[nH]5)C=C4)C=C3)cc1
REMARK SMILES IDX 5 1 4 2 3 3 2 4 1 5 27 6 28 7 80 8 29 9 79 10 30 11 31 12
REMARK SMILES IDX 32 13 73 14 33 15 78 16 72 17 74 18 34 19 77 20 71 21 70 22
REMARK SMILES IDX 35 24 61 25 44 26 60 27 45 28 48 29 59 30 75 31 46 32 47 33
REMARK SMILES IDX 58 35 76 36 49 37 36 38 37 39 42 40 38 41 39 42 41 43 43 44
REMARK SMILES IDX 40 45 62 46 63 47 68 48 64 49 65 50 67 51 69 52 66 53 50 54
REMARK SMILES IDX 51 55 56 56 52 57 53 58 55 59 57 60 54 61 6 62 7 63 8 64
REMARK SMILES IDX 9 65 19 66 20 67 21 68 25 69 22 70 24 71 26 72 23 73 10 74
REMARK SMILES IDX 11 75 12 76 13 77 14 78 18 79 15 80 17 81 16 82
REMARK H PARENT 74 23 48 34
REMARK Flexibility Score: inf
ROOT
ATOM      1  C   UNL A   1      46.180  22.524  39.538  1.00  0.00     0.274 C 
ENDROOT
BRANCH   1   2
ATOM      2  C   UNL A   1      45.187  23.414  38.769  1.00  0.00     0.275 C 
BRANCH   2   3
ATOM      3  O   UNL A   1      45.156  24.725  39.321  1.00  0.00    -0.458 OA
BRANCH   3   4
ATOM      4  C   UNL A   1      44.432  25.724  38.789  1.00  0.00     0.338 C 
ATOM      5  O   UNL A   1      44.088  26.664  39.507  1.00  0.00    -0.246 OA
BRANCH   4   6
ATOM      6  C   UNL A   1      44.031  25.788  37.347  1.00  0.00     0.060 A 
ATOM      7  C   UNL A   1      42.821  25.491  36.711  1.00  0.00     0.016 A 
ATOM      8  C   UNL A   1      44.956  26.400  36.555  1.00  0.00     0.016 A 
ATOM      9  C   UNL A   1      42.385  26.215  35.563  1.00  0.00     0.010 A 
ATOM     10  C   UNL A   1      44.545  26.929  35.337  1.00  0.00     0.010 A 
ATOM     11  C   UNL A   1      43.170  27.206  34.977  1.00  0.00    -0.014 A 
BRANCH  11  12
ATOM     12  C   UNL A   1      42.509  28.579  33.932  1.00  0.00     0.031 A 
ATOM     13  C   UNL A   1      42.599  28.733  31.769  1.00  0.00     0.074 A 
ATOM     14  C   UNL A   1      41.727  29.277  34.977  1.00  0.00     0.049 A 
ATOM     15  N   UNL A   1      41.742  29.337  30.804  1.00  0.00    -0.248 NA
ATOM     16  C   UNL A   1      43.469  27.874  30.565  1.00  0.00     0.031 C 
ATOM     17  C   UNL A   1      42.356  30.008  36.119  1.00  0.00     0.029 A 
ATOM     18  N   UNL A   1      40.455  29.922  34.990  1.00  0.00    -0.354 N 
ATOM     19  C   UNL A   1      41.467  28.476  29.759  1.00  0.00     0.074 A 
ATOM     20  C   UNL A   1      42.639  27.703  29.544  1.00  0.00     0.031 C 
ATOM     21  C   UNL A   1      41.568  31.033  36.525  1.00  0.00     0.029 A 
ATOM     22  C   UNL A   1      40.418  31.136  35.639  1.00  0.00     0.049 A 
ATOM     23  H   UNL A   1      39.660  29.528  34.564  1.00  0.00     0.167 HD
ATOM     24  C   UNL A   1      40.249  28.255  29.194  1.00  0.00     0.037 A 
ATOM     25  C   UNL A   1      39.653  32.237  35.410  1.00  0.00     0.037 A 
ATOM     26  C   UNL A   1      39.072  29.074  29.397  1.00  0.00     0.049 A 
ATOM     27  C   UNL A   1      38.758  32.387  34.163  1.00  0.00     0.074 A 
ATOM     28  C   UNL A   1      37.893  29.087  28.672  1.00  0.00     0.029 A 
ATOM     29  N   UNL A   1      38.944  30.061  30.363  1.00  0.00    -0.354 N 
ATOM     30  N   UNL A   1      38.576  31.590  33.134  1.00  0.00    -0.248 NA
ATOM     31  C   UNL A   1      38.026  33.663  34.026  1.00  0.00     0.031 C 
ATOM     32  C   UNL A   1      37.094  30.133  29.160  1.00  0.00     0.029 A 
ATOM     33  C   UNL A   1      37.742  30.734  30.231  1.00  0.00     0.049 A 
ATOM     34  H   UNL A   1      39.618  30.256  31.053  1.00  0.00     0.167 HD
ATOM     35  C   UNL A   1      37.771  32.271  32.218  1.00  0.00     0.074 A 
ATOM     36  C   UNL A   1      37.428  33.530  32.848  1.00  0.00     0.031 C 
ATOM     37  C   UNL A   1      37.367  31.928  30.963  1.00  0.00     0.037 A 
BRANCH  24  38
ATOM     38  C   UNL A   1      40.130  27.063  28.299  1.00  0.00     0.057 A 
ATOM     39  C   UNL A   1      39.458  25.896  28.691  1.00  0.00     0.134 A 
ATOM     40  C   UNL A   1      40.683  27.098  27.018  1.00  0.00     0.134 A 
ATOM     41  F   UNL A   1      38.891  25.803  29.904  1.00  0.00    -0.206 F 
ATOM     42  C   UNL A   1      39.366  24.791  27.839  1.00  0.00     0.040 A 
ATOM     43  C   UNL A   1      40.602  26.001  26.161  1.00  0.00     0.040 A 
ATOM     44  F   UNL A   1      41.321  28.196  26.590  1.00  0.00    -0.206 F 
ATOM     45  C   UNL A   1      39.946  24.841  26.572  1.00  0.00     0.006 A 
ENDBRANCH  24  38
BRANCH  25  46
ATOM     46  C   UNL A   1      39.798  33.456  36.266  1.00  0.00     0.057 A 
ATOM     47  C   UNL A   1      38.910  33.697  37.322  1.00  0.00     0.134 A 
ATOM     48  C   UNL A   1      40.699  34.477  35.946  1.00  0.00     0.134 A 
ATOM     49  F   UNL A   1      37.945  32.809  37.604  1.00  0.00    -0.206 F 
ATOM     50  C   UNL A   1      38.931  34.896  38.044  1.00  0.00     0.040 A 
ATOM     51  C   UNL A   1      40.748  35.671  36.677  1.00  0.00     0.040 A 
ATOM     52  F   UNL A   1      41.504  34.354  34.883  1.00  0.00    -0.206 F 
ATOM     53  C   UNL A   1      39.864  35.881  37.732  1.00  0.00     0.006 A 
ENDBRANCH  25  46
BRANCH  37  54
ATOM     54  C   UNL A   1      36.381  32.844  30.281  1.00  0.00     0.057 A 
ATOM     55  C   UNL A   1      36.746  33.691  29.227  1.00  0.00     0.134 A 
ATOM     56  C   UNL A   1      35.025  32.809  30.637  1.00  0.00     0.134 A 
ATOM     57  F   UNL A   1      38.030  33.795  28.853  1.00  0.00    -0.206 F 
ATOM     58  C   UNL A   1      35.798  34.464  28.550  1.00  0.00     0.040 A 
ATOM     59  C   UNL A   1      34.064  33.553  29.949  1.00  0.00     0.040 A 
ATOM     60  F   UNL A   1      34.605  32.014  31.633  1.00  0.00    -0.206 F 
ATOM     61  C   UNL A   1      34.451  34.384  28.902  1.00  0.00     0.006 A 
ENDBRANCH  37  54
ENDBRANCH  11  12
ENDBRANCH   4   6
ENDBRANCH   3   4
ENDBRANCH   2   3
ENDBRANCH   1   2
BRANCH   1  62
ATOM     62  O   UNL A   1      45.947  21.098  39.346  1.00  0.00    -0.462 OA
BRANCH  62  63
ATOM     63  C   UNL A   1      46.891  20.189  39.734  1.00  0.00     0.309 C 
ATOM     64  O   UNL A   1      47.571  20.311  40.742  1.00  0.00    -0.252 OA
BRANCH  63  65
ATOM     65  C   UNL A   1      47.034  19.026  38.702  1.00  0.00     0.104 C 
BRANCH  65  66
ATOM     66  C   UNL A   1      46.762  17.756  39.562  1.00  0.00     0.052 C 
BRANCH  66  67
ATOM     67  C   UNL A   1      45.391  17.123  39.708  1.00  0.00    -0.033 A 
ATOM     68  C   UNL A   1      44.718  16.589  38.604  1.00  0.00     0.005 A 
ATOM     69  C   UNL A   1      44.671  17.141  40.918  1.00  0.00     0.021 A 
ATOM     70  C   UNL A   1      43.477  15.959  38.704  1.00  0.00     0.000 A 
ATOM     71  C   UNL A   1      43.401  16.553  41.016  1.00  0.00     0.016 A 
ATOM     72  Br  UNL A   1      45.321  17.975  42.503  1.00  0.00    -0.051 Br
ATOM     73  C   UNL A   1      42.819  15.930  39.918  1.00  0.00     0.001 A 
ENDBRANCH  66  67
ENDBRANCH  65  66
BRANCH  65  74
ATOM     74  C   UNL A   1      46.148  19.306  37.450  1.00  0.00     0.027 C 
BRANCH  74  75
ATOM     75  C   UNL A   1      46.793  19.983  36.179  1.00  0.00     0.076 C 
BRANCH  75  76
ATOM     76  S   UNL A   1      47.546  21.696  36.190  1.00  0.00    -0.126 SA
BRANCH  76  77
ATOM     77  C   UNL A   1      46.476  22.777  35.209  1.00  0.00     0.007 A 
ATOM     78  C   UNL A   1      47.104  24.054  34.155  1.00  0.00     0.015 A 
ATOM     79  C   UNL A   1      44.769  22.366  35.135  1.00  0.00     0.015 A 
ATOM     80  C   UNL A   1      46.022  24.889  32.876  1.00  0.00     0.001 A 
ATOM     81  C   UNL A   1      43.671  23.126  33.937  1.00  0.00     0.001 A 
ATOM     82  C   UNL A   1      44.291  24.369  32.732  1.00  0.00     0.000 A 
ENDBRANCH  76  77
ENDBRANCH  75  76
ENDBRANCH  74  75
ENDBRANCH  65  74
ENDBRANCH  63  65
ENDBRANCH  62  63
ENDBRANCH   1  62
TORSDOF 17
ENDMDL
MODEL 2
REMARK VINA RESULT:     -10.8     10.563     18.077
REMARK SMILES O=C(OCCOC(=O)[C@H](CCSc1ccccc1)Cc1ccccc1Br)c1ccc(-c2c3nc(c(-c4c(F)cccc4F)c4ccc([nH]4)c(-c4c(F)cccc4F)c4nc(c(-c5c(F)cccc5F)c5ccc2[nH]5)C=C4)C=C3)cc1
REMARK SMILES IDX 5 1 4 2 3 3 2 4 1 5 27 6 28 7 80 8 29 9 79 10 30 11 31 12
REMARK SMILES IDX 32 13 73 14 33 15 78 16 72 17 74 18 34 19 77 20 71 21 70 22
REMARK SMILES IDX 35 24 61 25 44 26 60 27 45 28 48 29 59 30 75 31 46 32 47 33
REMARK SMILES IDX 58 35 76 36 49 37 36 38 37 39 42 40 38 41 39 42 41 43 43 44
REMARK SMILES IDX 40 45 62 46 63 47 68 48 64 49 65 50 67 51 69 52 66 53 50 54
REMARK SMILES IDX 51 55 56 56 52 57 53 58 55 59 57 60 54 61 6 62 7 63 8 64
REMARK SMILES IDX 9 65 19 66 20 67 21 68 25 69 22 70 24 71 26 72 23 73 10 74
REMARK SMILES IDX 11 75 12 76 13 77 14 78 18 79 15 80 17 81 16 82
REMARK H PARENT 74 23 48 34
REMARK Flexibility Score: inf
ROOT
ATOM      1  C   UNL A   1      43.454  40.463  26.144  1.00  0.00     0.274 C 
ENDROOT
BRANCH   1   2
ATOM      2  C   UNL A   1      41.955  40.148  26.294  1.00  0.00     0.275 C 
BRANCH   2   3
ATOM      3  O   UNL A   1      41.753  38.758  26.516  1.00  0.00    -0.458 OA
BRANCH   3   4
ATOM      4  C   UNL A   1      42.281  38.101  27.563  1.00  0.00     0.338 C 
ATOM      5  O   UNL A   1      41.949  38.426  28.705  1.00  0.00    -0.246 OA
BRANCH   4   6
ATOM      6  C   UNL A   1      43.242  36.960  27.433  1.00  0.00     0.060 A 
ATOM      7  C   UNL A   1      44.341  36.585  28.213  1.00  0.00     0.016 A 
ATOM      8  C   UNL A   1      42.871  36.045  26.493  1.00  0.00     0.016 A 
ATOM      9  C   UNL A   1      44.692  35.216  28.398  1.00  0.00     0.010 A 
ATOM     10  C   UNL A   1      43.386  34.757  26.578  1.00  0.00     0.010 A 
ATOM     11  C   UNL A   1      44.001  34.187  27.759  1.00  0.00    -0.014 A 
BRANCH  11  12
ATOM     12  C   UNL A   1      43.943  32.441  28.357  1.00  0.00     0.031 A 
ATOM     13  C   UNL A   1      42.817  31.677  30.049  1.00  0.00     0.074 A 
ATOM     14  C   UNL A   1      44.618  31.804  27.204  1.00  0.00     0.049 A 
ATOM     15  N   UNL A   1      42.215  30.414  30.321  1.00  0.00    -0.248 NA
ATOM     16  C   UNL A   1      41.989  32.433  31.347  1.00  0.00     0.031 C 
ATOM     17  C   UNL A   1      46.067  31.996  26.895  1.00  0.00     0.029 A 
ATOM     18  N   UNL A   1      44.411  30.586  26.491  1.00  0.00    -0.354 N 
ATOM     19  C   UNL A   1      40.913  30.556  30.763  1.00  0.00     0.074 A 
ATOM     20  C   UNL A   1      40.870  31.746  31.538  1.00  0.00     0.031 C 
ATOM     21  C   UNL A   1      46.574  30.905  26.271  1.00  0.00     0.029 A 
ATOM     22  C   UNL A   1      45.553  29.870  26.206  1.00  0.00     0.049 A 
ATOM     23  H   UNL A   1      43.516  30.277  26.223  1.00  0.00     0.167 HD
ATOM     24  C   UNL A   1      39.839  29.827  30.356  1.00  0.00     0.037 A 
ATOM     25  C   UNL A   1      45.747  28.529  26.083  1.00  0.00     0.037 A 
ATOM     26  C   UNL A   1      39.902  28.597  29.595  1.00  0.00     0.049 A 
ATOM     27  C   UNL A   1      44.670  27.491  26.458  1.00  0.00     0.074 A 
ATOM     28  C   UNL A   1      38.904  27.665  29.374  1.00  0.00     0.029 A 
ATOM     29  N   UNL A   1      41.040  28.101  28.974  1.00  0.00    -0.354 N 
ATOM     30  N   UNL A   1      43.465  27.646  26.959  1.00  0.00    -0.248 NA
ATOM     31  C   UNL A   1      45.047  26.070  26.319  1.00  0.00     0.031 C 
ATOM     32  C   UNL A   1      39.466  26.578  28.687  1.00  0.00     0.029 A 
ATOM     33  C   UNL A   1      40.800  26.855  28.420  1.00  0.00     0.049 A 
ATOM     34  H   UNL A   1      41.902  28.572  28.933  1.00  0.00     0.167 HD
ATOM     35  C   UNL A   1      42.967  26.373  27.243  1.00  0.00     0.074 A 
ATOM     36  C   UNL A   1      43.975  25.439  26.783  1.00  0.00     0.031 C 
ATOM     37  C   UNL A   1      41.811  25.985  27.851  1.00  0.00     0.037 A 
BRANCH  24  38
ATOM     38  C   UNL A   1      38.490  30.355  30.726  1.00  0.00     0.057 A 
ATOM     39  C   UNL A   1      37.744  31.175  29.866  1.00  0.00     0.134 A 
ATOM     40  C   UNL A   1      37.927  30.021  31.959  1.00  0.00     0.134 A 
ATOM     41  F   UNL A   1      38.222  31.523  28.661  1.00  0.00    -0.206 F 
ATOM     42  C   UNL A   1      36.488  31.663  30.239  1.00  0.00     0.040 A 
ATOM     43  C   UNL A   1      36.678  30.504  32.343  1.00  0.00     0.040 A 
ATOM     44  F   UNL A   1      38.594  29.228  32.810  1.00  0.00    -0.206 F 
ATOM     45  C   UNL A   1      35.956  31.332  31.484  1.00  0.00     0.006 A 
ENDBRANCH  24  38
BRANCH  25  46
ATOM     46  C   UNL A   1      47.103  27.984  25.763  1.00  0.00     0.057 A 
ATOM     47  C   UNL A   1      47.468  27.709  24.439  1.00  0.00     0.134 A 
ATOM     48  C   UNL A   1      47.984  27.566  26.765  1.00  0.00     0.134 A 
ATOM     49  F   UNL A   1      46.617  27.977  23.438  1.00  0.00    -0.206 F 
ATOM     50  C   UNL A   1      48.670  27.064  24.124  1.00  0.00     0.040 A 
ATOM     51  C   UNL A   1      49.201  26.943  26.463  1.00  0.00     0.040 A 
ATOM     52  F   UNL A   1      47.647  27.703  28.055  1.00  0.00    -0.206 F 
ATOM     53  C   UNL A   1      49.549  26.693  25.138  1.00  0.00     0.006 A 
ENDBRANCH  25  46
BRANCH  37  54
ATOM     54  C   UNL A   1      41.511  24.506  27.888  1.00  0.00     0.057 A 
ATOM     55  C   UNL A   1      40.613  23.899  27.003  1.00  0.00     0.134 A 
ATOM     56  C   UNL A   1      42.204  23.670  28.776  1.00  0.00     0.134 A 
ATOM     57  F   UNL A   1      39.896  24.641  26.146  1.00  0.00    -0.206 F 
ATOM     58  C   UNL A   1      40.419  22.514  26.995  1.00  0.00     0.040 A 
ATOM     59  C   UNL A   1      42.042  22.283  28.758  1.00  0.00     0.040 A 
ATOM     60  F   UNL A   1      43.085  24.186  29.647  1.00  0.00    -0.206 F 
ATOM     61  C   UNL A   1      41.146  21.702  27.865  1.00  0.00     0.006 A 
ENDBRANCH  37  54
ENDBRANCH  11  12
ENDBRANCH   4   6
ENDBRANCH   3   4
ENDBRANCH   2   3
ENDBRANCH   1   2
BRANCH   1  62
ATOM     62  O   UNL A   1      43.745  41.382  25.050  1.00  0.00    -0.462 OA
BRANCH  62  63
ATOM     63  C   UNL A   1      44.085  42.679  25.315  1.00  0.00     0.309 C 
ATOM     64  O   UNL A   1      44.512  43.058  26.395  1.00  0.00    -0.252 OA
BRANCH  63  65
ATOM     65  C   UNL A   1      43.797  43.613  24.097  1.00  0.00     0.104 C 
BRANCH  65  66
ATOM     66  C   UNL A   1      45.206  44.172  23.740  1.00  0.00     0.052 C 
BRANCH  66  67
ATOM     67  C   UNL A   1      46.072  43.609  22.629  1.00  0.00    -0.033 A 
ATOM     68  C   UNL A   1      46.603  42.317  22.708  1.00  0.00     0.005 A 
ATOM     69  C   UNL A   1      46.490  44.379  21.527  1.00  0.00     0.021 A 
ATOM     70  C   UNL A   1      47.366  41.746  21.689  1.00  0.00     0.000 A 
ATOM     71  C   UNL A   1      47.298  43.829  20.521  1.00  0.00     0.016 A 
ATOM     72  Br  UNL A   1      46.034  46.216  21.310  1.00  0.00    -0.051 Br
ATOM     73  C   UNL A   1      47.708  42.502  20.584  1.00  0.00     0.001 A 
ENDBRANCH  66  67
ENDBRANCH  65  66
BRANCH  65  74
ATOM     74  C   UNL A   1      42.981  42.846  23.012  1.00  0.00     0.027 C 
BRANCH  74  75
ATOM     75  C   UNL A   1      42.461  43.623  21.740  1.00  0.00     0.076 C 
BRANCH  75  76
ATOM     76  S   UNL A   1      42.322  42.848  20.041  1.00  0.00    -0.126 SA
BRANCH  76  77
ATOM     77  C   UNL A   1      42.672  44.136  18.818  1.00  0.00     0.007 A 
ATOM     78  C   UNL A   1      41.447  45.283  18.251  1.00  0.00     0.015 A 
ATOM     79  C   UNL A   1      44.353  44.384  18.371  1.00  0.00     0.015 A 
ATOM     80  C   UNL A   1      41.916  46.822  17.295  1.00  0.00     0.001 A 
ATOM     81  C   UNL A   1      44.876  45.835  17.453  1.00  0.00     0.001 A 
ATOM     82  C   UNL A   1      43.669  47.125  16.943  1.00  0.00     0.000 A 
ENDBRANCH  76  77
ENDBRANCH  75  76
ENDBRANCH  74  75
ENDBRANCH  65  74
ENDBRANCH  63  65
ENDBRANCH  62  63
ENDBRANCH   1  62
TORSDOF 17
ENDMDL
MODEL 3
REMARK VINA RESULT:     -10.6      1.536      4.365
REMARK SMILES O=C(OCCOC(=O)[C@H](CCSc1ccccc1)Cc1ccccc1Br)c1ccc(-c2c3nc(c(-c4c(F)cccc4F)c4ccc([nH]4)c(-c4c(F)cccc4F)c4nc(c(-c5c(F)cccc5F)c5ccc2[nH]5)C=C4)C=C3)cc1
REMARK SMILES IDX 5 1 4 2 3 3 2 4 1 5 27 6 28 7 80 8 29 9 79 10 30 11 31 12
REMARK SMILES IDX 32 13 73 14 33 15 78 16 72 17 74 18 34 19 77 20 71 21 70 22
REMARK SMILES IDX 35 24 61 25 44 26 60 27 45 28 48 29 59 30 75 31 46 32 47 33
REMARK SMILES IDX 58 35 76 36 49 37 36 38 37 39 42 40 38 41 39 42 41 43 43 44
REMARK SMILES IDX 40 45 62 46 63 47 68 48 64 49 65 50 67 51 69 52 66 53 50 54
REMARK SMILES IDX 51 55 56 56 52 57 53 58 55 59 57 60 54 61 6 62 7 63 8 64
REMARK SMILES IDX 9 65 19 66 20 67 21 68 25 69 22 70 24 71 26 72 23 73 10 74
REMARK SMILES IDX 11 75 12 76 13 77 14 78 18 79 15 80 17 81 16 82
REMARK H PARENT 74 23 48 34
REMARK Flexibility Score: inf
ROOT
ATOM      1  C   UNL A   1      46.052  22.637  39.104  1.00  0.00     0.274 C 
ENDROOT
BRANCH   1   2
ATOM      2  C   UNL A   1      45.299  23.793  39.789  1.00  0.00     0.275 C 
BRANCH   2   3
ATOM      3  O   UNL A   1      45.466  25.003  39.060  1.00  0.00    -0.458 OA
BRANCH   3   4
ATOM      4  C   UNL A   1      44.437  25.795  38.713  1.00  0.00     0.338 C 
ATOM      5  O   UNL A   1      43.979  26.581  39.544  1.00  0.00    -0.246 OA
BRANCH   4   6
ATOM      6  C   UNL A   1      43.818  25.807  37.349  1.00  0.00     0.060 A 
ATOM      7  C   UNL A   1      42.489  25.667  36.938  1.00  0.00     0.016 A 
ATOM      8  C   UNL A   1      44.682  26.190  36.367  1.00  0.00     0.016 A 
ATOM      9  C   UNL A   1      41.983  26.358  35.798  1.00  0.00     0.010 A 
ATOM     10  C   UNL A   1      44.159  26.679  35.175  1.00  0.00     0.010 A 
ATOM     11  C   UNL A   1      42.803  27.153  34.999  1.00  0.00    -0.014 A 
BRANCH  11  12
ATOM     12  C   UNL A   1      42.195  28.527  33.924  1.00  0.00     0.031 A 
ATOM     13  C   UNL A   1      42.379  28.678  31.767  1.00  0.00     0.074 A 
ATOM     14  C   UNL A   1      41.372  29.230  34.933  1.00  0.00     0.049 A 
ATOM     15  N   UNL A   1      41.568  29.285  30.765  1.00  0.00    -0.248 NA
ATOM     16  C   UNL A   1      43.296  27.813  30.602  1.00  0.00     0.031 C 
ATOM     17  C   UNL A   1      41.955  29.960  36.101  1.00  0.00     0.029 A 
ATOM     18  N   UNL A   1      40.104  29.882  34.890  1.00  0.00    -0.354 N 
ATOM     19  C   UNL A   1      41.334  28.423  29.710  1.00  0.00     0.074 A 
ATOM     20  C   UNL A   1      42.511  27.644  29.546  1.00  0.00     0.031 C 
ATOM     21  C   UNL A   1      41.154  30.990  36.471  1.00  0.00     0.029 A 
ATOM     22  C   UNL A   1      40.045  31.098  35.536  1.00  0.00     0.049 A 
ATOM     23  H   UNL A   1      39.326  29.492  34.430  1.00  0.00     0.167 HD
ATOM     24  C   UNL A   1      40.140  28.209  29.093  1.00  0.00     0.037 A 
ATOM     25  C   UNL A   1      39.296  32.203  35.272  1.00  0.00     0.037 A 
ATOM     26  C   UNL A   1      38.960  29.033  29.243  1.00  0.00     0.049 A 
ATOM     27  C   UNL A   1      38.457  32.355  33.987  1.00  0.00     0.074 A 
ATOM     28  C   UNL A   1      37.814  29.051  28.468  1.00  0.00     0.029 A 
ATOM     29  N   UNL A   1      38.795  30.022  30.202  1.00  0.00    -0.354 N 
ATOM     30  N   UNL A   1      38.316  31.557  32.952  1.00  0.00    -0.248 NA
ATOM     31  C   UNL A   1      37.738  33.635  33.817  1.00  0.00     0.031 C 
ATOM     32  C   UNL A   1      36.999  30.102  28.919  1.00  0.00     0.029 A 
ATOM     33  C   UNL A   1      37.603  30.702  30.017  1.00  0.00     0.049 A 
ATOM     34  H   UNL A   1      39.440  30.215  30.920  1.00  0.00     0.167 HD
ATOM     35  C   UNL A   1      37.555  32.241  32.002  1.00  0.00     0.074 A 
ATOM     36  C   UNL A   1      37.191  33.502  32.615  1.00  0.00     0.031 C 
ATOM     37  C   UNL A   1      37.203  31.898  30.730  1.00  0.00     0.037 A 
BRANCH  24  38
ATOM     38  C   UNL A   1      40.054  27.016  28.195  1.00  0.00     0.057 A 
ATOM     39  C   UNL A   1      40.621  27.001  26.912  1.00  0.00     0.134 A 
ATOM     40  C   UNL A   1      39.407  25.860  28.635  1.00  0.00     0.134 A 
ATOM     41  F   UNL A   1      41.269  28.075  26.434  1.00  0.00    -0.206 F 
ATOM     42  C   UNL A   1      40.520  25.876  26.087  1.00  0.00     0.040 A 
ATOM     43  C   UNL A   1      39.296  24.734  27.820  1.00  0.00     0.040 A 
ATOM     44  F   UNL A   1      38.863  25.818  29.859  1.00  0.00    -0.206 F 
ATOM     45  C   UNL A   1      39.850  24.741  26.541  1.00  0.00     0.006 A 
ENDBRANCH  24  38
BRANCH  25  46
ATOM     46  C   UNL A   1      39.410  33.421  36.132  1.00  0.00     0.057 A 
ATOM     47  C   UNL A   1      40.381  34.396  35.865  1.00  0.00     0.134 A 
ATOM     48  C   UNL A   1      38.687  33.554  37.321  1.00  0.00     0.134 A 
ATOM     49  F   UNL A   1      41.189  34.265  34.802  1.00  0.00    -0.206 F 
ATOM     50  C   UNL A   1      40.606  35.469  36.734  1.00  0.00     0.040 A 
ATOM     51  C   UNL A   1      38.884  34.637  38.187  1.00  0.00     0.040 A 
ATOM     52  F   UNL A   1      37.818  32.602  37.689  1.00  0.00    -0.206 F 
ATOM     53  C   UNL A   1      39.845  35.601  37.892  1.00  0.00     0.006 A 
ENDBRANCH  25  46
BRANCH  37  54
ATOM     54  C   UNL A   1      36.253  32.818  30.005  1.00  0.00     0.057 A 
ATOM     55  C   UNL A   1      36.655  33.618  28.929  1.00  0.00     0.134 A 
ATOM     56  C   UNL A   1      34.892  32.835  30.344  1.00  0.00     0.134 A 
ATOM     57  F   UNL A   1      37.946  33.673  28.567  1.00  0.00    -0.206 F 
ATOM     58  C   UNL A   1      35.738  34.395  28.213  1.00  0.00     0.040 A 
ATOM     59  C   UNL A   1      33.962  33.582  29.619  1.00  0.00     0.040 A 
ATOM     60  F   UNL A   1      34.437  32.087  31.361  1.00  0.00    -0.206 F 
ATOM     61  C   UNL A   1      34.385  34.365  28.550  1.00  0.00     0.006 A 
ENDBRANCH  37  54
ENDBRANCH  11  12
ENDBRANCH   4   6
ENDBRANCH   3   4
ENDBRANCH   2   3
ENDBRANCH   1   2
BRANCH   1  62
ATOM     62  O   UNL A   1      45.897  21.360  39.790  1.00  0.00    -0.462 OA
BRANCH  62  63
ATOM     63  C   UNL A   1      46.975  20.537  39.959  1.00  0.00     0.309 C 
ATOM     64  O   UNL A   1      48.031  20.901  40.455  1.00  0.00    -0.252 OA
BRANCH  63  65
ATOM     65  C   UNL A   1      46.710  19.110  39.384  1.00  0.00     0.104 C 
BRANCH  65  66
ATOM     66  C   UNL A   1      47.439  19.143  38.009  1.00  0.00     0.052 C 
BRANCH  66  67
ATOM     67  C   UNL A   1      46.952  19.952  36.822  1.00  0.00    -0.033 A 
ATOM     68  C   UNL A   1      45.792  19.594  36.128  1.00  0.00     0.005 A 
ATOM     69  C   UNL A   1      47.688  21.023  36.279  1.00  0.00     0.021 A 
ATOM     70  C   UNL A   1      45.286  20.336  35.061  1.00  0.00     0.000 A 
ATOM     71  C   UNL A   1      47.211  21.746  35.176  1.00  0.00     0.016 A 
ATOM     72  Br  UNL A   1      49.383  21.568  36.956  1.00  0.00    -0.051 Br
ATOM     73  C   UNL A   1      45.993  21.425  34.587  1.00  0.00     0.001 A 
ENDBRANCH  66  67
ENDBRANCH  65  66
BRANCH  65  74
ATOM     74  C   UNL A   1      47.105  18.026  40.433  1.00  0.00     0.027 C 
BRANCH  74  75
ATOM     75  C   UNL A   1      46.011  17.014  40.953  1.00  0.00     0.076 C 
BRANCH  75  76
ATOM     76  S   UNL A   1      44.423  17.549  41.788  1.00  0.00    -0.126 SA
BRANCH  76  77
ATOM     77  C   UNL A   1      43.308  16.123  41.819  1.00  0.00     0.007 A 
ATOM     78  C   UNL A   1      42.424  15.562  40.390  1.00  0.00     0.015 A 
ATOM     79  C   UNL A   1      43.306  15.135  43.272  1.00  0.00     0.015 A 
ATOM     80  C   UNL A   1      41.593  13.885  40.349  1.00  0.00     0.001 A 
ATOM     81  C   UNL A   1      42.529  13.518  43.307  1.00  0.00     0.001 A 
ATOM     82  C   UNL A   1      41.701  12.827  41.817  1.00  0.00     0.000 A 
ENDBRANCH  76  77
ENDBRANCH  75  76
ENDBRANCH  74  75
ENDBRANCH  65  74
ENDBRANCH  63  65
ENDBRANCH  62  63
ENDBRANCH   1  62
TORSDOF 17
ENDMDL
