MODEL 1
REMARK VINA RESULT:     -11.7      0.000      0.000
REMARK SMILES O=C(OCCOC(=O)c1cccc2c1ccn2Cc1ccncc1)c1ccc(-c2c3nc(c(-c4c(F)cccc4F)c4ccc([nH]4)c(-c4c(F)cccc4F)c4nc(c(-c5c(F)cccc5F)c5ccc2[nH]5)C=C4)C=C3)cc1
REMARK SMILES IDX 4 1 3 2 2 3 1 4 25 5 26 6 78 7 27 8 77 9 28 10 29 11 30 12
REMARK SMILES IDX 71 13 31 14 76 15 70 16 72 17 32 18 75 19 69 20 68 21 33 23
REMARK SMILES IDX 59 24 42 25 58 26 43 27 46 28 57 29 73 30 44 31 45 32 56 34
REMARK SMILES IDX 74 35 47 36 34 37 35 38 40 39 36 40 37 41 39 42 41 43 38 44
REMARK SMILES IDX 60 45 61 46 66 47 62 48 63 49 65 50 67 51 64 52 48 53 49 54
REMARK SMILES IDX 54 55 50 56 51 57 53 58 55 59 52 60 5 61 6 62 7 63 8 64 9 65
REMARK SMILES IDX 10 66 14 67 11 68 13 69 15 70 12 71 17 72 16 73 18 74 19 75
REMARK SMILES IDX 20 76 24 77 21 78 23 79 22 80
REMARK H PARENT 72 22 46 33
REMARK Flexibility Score: inf
ROOT
ATOM      1  C   UNL A   1      33.267  30.795  26.611  1.00  0.00     0.275 C 
ENDROOT
BRANCH   1   2
ATOM      2  O   UNL A   1      32.350  31.661  27.324  1.00  0.00    -0.458 OA
BRANCH   2   3
ATOM      3  C   UNL A   1      32.580  32.960  27.672  1.00  0.00     0.338 C 
ATOM      4  O   UNL A   1      31.908  33.891  27.252  1.00  0.00    -0.246 OA
BRANCH   3   5
ATOM      5  C   UNL A   1      33.829  33.209  28.406  1.00  0.00     0.060 A 
ATOM      6  C   UNL A   1      34.879  33.740  27.666  1.00  0.00     0.016 A 
ATOM      7  C   UNL A   1      34.038  32.659  29.673  1.00  0.00     0.016 A 
ATOM      8  C   UNL A   1      36.166  33.412  28.049  1.00  0.00     0.010 A 
ATOM      9  C   UNL A   1      35.331  32.323  30.048  1.00  0.00     0.010 A 
ATOM     10  C   UNL A   1      36.383  32.590  29.170  1.00  0.00    -0.014 A 
BRANCH  10  11
ATOM     11  C   UNL A   1      37.768  32.209  29.469  1.00  0.00     0.031 A 
ATOM     12  C   UNL A   1      38.011  30.776  29.173  1.00  0.00     0.074 A 
ATOM     13  C   UNL A   1      38.758  33.034  29.881  1.00  0.00     0.049 A 
ATOM     14  N   UNL A   1      38.457  29.865  29.975  1.00  0.00    -0.248 NA
ATOM     15  C   UNL A   1      37.519  30.264  27.879  1.00  0.00     0.031 C 
ATOM     16  C   UNL A   1      38.696  34.478  30.089  1.00  0.00     0.029 A 
ATOM     17  N   UNL A   1      40.083  32.769  30.117  1.00  0.00    -0.354 N 
ATOM     18  C   UNL A   1      38.496  28.707  29.209  1.00  0.00     0.074 A 
ATOM     19  C   UNL A   1      37.739  28.959  28.012  1.00  0.00     0.031 C 
ATOM     20  C   UNL A   1      39.940  34.990  30.180  1.00  0.00     0.029 A 
ATOM     21  C   UNL A   1      40.895  33.905  30.118  1.00  0.00     0.049 A 
ATOM     22  H   UNL A   1      40.431  31.861  30.270  1.00  0.00     0.167 HD
ATOM     23  C   UNL A   1      39.413  27.740  29.455  1.00  0.00     0.037 A 
ATOM     24  C   UNL A   1      42.246  33.980  30.015  1.00  0.00     0.037 A 
ATOM     25  C   UNL A   1      39.871  27.754  30.816  1.00  0.00     0.049 A 
ATOM     26  C   UNL A   1      42.794  32.650  30.352  1.00  0.00     0.074 A 
ATOM     27  C   UNL A   1      39.262  27.641  32.051  1.00  0.00     0.029 A 
ATOM     28  N   UNL A   1      41.135  28.225  31.063  1.00  0.00    -0.354 N 
ATOM     29  N   UNL A   1      42.857  32.174  31.560  1.00  0.00    -0.248 NA
ATOM     30  C   UNL A   1      42.914  31.669  29.285  1.00  0.00     0.031 C 
ATOM     31  C   UNL A   1      40.031  28.453  32.931  1.00  0.00     0.029 A 
ATOM     32  C   UNL A   1      41.085  28.994  32.195  1.00  0.00     0.049 A 
ATOM     33  H   UNL A   1      41.937  28.042  30.522  1.00  0.00     0.167 HD
ATOM     34  C   UNL A   1      42.555  30.831  31.414  1.00  0.00     0.074 A 
ATOM     35  C   UNL A   1      42.726  30.553  29.992  1.00  0.00     0.031 C 
ATOM     36  C   UNL A   1      41.915  30.153  32.410  1.00  0.00     0.037 A 
BRANCH  23  37
ATOM     37  C   UNL A   1      40.183  27.107  28.328  1.00  0.00     0.057 A 
ATOM     38  C   UNL A   1      39.996  25.770  27.910  1.00  0.00     0.134 A 
ATOM     39  C   UNL A   1      40.914  27.917  27.450  1.00  0.00     0.134 A 
ATOM     40  F   UNL A   1      39.209  24.911  28.572  1.00  0.00    -0.206 F 
ATOM     41  C   UNL A   1      40.519  25.266  26.721  1.00  0.00     0.040 A 
ATOM     42  C   UNL A   1      41.391  27.438  26.225  1.00  0.00     0.040 A 
ATOM     43  F   UNL A   1      41.112  29.215  27.720  1.00  0.00    -0.206 F 
ATOM     44  C   UNL A   1      41.195  26.110  25.858  1.00  0.00     0.006 A 
ENDBRANCH  23  37
BRANCH  24  45
ATOM     45  C   UNL A   1      43.107  35.061  29.468  1.00  0.00     0.057 A 
ATOM     46  C   UNL A   1      43.554  35.060  28.134  1.00  0.00     0.134 A 
ATOM     47  C   UNL A   1      43.728  35.992  30.316  1.00  0.00     0.134 A 
ATOM     48  F   UNL A   1      43.090  34.174  27.243  1.00  0.00    -0.206 F 
ATOM     49  C   UNL A   1      44.565  35.914  27.678  1.00  0.00     0.040 A 
ATOM     50  C   UNL A   1      44.752  36.843  29.876  1.00  0.00     0.040 A 
ATOM     51  F   UNL A   1      43.402  36.059  31.614  1.00  0.00    -0.206 F 
ATOM     52  C   UNL A   1      45.182  36.797  28.554  1.00  0.00     0.006 A 
ENDBRANCH  24  45
BRANCH  36  53
ATOM     53  C   UNL A   1      41.874  30.792  33.769  1.00  0.00     0.057 A 
ATOM     54  C   UNL A   1      40.847  31.703  34.045  1.00  0.00     0.134 A 
ATOM     55  C   UNL A   1      42.849  30.613  34.762  1.00  0.00     0.134 A 
ATOM     56  F   UNL A   1      39.910  31.964  33.120  1.00  0.00    -0.206 F 
ATOM     57  C   UNL A   1      40.778  32.392  35.257  1.00  0.00     0.040 A 
ATOM     58  C   UNL A   1      42.771  31.269  35.994  1.00  0.00     0.040 A 
ATOM     59  F   UNL A   1      43.922  29.837  34.551  1.00  0.00    -0.206 F 
ATOM     60  C   UNL A   1      41.734  32.164  36.244  1.00  0.00     0.006 A 
ENDBRANCH  36  53
ENDBRANCH  10  11
ENDBRANCH   3   5
ENDBRANCH   2   3
ENDBRANCH   1   2
BRANCH   1  61
ATOM     61  C   UNL A   1      33.696  29.484  27.287  1.00  0.00     0.275 C 
BRANCH  61  62
ATOM     62  O   UNL A   1      32.767  28.409  27.213  1.00  0.00    -0.458 OA
BRANCH  62  63
ATOM     63  C   UNL A   1      33.009  27.506  26.230  1.00  0.00     0.338 C 
ATOM     64  O   UNL A   1      34.072  27.019  25.951  1.00  0.00    -0.246 OA
BRANCH  63  65
ATOM     65  C   UNL A   1      31.707  27.080  25.669  1.00  0.00     0.069 A 
ATOM     66  C   UNL A   1      31.009  25.952  26.122  1.00  0.00     0.016 A 
ATOM     67  C   UNL A   1      31.200  27.828  24.588  1.00  0.00     0.014 A 
ATOM     68  C   UNL A   1      29.794  25.599  25.527  1.00  0.00     0.003 A 
ATOM     69  C   UNL A   1      29.948  27.497  24.055  1.00  0.00     0.049 A 
ATOM     70  C   UNL A   1      31.734  28.879  23.796  1.00  0.00     0.029 A 
ATOM     71  C   UNL A   1      29.226  26.380  24.511  1.00  0.00     0.027 A 
ATOM     72  N   UNL A   1      29.669  28.467  23.110  1.00  0.00    -0.343 N 
ATOM     73  C   UNL A   1      30.817  29.165  22.818  1.00  0.00     0.087 A 
BRANCH  72  74
ATOM     74  C   UNL A   1      28.366  28.785  22.530  1.00  0.00     0.157 C 
BRANCH  74  75
ATOM     75  C   UNL A   1      28.228  30.277  22.297  1.00  0.00    -0.025 A 
ATOM     76  C   UNL A   1      28.127  30.804  21.001  1.00  0.00     0.025 A 
ATOM     77  C   UNL A   1      28.237  31.178  23.365  1.00  0.00     0.025 A 
ATOM     78  C   UNL A   1      28.085  32.178  20.829  1.00  0.00     0.111 A 
ATOM     79  C   UNL A   1      28.165  32.538  23.091  1.00  0.00     0.111 A 
ATOM     80  N   UNL A   1      28.093  33.058  21.848  1.00  0.00    -0.265 NA
ENDBRANCH  74  75
ENDBRANCH  72  74
ENDBRANCH  63  65
ENDBRANCH  62  63
ENDBRANCH  61  62
ENDBRANCH   1  61
TORSDOF 13
ENDMDL
MODEL 2
REMARK VINA RESULT:     -11.6      5.233      9.529
REMARK SMILES O=C(OCCOC(=O)c1cccc2c1ccn2Cc1ccncc1)c1ccc(-c2c3nc(c(-c4c(F)cccc4F)c4ccc([nH]4)c(-c4c(F)cccc4F)c4nc(c(-c5c(F)cccc5F)c5ccc2[nH]5)C=C4)C=C3)cc1
REMARK SMILES IDX 4 1 3 2 2 3 1 4 25 5 26 6 78 7 27 8 77 9 28 10 29 11 30 12
REMARK SMILES IDX 71 13 31 14 76 15 70 16 72 17 32 18 75 19 69 20 68 21 33 23
REMARK SMILES IDX 59 24 42 25 58 26 43 27 46 28 57 29 73 30 44 31 45 32 56 34
REMARK SMILES IDX 74 35 47 36 34 37 35 38 40 39 36 40 37 41 39 42 41 43 38 44
REMARK SMILES IDX 60 45 61 46 66 47 62 48 63 49 65 50 67 51 64 52 48 53 49 54
REMARK SMILES IDX 54 55 50 56 51 57 53 58 55 59 52 60 5 61 6 62 7 63 8 64 9 65
REMARK SMILES IDX 10 66 14 67 11 68 13 69 15 70 12 71 17 72 16 73 18 74 19 75
REMARK SMILES IDX 20 76 24 77 21 78 23 79 22 80
REMARK H PARENT 72 22 46 33
REMARK Flexibility Score: inf
ROOT
ATOM      1  C   UNL A   1      39.531  21.303  25.926  1.00  0.00     0.275 C 
ENDROOT
BRANCH   1   2
ATOM      2  O   UNL A   1      40.162  20.003  25.830  1.00  0.00    -0.458 OA
BRANCH   2   3
ATOM      3  C   UNL A   1      41.501  19.753  25.911  1.00  0.00     0.338 C 
ATOM      4  O   UNL A   1      41.999  18.683  25.592  1.00  0.00    -0.246 OA
BRANCH   3   5
ATOM      5  C   UNL A   1      42.295  20.767  26.619  1.00  0.00     0.060 A 
ATOM      6  C   UNL A   1      42.144  20.808  28.000  1.00  0.00     0.016 A 
ATOM      7  C   UNL A   1      42.908  21.812  25.924  1.00  0.00     0.016 A 
ATOM      8  C   UNL A   1      42.299  22.030  28.629  1.00  0.00     0.010 A 
ATOM      9  C   UNL A   1      43.052  23.039  26.556  1.00  0.00     0.010 A 
ATOM     10  C   UNL A   1      42.625  23.174  27.879  1.00  0.00    -0.014 A 
BRANCH  10  11
ATOM     11  C   UNL A   1      42.688  24.454  28.595  1.00  0.00     0.031 A 
ATOM     12  C   UNL A   1      41.545  25.330  28.237  1.00  0.00     0.074 A 
ATOM     13  C   UNL A   1      43.597  24.808  29.532  1.00  0.00     0.049 A 
ATOM     14  N   UNL A   1      41.585  26.533  27.765  1.00  0.00    -0.248 NA
ATOM     15  C   UNL A   1      40.203  24.716  28.232  1.00  0.00     0.031 C 
ATOM     16  C   UNL A   1      44.691  24.005  30.071  1.00  0.00     0.029 A 
ATOM     17  N   UNL A   1      43.684  25.950  30.287  1.00  0.00    -0.354 N 
ATOM     18  C   UNL A   1      40.255  26.896  27.605  1.00  0.00     0.074 A 
ATOM     19  C   UNL A   1      39.468  25.697  27.718  1.00  0.00     0.031 C 
ATOM     20  C   UNL A   1      45.169  24.566  31.200  1.00  0.00     0.029 A 
ATOM     21  C   UNL A   1      44.474  25.813  31.430  1.00  0.00     0.049 A 
ATOM     22  H   UNL A   1      43.229  26.789  30.045  1.00  0.00     0.167 HD
ATOM     23  C   UNL A   1      39.867  28.190  27.718  1.00  0.00     0.037 A 
ATOM     24  C   UNL A   1      44.527  26.615  32.523  1.00  0.00     0.037 A 
ATOM     25  C   UNL A   1      40.933  29.108  27.432  1.00  0.00     0.049 A 
ATOM     26  C   UNL A   1      43.949  27.921  32.147  1.00  0.00     0.074 A 
ATOM     27  C   UNL A   1      41.756  29.337  26.346  1.00  0.00     0.029 A 
ATOM     28  N   UNL A   1      41.504  29.777  28.483  1.00  0.00    -0.354 N 
ATOM     29  N   UNL A   1      44.557  28.799  31.405  1.00  0.00    -0.248 NA
ATOM     30  C   UNL A   1      42.511  28.095  32.271  1.00  0.00     0.031 C 
ATOM     31  C   UNL A   1      42.998  29.767  26.894  1.00  0.00     0.029 A 
ATOM     32  C   UNL A   1      42.858  29.806  28.280  1.00  0.00     0.049 A 
ATOM     33  H   UNL A   1      41.025  30.169  29.249  1.00  0.00     0.167 HD
ATOM     34  C   UNL A   1      43.554  29.330  30.612  1.00  0.00     0.074 A 
ATOM     35  C   UNL A   1      42.307  28.957  31.273  1.00  0.00     0.031 C 
ATOM     36  C   UNL A   1      43.826  29.765  29.349  1.00  0.00     0.037 A 
BRANCH  23  37
ATOM     37  C   UNL A   1      38.649  28.559  28.521  1.00  0.00     0.057 A 
ATOM     38  C   UNL A   1      38.501  28.261  29.895  1.00  0.00     0.134 A 
ATOM     39  C   UNL A   1      37.731  29.480  28.002  1.00  0.00     0.134 A 
ATOM     40  F   UNL A   1      39.379  27.504  30.567  1.00  0.00    -0.206 F 
ATOM     41  C   UNL A   1      37.499  28.816  30.688  1.00  0.00     0.040 A 
ATOM     42  C   UNL A   1      36.760  30.090  28.804  1.00  0.00     0.040 A 
ATOM     43  F   UNL A   1      37.807  29.875  26.722  1.00  0.00    -0.206 F 
ATOM     44  C   UNL A   1      36.641  29.758  30.149  1.00  0.00     0.006 A 
ENDBRANCH  23  37
BRANCH  24  45
ATOM     45  C   UNL A   1      44.870  26.292  33.933  1.00  0.00     0.057 A 
ATOM     46  C   UNL A   1      44.004  25.562  34.766  1.00  0.00     0.134 A 
ATOM     47  C   UNL A   1      45.948  26.919  34.579  1.00  0.00     0.134 A 
ATOM     48  F   UNL A   1      42.901  24.974  34.282  1.00  0.00    -0.206 F 
ATOM     49  C   UNL A   1      44.185  25.475  36.151  1.00  0.00     0.040 A 
ATOM     50  C   UNL A   1      46.133  26.853  35.967  1.00  0.00     0.040 A 
ATOM     51  F   UNL A   1      46.818  27.668  33.887  1.00  0.00    -0.206 F 
ATOM     52  C   UNL A   1      45.243  26.138  36.760  1.00  0.00     0.006 A 
ENDBRANCH  24  45
BRANCH  36  53
ATOM     53  C   UNL A   1      45.268  29.981  28.985  1.00  0.00     0.057 A 
ATOM     54  C   UNL A   1      45.772  31.286  29.007  1.00  0.00     0.134 A 
ATOM     55  C   UNL A   1      46.132  28.973  28.529  1.00  0.00     0.134 A 
ATOM     56  F   UNL A   1      44.985  32.308  29.381  1.00  0.00    -0.206 F 
ATOM     57  C   UNL A   1      47.079  31.580  28.615  1.00  0.00     0.040 A 
ATOM     58  C   UNL A   1      47.454  29.248  28.168  1.00  0.00     0.040 A 
ATOM     59  F   UNL A   1      45.709  27.709  28.379  1.00  0.00    -0.206 F 
ATOM     60  C   UNL A   1      47.931  30.556  28.209  1.00  0.00     0.006 A 
ENDBRANCH  36  53
ENDBRANCH  10  11
ENDBRANCH   3   5
ENDBRANCH   2   3
ENDBRANCH   1   2
BRANCH   1  61
ATOM     61  C   UNL A   1      38.123  21.468  25.336  1.00  0.00     0.275 C 
BRANCH  61  62
ATOM     62  O   UNL A   1      37.834  22.731  24.748  1.00  0.00    -0.458 OA
BRANCH  62  63
ATOM     63  C   UNL A   1      36.782  23.391  25.292  1.00  0.00     0.338 C 
ATOM     64  O   UNL A   1      36.831  24.247  26.135  1.00  0.00    -0.246 OA
BRANCH  63  65
ATOM     65  C   UNL A   1      35.564  23.009  24.542  1.00  0.00     0.069 A 
ATOM     66  C   UNL A   1      35.196  23.598  23.325  1.00  0.00     0.016 A 
ATOM     67  C   UNL A   1      34.721  22.048  25.136  1.00  0.00     0.014 A 
ATOM     68  C   UNL A   1      34.018  23.201  22.686  1.00  0.00     0.003 A 
ATOM     69  C   UNL A   1      33.584  21.615  24.443  1.00  0.00     0.049 A 
ATOM     70  C   UNL A   1      34.711  21.415  26.407  1.00  0.00     0.029 A 
ATOM     71  C   UNL A   1      33.211  22.181  23.212  1.00  0.00     0.027 A 
ATOM     72  N   UNL A   1      33.038  20.599  25.206  1.00  0.00    -0.343 N 
ATOM     73  C   UNL A   1      33.593  20.624  26.464  1.00  0.00     0.087 A 
BRANCH  72  74
ATOM     74  C   UNL A   1      32.072  19.592  24.775  1.00  0.00     0.157 C 
BRANCH  74  75
ATOM     75  C   UNL A   1      32.724  18.228  24.668  1.00  0.00    -0.025 A 
ATOM     76  C   UNL A   1      33.501  17.878  23.553  1.00  0.00     0.025 A 
ATOM     77  C   UNL A   1      32.541  17.260  25.659  1.00  0.00     0.025 A 
ATOM     78  C   UNL A   1      34.012  16.594  23.458  1.00  0.00     0.111 A 
ATOM     79  C   UNL A   1      33.114  16.007  25.484  1.00  0.00     0.111 A 
ATOM     80  N   UNL A   1      33.842  15.651  24.405  1.00  0.00    -0.265 NA
ENDBRANCH  74  75
ENDBRANCH  72  74
ENDBRANCH  63  65
ENDBRANCH  62  63
ENDBRANCH  61  62
ENDBRANCH   1  61
TORSDOF 13
ENDMDL
MODEL 3
REMARK VINA RESULT:     -11.6      3.611      8.007
REMARK SMILES O=C(OCCOC(=O)c1cccc2c1ccn2Cc1ccncc1)c1ccc(-c2c3nc(c(-c4c(F)cccc4F)c4ccc([nH]4)c(-c4c(F)cccc4F)c4nc(c(-c5c(F)cccc5F)c5ccc2[nH]5)C=C4)C=C3)cc1
REMARK SMILES IDX 4 1 3 2 2 3 1 4 25 5 26 6 78 7 27 8 77 9 28 10 29 11 30 12
REMARK SMILES IDX 71 13 31 14 76 15 70 16 72 17 32 18 75 19 69 20 68 21 33 23
REMARK SMILES IDX 59 24 42 25 58 26 43 27 46 28 57 29 73 30 44 31 45 32 56 34
REMARK SMILES IDX 74 35 47 36 34 37 35 38 40 39 36 40 37 41 39 42 41 43 38 44
REMARK SMILES IDX 60 45 61 46 66 47 62 48 63 49 65 50 67 51 64 52 48 53 49 54
REMARK SMILES IDX 54 55 50 56 51 57 53 58 55 59 52 60 5 61 6 62 7 63 8 64 9 65
REMARK SMILES IDX 10 66 14 67 11 68 13 69 15 70 12 71 17 72 16 73 18 74 19 75
REMARK SMILES IDX 20 76 24 77 21 78 23 79 22 80
REMARK H PARENT 72 22 46 33
REMARK Flexibility Score: inf
ROOT
ATOM      1  C   UNL A   1      34.403  30.250  27.362  1.00  0.00     0.275 C 
ENDROOT
BRANCH   1   2
ATOM      2  O   UNL A   1      35.843  30.189  27.510  1.00  0.00    -0.458 OA
BRANCH   2   3
ATOM      3  C   UNL A   1      36.594  30.941  28.365  1.00  0.00     0.338 C 
ATOM      4  O   UNL A   1      36.540  32.162  28.401  1.00  0.00    -0.246 OA
BRANCH   3   5
ATOM      5  C   UNL A   1      37.647  30.216  29.092  1.00  0.00     0.060 A 
ATOM      6  C   UNL A   1      38.920  30.771  29.039  1.00  0.00     0.016 A 
ATOM      7  C   UNL A   1      37.442  28.908  29.534  1.00  0.00     0.016 A 
ATOM      8  C   UNL A   1      40.000  29.911  29.103  1.00  0.00     0.010 A 
ATOM      9  C   UNL A   1      38.528  28.045  29.587  1.00  0.00     0.010 A 
ATOM     10  C   UNL A   1      39.793  28.526  29.246  1.00  0.00    -0.014 A 
BRANCH  10  11
ATOM     11  C   UNL A   1      40.979  27.662  29.218  1.00  0.00     0.031 A 
ATOM     12  C   UNL A   1      41.811  27.846  30.434  1.00  0.00     0.074 A 
ATOM     13  C   UNL A   1      41.281  26.739  28.276  1.00  0.00     0.049 A 
ATOM     14  N   UNL A   1      43.062  28.167  30.498  1.00  0.00    -0.248 NA
ATOM     15  C   UNL A   1      41.110  27.854  31.733  1.00  0.00     0.031 C 
ATOM     16  C   UNL A   1      40.496  26.363  27.103  1.00  0.00     0.029 A 
ATOM     17  N   UNL A   1      42.327  25.854  28.214  1.00  0.00    -0.354 N 
ATOM     18  C   UNL A   1      43.348  28.209  31.856  1.00  0.00     0.074 A 
ATOM     19  C   UNL A   1      42.093  28.202  32.558  1.00  0.00     0.031 C 
ATOM     20  C   UNL A   1      40.950  25.202  26.591  1.00  0.00     0.029 A 
ATOM     21  C   UNL A   1      42.110  24.781  27.347  1.00  0.00     0.049 A 
ATOM     22  H   UNL A   1      43.156  25.965  28.734  1.00  0.00     0.167 HD
ATOM     23  C   UNL A   1      44.589  27.915  32.316  1.00  0.00     0.037 A 
ATOM     24  C   UNL A   1      42.776  23.602  27.277  1.00  0.00     0.037 A 
ATOM     25  C   UNL A   1      45.606  28.143  31.328  1.00  0.00     0.049 A 
ATOM     26  C   UNL A   1      44.075  23.782  27.957  1.00  0.00     0.074 A 
ATOM     27  C   UNL A   1      46.020  29.235  30.591  1.00  0.00     0.029 A 
ATOM     28  N   UNL A   1      46.182  27.050  30.736  1.00  0.00    -0.354 N 
ATOM     29  N   UNL A   1      45.075  24.441  27.452  1.00  0.00    -0.248 NA
ATOM     30  C   UNL A   1      44.132  23.559  29.393  1.00  0.00     0.031 C 
ATOM     31  C   UNL A   1      46.466  28.706  29.346  1.00  0.00     0.029 A 
ATOM     32  C   UNL A   1      46.329  27.320  29.402  1.00  0.00     0.049 A 
ATOM     33  H   UNL A   1      46.445  26.216  31.190  1.00  0.00     0.167 HD
ATOM     34  C   UNL A   1      45.627  25.106  28.534  1.00  0.00     0.074 A 
ATOM     35  C   UNL A   1      45.092  24.431  29.711  1.00  0.00     0.031 C 
ATOM     36  C   UNL A   1      46.228  26.319  28.368  1.00  0.00     0.037 A 
BRANCH  23  37
ATOM     37  C   UNL A   1      44.773  27.008  33.501  1.00  0.00     0.057 A 
ATOM     38  C   UNL A   1      45.192  27.461  34.773  1.00  0.00     0.134 A 
ATOM     39  C   UNL A   1      44.249  25.709  33.468  1.00  0.00     0.134 A 
ATOM     40  F   UNL A   1      45.589  28.722  34.994  1.00  0.00    -0.206 F 
ATOM     41  C   UNL A   1      45.121  26.675  35.921  1.00  0.00     0.040 A 
ATOM     42  C   UNL A   1      44.116  24.934  34.625  1.00  0.00     0.040 A 
ATOM     43  F   UNL A   1      43.775  25.192  32.324  1.00  0.00    -0.206 F 
ATOM     44  C   UNL A   1      44.553  25.415  35.855  1.00  0.00     0.006 A 
ENDBRANCH  23  37
BRANCH  24  45
ATOM     45  C   UNL A   1      42.311  22.264  26.827  1.00  0.00     0.057 A 
ATOM     46  C   UNL A   1      41.249  21.589  27.456  1.00  0.00     0.134 A 
ATOM     47  C   UNL A   1      43.070  21.496  25.929  1.00  0.00     0.134 A 
ATOM     48  F   UNL A   1      40.492  22.191  28.384  1.00  0.00    -0.206 F 
ATOM     49  C   UNL A   1      40.971  20.238  27.223  1.00  0.00     0.040 A 
ATOM     50  C   UNL A   1      42.813  20.137  25.699  1.00  0.00     0.040 A 
ATOM     51  F   UNL A   1      44.126  22.028  25.298  1.00  0.00    -0.206 F 
ATOM     52  C   UNL A   1      41.767  19.500  26.356  1.00  0.00     0.006 A 
ENDBRANCH  24  45
BRANCH  36  53
ATOM     53  C   UNL A   1      46.585  26.731  26.968  1.00  0.00     0.057 A 
ATOM     54  C   UNL A   1      45.607  27.361  26.190  1.00  0.00     0.134 A 
ATOM     55  C   UNL A   1      47.809  26.447  26.343  1.00  0.00     0.134 A 
ATOM     56  F   UNL A   1      44.394  27.617  26.707  1.00  0.00    -0.206 F 
ATOM     57  C   UNL A   1      45.835  27.712  24.859  1.00  0.00     0.040 A 
ATOM     58  C   UNL A   1      48.064  26.825  25.022  1.00  0.00     0.040 A 
ATOM     59  F   UNL A   1      48.770  25.758  26.977  1.00  0.00    -0.206 F 
ATOM     60  C   UNL A   1      47.074  27.458  24.274  1.00  0.00     0.006 A 
ENDBRANCH  36  53
ENDBRANCH  10  11
ENDBRANCH   3   5
ENDBRANCH   2   3
ENDBRANCH   1   2
BRANCH   1  61
ATOM     61  C   UNL A   1      33.757  29.424  26.240  1.00  0.00     0.275 C 
BRANCH  61  62
ATOM     62  O   UNL A   1      33.304  28.124  26.601  1.00  0.00    -0.458 OA
BRANCH  62  63
ATOM     63  C   UNL A   1      33.299  27.217  25.592  1.00  0.00     0.338 C 
ATOM     64  O   UNL A   1      34.255  26.654  25.130  1.00  0.00    -0.246 OA
BRANCH  63  65
ATOM     65  C   UNL A   1      31.889  26.897  25.272  1.00  0.00     0.069 A 
ATOM     66  C   UNL A   1      31.171  25.875  25.908  1.00  0.00     0.016 A 
ATOM     67  C   UNL A   1      31.286  27.631  24.231  1.00  0.00     0.014 A 
ATOM     68  C   UNL A   1      29.849  25.616  25.536  1.00  0.00     0.003 A 
ATOM     69  C   UNL A   1      29.939  27.401  23.924  1.00  0.00     0.049 A 
ATOM     70  C   UNL A   1      31.781  28.574  23.291  1.00  0.00     0.029 A 
ATOM     71  C   UNL A   1      29.199  26.394  24.566  1.00  0.00     0.027 A 
ATOM     72  N   UNL A   1      29.603  28.340  22.966  1.00  0.00    -0.343 N 
ATOM     73  C   UNL A   1      30.749  28.897  22.449  1.00  0.00     0.087 A 
BRANCH  72  74
ATOM     74  C   UNL A   1      28.259  28.758  22.573  1.00  0.00     0.157 C 
BRANCH  74  75
ATOM     75  C   UNL A   1      28.202  30.257  22.356  1.00  0.00    -0.025 A 
ATOM     76  C   UNL A   1      28.032  30.801  21.075  1.00  0.00     0.025 A 
ATOM     77  C   UNL A   1      28.355  31.147  23.423  1.00  0.00     0.025 A 
ATOM     78  C   UNL A   1      28.066  32.177  20.911  1.00  0.00     0.111 A 
ATOM     79  C   UNL A   1      28.352  32.511  23.161  1.00  0.00     0.111 A 
ATOM     80  N   UNL A   1      28.214  33.046  21.929  1.00  0.00    -0.265 NA
ENDBRANCH  74  75
ENDBRANCH  72  74
ENDBRANCH  63  65
ENDBRANCH  62  63
ENDBRANCH  61  62
ENDBRANCH   1  61
TORSDOF 13
ENDMDL
