MODEL 1
REMARK VINA RESULT:     -11.3      0.000      0.000
REMARK SMILES C[C@@H](C(=O)OCCOC(=O)c1ccc(-c2c3nc(c(-c4c(F)cccc4F)c4ccc([nH]4)c(-c4c(F)cccc4F)c4nc(c(-c5c(F)cccc5F)c5ccc2[nH]5)C=C4)C=C3)cc1)c1ccc(C[C@@H]2CCC[C@@H]2O)cc1Br
REMARK SMILES IDX 6 1 5 2 3 3 4 4 2 5 1 6 65 7 66 8 77 9 67 10 76 11 78 12
REMARK SMILES IDX 68 13 69 14 70 15 71 16 74 17 72 18 73 19 75 20 7 22 8 23
REMARK SMILES IDX 9 24 10 25 11 26 12 27 64 28 13 29 63 30 14 31 15 32 16 33
REMARK SMILES IDX 57 34 17 35 62 36 56 37 58 38 18 39 61 40 55 41 54 42 19 44
REMARK SMILES IDX 45 45 28 46 44 47 29 48 32 49 43 50 59 51 30 52 31 53 42 55
REMARK SMILES IDX 60 56 33 57 20 58 21 59 26 60 22 61 23 62 25 63 27 64 24 65
REMARK SMILES IDX 46 66 47 67 52 68 48 69 49 70 51 71 53 72 50 73 34 74 35 75
REMARK SMILES IDX 40 76 36 77 37 78 39 79 41 80 38 81
REMARK H PARENT 75 21 58 43 32 54
REMARK Flexibility Score: inf
ROOT
ATOM      1  C   UNL A   1      32.521  29.661  26.989  1.00  0.00     0.274 C 
ENDROOT
BRANCH   1   2
ATOM      2  O   UNL A   1      31.747  28.884  26.051  1.00  0.00    -0.462 OA
BRANCH   2   3
ATOM      3  C   UNL A   1      31.316  27.669  26.492  1.00  0.00     0.313 C 
ATOM      4  O   UNL A   1      31.173  27.393  27.679  1.00  0.00    -0.252 OA
BRANCH   3   5
ATOM      5  C   UNL A   1      31.121  26.674  25.330  1.00  0.00     0.127 C 
ATOM      6  C   UNL A   1      29.738  26.016  25.364  1.00  0.00     0.025 C 
BRANCH   5   7
ATOM      7  C   UNL A   1      32.281  25.675  25.314  1.00  0.00    -0.020 A 
ATOM      8  C   UNL A   1      32.220  24.508  26.097  1.00  0.00     0.006 A 
ATOM      9  C   UNL A   1      33.505  25.970  24.691  1.00  0.00     0.022 A 
ATOM     10  C   UNL A   1      33.373  23.769  26.392  1.00  0.00     0.004 A 
ATOM     11  C   UNL A   1      34.640  25.195  24.945  1.00  0.00     0.019 A 
ATOM     12  Br  UNL A   1      33.754  27.468  23.545  1.00  0.00    -0.050 Br
ATOM     13  C   UNL A   1      34.610  24.153  25.874  1.00  0.00    -0.047 A 
BRANCH  13  14
ATOM     14  C   UNL A   1      35.892  23.487  26.308  1.00  0.00     0.041 C 
BRANCH  14  15
ATOM     15  C   UNL A   1      37.020  23.304  25.265  1.00  0.00     0.022 C 
ATOM     16  C   UNL A   1      36.621  22.502  24.035  1.00  0.00     0.007 C 
ATOM     17  C   UNL A   1      38.330  22.611  25.653  1.00  0.00     0.117 C 
ATOM     18  C   UNL A   1      37.065  21.061  24.282  1.00  0.00     0.003 C 
ATOM     19  C   UNL A   1      38.127  21.125  25.370  1.00  0.00     0.032 C 
BRANCH  17  20
ATOM     20  O   UNL A   1      38.741  22.872  26.977  1.00  0.00    -0.393 OA
ATOM     21  H   UNL A   1      38.394  22.183  27.564  1.00  0.00     0.210 HD
ENDBRANCH  17  20
ENDBRANCH  14  15
ENDBRANCH  13  14
ENDBRANCH   5   7
ENDBRANCH   3   5
ENDBRANCH   2   3
ENDBRANCH   1   2
BRANCH   1  22
ATOM     22  C   UNL A   1      34.029  29.525  26.758  1.00  0.00     0.275 C 
BRANCH  22  23
ATOM     23  O   UNL A   1      34.740  29.222  27.975  1.00  0.00    -0.458 OA
BRANCH  23  24
ATOM     24  C   UNL A   1      35.465  30.239  28.495  1.00  0.00     0.338 C 
ATOM     25  O   UNL A   1      35.042  31.309  28.902  1.00  0.00    -0.246 OA
BRANCH  24  26
ATOM     26  C   UNL A   1      36.872  29.829  28.674  1.00  0.00     0.060 A 
ATOM     27  C   UNL A   1      37.673  29.905  27.543  1.00  0.00     0.016 A 
ATOM     28  C   UNL A   1      37.396  29.305  29.860  1.00  0.00     0.016 A 
ATOM     29  C   UNL A   1      38.998  29.483  27.586  1.00  0.00     0.010 A 
ATOM     30  C   UNL A   1      38.739  28.872  29.902  1.00  0.00     0.010 A 
ATOM     31  C   UNL A   1      39.558  28.969  28.766  1.00  0.00    -0.014 A 
BRANCH  31  32
ATOM     32  C   UNL A   1      40.984  28.529  28.711  1.00  0.00     0.031 A 
ATOM     33  C   UNL A   1      41.316  27.170  28.157  1.00  0.00     0.074 A 
ATOM     34  C   UNL A   1      41.988  29.400  28.945  1.00  0.00     0.049 A 
ATOM     35  N   UNL A   1      42.482  26.667  27.835  1.00  0.00    -0.248 NA
ATOM     36  C   UNL A   1      40.184  26.257  27.936  1.00  0.00     0.031 C 
ATOM     37  C   UNL A   1      41.818  30.775  29.406  1.00  0.00     0.029 A 
ATOM     38  N   UNL A   1      43.341  29.302  28.688  1.00  0.00    -0.354 N 
ATOM     39  C   UNL A   1      42.233  25.353  27.461  1.00  0.00     0.074 A 
ATOM     40  C   UNL A   1      40.797  25.171  27.488  1.00  0.00     0.031 C 
ATOM     41  C   UNL A   1      42.972  31.441  29.224  1.00  0.00     0.029 A 
ATOM     42  C   UNL A   1      43.975  30.529  28.678  1.00  0.00     0.049 A 
ATOM     43  H   UNL A   1      43.804  28.447  28.529  1.00  0.00     0.167 HD
ATOM     44  C   UNL A   1      43.125  24.365  27.209  1.00  0.00     0.037 A 
ATOM     45  C   UNL A   1      45.191  30.877  28.205  1.00  0.00     0.037 A 
ATOM     46  C   UNL A   1      44.553  24.534  27.206  1.00  0.00     0.049 A 
ATOM     47  C   UNL A   1      46.159  29.794  27.798  1.00  0.00     0.074 A 
ATOM     48  C   UNL A   1      45.544  23.570  27.143  1.00  0.00     0.029 A 
ATOM     49  N   UNL A   1      45.194  25.760  27.253  1.00  0.00    -0.354 N 
ATOM     50  N   UNL A   1      45.942  28.519  27.592  1.00  0.00    -0.248 NA
ATOM     51  C   UNL A   1      47.566  30.198  27.636  1.00  0.00     0.031 C 
ATOM     52  C   UNL A   1      46.788  24.213  27.183  1.00  0.00     0.029 A 
ATOM     53  C   UNL A   1      46.566  25.578  27.228  1.00  0.00     0.049 A 
ATOM     54  H   UNL A   1      44.741  26.633  27.298  1.00  0.00     0.167 HD
ATOM     55  C   UNL A   1      47.192  27.961  27.349  1.00  0.00     0.074 A 
ATOM     56  C   UNL A   1      48.146  29.047  27.322  1.00  0.00     0.031 C 
ATOM     57  C   UNL A   1      47.523  26.653  27.230  1.00  0.00     0.037 A 
BRANCH  44  58
ATOM     58  C   UNL A   1      42.569  22.981  27.100  1.00  0.00     0.057 A 
ATOM     59  C   UNL A   1      42.396  22.324  25.879  1.00  0.00     0.134 A 
ATOM     60  C   UNL A   1      42.166  22.311  28.264  1.00  0.00     0.134 A 
ATOM     61  F   UNL A   1      42.735  22.926  24.729  1.00  0.00    -0.206 F 
ATOM     62  C   UNL A   1      41.822  21.052  25.817  1.00  0.00     0.040 A 
ATOM     63  C   UNL A   1      41.609  21.034  28.217  1.00  0.00     0.040 A 
ATOM     64  F   UNL A   1      42.300  22.894  29.466  1.00  0.00    -0.206 F 
ATOM     65  C   UNL A   1      41.430  20.404  26.988  1.00  0.00     0.006 A 
ENDBRANCH  44  58
BRANCH  45  66
ATOM     66  C   UNL A   1      45.600  32.301  28.039  1.00  0.00     0.057 A 
ATOM     67  C   UNL A   1      45.370  32.954  26.816  1.00  0.00     0.134 A 
ATOM     68  C   UNL A   1      46.286  33.019  29.022  1.00  0.00     0.134 A 
ATOM     69  F   UNL A   1      44.742  32.315  25.817  1.00  0.00    -0.206 F 
ATOM     70  C   UNL A   1      45.828  34.251  26.571  1.00  0.00     0.040 A 
ATOM     71  C   UNL A   1      46.720  34.330  28.802  1.00  0.00     0.040 A 
ATOM     72  F   UNL A   1      46.561  32.456  30.207  1.00  0.00    -0.206 F 
ATOM     73  C   UNL A   1      46.502  34.944  27.571  1.00  0.00     0.006 A 
ENDBRANCH  45  66
BRANCH  57  74
ATOM     74  C   UNL A   1      48.982  26.313  27.163  1.00  0.00     0.057 A 
ATOM     75  C   UNL A   1      49.726  26.106  28.334  1.00  0.00     0.134 A 
ATOM     76  C   UNL A   1      49.638  26.133  25.941  1.00  0.00     0.134 A 
ATOM     77  F   UNL A   1      49.156  26.268  29.538  1.00  0.00    -0.206 F 
ATOM     78  C   UNL A   1      51.075  25.752  28.293  1.00  0.00     0.040 A 
ATOM     79  C   UNL A   1      50.984  25.759  25.886  1.00  0.00     0.040 A 
ATOM     80  F   UNL A   1      48.985  26.306  24.784  1.00  0.00    -0.206 F 
ATOM     81  C   UNL A   1      51.706  25.571  27.064  1.00  0.00     0.006 A 
ENDBRANCH  57  74
ENDBRANCH  31  32
ENDBRANCH  24  26
ENDBRANCH  23  24
ENDBRANCH  22  23
ENDBRANCH   1  22
TORSDOF 15
ENDMDL
MODEL 2
REMARK VINA RESULT:     -11.1      4.452      7.742
REMARK SMILES C[C@@H](C(=O)OCCOC(=O)c1ccc(-c2c3nc(c(-c4c(F)cccc4F)c4ccc([nH]4)c(-c4c(F)cccc4F)c4nc(c(-c5c(F)cccc5F)c5ccc2[nH]5)C=C4)C=C3)cc1)c1ccc(C[C@@H]2CCC[C@@H]2O)cc1Br
REMARK SMILES IDX 6 1 5 2 3 3 4 4 2 5 1 6 65 7 66 8 77 9 67 10 76 11 78 12
REMARK SMILES IDX 68 13 69 14 70 15 71 16 74 17 72 18 73 19 75 20 7 22 8 23
REMARK SMILES IDX 9 24 10 25 11 26 12 27 64 28 13 29 63 30 14 31 15 32 16 33
REMARK SMILES IDX 57 34 17 35 62 36 56 37 58 38 18 39 61 40 55 41 54 42 19 44
REMARK SMILES IDX 45 45 28 46 44 47 29 48 32 49 43 50 59 51 30 52 31 53 42 55
REMARK SMILES IDX 60 56 33 57 20 58 21 59 26 60 22 61 23 62 25 63 27 64 24 65
REMARK SMILES IDX 46 66 47 67 52 68 48 69 49 70 51 71 53 72 50 73 34 74 35 75
REMARK SMILES IDX 40 76 36 77 37 78 39 79 41 80 38 81
REMARK H PARENT 75 21 58 43 32 54
REMARK Flexibility Score: inf
ROOT
ATOM      1  C   UNL A   1      31.634  28.752  23.865  1.00  0.00     0.274 C 
ENDROOT
BRANCH   1   2
ATOM      2  O   UNL A   1      32.624  27.708  23.970  1.00  0.00    -0.462 OA
BRANCH   2   3
ATOM      3  C   UNL A   1      32.144  26.437  24.081  1.00  0.00     0.313 C 
ATOM      4  O   UNL A   1      31.296  25.968  23.330  1.00  0.00    -0.252 OA
BRANCH   3   5
ATOM      5  C   UNL A   1      32.732  25.709  25.307  1.00  0.00     0.127 C 
ATOM      6  C   UNL A   1      34.040  26.349  25.782  1.00  0.00     0.025 C 
BRANCH   5   7
ATOM      7  C   UNL A   1      32.850  24.213  25.003  1.00  0.00    -0.020 A 
ATOM      8  C   UNL A   1      33.871  23.742  24.158  1.00  0.00     0.006 A 
ATOM      9  C   UNL A   1      31.853  23.299  25.381  1.00  0.00     0.022 A 
ATOM     10  C   UNL A   1      33.802  22.471  23.573  1.00  0.00     0.004 A 
ATOM     11  C   UNL A   1      31.821  22.011  24.837  1.00  0.00     0.019 A 
ATOM     12  Br  UNL A   1      30.433  23.740  26.568  1.00  0.00    -0.050 Br
ATOM     13  C   UNL A   1      32.733  21.621  23.854  1.00  0.00    -0.047 A 
BRANCH  13  14
ATOM     14  C   UNL A   1      32.537  20.322  23.113  1.00  0.00     0.041 C 
BRANCH  14  15
ATOM     15  C   UNL A   1      32.442  19.011  23.930  1.00  0.00     0.022 C 
ATOM     16  C   UNL A   1      33.558  18.817  24.946  1.00  0.00     0.007 C 
ATOM     17  C   UNL A   1      32.452  17.653  23.222  1.00  0.00     0.117 C 
ATOM     18  C   UNL A   1      34.615  17.937  24.280  1.00  0.00     0.003 C 
ATOM     19  C   UNL A   1      33.916  17.230  23.127  1.00  0.00     0.032 C 
BRANCH  17  20
ATOM     20  O   UNL A   1      31.795  17.658  21.973  1.00  0.00    -0.393 OA
ATOM     21  H   UNL A   1      32.430  17.437  21.274  1.00  0.00     0.210 HD
ENDBRANCH  17  20
ENDBRANCH  14  15
ENDBRANCH  13  14
ENDBRANCH   5   7
ENDBRANCH   3   5
ENDBRANCH   2   3
ENDBRANCH   1   2
BRANCH   1  22
ATOM     22  C   UNL A   1      31.552  29.612  25.130  1.00  0.00     0.275 C 
BRANCH  22  23
ATOM     23  O   UNL A   1      32.840  29.774  25.760  1.00  0.00    -0.458 OA
BRANCH  23  24
ATOM     24  C   UNL A   1      32.893  30.701  26.744  1.00  0.00     0.338 C 
ATOM     25  O   UNL A   1      31.962  31.349  27.193  1.00  0.00    -0.246 OA
BRANCH  24  26
ATOM     26  C   UNL A   1      34.237  30.725  27.355  1.00  0.00     0.060 A 
ATOM     27  C   UNL A   1      34.770  29.488  27.694  1.00  0.00     0.016 A 
ATOM     28  C   UNL A   1      34.936  31.892  27.679  1.00  0.00     0.016 A 
ATOM     29  C   UNL A   1      36.003  29.402  28.333  1.00  0.00     0.010 A 
ATOM     30  C   UNL A   1      36.184  31.804  28.333  1.00  0.00     0.010 A 
ATOM     31  C   UNL A   1      36.736  30.554  28.655  1.00  0.00    -0.014 A 
BRANCH  31  32
ATOM     32  C   UNL A   1      38.042  30.361  29.353  1.00  0.00     0.031 A 
ATOM     33  C   UNL A   1      38.145  30.664  30.823  1.00  0.00     0.074 A 
ATOM     34  C   UNL A   1      39.064  29.722  28.746  1.00  0.00     0.049 A 
ATOM     35  N   UNL A   1      39.111  30.386  31.663  1.00  0.00    -0.248 NA
ATOM     36  C   UNL A   1      37.008  31.376  31.427  1.00  0.00     0.031 C 
ATOM     37  C   UNL A   1      39.079  29.293  27.351  1.00  0.00     0.029 A 
ATOM     38  N   UNL A   1      40.230  29.195  29.267  1.00  0.00    -0.354 N 
ATOM     39  C   UNL A   1      38.739  30.966  32.868  1.00  0.00     0.074 A 
ATOM     40  C   UNL A   1      37.413  31.513  32.682  1.00  0.00     0.031 C 
ATOM     41  C   UNL A   1      40.089  28.423  27.174  1.00  0.00     0.029 A 
ATOM     42  C   UNL A   1      40.819  28.269  28.429  1.00  0.00     0.049 A 
ATOM     43  H   UNL A   1      40.601  29.453  30.142  1.00  0.00     0.167 HD
ATOM     44  C   UNL A   1      39.475  31.109  33.997  1.00  0.00     0.037 A 
ATOM     45  C   UNL A   1      41.780  27.353  28.682  1.00  0.00     0.037 A 
ATOM     46  C   UNL A   1      40.803  30.590  34.179  1.00  0.00     0.049 A 
ATOM     47  C   UNL A   1      42.529  27.416  29.990  1.00  0.00     0.074 A 
ATOM     48  C   UNL A   1      41.700  30.831  35.205  1.00  0.00     0.029 A 
ATOM     49  N   UNL A   1      41.421  29.705  33.311  1.00  0.00    -0.354 N 
ATOM     50  N   UNL A   1      42.248  28.089  31.077  1.00  0.00    -0.248 NA
ATOM     51  C   UNL A   1      43.781  26.643  30.067  1.00  0.00     0.031 C 
ATOM     52  C   UNL A   1      42.874  30.114  34.942  1.00  0.00     0.029 A 
ATOM     53  C   UNL A   1      42.688  29.395  33.774  1.00  0.00     0.049 A 
ATOM     54  H   UNL A   1      41.017  29.348  32.487  1.00  0.00     0.167 HD
ATOM     55  C   UNL A   1      43.322  27.878  31.936  1.00  0.00     0.074 A 
ATOM     56  C   UNL A   1      44.203  26.929  31.291  1.00  0.00     0.031 C 
ATOM     57  C   UNL A   1      43.582  28.475  33.123  1.00  0.00     0.037 A 
BRANCH  44  58
ATOM     58  C   UNL A   1      38.913  32.018  35.044  1.00  0.00     0.057 A 
ATOM     59  C   UNL A   1      39.014  33.410  34.976  1.00  0.00     0.134 A 
ATOM     60  C   UNL A   1      38.283  31.462  36.167  1.00  0.00     0.134 A 
ATOM     61  F   UNL A   1      39.632  33.998  33.942  1.00  0.00    -0.206 F 
ATOM     62  C   UNL A   1      38.523  34.220  36.003  1.00  0.00     0.040 A 
ATOM     63  C   UNL A   1      37.773  32.261  37.188  1.00  0.00     0.040 A 
ATOM     64  F   UNL A   1      38.165  30.131  36.291  1.00  0.00    -0.206 F 
ATOM     65  C   UNL A   1      37.899  33.645  37.110  1.00  0.00     0.006 A 
ENDBRANCH  44  58
BRANCH  45  66
ATOM     66  C   UNL A   1      42.103  26.258  27.724  1.00  0.00     0.057 A 
ATOM     67  C   UNL A   1      43.088  26.459  26.742  1.00  0.00     0.134 A 
ATOM     68  C   UNL A   1      41.414  25.043  27.692  1.00  0.00     0.134 A 
ATOM     69  F   UNL A   1      43.769  27.615  26.695  1.00  0.00    -0.206 F 
ATOM     70  C   UNL A   1      43.354  25.508  25.754  1.00  0.00     0.040 A 
ATOM     71  C   UNL A   1      41.695  24.067  26.730  1.00  0.00     0.040 A 
ATOM     72  F   UNL A   1      40.447  24.787  28.584  1.00  0.00    -0.206 F 
ATOM     73  C   UNL A   1      42.658  24.304  25.751  1.00  0.00     0.006 A 
ENDBRANCH  45  66
BRANCH  57  74
ATOM     74  C   UNL A   1      44.916  28.204  33.755  1.00  0.00     0.057 A 
ATOM     75  C   UNL A   1      45.080  27.144  34.658  1.00  0.00     0.134 A 
ATOM     76  C   UNL A   1      46.049  28.954  33.427  1.00  0.00     0.134 A 
ATOM     77  F   UNL A   1      44.030  26.389  35.019  1.00  0.00    -0.206 F 
ATOM     78  C   UNL A   1      46.319  26.851  35.227  1.00  0.00     0.040 A 
ATOM     79  C   UNL A   1      47.301  28.658  33.974  1.00  0.00     0.040 A 
ATOM     80  F   UNL A   1      45.965  29.976  32.563  1.00  0.00    -0.206 F 
ATOM     81  C   UNL A   1      47.437  27.607  34.880  1.00  0.00     0.006 A 
ENDBRANCH  57  74
ENDBRANCH  31  32
ENDBRANCH  24  26
ENDBRANCH  23  24
ENDBRANCH  22  23
ENDBRANCH   1  22
TORSDOF 15
ENDMDL
MODEL 3
REMARK VINA RESULT:     -11.0      1.031      2.067
REMARK SMILES C[C@@H](C(=O)OCCOC(=O)c1ccc(-c2c3nc(c(-c4c(F)cccc4F)c4ccc([nH]4)c(-c4c(F)cccc4F)c4nc(c(-c5c(F)cccc5F)c5ccc2[nH]5)C=C4)C=C3)cc1)c1ccc(C[C@@H]2CCC[C@@H]2O)cc1Br
REMARK SMILES IDX 6 1 5 2 3 3 4 4 2 5 1 6 65 7 66 8 77 9 67 10 76 11 78 12
REMARK SMILES IDX 68 13 69 14 70 15 71 16 74 17 72 18 73 19 75 20 7 22 8 23
REMARK SMILES IDX 9 24 10 25 11 26 12 27 64 28 13 29 63 30 14 31 15 32 16 33
REMARK SMILES IDX 57 34 17 35 62 36 56 37 58 38 18 39 61 40 55 41 54 42 19 44
REMARK SMILES IDX 45 45 28 46 44 47 29 48 32 49 43 50 59 51 30 52 31 53 42 55
REMARK SMILES IDX 60 56 33 57 20 58 21 59 26 60 22 61 23 62 25 63 27 64 24 65
REMARK SMILES IDX 46 66 47 67 52 68 48 69 49 70 51 71 53 72 50 73 34 74 35 75
REMARK SMILES IDX 40 76 36 77 37 78 39 79 41 80 38 81
REMARK H PARENT 75 21 58 43 32 54
REMARK Flexibility Score: inf
ROOT
ATOM      1  C   UNL A   1      33.703  29.455  25.619  1.00  0.00     0.274 C 
ENDROOT
BRANCH   1   2
ATOM      2  O   UNL A   1      32.439  29.315  24.938  1.00  0.00    -0.462 OA
BRANCH   2   3
ATOM      3  C   UNL A   1      32.463  28.612  23.770  1.00  0.00     0.313 C 
ATOM      4  O   UNL A   1      33.013  29.015  22.751  1.00  0.00    -0.252 OA
BRANCH   3   5
ATOM      5  C   UNL A   1      31.646  27.307  23.871  1.00  0.00     0.127 C 
ATOM      6  C   UNL A   1      30.557  27.394  24.943  1.00  0.00     0.025 C 
BRANCH   5   7
ATOM      7  C   UNL A   1      32.600  26.122  24.051  1.00  0.00    -0.020 A 
ATOM      8  C   UNL A   1      33.154  25.847  25.315  1.00  0.00     0.006 A 
ATOM      9  C   UNL A   1      33.103  25.402  22.955  1.00  0.00     0.022 A 
ATOM     10  C   UNL A   1      34.280  25.026  25.450  1.00  0.00     0.004 A 
ATOM     11  C   UNL A   1      34.193  24.539  23.108  1.00  0.00     0.019 A 
ATOM     12  Br  UNL A   1      32.430  25.595  21.186  1.00  0.00    -0.050 Br
ATOM     13  C   UNL A   1      34.854  24.422  24.332  1.00  0.00    -0.047 A 
BRANCH  13  14
ATOM     14  C   UNL A   1      36.163  23.676  24.417  1.00  0.00     0.041 C 
BRANCH  14  15
ATOM     15  C   UNL A   1      36.401  22.738  25.624  1.00  0.00     0.022 C 
ATOM     16  C   UNL A   1      37.865  22.433  25.908  1.00  0.00     0.007 C 
ATOM     17  C   UNL A   1      35.801  21.329  25.642  1.00  0.00     0.117 C 
ATOM     18  C   UNL A   1      38.180  21.100  25.231  1.00  0.00     0.003 C 
ATOM     19  C   UNL A   1      36.841  20.412  25.004  1.00  0.00     0.032 C 
BRANCH  17  20
ATOM     20  O   UNL A   1      34.534  21.243  25.027  1.00  0.00    -0.393 OA
ATOM     21  H   UNL A   1      34.614  21.479  24.090  1.00  0.00     0.210 HD
ENDBRANCH  17  20
ENDBRANCH  14  15
ENDBRANCH  13  14
ENDBRANCH   5   7
ENDBRANCH   3   5
ENDBRANCH   2   3
ENDBRANCH   1   2
BRANCH   1  22
ATOM     22  C   UNL A   1      33.538  29.602  27.135  1.00  0.00     0.275 C 
BRANCH  22  23
ATOM     23  O   UNL A   1      34.719  29.191  27.852  1.00  0.00    -0.458 OA
BRANCH  23  24
ATOM     24  C   UNL A   1      35.445  30.192  28.402  1.00  0.00     0.338 C 
ATOM     25  O   UNL A   1      35.022  31.252  28.834  1.00  0.00    -0.246 OA
BRANCH  24  26
ATOM     26  C   UNL A   1      36.849  29.774  28.579  1.00  0.00     0.060 A 
ATOM     27  C   UNL A   1      37.643  29.820  27.440  1.00  0.00     0.016 A 
ATOM     28  C   UNL A   1      37.378  29.268  29.770  1.00  0.00     0.016 A 
ATOM     29  C   UNL A   1      38.963  29.387  27.482  1.00  0.00     0.010 A 
ATOM     30  C   UNL A   1      38.718  28.824  29.811  1.00  0.00     0.010 A 
ATOM     31  C   UNL A   1      39.528  28.892  28.667  1.00  0.00    -0.014 A 
BRANCH  31  32
ATOM     32  C   UNL A   1      40.950  28.438  28.610  1.00  0.00     0.031 A 
ATOM     33  C   UNL A   1      41.268  27.074  28.061  1.00  0.00     0.074 A 
ATOM     34  C   UNL A   1      41.962  29.301  28.838  1.00  0.00     0.049 A 
ATOM     35  N   UNL A   1      42.427  26.558  27.738  1.00  0.00    -0.248 NA
ATOM     36  C   UNL A   1      40.127  26.170  27.847  1.00  0.00     0.031 C 
ATOM     37  C   UNL A   1      41.807  30.679  29.294  1.00  0.00     0.029 A 
ATOM     38  N   UNL A   1      43.314  29.189  28.578  1.00  0.00    -0.354 N 
ATOM     39  C   UNL A   1      42.166  25.245  27.370  1.00  0.00     0.074 A 
ATOM     40  C   UNL A   1      40.728  25.077  27.402  1.00  0.00     0.031 C 
ATOM     41  C   UNL A   1      42.967  31.333  29.106  1.00  0.00     0.029 A 
ATOM     42  C   UNL A   1      43.959  30.410  28.561  1.00  0.00     0.049 A 
ATOM     43  H   UNL A   1      43.769  28.329  28.421  1.00  0.00     0.167 HD
ATOM     44  C   UNL A   1      43.048  24.248  27.120  1.00  0.00     0.037 A 
ATOM     45  C   UNL A   1      45.178  30.744  28.084  1.00  0.00     0.037 A 
ATOM     46  C   UNL A   1      44.477  24.403  27.112  1.00  0.00     0.049 A 
ATOM     47  C   UNL A   1      46.134  29.650  27.679  1.00  0.00     0.074 A 
ATOM     48  C   UNL A   1      45.459  23.429  27.050  1.00  0.00     0.029 A 
ATOM     49  N   UNL A   1      45.130  25.623  27.153  1.00  0.00    -0.354 N 
ATOM     50  N   UNL A   1      45.904  28.377  27.478  1.00  0.00    -0.248 NA
ATOM     51  C   UNL A   1      47.545  30.041  27.511  1.00  0.00     0.031 C 
ATOM     52  C   UNL A   1      46.709  24.061  27.084  1.00  0.00     0.029 A 
ATOM     53  C   UNL A   1      46.500  25.428  27.124  1.00  0.00     0.049 A 
ATOM     54  H   UNL A   1      44.685  26.500  27.195  1.00  0.00     0.167 HD
ATOM     55  C   UNL A   1      47.148  27.806  27.235  1.00  0.00     0.074 A 
ATOM     56  C   UNL A   1      48.113  28.883  27.201  1.00  0.00     0.031 C 
ATOM     57  C   UNL A   1      47.467  26.494  27.120  1.00  0.00     0.037 A 
BRANCH  44  58
ATOM     58  C   UNL A   1      42.478  22.868  27.017  1.00  0.00     0.057 A 
ATOM     59  C   UNL A   1      42.100  22.117  28.133  1.00  0.00     0.134 A 
ATOM     60  C   UNL A   1      42.342  22.276  25.754  1.00  0.00     0.134 A 
ATOM     61  F   UNL A   1      42.235  22.619  29.369  1.00  0.00    -0.206 F 
ATOM     62  C   UNL A   1      41.622  20.811  27.996  1.00  0.00     0.040 A 
ATOM     63  C   UNL A   1      41.849  20.981  25.603  1.00  0.00     0.040 A 
ATOM     64  F   UNL A   1      42.696  22.946  24.646  1.00  0.00    -0.206 F 
ATOM     65  C   UNL A   1      41.494  20.242  26.729  1.00  0.00     0.006 A 
ENDBRANCH  44  58
BRANCH  45  66
ATOM     66  C   UNL A   1      45.599  32.163  27.910  1.00  0.00     0.057 A 
ATOM     67  C   UNL A   1      46.236  32.835  28.967  1.00  0.00     0.134 A 
ATOM     68  C   UNL A   1      45.321  32.908  26.761  1.00  0.00     0.134 A 
ATOM     69  F   UNL A   1      46.508  32.189  30.112  1.00  0.00    -0.206 F 
ATOM     70  C   UNL A   1      46.555  34.193  28.897  1.00  0.00     0.040 A 
ATOM     71  C   UNL A   1      45.666  34.260  26.664  1.00  0.00     0.040 A 
ATOM     72  F   UNL A   1      44.696  32.342  25.719  1.00  0.00    -0.206 F 
ATOM     73  C   UNL A   1      46.272  34.909  27.737  1.00  0.00     0.006 A 
ENDBRANCH  45  66
BRANCH  57  74
ATOM     74  C   UNL A   1      48.923  26.140  27.050  1.00  0.00     0.057 A 
ATOM     75  C   UNL A   1      49.577  26.031  25.815  1.00  0.00     0.134 A 
ATOM     76  C   UNL A   1      49.690  25.964  28.206  1.00  0.00     0.134 A 
ATOM     77  F   UNL A   1      48.896  26.183  24.669  1.00  0.00    -0.206 F 
ATOM     78  C   UNL A   1      50.939  25.740  25.730  1.00  0.00     0.040 A 
ATOM     79  C   UNL A   1      51.060  25.692  28.135  1.00  0.00     0.040 A 
ATOM     80  F   UNL A   1      49.130  26.063  29.420  1.00  0.00    -0.206 F 
ATOM     81  C   UNL A   1      51.686  25.576  26.895  1.00  0.00     0.006 A 
ENDBRANCH  57  74
ENDBRANCH  31  32
ENDBRANCH  24  26
ENDBRANCH  23  24
ENDBRANCH  22  23
ENDBRANCH   1  22
TORSDOF 15
ENDMDL
