MODEL 1
REMARK VINA RESULT:     -11.3      0.000      0.000
REMARK SMILES CCC(CC)(NC(=O)c1ccc(NC(C)=O)cc1)C(=O)OCCOC(=O)c1ccc(-c2c3nc(c(-c4c(F)cccc4F)c4ccc([nH]4)c(-c4c(F)cccc4F)c4nc(c(-c5c(F)cccc5F)c5ccc2[nH]5)C=C4)C=C3)cc1
REMARK SMILES IDX 22 1 21 2 19 3 20 4 3 5 2 6 1 7 4 8 5 9 6 10 7 11 8 13 9 14
REMARK SMILES IDX 10 15 18 16 11 17 17 18 12 19 13 20 14 21 15 23 16 24 23 25
REMARK SMILES IDX 24 26 25 27 26 28 27 29 28 30 80 31 29 32 79 33 30 34 31 35
REMARK SMILES IDX 32 36 73 37 33 38 78 39 72 40 74 41 34 42 77 43 71 44 70 45
REMARK SMILES IDX 35 47 61 48 44 49 60 50 45 51 48 52 59 53 75 54 46 55 47 56
REMARK SMILES IDX 58 58 76 59 49 60 36 61 37 62 42 63 38 64 39 65 41 66 43 67
REMARK SMILES IDX 40 68 62 69 63 70 68 71 64 72 65 73 67 74 69 75 66 76 50 77
REMARK SMILES IDX 51 78 56 79 52 80 53 81 55 82 57 83 54 84
REMARK H PARENT 6 12 13 22 74 46 48 57
REMARK Flexibility Score: inf
ROOT
ATOM      1  C   UNL A   1      31.302  29.265  24.788  1.00  0.00     0.274 C 
ENDROOT
BRANCH   1   2
ATOM      2  O   UNL A   1      31.078  28.055  25.551  1.00  0.00    -0.460 OA
BRANCH   2   3
ATOM      3  C   UNL A   1      30.560  27.005  24.876  1.00  0.00     0.331 C 
ATOM      4  O   UNL A   1      29.559  27.103  24.170  1.00  0.00    -0.249 OA
BRANCH   3   5
ATOM      5  C   UNL A   1      31.242  25.630  25.181  1.00  0.00     0.137 C 
BRANCH   5   6
ATOM      6  C   UNL A   1      32.456  25.912  26.144  1.00  0.00     0.037 C 
ATOM      7  C   UNL A   1      33.879  25.732  25.627  1.00  0.00     0.007 C 
ENDBRANCH   5   6
BRANCH   5   8
ATOM      8  C   UNL A   1      31.713  25.116  23.786  1.00  0.00     0.037 C 
ATOM      9  C   UNL A   1      30.808  24.095  23.106  1.00  0.00     0.007 C 
ENDBRANCH   5   8
BRANCH   5  10
ATOM     10  N   UNL A   1      30.521  24.508  25.891  1.00  0.00    -0.336 N 
ATOM     11  C   UNL A   1      30.826  23.466  26.720  1.00  0.00     0.252 C 
ATOM     12  H   UNL A   1      29.555  24.536  25.700  1.00  0.00     0.165 HD
ATOM     13  O   UNL A   1      30.025  23.164  27.603  1.00  0.00    -0.269 OA
BRANCH  11  14
ATOM     14  C   UNL A   1      31.925  22.535  26.451  1.00  0.00     0.039 A 
ATOM     15  C   UNL A   1      31.777  21.652  25.376  1.00  0.00     0.016 A 
ATOM     16  C   UNL A   1      33.034  22.437  27.285  1.00  0.00     0.016 A 
ATOM     17  C   UNL A   1      32.802  20.758  25.053  1.00  0.00     0.027 A 
ATOM     18  C   UNL A   1      34.065  21.547  26.949  1.00  0.00     0.027 A 
ATOM     19  C   UNL A   1      33.984  20.749  25.795  1.00  0.00     0.041 A 
BRANCH  19  20
ATOM     20  N   UNL A   1      35.163  20.095  25.372  1.00  0.00    -0.326 N 
ATOM     21  C   UNL A   1      36.336  20.695  24.938  1.00  0.00     0.221 C 
ATOM     22  H   UNL A   1      35.150  19.111  25.385  1.00  0.00     0.169 HD
ATOM     23  C   UNL A   1      37.517  19.756  24.986  1.00  0.00     0.114 C 
ATOM     24  O   UNL A   1      36.480  21.851  24.558  1.00  0.00    -0.275 OA
ENDBRANCH  19  20
ENDBRANCH  11  14
ENDBRANCH   5  10
ENDBRANCH   3   5
ENDBRANCH   2   3
ENDBRANCH   1   2
BRANCH   1  25
ATOM     25  C   UNL A   1      31.477  30.452  25.723  1.00  0.00     0.275 C 
BRANCH  25  26
ATOM     26  O   UNL A   1      32.839  30.479  26.159  1.00  0.00    -0.458 OA
BRANCH  26  27
ATOM     27  C   UNL A   1      33.164  31.483  27.005  1.00  0.00     0.338 C 
ATOM     28  O   UNL A   1      32.559  32.508  27.244  1.00  0.00    -0.246 OA
BRANCH  27  29
ATOM     29  C   UNL A   1      34.439  31.134  27.630  1.00  0.00     0.060 A 
ATOM     30  C   UNL A   1      35.353  32.145  27.921  1.00  0.00     0.016 A 
ATOM     31  C   UNL A   1      34.725  29.802  27.911  1.00  0.00     0.016 A 
ATOM     32  C   UNL A   1      36.577  31.828  28.488  1.00  0.00     0.010 A 
ATOM     33  C   UNL A   1      35.913  29.494  28.567  1.00  0.00     0.010 A 
ATOM     34  C   UNL A   1      36.841  30.506  28.868  1.00  0.00    -0.014 A 
BRANCH  34  35
ATOM     35  C   UNL A   1      38.058  30.195  29.649  1.00  0.00     0.031 A 
ATOM     36  C   UNL A   1      39.125  29.320  29.067  1.00  0.00     0.074 A 
ATOM     37  C   UNL A   1      38.171  30.688  30.898  1.00  0.00     0.049 A 
ATOM     38  N   UNL A   1      40.161  28.785  29.655  1.00  0.00    -0.248 NA
ATOM     39  C   UNL A   1      39.003  28.991  27.637  1.00  0.00     0.031 C 
ATOM     40  C   UNL A   1      37.199  31.572  31.550  1.00  0.00     0.029 A 
ATOM     41  N   UNL A   1      39.150  30.523  31.841  1.00  0.00    -0.354 N 
ATOM     42  C   UNL A   1      40.794  28.023  28.682  1.00  0.00     0.074 A 
ATOM     43  C   UNL A   1      40.025  28.165  27.463  1.00  0.00     0.031 C 
ATOM     44  C   UNL A   1      37.647  31.896  32.771  1.00  0.00     0.029 A 
ATOM     45  C   UNL A   1      38.888  31.178  33.020  1.00  0.00     0.049 A 
ATOM     46  H   UNL A   1      39.961  29.986  31.689  1.00  0.00     0.167 HD
ATOM     47  C   UNL A   1      41.912  27.270  28.807  1.00  0.00     0.037 A 
ATOM     48  C   UNL A   1      39.554  31.165  34.189  1.00  0.00     0.037 A 
ATOM     49  C   UNL A   1      42.669  27.156  30.026  1.00  0.00     0.049 A 
ATOM     50  C   UNL A   1      40.779  30.307  34.302  1.00  0.00     0.074 A 
ATOM     51  C   UNL A   1      43.800  26.400  30.276  1.00  0.00     0.029 A 
ATOM     52  N   UNL A   1      42.372  27.835  31.200  1.00  0.00    -0.354 N 
ATOM     53  N   UNL A   1      41.337  29.543  33.394  1.00  0.00    -0.248 NA
ATOM     54  C   UNL A   1      41.454  30.290  35.605  1.00  0.00     0.031 C 
ATOM     55  C   UNL A   1      44.175  26.605  31.609  1.00  0.00     0.029 A 
ATOM     56  C   UNL A   1      43.297  27.514  32.179  1.00  0.00     0.049 A 
ATOM     57  H   UNL A   1      41.616  28.453  31.319  1.00  0.00     0.167 HD
ATOM     58  C   UNL A   1      42.427  28.953  34.012  1.00  0.00     0.074 A 
ATOM     59  C   UNL A   1      42.470  29.473  35.365  1.00  0.00     0.031 C 
ATOM     60  C   UNL A   1      43.307  28.049  33.516  1.00  0.00     0.037 A 
BRANCH  47  61
ATOM     61  C   UNL A   1      42.354  26.488  27.607  1.00  0.00     0.057 A 
ATOM     62  C   UNL A   1      43.210  27.033  26.641  1.00  0.00     0.134 A 
ATOM     63  C   UNL A   1      41.931  25.165  27.424  1.00  0.00     0.134 A 
ATOM     64  F   UNL A   1      43.634  28.300  26.748  1.00  0.00    -0.206 F 
ATOM     65  C   UNL A   1      43.616  26.294  25.527  1.00  0.00     0.040 A 
ATOM     66  C   UNL A   1      42.348  24.410  26.325  1.00  0.00     0.040 A 
ATOM     67  F   UNL A   1      41.111  24.583  28.311  1.00  0.00    -0.206 F 
ATOM     68  C   UNL A   1      43.189  24.977  25.370  1.00  0.00     0.006 A 
ENDBRANCH  47  61
BRANCH  48  69
ATOM     69  C   UNL A   1      39.052  31.952  35.342  1.00  0.00     0.057 A 
ATOM     70  C   UNL A   1      38.247  31.365  36.323  1.00  0.00     0.134 A 
ATOM     71  C   UNL A   1      39.377  33.306  35.499  1.00  0.00     0.134 A 
ATOM     72  F   UNL A   1      37.888  30.077  36.219  1.00  0.00    -0.206 F 
ATOM     73  C   UNL A   1      37.773  32.097  37.413  1.00  0.00     0.040 A 
ATOM     74  C   UNL A   1      38.932  34.042  36.599  1.00  0.00     0.040 A 
ATOM     75  F   UNL A   1      40.151  33.927  34.598  1.00  0.00    -0.206 F 
ATOM     76  C   UNL A   1      38.122  33.438  37.557  1.00  0.00     0.006 A 
ENDBRANCH  48  69
BRANCH  60  77
ATOM     77  C   UNL A   1      44.387  27.593  34.447  1.00  0.00     0.057 A 
ATOM     78  C   UNL A   1      45.611  28.267  34.532  1.00  0.00     0.134 A 
ATOM     79  C   UNL A   1      44.197  26.474  35.266  1.00  0.00     0.134 A 
ATOM     80  F   UNL A   1      45.856  29.334  33.757  1.00  0.00    -0.206 F 
ATOM     81  C   UNL A   1      46.623  27.826  35.386  1.00  0.00     0.040 A 
ATOM     82  C   UNL A   1      45.194  26.038  36.139  1.00  0.00     0.040 A 
ATOM     83  F   UNL A   1      43.044  25.791  35.230  1.00  0.00    -0.206 F 
ATOM     84  C   UNL A   1      46.413  26.711  36.194  1.00  0.00     0.006 A 
ENDBRANCH  60  77
ENDBRANCH  34  35
ENDBRANCH  27  29
ENDBRANCH  26  27
ENDBRANCH  25  26
ENDBRANCH   1  25
TORSDOF 16
ENDMDL
MODEL 2
REMARK VINA RESULT:     -11.1      3.917      9.104
REMARK SMILES CCC(CC)(NC(=O)c1ccc(NC(C)=O)cc1)C(=O)OCCOC(=O)c1ccc(-c2c3nc(c(-c4c(F)cccc4F)c4ccc([nH]4)c(-c4c(F)cccc4F)c4nc(c(-c5c(F)cccc5F)c5ccc2[nH]5)C=C4)C=C3)cc1
REMARK SMILES IDX 22 1 21 2 19 3 20 4 3 5 2 6 1 7 4 8 5 9 6 10 7 11 8 13 9 14
REMARK SMILES IDX 10 15 18 16 11 17 17 18 12 19 13 20 14 21 15 23 16 24 23 25
REMARK SMILES IDX 24 26 25 27 26 28 27 29 28 30 80 31 29 32 79 33 30 34 31 35
REMARK SMILES IDX 32 36 73 37 33 38 78 39 72 40 74 41 34 42 77 43 71 44 70 45
REMARK SMILES IDX 35 47 61 48 44 49 60 50 45 51 48 52 59 53 75 54 46 55 47 56
REMARK SMILES IDX 58 58 76 59 49 60 36 61 37 62 42 63 38 64 39 65 41 66 43 67
REMARK SMILES IDX 40 68 62 69 63 70 68 71 64 72 65 73 67 74 69 75 66 76 50 77
REMARK SMILES IDX 51 78 56 79 52 80 53 81 55 82 57 83 54 84
REMARK H PARENT 6 12 13 22 74 46 48 57
REMARK Flexibility Score: inf
ROOT
ATOM      1  C   UNL A   1      36.637  22.634  23.915  1.00  0.00     0.274 C 
ENDROOT
BRANCH   1   2
ATOM      2  O   UNL A   1      35.230  22.433  23.638  1.00  0.00    -0.460 OA
BRANCH   2   3
ATOM      3  C   UNL A   1      34.365  22.825  24.598  1.00  0.00     0.331 C 
ATOM      4  O   UNL A   1      34.182  22.177  25.626  1.00  0.00    -0.249 OA
BRANCH   3   5
ATOM      5  C   UNL A   1      33.507  24.082  24.233  1.00  0.00     0.137 C 
BRANCH   5   6
ATOM      6  C   UNL A   1      34.330  25.352  24.668  1.00  0.00     0.037 C 
ATOM      7  C   UNL A   1      33.770  26.274  25.746  1.00  0.00     0.007 C 
ENDBRANCH   5   6
BRANCH   5   8
ATOM      8  C   UNL A   1      32.204  23.916  25.074  1.00  0.00     0.037 C 
ATOM      9  C   UNL A   1      31.022  23.269  24.360  1.00  0.00     0.007 C 
ENDBRANCH   5   8
BRANCH   5  10
ATOM     10  N   UNL A   1      33.124  24.416  22.810  1.00  0.00    -0.336 N 
ATOM     11  C   UNL A   1      32.942  25.529  22.040  1.00  0.00     0.252 C 
ATOM     12  H   UNL A   1      32.959  23.597  22.290  1.00  0.00     0.165 HD
ATOM     13  O   UNL A   1      33.273  25.486  20.856  1.00  0.00    -0.269 OA
BRANCH  11  14
ATOM     14  C   UNL A   1      32.143  26.676  22.482  1.00  0.00     0.039 A 
ATOM     15  C   UNL A   1      32.784  27.916  22.568  1.00  0.00     0.016 A 
ATOM     16  C   UNL A   1      30.827  26.540  22.912  1.00  0.00     0.016 A 
ATOM     17  C   UNL A   1      32.068  29.052  22.958  1.00  0.00     0.027 A 
ATOM     18  C   UNL A   1      30.110  27.685  23.290  1.00  0.00     0.027 A 
ATOM     19  C   UNL A   1      30.708  28.957  23.254  1.00  0.00     0.041 A 
BRANCH  19  20
ATOM     20  N   UNL A   1      29.857  30.079  23.374  1.00  0.00    -0.326 N 
ATOM     21  C   UNL A   1      28.941  30.531  22.435  1.00  0.00     0.221 C 
ATOM     22  H   UNL A   1      29.923  30.594  24.210  1.00  0.00     0.169 HD
ATOM     23  C   UNL A   1      27.908  31.454  23.036  1.00  0.00     0.114 C 
ATOM     24  O   UNL A   1      28.900  30.249  21.244  1.00  0.00    -0.275 OA
ENDBRANCH  19  20
ENDBRANCH  11  14
ENDBRANCH   5  10
ENDBRANCH   3   5
ENDBRANCH   2   3
ENDBRANCH   1   2
BRANCH   1  25
ATOM     25  C   UNL A   1      37.238  21.378  24.527  1.00  0.00     0.275 C 
BRANCH  25  26
ATOM     26  O   UNL A   1      37.699  21.699  25.843  1.00  0.00    -0.458 OA
BRANCH  26  27
ATOM     27  C   UNL A   1      39.006  21.451  26.083  1.00  0.00     0.338 C 
ATOM     28  O   UNL A   1      39.630  20.421  25.928  1.00  0.00    -0.246 OA
BRANCH  27  29
ATOM     29  C   UNL A   1      39.600  22.685  26.595  1.00  0.00     0.060 A 
ATOM     30  C   UNL A   1      40.621  22.607  27.541  1.00  0.00     0.016 A 
ATOM     31  C   UNL A   1      39.129  23.913  26.144  1.00  0.00     0.016 A 
ATOM     32  C   UNL A   1      41.175  23.768  28.056  1.00  0.00     0.010 A 
ATOM     33  C   UNL A   1      39.750  25.077  26.590  1.00  0.00     0.010 A 
ATOM     34  C   UNL A   1      40.782  25.009  27.542  1.00  0.00    -0.014 A 
BRANCH  34  35
ATOM     35  C   UNL A   1      41.507  26.235  27.945  1.00  0.00     0.031 A 
ATOM     36  C   UNL A   1      40.818  27.284  28.761  1.00  0.00     0.074 A 
ATOM     37  C   UNL A   1      42.781  26.398  27.539  1.00  0.00     0.049 A 
ATOM     38  N   UNL A   1      41.216  28.494  29.050  1.00  0.00    -0.248 NA
ATOM     39  C   UNL A   1      39.501  26.931  29.316  1.00  0.00     0.031 C 
ATOM     40  C   UNL A   1      43.553  25.423  26.760  1.00  0.00     0.029 A 
ATOM     41  N   UNL A   1      43.654  27.436  27.725  1.00  0.00    -0.354 N 
ATOM     42  C   UNL A   1      40.185  29.064  29.784  1.00  0.00     0.074 A 
ATOM     43  C   UNL A   1      39.141  28.067  29.898  1.00  0.00     0.031 C 
ATOM     44  C   UNL A   1      44.792  25.896  26.566  1.00  0.00     0.029 A 
ATOM     45  C   UNL A   1      44.875  27.236  27.127  1.00  0.00     0.049 A 
ATOM     46  H   UNL A   1      43.429  28.247  28.236  1.00  0.00     0.167 HD
ATOM     47  C   UNL A   1      40.120  30.312  30.304  1.00  0.00     0.037 A 
ATOM     48  C   UNL A   1      45.930  28.062  27.007  1.00  0.00     0.037 A 
ATOM     49  C   UNL A   1      41.178  31.282  30.192  1.00  0.00     0.049 A 
ATOM     50  C   UNL A   1      45.823  29.444  27.578  1.00  0.00     0.074 A 
ATOM     51  C   UNL A   1      41.211  32.586  30.654  1.00  0.00     0.029 A 
ATOM     52  N   UNL A   1      42.399  31.043  29.578  1.00  0.00    -0.354 N 
ATOM     53  N   UNL A   1      44.820  29.995  28.219  1.00  0.00    -0.248 NA
ATOM     54  C   UNL A   1      46.981  30.327  27.392  1.00  0.00     0.031 C 
ATOM     55  C   UNL A   1      42.446  33.142  30.301  1.00  0.00     0.029 A 
ATOM     56  C   UNL A   1      43.194  32.175  29.648  1.00  0.00     0.049 A 
ATOM     57  H   UNL A   1      42.663  30.195  29.155  1.00  0.00     0.167 HD
ATOM     58  C   UNL A   1      45.222  31.288  28.513  1.00  0.00     0.074 A 
ATOM     59  C   UNL A   1      46.574  31.429  28.007  1.00  0.00     0.031 C 
ATOM     60  C   UNL A   1      44.534  32.279  29.130  1.00  0.00     0.037 A 
BRANCH  47  61
ATOM     61  C   UNL A   1      38.854  30.702  31.007  1.00  0.00     0.057 A 
ATOM     62  C   UNL A   1      37.787  31.305  30.329  1.00  0.00     0.134 A 
ATOM     63  C   UNL A   1      38.695  30.456  32.376  1.00  0.00     0.134 A 
ATOM     64  F   UNL A   1      37.884  31.586  29.022  1.00  0.00    -0.206 F 
ATOM     65  C   UNL A   1      36.611  31.663  30.994  1.00  0.00     0.040 A 
ATOM     66  C   UNL A   1      37.517  30.790  33.047  1.00  0.00     0.040 A 
ATOM     67  F   UNL A   1      39.680  29.881  33.084  1.00  0.00    -0.206 F 
ATOM     68  C   UNL A   1      36.472  31.401  32.356  1.00  0.00     0.006 A 
ENDBRANCH  47  61
BRANCH  48  69
ATOM     69  C   UNL A   1      47.148  27.616  26.285  1.00  0.00     0.057 A 
ATOM     70  C   UNL A   1      48.241  27.080  26.974  1.00  0.00     0.134 A 
ATOM     71  C   UNL A   1      47.243  27.702  24.891  1.00  0.00     0.134 A 
ATOM     72  F   UNL A   1      48.217  26.988  28.312  1.00  0.00    -0.206 F 
ATOM     73  C   UNL A   1      49.390  26.655  26.304  1.00  0.00     0.040 A 
ATOM     74  C   UNL A   1      48.375  27.255  24.205  1.00  0.00     0.040 A 
ATOM     75  F   UNL A   1      46.227  28.199  24.170  1.00  0.00    -0.206 F 
ATOM     76  C   UNL A   1      49.455  26.735  24.914  1.00  0.00     0.006 A 
ENDBRANCH  48  69
BRANCH  60  77
ATOM     77  C   UNL A   1      45.252  33.583  29.297  1.00  0.00     0.057 A 
ATOM     78  C   UNL A   1      45.162  34.595  28.333  1.00  0.00     0.134 A 
ATOM     79  C   UNL A   1      46.033  33.827  30.432  1.00  0.00     0.134 A 
ATOM     80  F   UNL A   1      44.442  34.409  27.216  1.00  0.00    -0.206 F 
ATOM     81  C   UNL A   1      45.849  35.800  28.482  1.00  0.00     0.040 A 
ATOM     82  C   UNL A   1      46.707  35.036  30.601  1.00  0.00     0.040 A 
ATOM     83  F   UNL A   1      46.153  32.895  31.389  1.00  0.00    -0.206 F 
ATOM     84  C   UNL A   1      46.620  36.023  29.621  1.00  0.00     0.006 A 
ENDBRANCH  60  77
ENDBRANCH  34  35
ENDBRANCH  27  29
ENDBRANCH  26  27
ENDBRANCH  25  26
ENDBRANCH   1  25
TORSDOF 16
ENDMDL
MODEL 3
REMARK VINA RESULT:     -10.9      3.904      9.159
REMARK SMILES CCC(CC)(NC(=O)c1ccc(NC(C)=O)cc1)C(=O)OCCOC(=O)c1ccc(-c2c3nc(c(-c4c(F)cccc4F)c4ccc([nH]4)c(-c4c(F)cccc4F)c4nc(c(-c5c(F)cccc5F)c5ccc2[nH]5)C=C4)C=C3)cc1
REMARK SMILES IDX 22 1 21 2 19 3 20 4 3 5 2 6 1 7 4 8 5 9 6 10 7 11 8 13 9 14
REMARK SMILES IDX 10 15 18 16 11 17 17 18 12 19 13 20 14 21 15 23 16 24 23 25
REMARK SMILES IDX 24 26 25 27 26 28 27 29 28 30 80 31 29 32 79 33 30 34 31 35
REMARK SMILES IDX 32 36 73 37 33 38 78 39 72 40 74 41 34 42 77 43 71 44 70 45
REMARK SMILES IDX 35 47 61 48 44 49 60 50 45 51 48 52 59 53 75 54 46 55 47 56
REMARK SMILES IDX 58 58 76 59 49 60 36 61 37 62 42 63 38 64 39 65 41 66 43 67
REMARK SMILES IDX 40 68 62 69 63 70 68 71 64 72 65 73 67 74 69 75 66 76 50 77
REMARK SMILES IDX 51 78 56 79 52 80 53 81 55 82 57 83 54 84
REMARK H PARENT 6 12 13 22 74 46 48 57
REMARK Flexibility Score: inf
ROOT
ATOM      1  C   UNL A   1      35.588  20.769  25.195  1.00  0.00     0.274 C 
ENDROOT
BRANCH   1   2
ATOM      2  O   UNL A   1      35.001  22.089  25.111  1.00  0.00    -0.460 OA
BRANCH   2   3
ATOM      3  C   UNL A   1      33.911  22.214  24.323  1.00  0.00     0.331 C 
ATOM      4  O   UNL A   1      33.419  21.262  23.721  1.00  0.00    -0.249 OA
BRANCH   3   5
ATOM      5  C   UNL A   1      33.416  23.684  24.117  1.00  0.00     0.137 C 
BRANCH   5   6
ATOM      6  C   UNL A   1      34.599  24.639  24.531  1.00  0.00     0.037 C 
ATOM      7  C   UNL A   1      34.404  25.613  25.687  1.00  0.00     0.007 C 
ENDBRANCH   5   6
BRANCH   5   8
ATOM      8  C   UNL A   1      32.196  23.819  25.078  1.00  0.00     0.037 C 
ATOM      9  C   UNL A   1      30.835  23.464  24.489  1.00  0.00     0.007 C 
ENDBRANCH   5   8
BRANCH   5  10
ATOM     10  N   UNL A   1      33.025  24.224  22.761  1.00  0.00    -0.336 N 
ATOM     11  C   UNL A   1      33.065  25.413  22.088  1.00  0.00     0.252 C 
ATOM     12  H   UNL A   1      32.627  23.518  22.203  1.00  0.00     0.165 HD
ATOM     13  O   UNL A   1      33.289  25.397  20.879  1.00  0.00    -0.269 OA
BRANCH  11  14
ATOM     14  C   UNL A   1      32.605  26.673  22.679  1.00  0.00     0.039 A 
ATOM     15  C   UNL A   1      31.255  26.766  23.034  1.00  0.00     0.016 A 
ATOM     16  C   UNL A   1      33.432  27.786  22.787  1.00  0.00     0.016 A 
ATOM     17  C   UNL A   1      30.762  27.933  23.626  1.00  0.00     0.027 A 
ATOM     18  C   UNL A   1      32.935  28.950  23.393  1.00  0.00     0.027 A 
ATOM     19  C   UNL A   1      31.616  29.008  23.874  1.00  0.00     0.041 A 
BRANCH  19  20
ATOM     20  N   UNL A   1      31.275  30.093  24.713  1.00  0.00    -0.326 N 
ATOM     21  C   UNL A   1      31.641  30.263  26.040  1.00  0.00     0.221 C 
ATOM     22  H   UNL A   1      30.721  30.801  24.314  1.00  0.00     0.169 HD
ATOM     23  C   UNL A   1      31.500  31.695  26.499  1.00  0.00     0.114 C 
ATOM     24  O   UNL A   1      32.055  29.405  26.811  1.00  0.00    -0.275 OA
ENDBRANCH  19  20
ENDBRANCH  11  14
ENDBRANCH   5  10
ENDBRANCH   3   5
ENDBRANCH   2   3
ENDBRANCH   1   2
BRANCH   1  25
ATOM     25  C   UNL A   1      37.063  20.824  24.825  1.00  0.00     0.275 C 
BRANCH  25  26
ATOM     26  O   UNL A   1      37.695  21.804  25.653  1.00  0.00    -0.458 OA
BRANCH  26  27
ATOM     27  C   UNL A   1      38.923  21.477  26.115  1.00  0.00     0.338 C 
ATOM     28  O   UNL A   1      39.454  20.387  26.171  1.00  0.00    -0.246 OA
BRANCH  27  29
ATOM     29  C   UNL A   1      39.562  22.711  26.572  1.00  0.00     0.060 A 
ATOM     30  C   UNL A   1      40.626  22.633  27.468  1.00  0.00     0.016 A 
ATOM     31  C   UNL A   1      39.091  23.938  26.117  1.00  0.00     0.016 A 
ATOM     32  C   UNL A   1      41.225  23.794  27.932  1.00  0.00     0.010 A 
ATOM     33  C   UNL A   1      39.752  25.098  26.508  1.00  0.00     0.010 A 
ATOM     34  C   UNL A   1      40.829  25.032  27.410  1.00  0.00    -0.014 A 
BRANCH  34  35
ATOM     35  C   UNL A   1      41.593  26.252  27.751  1.00  0.00     0.031 A 
ATOM     36  C   UNL A   1      40.959  27.334  28.569  1.00  0.00     0.074 A 
ATOM     37  C   UNL A   1      42.852  26.380  27.288  1.00  0.00     0.049 A 
ATOM     38  N   UNL A   1      41.392  28.543  28.810  1.00  0.00    -0.248 NA
ATOM     39  C   UNL A   1      39.660  27.021  29.188  1.00  0.00     0.031 C 
ATOM     40  C   UNL A   1      43.571  25.371  26.502  1.00  0.00     0.029 A 
ATOM     41  N   UNL A   1      43.751  27.405  27.411  1.00  0.00    -0.354 N 
ATOM     42  C   UNL A   1      40.404  29.151  29.572  1.00  0.00     0.074 A 
ATOM     43  C   UNL A   1      39.347  28.178  29.755  1.00  0.00     0.031 C 
ATOM     44  C   UNL A   1      44.809  25.815  26.244  1.00  0.00     0.029 A 
ATOM     45  C   UNL A   1      44.942  27.166  26.767  1.00  0.00     0.049 A 
ATOM     46  H   UNL A   1      43.563  28.232  27.910  1.00  0.00     0.167 HD
ATOM     47  C   UNL A   1      40.385  30.413  30.064  1.00  0.00     0.037 A 
ATOM     48  C   UNL A   1      46.006  27.967  26.582  1.00  0.00     0.037 A 
ATOM     49  C   UNL A   1      41.455  31.358  29.882  1.00  0.00     0.049 A 
ATOM     50  C   UNL A   1      45.949  29.365  27.122  1.00  0.00     0.074 A 
ATOM     51  C   UNL A   1      41.533  32.672  30.310  1.00  0.00     0.029 A 
ATOM     52  N   UNL A   1      42.645  31.080  29.224  1.00  0.00    -0.354 N 
ATOM     53  N   UNL A   1      44.985  29.951  27.791  1.00  0.00    -0.248 NA
ATOM     54  C   UNL A   1      47.114  30.219  26.866  1.00  0.00     0.031 C 
ATOM     55  C   UNL A   1      42.762  33.195  29.891  1.00  0.00     0.029 A 
ATOM     56  C   UNL A   1      43.463  32.197  29.232  1.00  0.00     0.049 A 
ATOM     57  H   UNL A   1      42.874  30.217  28.811  1.00  0.00     0.167 HD
ATOM     58  C   UNL A   1      45.424  31.242  28.035  1.00  0.00     0.074 A 
ATOM     59  C   UNL A   1      46.755  31.344  27.470  1.00  0.00     0.031 C 
ATOM     60  C   UNL A   1      44.782  32.262  28.656  1.00  0.00     0.037 A 
BRANCH  47  61
ATOM     61  C   UNL A   1      39.158  30.845  30.809  1.00  0.00     0.057 A 
ATOM     62  C   UNL A   1      38.064  31.428  30.158  1.00  0.00     0.134 A 
ATOM     63  C   UNL A   1      39.064  30.659  32.194  1.00  0.00     0.134 A 
ATOM     64  F   UNL A   1      38.099  31.652  28.837  1.00  0.00    -0.206 F 
ATOM     65  C   UNL A   1      36.925  31.826  30.863  1.00  0.00     0.040 A 
ATOM     66  C   UNL A   1      37.923  31.033  32.905  1.00  0.00     0.040 A 
ATOM     67  F   UNL A   1      40.077  30.105  32.878  1.00  0.00    -0.206 F 
ATOM     68  C   UNL A   1      36.850  31.624  32.240  1.00  0.00     0.006 A 
ENDBRANCH  47  61
BRANCH  48  69
ATOM     69  C   UNL A   1      47.184  27.480  25.821  1.00  0.00     0.057 A 
ATOM     70  C   UNL A   1      47.256  27.620  24.432  1.00  0.00     0.134 A 
ATOM     71  C   UNL A   1      48.270  26.876  26.466  1.00  0.00     0.134 A 
ATOM     72  F   UNL A   1      46.239  28.174  23.755  1.00  0.00    -0.206 F 
ATOM     73  C   UNL A   1      48.360  27.167  23.708  1.00  0.00     0.040 A 
ATOM     74  C   UNL A   1      49.393  26.443  25.758  1.00  0.00     0.040 A 
ATOM     75  F   UNL A   1      48.268  26.718  27.798  1.00  0.00    -0.206 F 
ATOM     76  C   UNL A   1      49.437  26.583  24.373  1.00  0.00     0.006 A 
ENDBRANCH  48  69
BRANCH  60  77
ATOM     77  C   UNL A   1      45.530  33.554  28.759  1.00  0.00     0.057 A 
ATOM     78  C   UNL A   1      46.378  33.824  29.840  1.00  0.00     0.134 A 
ATOM     79  C   UNL A   1      45.404  34.533  27.766  1.00  0.00     0.134 A 
ATOM     80  F   UNL A   1      46.522  32.930  30.830  1.00  0.00    -0.206 F 
ATOM     81  C   UNL A   1      47.057  35.038  29.943  1.00  0.00     0.040 A 
ATOM     82  C   UNL A   1      46.095  35.741  27.849  1.00  0.00     0.040 A 
ATOM     83  F   UNL A   1      44.609  34.329  26.706  1.00  0.00    -0.206 F 
ATOM     84  C   UNL A   1      46.919  35.998  28.943  1.00  0.00     0.006 A 
ENDBRANCH  60  77
ENDBRANCH  34  35
ENDBRANCH  27  29
ENDBRANCH  26  27
ENDBRANCH  25  26
ENDBRANCH   1  25
TORSDOF 16
ENDMDL
