MODEL 1
REMARK VINA RESULT:     -11.2      0.000      0.000
REMARK SMILES O=C(OCCOC(=O)[C@H]1CC[C@H]2CCCC[C@@H]2[N@H+]1[C@@H]1CCCSC1)c1ccc(-c2c3nc(c(-c4c(F)cccc4F)c4ccc([nH]4)c(-c4c(F)cccc4F)c4nc(c(-c5c(F)cccc5F)c5ccc2[nH]5)C=C4)C=C3)cc1
REMARK SMILES IDX 4 1 3 2 2 3 1 4 25 5 26 6 78 7 27 8 77 9 28 10 29 11 30 12
REMARK SMILES IDX 71 13 31 14 76 15 70 16 72 17 32 18 75 19 69 20 68 21 33 23
REMARK SMILES IDX 59 24 42 25 58 26 43 27 46 28 57 29 73 30 44 31 45 32 56 34
REMARK SMILES IDX 74 35 47 36 34 37 35 38 40 39 36 40 37 41 39 42 41 43 38 44
REMARK SMILES IDX 60 45 61 46 66 47 62 48 63 49 65 50 67 51 64 52 48 53 49 54
REMARK SMILES IDX 54 55 50 56 51 57 53 58 55 59 52 60 5 61 6 62 7 63 8 64 9 65
REMARK SMILES IDX 10 66 18 67 11 68 17 69 12 71 16 72 13 73 15 74 14 75 19 76
REMARK SMILES IDX 20 77 24 78 21 79 23 80 22 81
REMARK H PARENT 72 22 46 33 18 70
REMARK Flexibility Score: inf
ROOT
ATOM      1  C   UNL A   1      32.465  31.902  26.501  1.00  0.00     0.275 C 
ENDROOT
BRANCH   1   2
ATOM      2  O   UNL A   1      32.127  33.097  27.226  1.00  0.00    -0.458 OA
BRANCH   2   3
ATOM      3  C   UNL A   1      32.925  33.826  28.045  1.00  0.00     0.338 C 
ATOM      4  O   UNL A   1      32.662  35.012  28.237  1.00  0.00    -0.246 OA
BRANCH   3   5
ATOM      5  C   UNL A   1      34.227  33.310  28.574  1.00  0.00     0.060 A 
ATOM      6  C   UNL A   1      35.506  33.696  28.157  1.00  0.00     0.016 A 
ATOM      7  C   UNL A   1      34.135  32.339  29.582  1.00  0.00     0.016 A 
ATOM      8  C   UNL A   1      36.655  33.229  28.813  1.00  0.00     0.010 A 
ATOM      9  C   UNL A   1      35.279  31.853  30.224  1.00  0.00     0.010 A 
ATOM     10  C   UNL A   1      36.549  32.322  29.867  1.00  0.00    -0.014 A 
BRANCH  10  11
ATOM     11  C   UNL A   1      37.746  31.772  30.546  1.00  0.00     0.031 A 
ATOM     12  C   UNL A   1      38.435  30.596  29.933  1.00  0.00     0.074 A 
ATOM     13  C   UNL A   1      38.183  32.277  31.716  1.00  0.00     0.049 A 
ATOM     14  N   UNL A   1      39.459  29.920  30.380  1.00  0.00    -0.248 NA
ATOM     15  C   UNL A   1      37.924  30.138  28.631  1.00  0.00     0.031 C 
ATOM     16  C   UNL A   1      37.648  33.466  32.368  1.00  0.00     0.029 A 
ATOM     17  N   UNL A   1      39.142  31.832  32.593  1.00  0.00    -0.354 N 
ATOM     18  C   UNL A   1      39.745  28.991  29.393  1.00  0.00     0.074 A 
ATOM     19  C   UNL A   1      38.741  29.132  28.362  1.00  0.00     0.031 C 
ATOM     20  C   UNL A   1      38.200  33.595  33.588  1.00  0.00     0.029 A 
ATOM     21  C   UNL A   1      39.142  32.504  33.794  1.00  0.00     0.049 A 
ATOM     22  H   UNL A   1      39.770  31.102  32.381  1.00  0.00     0.167 HD
ATOM     23  C   UNL A   1      40.785  28.132  29.335  1.00  0.00     0.037 A 
ATOM     24  C   UNL A   1      39.810  32.248  34.936  1.00  0.00     0.037 A 
ATOM     25  C   UNL A   1      41.764  27.989  30.376  1.00  0.00     0.049 A 
ATOM     26  C   UNL A   1      40.841  31.153  34.925  1.00  0.00     0.074 A 
ATOM     27  C   UNL A   1      42.894  27.194  30.396  1.00  0.00     0.029 A 
ATOM     28  N   UNL A   1      41.708  28.643  31.597  1.00  0.00    -0.354 N 
ATOM     29  N   UNL A   1      41.183  30.361  33.938  1.00  0.00    -0.248 NA
ATOM     30  C   UNL A   1      41.611  30.943  36.160  1.00  0.00     0.031 C 
ATOM     31  C   UNL A   1      43.492  27.324  31.654  1.00  0.00     0.029 A 
ATOM     32  C   UNL A   1      42.754  28.230  32.402  1.00  0.00     0.049 A 
ATOM     33  H   UNL A   1      41.024  29.304  31.854  1.00  0.00     0.167 HD
ATOM     34  C   UNL A   1      42.245  29.604  34.409  1.00  0.00     0.074 A 
ATOM     35  C   UNL A   1      42.481  30.018  35.777  1.00  0.00     0.031 C 
ATOM     36  C   UNL A   1      42.975  28.665  33.758  1.00  0.00     0.037 A 
BRANCH  23  37
ATOM     37  C   UNL A   1      40.901  27.297  28.101  1.00  0.00     0.057 A 
ATOM     38  C   UNL A   1      41.642  27.731  26.992  1.00  0.00     0.134 A 
ATOM     39  C   UNL A   1      40.250  26.064  28.006  1.00  0.00     0.134 A 
ATOM     40  F   UNL A   1      42.267  28.917  27.015  1.00  0.00    -0.206 F 
ATOM     41  C   UNL A   1      41.711  26.974  25.824  1.00  0.00     0.040 A 
ATOM     42  C   UNL A   1      40.328  25.289  26.849  1.00  0.00     0.040 A 
ATOM     43  F   UNL A   1      39.519  25.600  29.031  1.00  0.00    -0.206 F 
ATOM     44  C   UNL A   1      41.055  25.747  25.751  1.00  0.00     0.006 A 
ENDBRANCH  23  37
BRANCH  24  45
ATOM     45  C   UNL A   1      39.538  33.017  36.180  1.00  0.00     0.057 A 
ATOM     46  C   UNL A   1      38.521  32.646  37.068  1.00  0.00     0.134 A 
ATOM     47  C   UNL A   1      40.241  34.193  36.469  1.00  0.00     0.134 A 
ATOM     48  F   UNL A   1      37.793  31.545  36.836  1.00  0.00    -0.206 F 
ATOM     49  C   UNL A   1      38.193  33.432  38.177  1.00  0.00     0.040 A 
ATOM     50  C   UNL A   1      39.937  34.978  37.586  1.00  0.00     0.040 A 
ATOM     51  F   UNL A   1      41.222  34.613  35.658  1.00  0.00    -0.206 F 
ATOM     52  C   UNL A   1      38.902  34.603  38.437  1.00  0.00     0.006 A 
ENDBRANCH  24  45
BRANCH  36  53
ATOM     53  C   UNL A   1      44.118  28.049  34.503  1.00  0.00     0.057 A 
ATOM     54  C   UNL A   1      45.382  28.649  34.536  1.00  0.00     0.134 A 
ATOM     55  C   UNL A   1      43.931  26.877  35.247  1.00  0.00     0.134 A 
ATOM     56  F   UNL A   1      45.626  29.761  33.827  1.00  0.00    -0.206 F 
ATOM     57  C   UNL A   1      46.424  28.102  35.284  1.00  0.00     0.040 A 
ATOM     58  C   UNL A   1      44.958  26.335  36.017  1.00  0.00     0.040 A 
ATOM     59  F   UNL A   1      42.740  26.258  35.256  1.00  0.00    -0.206 F 
ATOM     60  C   UNL A   1      46.209  26.948  36.037  1.00  0.00     0.006 A 
ENDBRANCH  36  53
ENDBRANCH  10  11
ENDBRANCH   3   5
ENDBRANCH   2   3
ENDBRANCH   1   2
BRANCH   1  61
ATOM     61  C   UNL A   1      31.599  30.699  26.877  1.00  0.00     0.274 C 
BRANCH  61  62
ATOM     62  O   UNL A   1      32.216  29.470  26.465  1.00  0.00    -0.458 OA
BRANCH  62  63
ATOM     63  C   UNL A   1      31.608  28.312  26.867  1.00  0.00     0.365 C 
ATOM     64  O   UNL A   1      31.028  28.180  27.936  1.00  0.00    -0.245 OA
BRANCH  63  65
ATOM     65  C   UNL A   1      31.852  27.192  25.831  1.00  0.00     0.295 C 
ATOM     66  C   UNL A   1      31.232  25.883  26.345  1.00  0.00     0.078 C 
ATOM     67  N   UNL A   1      31.540  27.551  24.409  1.00  0.00    -0.317 N 
ATOM     68  C   UNL A   1      31.202  24.782  25.285  1.00  0.00     0.016 C 
ATOM     69  C   UNL A   1      31.743  26.414  23.468  1.00  0.00     0.188 C 
ATOM     70  H   UNL A   1      32.248  28.248  24.175  1.00  0.00     0.349 HD
ATOM     71  C   UNL A   1      32.177  25.095  24.151  1.00  0.00     0.048 C 
ATOM     72  C   UNL A   1      32.758  26.767  22.363  1.00  0.00     0.065 C 
ATOM     73  C   UNL A   1      32.249  23.958  23.126  1.00  0.00     0.010 C 
ATOM     74  C   UNL A   1      32.903  25.634  21.345  1.00  0.00     0.006 C 
ATOM     75  C   UNL A   1      33.225  24.296  22.001  1.00  0.00     0.001 C 
BRANCH  67  76
ATOM     76  C   UNL A   1      30.266  28.299  24.187  1.00  0.00     0.195 C 
ATOM     77  C   UNL A   1      29.174  27.453  23.501  1.00  0.00     0.067 C 
ATOM     78  C   UNL A   1      30.488  29.644  23.448  1.00  0.00     0.134 C 
ATOM     79  C   UNL A   1      27.828  28.155  23.377  1.00  0.00     0.017 C 
ATOM     80  S   UNL A   1      28.975  30.650  23.284  1.00  0.00    -0.156 SA
ATOM     81  C   UNL A   1      27.897  29.407  22.527  1.00  0.00     0.070 C 
ENDBRANCH  67  76
ENDBRANCH  63  65
ENDBRANCH  62  63
ENDBRANCH  61  62
ENDBRANCH   1  61
TORSDOF 12
ENDMDL
MODEL 2
REMARK VINA RESULT:     -11.2      5.416     10.007
REMARK SMILES O=C(OCCOC(=O)[C@H]1CC[C@H]2CCCC[C@@H]2[N@H+]1[C@@H]1CCCSC1)c1ccc(-c2c3nc(c(-c4c(F)cccc4F)c4ccc([nH]4)c(-c4c(F)cccc4F)c4nc(c(-c5c(F)cccc5F)c5ccc2[nH]5)C=C4)C=C3)cc1
REMARK SMILES IDX 4 1 3 2 2 3 1 4 25 5 26 6 78 7 27 8 77 9 28 10 29 11 30 12
REMARK SMILES IDX 71 13 31 14 76 15 70 16 72 17 32 18 75 19 69 20 68 21 33 23
REMARK SMILES IDX 59 24 42 25 58 26 43 27 46 28 57 29 73 30 44 31 45 32 56 34
REMARK SMILES IDX 74 35 47 36 34 37 35 38 40 39 36 40 37 41 39 42 41 43 38 44
REMARK SMILES IDX 60 45 61 46 66 47 62 48 63 49 65 50 67 51 64 52 48 53 49 54
REMARK SMILES IDX 54 55 50 56 51 57 53 58 55 59 52 60 5 61 6 62 7 63 8 64 9 65
REMARK SMILES IDX 10 66 18 67 11 68 17 69 12 71 16 72 13 73 15 74 14 75 19 76
REMARK SMILES IDX 20 77 24 78 21 79 23 80 22 81
REMARK H PARENT 72 22 46 33 18 70
REMARK Flexibility Score: inf
ROOT
ATOM      1  C   UNL A   1      38.402  20.058  25.023  1.00  0.00     0.275 C 
ENDROOT
BRANCH   1   2
ATOM      2  O   UNL A   1      39.333  19.459  25.942  1.00  0.00    -0.458 OA
BRANCH   2   3
ATOM      3  C   UNL A   1      40.639  19.775  26.126  1.00  0.00     0.338 C 
ATOM      4  O   UNL A   1      41.488  18.890  26.035  1.00  0.00    -0.246 OA
BRANCH   3   5
ATOM      5  C   UNL A   1      41.084  21.114  26.628  1.00  0.00     0.060 A 
ATOM      6  C   UNL A   1      41.169  21.514  27.967  1.00  0.00     0.016 A 
ATOM      7  C   UNL A   1      41.439  22.048  25.644  1.00  0.00     0.016 A 
ATOM      8  C   UNL A   1      41.716  22.757  28.320  1.00  0.00     0.010 A 
ATOM      9  C   UNL A   1      41.964  23.299  25.991  1.00  0.00     0.010 A 
ATOM     10  C   UNL A   1      42.139  23.649  27.335  1.00  0.00    -0.014 A 
BRANCH  10  11
ATOM     11  C   UNL A   1      42.673  24.989  27.675  1.00  0.00     0.031 A 
ATOM     12  C   UNL A   1      41.715  26.045  28.123  1.00  0.00     0.074 A 
ATOM     13  C   UNL A   1      43.982  25.277  27.537  1.00  0.00     0.049 A 
ATOM     14  N   UNL A   1      41.951  27.296  28.414  1.00  0.00    -0.248 NA
ATOM     15  C   UNL A   1      40.313  25.633  28.292  1.00  0.00     0.031 C 
ATOM     16  C   UNL A   1      45.021  24.315  27.189  1.00  0.00     0.029 A 
ATOM     17  N   UNL A   1      44.661  26.469  27.624  1.00  0.00    -0.354 N 
ATOM     18  C   UNL A   1      40.739  27.805  28.850  1.00  0.00     0.074 A 
ATOM     19  C   UNL A   1      39.752  26.757  28.708  1.00  0.00     0.031 C 
ATOM     20  C   UNL A   1      46.181  24.964  26.980  1.00  0.00     0.029 A 
ATOM     21  C   UNL A   1      45.967  26.389  27.197  1.00  0.00     0.049 A 
ATOM     22  H   UNL A   1      44.252  27.300  27.960  1.00  0.00     0.167 HD
ATOM     23  C   UNL A   1      40.488  29.027  29.369  1.00  0.00     0.037 A 
ATOM     24  C   UNL A   1      46.875  27.360  26.984  1.00  0.00     0.037 A 
ATOM     25  C   UNL A   1      41.473  30.065  29.486  1.00  0.00     0.049 A 
ATOM     26  C   UNL A   1      46.520  28.766  27.387  1.00  0.00     0.074 A 
ATOM     27  C   UNL A   1      41.344  31.318  30.053  1.00  0.00     0.029 A 
ATOM     28  N   UNL A   1      42.768  29.971  29.000  1.00  0.00    -0.354 N 
ATOM     29  N   UNL A   1      45.404  29.208  27.913  1.00  0.00    -0.248 NA
ATOM     30  C   UNL A   1      47.554  29.796  27.215  1.00  0.00     0.031 C 
ATOM     31  C   UNL A   1      42.547  32.006  29.857  1.00  0.00     0.029 A 
ATOM     32  C   UNL A   1      43.436  31.166  29.203  1.00  0.00     0.049 A 
ATOM     33  H   UNL A   1      43.156  29.174  28.571  1.00  0.00     0.167 HD
ATOM     34  C   UNL A   1      45.620  30.549  28.192  1.00  0.00     0.074 A 
ATOM     35  C   UNL A   1      46.970  30.853  27.762  1.00  0.00     0.031 C 
ATOM     36  C   UNL A   1      44.784  31.442  28.776  1.00  0.00     0.037 A 
BRANCH  23  37
ATOM     37  C   UNL A   1      39.094  29.282  29.845  1.00  0.00     0.057 A 
ATOM     38  C   UNL A   1      38.710  29.002  31.163  1.00  0.00     0.134 A 
ATOM     39  C   UNL A   1      38.122  29.789  28.977  1.00  0.00     0.134 A 
ATOM     40  F   UNL A   1      39.592  28.491  32.034  1.00  0.00    -0.206 F 
ATOM     41  C   UNL A   1      37.398  29.196  31.595  1.00  0.00     0.040 A 
ATOM     42  C   UNL A   1      36.811  30.006  29.402  1.00  0.00     0.040 A 
ATOM     43  F   UNL A   1      38.428  30.068  27.701  1.00  0.00    -0.206 F 
ATOM     44  C   UNL A   1      36.445  29.703  30.713  1.00  0.00     0.006 A 
ENDBRANCH  23  37
BRANCH  24  45
ATOM     45  C   UNL A   1      48.193  27.064  26.361  1.00  0.00     0.057 A 
ATOM     46  C   UNL A   1      48.372  27.079  24.973  1.00  0.00     0.134 A 
ATOM     47  C   UNL A   1      49.290  26.680  27.143  1.00  0.00     0.134 A 
ATOM     48  F   UNL A   1      47.356  27.413  24.167  1.00  0.00    -0.206 F 
ATOM     49  C   UNL A   1      49.580  26.691  24.385  1.00  0.00     0.040 A 
ATOM     50  C   UNL A   1      50.510  26.310  26.569  1.00  0.00     0.040 A 
ATOM     51  F   UNL A   1      49.188  26.636  28.479  1.00  0.00    -0.206 F 
ATOM     52  C   UNL A   1      50.653  26.304  25.185  1.00  0.00     0.006 A 
ENDBRANCH  24  45
BRANCH  36  53
ATOM     53  C   UNL A   1      45.314  32.822  29.015  1.00  0.00     0.057 A 
ATOM     54  C   UNL A   1      45.110  33.857  28.096  1.00  0.00     0.134 A 
ATOM     55  C   UNL A   1      45.978  33.129  30.209  1.00  0.00     0.134 A 
ATOM     56  F   UNL A   1      44.497  33.617  26.927  1.00  0.00    -0.206 F 
ATOM     57  C   UNL A   1      45.551  35.153  28.355  1.00  0.00     0.040 A 
ATOM     58  C   UNL A   1      46.403  34.427  30.489  1.00  0.00     0.040 A 
ATOM     59  F   UNL A   1      46.201  32.179  31.130  1.00  0.00    -0.206 F 
ATOM     60  C   UNL A   1      46.190  35.443  29.561  1.00  0.00     0.006 A 
ENDBRANCH  36  53
ENDBRANCH  10  11
ENDBRANCH   3   5
ENDBRANCH   2   3
ENDBRANCH   1   2
BRANCH   1  61
ATOM     61  C   UNL A   1      37.977  21.470  25.424  1.00  0.00     0.274 C 
BRANCH  61  62
ATOM     62  O   UNL A   1      36.563  21.652  25.254  1.00  0.00    -0.458 OA
BRANCH  62  63
ATOM     63  C   UNL A   1      36.163  22.370  24.159  1.00  0.00     0.365 C 
ATOM     64  O   UNL A   1      36.851  22.535  23.162  1.00  0.00    -0.245 OA
BRANCH  63  65
ATOM     65  C   UNL A   1      34.780  23.009  24.416  1.00  0.00     0.295 C 
ATOM     66  C   UNL A   1      34.410  23.908  23.226  1.00  0.00     0.078 C 
ATOM     67  N   UNL A   1      33.711  22.069  24.884  1.00  0.00    -0.317 N 
ATOM     68  C   UNL A   1      32.959  24.387  23.270  1.00  0.00     0.016 C 
ATOM     69  C   UNL A   1      32.391  22.735  25.060  1.00  0.00     0.188 C 
ATOM     70  H   UNL A   1      34.022  21.795  25.817  1.00  0.00     0.349 HD
ATOM     71  C   UNL A   1      32.381  24.234  24.676  1.00  0.00     0.048 C 
ATOM     72  C   UNL A   1      31.865  22.581  26.502  1.00  0.00     0.065 C 
ATOM     73  C   UNL A   1      30.962  24.805  24.778  1.00  0.00     0.010 C 
ATOM     74  C   UNL A   1      30.470  23.188  26.663  1.00  0.00     0.006 C 
ATOM     75  C   UNL A   1      30.404  24.636  26.189  1.00  0.00     0.001 C 
BRANCH  67  76
ATOM     76  C   UNL A   1      33.636  20.757  24.173  1.00  0.00     0.195 C 
ATOM     77  C   UNL A   1      32.325  20.566  23.383  1.00  0.00     0.067 C 
ATOM     78  C   UNL A   1      33.912  19.555  25.113  1.00  0.00     0.134 C 
ATOM     79  C   UNL A   1      32.279  19.292  22.550  1.00  0.00     0.017 C 
ATOM     80  S   UNL A   1      33.967  17.947  24.251  1.00  0.00    -0.156 SA
ATOM     81  C   UNL A   1      32.374  18.037  23.394  1.00  0.00     0.070 C 
ENDBRANCH  67  76
ENDBRANCH  63  65
ENDBRANCH  62  63
ENDBRANCH  61  62
ENDBRANCH   1  61
TORSDOF 12
ENDMDL
MODEL 3
REMARK VINA RESULT:     -11.2      5.311      9.770
REMARK SMILES O=C(OCCOC(=O)[C@H]1CC[C@H]2CCCC[C@@H]2[N@H+]1[C@@H]1CCCSC1)c1ccc(-c2c3nc(c(-c4c(F)cccc4F)c4ccc([nH]4)c(-c4c(F)cccc4F)c4nc(c(-c5c(F)cccc5F)c5ccc2[nH]5)C=C4)C=C3)cc1
REMARK SMILES IDX 4 1 3 2 2 3 1 4 25 5 26 6 78 7 27 8 77 9 28 10 29 11 30 12
REMARK SMILES IDX 71 13 31 14 76 15 70 16 72 17 32 18 75 19 69 20 68 21 33 23
REMARK SMILES IDX 59 24 42 25 58 26 43 27 46 28 57 29 73 30 44 31 45 32 56 34
REMARK SMILES IDX 74 35 47 36 34 37 35 38 40 39 36 40 37 41 39 42 41 43 38 44
REMARK SMILES IDX 60 45 61 46 66 47 62 48 63 49 65 50 67 51 64 52 48 53 49 54
REMARK SMILES IDX 54 55 50 56 51 57 53 58 55 59 52 60 5 61 6 62 7 63 8 64 9 65
REMARK SMILES IDX 10 66 18 67 11 68 17 69 12 71 16 72 13 73 15 74 14 75 19 76
REMARK SMILES IDX 20 77 24 78 21 79 23 80 22 81
REMARK H PARENT 72 22 46 33 18 70
REMARK Flexibility Score: inf
ROOT
ATOM      1  C   UNL A   1      38.111  20.202  25.745  1.00  0.00     0.275 C 
ENDROOT
BRANCH   1   2
ATOM      2  O   UNL A   1      39.269  19.389  25.489  1.00  0.00    -0.458 OA
BRANCH   2   3
ATOM      3  C   UNL A   1      40.534  19.579  25.938  1.00  0.00     0.338 C 
ATOM      4  O   UNL A   1      41.302  18.619  25.989  1.00  0.00    -0.246 OA
BRANCH   3   5
ATOM      5  C   UNL A   1      40.986  20.863  26.562  1.00  0.00     0.060 A 
ATOM      6  C   UNL A   1      41.084  21.133  27.932  1.00  0.00     0.016 A 
ATOM      7  C   UNL A   1      41.335  21.886  25.669  1.00  0.00     0.016 A 
ATOM      8  C   UNL A   1      41.636  22.336  28.397  1.00  0.00     0.010 A 
ATOM      9  C   UNL A   1      41.866  23.097  26.129  1.00  0.00     0.010 A 
ATOM     10  C   UNL A   1      42.053  23.317  27.499  1.00  0.00    -0.014 A 
BRANCH  10  11
ATOM     11  C   UNL A   1      42.593  24.617  27.960  1.00  0.00     0.031 A 
ATOM     12  C   UNL A   1      41.637  25.738  28.208  1.00  0.00     0.074 A 
ATOM     13  C   UNL A   1      43.918  24.815  28.105  1.00  0.00     0.049 A 
ATOM     14  N   UNL A   1      41.890  26.971  28.558  1.00  0.00    -0.248 NA
ATOM     15  C   UNL A   1      40.205  25.425  28.072  1.00  0.00     0.031 C 
ATOM     16  C   UNL A   1      44.939  23.782  27.973  1.00  0.00     0.029 A 
ATOM     17  N   UNL A   1      44.642  25.957  28.348  1.00  0.00    -0.354 N 
ATOM     18  C   UNL A   1      40.651  27.564  28.734  1.00  0.00     0.074 A 
ATOM     19  C   UNL A   1      39.647  26.586  28.374  1.00  0.00     0.031 C 
ATOM     20  C   UNL A   1      46.158  24.349  28.021  1.00  0.00     0.029 A 
ATOM     21  C   UNL A   1      46.001  25.785  28.206  1.00  0.00     0.049 A 
ATOM     22  H   UNL A   1      44.229  26.815  28.601  1.00  0.00     0.167 HD
ATOM     23  C   UNL A   1      40.379  28.802  29.203  1.00  0.00     0.037 A 
ATOM     24  C   UNL A   1      46.998  26.692  28.201  1.00  0.00     0.037 A 
ATOM     25  C   UNL A   1      41.386  29.769  29.539  1.00  0.00     0.049 A 
ATOM     26  C   UNL A   1      46.661  28.119  28.538  1.00  0.00     0.074 A 
ATOM     27  C   UNL A   1      41.225  31.030  30.080  1.00  0.00     0.029 A 
ATOM     28  N   UNL A   1      42.745  29.585  29.336  1.00  0.00    -0.354 N 
ATOM     29  N   UNL A   1      45.492  28.639  28.821  1.00  0.00    -0.248 NA
ATOM     30  C   UNL A   1      47.776  29.075  28.601  1.00  0.00     0.031 C 
ATOM     31  C   UNL A   1      42.486  31.633  30.152  1.00  0.00     0.029 A 
ATOM     32  C   UNL A   1      43.434  30.731  29.690  1.00  0.00     0.049 A 
ATOM     33  H   UNL A   1      43.159  28.762  28.989  1.00  0.00     0.167 HD
ATOM     34  C   UNL A   1      45.735  29.963  29.156  1.00  0.00     0.074 A 
ATOM     35  C   UNL A   1      47.163  30.172  29.024  1.00  0.00     0.031 C 
ATOM     36  C   UNL A   1      44.857  30.913  29.560  1.00  0.00     0.037 A 
BRANCH  23  37
ATOM     37  C   UNL A   1      38.937  29.153  29.377  1.00  0.00     0.057 A 
ATOM     38  C   UNL A   1      38.163  29.614  28.302  1.00  0.00     0.134 A 
ATOM     39  C   UNL A   1      38.321  29.055  30.628  1.00  0.00     0.134 A 
ATOM     40  F   UNL A   1      38.705  29.753  27.084  1.00  0.00    -0.206 F 
ATOM     41  C   UNL A   1      36.830  29.986  28.474  1.00  0.00     0.040 A 
ATOM     42  C   UNL A   1      36.983  29.406  30.808  1.00  0.00     0.040 A 
ATOM     43  F   UNL A   1      39.013  28.629  31.695  1.00  0.00    -0.206 F 
ATOM     44  C   UNL A   1      36.236  29.879  29.730  1.00  0.00     0.006 A 
ENDBRANCH  23  37
BRANCH  24  45
ATOM     45  C   UNL A   1      48.394  26.304  27.868  1.00  0.00     0.057 A 
ATOM     46  C   UNL A   1      48.875  26.340  26.554  1.00  0.00     0.134 A 
ATOM     47  C   UNL A   1      49.260  25.809  28.851  1.00  0.00     0.134 A 
ATOM     48  F   UNL A   1      48.090  26.779  25.561  1.00  0.00    -0.206 F 
ATOM     49  C   UNL A   1      50.150  25.870  26.225  1.00  0.00     0.040 A 
ATOM     50  C   UNL A   1      50.545  25.354  28.541  1.00  0.00     0.040 A 
ATOM     51  F   UNL A   1      48.863  25.737  30.129  1.00  0.00    -0.206 F 
ATOM     52  C   UNL A   1      50.989  25.373  27.222  1.00  0.00     0.006 A 
ENDBRANCH  24  45
BRANCH  36  53
ATOM     53  C   UNL A   1      45.418  32.253  29.923  1.00  0.00     0.057 A 
ATOM     54  C   UNL A   1      45.925  32.515  31.200  1.00  0.00     0.134 A 
ATOM     55  C   UNL A   1      45.509  33.267  28.962  1.00  0.00     0.134 A 
ATOM     56  F   UNL A   1      45.847  31.588  32.167  1.00  0.00    -0.206 F 
ATOM     57  C   UNL A   1      46.503  33.746  31.511  1.00  0.00     0.040 A 
ATOM     58  C   UNL A   1      46.106  34.492  29.254  1.00  0.00     0.040 A 
ATOM     59  F   UNL A   1      45.042  33.073  27.719  1.00  0.00    -0.206 F 
ATOM     60  C   UNL A   1      46.605  34.734  30.533  1.00  0.00     0.006 A 
ENDBRANCH  36  53
ENDBRANCH  10  11
ENDBRANCH   3   5
ENDBRANCH   2   3
ENDBRANCH   1   2
BRANCH   1  61
ATOM     61  C   UNL A   1      37.510  20.818  24.481  1.00  0.00     0.274 C 
BRANCH  61  62
ATOM     62  O   UNL A   1      36.617  21.894  24.806  1.00  0.00    -0.458 OA
BRANCH  62  63
ATOM     63  C   UNL A   1      36.077  22.584  23.753  1.00  0.00     0.365 C 
ATOM     64  O   UNL A   1      36.661  22.785  22.698  1.00  0.00    -0.245 OA
BRANCH  63  65
ATOM     65  C   UNL A   1      34.689  23.143  24.136  1.00  0.00     0.295 C 
ATOM     66  C   UNL A   1      34.128  23.954  22.958  1.00  0.00     0.078 C 
ATOM     67  N   UNL A   1      33.747  22.158  24.761  1.00  0.00    -0.317 N 
ATOM     68  C   UNL A   1      32.660  24.338  23.144  1.00  0.00     0.016 C 
ATOM     69  C   UNL A   1      32.410  22.744  25.056  1.00  0.00     0.188 C 
ATOM     70  H   UNL A   1      34.176  21.953  25.664  1.00  0.00     0.349 HD
ATOM     71  C   UNL A   1      32.251  24.218  24.612  1.00  0.00     0.048 C 
ATOM     72  C   UNL A   1      32.057  22.627  26.552  1.00  0.00     0.065 C 
ATOM     73  C   UNL A   1      30.815  24.698  24.848  1.00  0.00     0.010 C 
ATOM     74  C   UNL A   1      30.648  23.148  26.843  1.00  0.00     0.006 C 
ATOM     75  C   UNL A   1      30.428  24.564  26.319  1.00  0.00     0.001 C 
BRANCH  67  76
ATOM     76  C   UNL A   1      33.689  20.810  24.119  1.00  0.00     0.195 C 
ATOM     77  C   UNL A   1      32.357  20.541  23.389  1.00  0.00     0.067 C 
ATOM     78  C   UNL A   1      34.035  19.666  25.106  1.00  0.00     0.134 C 
ATOM     79  C   UNL A   1      32.322  19.225  22.622  1.00  0.00     0.017 C 
ATOM     80  S   UNL A   1      34.111  18.019  24.324  1.00  0.00    -0.156 SA
ATOM     81  C   UNL A   1      32.486  18.018  23.523  1.00  0.00     0.070 C 
ENDBRANCH  67  76
ENDBRANCH  63  65
ENDBRANCH  62  63
ENDBRANCH  61  62
ENDBRANCH   1  61
TORSDOF 12
ENDMDL
