MODEL 1
REMARK VINA RESULT:     -11.5      0.000      0.000
REMARK SMILES Cn1ncc(C(=O)OCCOC(=O)c2ccc(-c3c4nc(c(-c5c(F)cccc5F)c5ccc([nH]5)c(-c5c(F)cccc5F)c5nc(c(-c6c(F)cccc6F)c6ccc3[nH]6)C=C5)C=C4)cc2)c1C(=O)N1CCN(S(C)(=O)=O)CC1
REMARK SMILES IDX 9 1 8 2 6 3 7 4 5 5 1 6 2 7 3 8 68 9 4 10 69 11 70 12 71 13
REMARK SMILES IDX 72 14 80 15 73 16 79 17 74 18 75 19 76 20 77 21 78 22 10 23
REMARK SMILES IDX 11 24 12 25 13 26 14 27 15 28 67 29 16 30 66 31 17 32 18 33
REMARK SMILES IDX 19 34 60 35 20 36 65 37 59 38 61 39 21 40 64 41 58 42 57 43
REMARK SMILES IDX 22 45 48 46 31 47 47 48 32 49 35 50 46 51 62 52 33 53 34 54
REMARK SMILES IDX 45 56 63 57 36 58 23 59 24 60 29 61 25 62 26 63 28 64 30 65
REMARK SMILES IDX 27 66 49 67 50 68 55 69 51 70 52 71 54 72 56 73 53 74 37 75
REMARK SMILES IDX 38 76 43 77 39 78 40 79 42 80 44 81 41 82
REMARK H PARENT 61 44 35 55
REMARK Flexibility Score: inf
ROOT
ATOM      1  C   UNL A   1      36.544  22.232  23.583  1.00  0.00     0.275 C 
ENDROOT
BRANCH   1   2
ATOM      2  O   UNL A   1      35.591  23.114  24.210  1.00  0.00    -0.458 OA
BRANCH   2   3
ATOM      3  C   UNL A   1      34.369  23.200  23.615  1.00  0.00     0.342 C 
ATOM      4  O   UNL A   1      34.193  23.437  22.426  1.00  0.00    -0.246 OA
BRANCH   3   5
ATOM      5  C   UNL A   1      33.262  22.827  24.482  1.00  0.00     0.111 A 
ATOM      6  C   UNL A   1      30.384  22.966  26.670  1.00  0.00     0.174 C 
ATOM      7  N   UNL A   1      31.548  22.728  25.850  1.00  0.00    -0.262 N 
ATOM      8  N   UNL A   1      31.691  21.466  25.409  1.00  0.00    -0.180 NA
ATOM      9  C   UNL A   1      32.479  23.611  25.333  1.00  0.00     0.140 A 
ATOM     10  C   UNL A   1      32.664  21.551  24.515  1.00  0.00     0.151 A 
BRANCH   9  11
ATOM     11  C   UNL A   1      32.538  25.059  25.433  1.00  0.00     0.273 C 
ATOM     12  O   UNL A   1      33.375  25.636  26.126  1.00  0.00    -0.267 OA
ATOM     13  N   UNL A   1      31.765  25.807  24.558  1.00  0.00    -0.335 N 
ATOM     14  C   UNL A   1      32.429  26.957  23.953  1.00  0.00     0.136 C 
ATOM     15  C   UNL A   1      30.323  25.975  24.758  1.00  0.00     0.136 C 
ATOM     16  C   UNL A   1      31.784  27.318  22.619  1.00  0.00     0.123 C 
ATOM     17  C   UNL A   1      29.606  26.410  23.465  1.00  0.00     0.123 C 
ATOM     18  N   UNL A   1      30.320  27.515  22.772  1.00  0.00    -0.199 NA
BRANCH  18  19
ATOM     19  S   UNL A   1      29.686  29.067  22.786  1.00  0.00     0.211 S 
ATOM     20  C   UNL A   1      27.941  28.784  22.988  1.00  0.00     0.176 C 
ATOM     21  O   UNL A   1      30.165  29.738  23.973  1.00  0.00    -0.213 OA
ATOM     22  O   UNL A   1      29.886  29.632  21.468  1.00  0.00    -0.213 OA
ENDBRANCH  18  19
ENDBRANCH   9  11
ENDBRANCH   3   5
ENDBRANCH   2   3
ENDBRANCH   1   2
BRANCH   1  23
ATOM     23  C   UNL A   1      36.892  21.064  24.504  1.00  0.00     0.275 C 
BRANCH  23  24
ATOM     24  O   UNL A   1      37.402  21.560  25.756  1.00  0.00    -0.458 OA
BRANCH  24  25
ATOM     25  C   UNL A   1      38.702  21.280  26.006  1.00  0.00     0.338 C 
ATOM     26  O   UNL A   1      39.323  20.274  25.711  1.00  0.00    -0.246 OA
BRANCH  25  27
ATOM     27  C   UNL A   1      39.338  22.457  26.612  1.00  0.00     0.060 A 
ATOM     28  C   UNL A   1      38.875  23.709  26.227  1.00  0.00     0.016 A 
ATOM     29  C   UNL A   1      40.461  22.345  27.424  1.00  0.00     0.016 A 
ATOM     30  C   UNL A   1      39.565  24.863  26.581  1.00  0.00     0.010 A 
ATOM     31  C   UNL A   1      41.110  23.512  27.854  1.00  0.00     0.010 A 
ATOM     32  C   UNL A   1      40.688  24.782  27.411  1.00  0.00    -0.014 A 
BRANCH  32  33
ATOM     33  C   UNL A   1      41.445  26.016  27.761  1.00  0.00     0.031 A 
ATOM     34  C   UNL A   1      40.799  27.079  28.609  1.00  0.00     0.074 A 
ATOM     35  C   UNL A   1      42.719  26.181  27.350  1.00  0.00     0.049 A 
ATOM     36  N   UNL A   1      41.209  28.293  28.874  1.00  0.00    -0.248 NA
ATOM     37  C   UNL A   1      39.512  26.732  29.233  1.00  0.00     0.031 C 
ATOM     38  C   UNL A   1      43.498  25.209  26.579  1.00  0.00     0.029 A 
ATOM     39  N   UNL A   1      43.588  27.232  27.526  1.00  0.00    -0.354 N 
ATOM     40  C   UNL A   1      40.210  28.871  29.646  1.00  0.00     0.074 A 
ATOM     41  C   UNL A   1      39.169  27.877  29.804  1.00  0.00     0.031 C 
ATOM     42  C   UNL A   1      44.731  25.694  26.377  1.00  0.00     0.029 A 
ATOM     43  C   UNL A   1      44.807  27.045  26.920  1.00  0.00     0.049 A 
ATOM     44  H   UNL A   1      43.358  28.040  28.039  1.00  0.00     0.167 HD
ATOM     45  C   UNL A   1      40.165  30.119  30.174  1.00  0.00     0.037 A 
ATOM     46  C   UNL A   1      45.852  27.881  26.774  1.00  0.00     0.037 A 
ATOM     47  C   UNL A   1      41.226  31.086  30.063  1.00  0.00     0.049 A 
ATOM     48  C   UNL A   1      45.758  29.276  27.324  1.00  0.00     0.074 A 
ATOM     49  C   UNL A   1      41.281  32.370  30.575  1.00  0.00     0.029 A 
ATOM     50  N   UNL A   1      42.428  30.866  29.406  1.00  0.00    -0.354 N 
ATOM     51  N   UNL A   1      44.783  29.834  28.001  1.00  0.00    -0.248 NA
ATOM     52  C   UNL A   1      46.899  30.166  27.070  1.00  0.00     0.031 C 
ATOM     53  C   UNL A   1      42.499  32.943  30.196  1.00  0.00     0.029 A 
ATOM     54  C   UNL A   1      43.223  31.999  29.486  1.00  0.00     0.049 A 
ATOM     55  H   UNL A   1      42.679  30.030  28.951  1.00  0.00     0.167 HD
ATOM     56  C   UNL A   1      45.198  31.132  28.265  1.00  0.00     0.074 A 
ATOM     57  C   UNL A   1      46.522  31.273  27.694  1.00  0.00     0.031 C 
ATOM     58  C   UNL A   1      44.540  32.121  28.916  1.00  0.00     0.037 A 
BRANCH  45  59
ATOM     59  C   UNL A   1      38.910  30.524  30.890  1.00  0.00     0.057 A 
ATOM     60  C   UNL A   1      37.837  31.139  30.231  1.00  0.00     0.134 A 
ATOM     61  C   UNL A   1      38.761  30.263  32.259  1.00  0.00     0.134 A 
ATOM     62  F   UNL A   1      37.919  31.431  28.924  1.00  0.00    -0.206 F 
ATOM     63  C   UNL A   1      36.671  31.497  30.913  1.00  0.00     0.040 A 
ATOM     64  C   UNL A   1      37.592  30.593  32.945  1.00  0.00     0.040 A 
ATOM     65  F   UNL A   1      39.748  29.671  32.949  1.00  0.00    -0.206 F 
ATOM     66  C   UNL A   1      36.544  31.218  32.272  1.00  0.00     0.006 A 
ENDBRANCH  45  59
BRANCH  46  67
ATOM     67  C   UNL A   1      47.058  27.441  26.027  1.00  0.00     0.057 A 
ATOM     68  C   UNL A   1      48.157  26.882  26.688  1.00  0.00     0.134 A 
ATOM     69  C   UNL A   1      47.146  27.580  24.635  1.00  0.00     0.134 A 
ATOM     70  F   UNL A   1      48.145  26.747  28.022  1.00  0.00    -0.206 F 
ATOM     71  C   UNL A   1      49.302  26.486  25.996  1.00  0.00     0.040 A 
ATOM     72  C   UNL A   1      48.272  27.162  23.927  1.00  0.00     0.040 A 
ATOM     73  F   UNL A   1      46.127  28.112  23.942  1.00  0.00    -0.206 F 
ATOM     74  C   UNL A   1      49.358  26.619  24.609  1.00  0.00     0.006 A 
ENDBRANCH  46  67
BRANCH  58  75
ATOM     75  C   UNL A   1      45.254  33.430  29.071  1.00  0.00     0.057 A 
ATOM     76  C   UNL A   1      45.104  34.467  28.141  1.00  0.00     0.134 A 
ATOM     77  C   UNL A   1      46.079  33.668  30.177  1.00  0.00     0.134 A 
ATOM     78  F   UNL A   1      44.339  34.298  27.051  1.00  0.00    -0.206 F 
ATOM     79  C   UNL A   1      45.765  35.686  28.296  1.00  0.00     0.040 A 
ATOM     80  C   UNL A   1      46.726  34.890  30.356  1.00  0.00     0.040 A 
ATOM     81  F   UNL A   1      46.259  32.718  31.108  1.00  0.00    -0.206 F 
ATOM     82  C   UNL A   1      46.575  35.902  29.409  1.00  0.00     0.006 A 
ENDBRANCH  58  75
ENDBRANCH  32  33
ENDBRANCH  25  27
ENDBRANCH  24  25
ENDBRANCH  23  24
ENDBRANCH   1  23
TORSDOF 13
ENDMDL
MODEL 2
REMARK VINA RESULT:     -11.5      4.045      8.996
REMARK SMILES Cn1ncc(C(=O)OCCOC(=O)c2ccc(-c3c4nc(c(-c5c(F)cccc5F)c5ccc([nH]5)c(-c5c(F)cccc5F)c5nc(c(-c6c(F)cccc6F)c6ccc3[nH]6)C=C5)C=C4)cc2)c1C(=O)N1CCN(S(C)(=O)=O)CC1
REMARK SMILES IDX 9 1 8 2 6 3 7 4 5 5 1 6 2 7 3 8 68 9 4 10 69 11 70 12 71 13
REMARK SMILES IDX 72 14 80 15 73 16 79 17 74 18 75 19 76 20 77 21 78 22 10 23
REMARK SMILES IDX 11 24 12 25 13 26 14 27 15 28 67 29 16 30 66 31 17 32 18 33
REMARK SMILES IDX 19 34 60 35 20 36 65 37 59 38 61 39 21 40 64 41 58 42 57 43
REMARK SMILES IDX 22 45 48 46 31 47 47 48 32 49 35 50 46 51 62 52 33 53 34 54
REMARK SMILES IDX 45 56 63 57 36 58 23 59 24 60 29 61 25 62 26 63 28 64 30 65
REMARK SMILES IDX 27 66 49 67 50 68 55 69 51 70 52 71 54 72 56 73 53 74 37 75
REMARK SMILES IDX 38 76 43 77 39 78 40 79 42 80 44 81 41 82
REMARK H PARENT 61 44 35 55
REMARK Flexibility Score: inf
ROOT
ATOM      1  C   UNL A   1      31.779  28.271  27.474  1.00  0.00     0.275 C 
ENDROOT
BRANCH   1   2
ATOM      2  O   UNL A   1      32.330  27.173  26.719  1.00  0.00    -0.458 OA
BRANCH   2   3
ATOM      3  C   UNL A   1      31.442  26.428  26.004  1.00  0.00     0.342 C 
ATOM      4  O   UNL A   1      30.445  25.895  26.477  1.00  0.00    -0.246 OA
BRANCH   3   5
ATOM      5  C   UNL A   1      31.681  26.439  24.569  1.00  0.00     0.111 A 
ATOM      6  C   UNL A   1      32.878  25.613  21.256  1.00  0.00     0.174 C 
ATOM      7  N   UNL A   1      32.344  26.107  22.502  1.00  0.00    -0.262 N 
ATOM      8  N   UNL A   1      31.312  26.963  22.385  1.00  0.00    -0.180 NA
ATOM      9  C   UNL A   1      32.632  25.753  23.808  1.00  0.00     0.140 A 
ATOM     10  C   UNL A   1      30.859  27.084  23.624  1.00  0.00     0.151 A 
BRANCH   9  11
ATOM     11  C   UNL A   1      33.539  24.737  24.313  1.00  0.00     0.273 C 
ATOM     12  O   UNL A   1      34.606  25.022  24.857  1.00  0.00    -0.267 OA
ATOM     13  N   UNL A   1      33.089  23.428  24.371  1.00  0.00    -0.335 N 
ATOM     14  C   UNL A   1      33.408  22.704  25.598  1.00  0.00     0.136 C 
ATOM     15  C   UNL A   1      33.013  22.587  23.173  1.00  0.00     0.136 C 
ATOM     16  C   UNL A   1      32.404  21.582  25.843  1.00  0.00     0.123 C 
ATOM     17  C   UNL A   1      32.067  21.386  23.368  1.00  0.00     0.123 C 
ATOM     18  N   UNL A   1      32.302  20.690  24.660  1.00  0.00    -0.199 NA
BRANCH  18  19
ATOM     19  S   UNL A   1      33.042  19.186  24.686  1.00  0.00     0.211 S 
ATOM     20  C   UNL A   1      32.529  18.463  23.142  1.00  0.00     0.176 C 
ATOM     21  O   UNL A   1      34.472  19.387  24.626  1.00  0.00    -0.213 OA
ATOM     22  O   UNL A   1      32.433  18.418  25.750  1.00  0.00    -0.213 OA
ENDBRANCH  18  19
ENDBRANCH   9  11
ENDBRANCH   3   5
ENDBRANCH   2   3
ENDBRANCH   1   2
BRANCH   1  23
ATOM     23  C   UNL A   1      31.699  29.533  26.618  1.00  0.00     0.275 C 
BRANCH  23  24
ATOM     24  O   UNL A   1      33.023  30.024  26.339  1.00  0.00    -0.458 OA
BRANCH  24  25
ATOM     25  C   UNL A   1      33.391  31.129  27.029  1.00  0.00     0.338 C 
ATOM     26  O   UNL A   1      32.736  32.135  27.237  1.00  0.00    -0.246 OA
BRANCH  25  27
ATOM     27  C   UNL A   1      34.713  30.904  27.627  1.00  0.00     0.060 A 
ATOM     28  C   UNL A   1      35.060  29.597  27.951  1.00  0.00     0.016 A 
ATOM     29  C   UNL A   1      35.537  31.960  28.000  1.00  0.00     0.016 A 
ATOM     30  C   UNL A   1      36.189  29.330  28.716  1.00  0.00     0.010 A 
ATOM     31  C   UNL A   1      36.722  31.685  28.698  1.00  0.00     0.010 A 
ATOM     32  C   UNL A   1      37.045  30.371  29.092  1.00  0.00    -0.014 A 
BRANCH  32  33
ATOM     33  C   UNL A   1      38.236  30.085  29.939  1.00  0.00     0.031 A 
ATOM     34  C   UNL A   1      39.351  29.228  29.404  1.00  0.00     0.074 A 
ATOM     35  C   UNL A   1      38.342  30.613  31.177  1.00  0.00     0.049 A 
ATOM     36  N   UNL A   1      40.378  28.713  30.032  1.00  0.00    -0.248 NA
ATOM     37  C   UNL A   1      39.297  28.895  27.972  1.00  0.00     0.031 C 
ATOM     38  C   UNL A   1      37.373  31.515  31.803  1.00  0.00     0.029 A 
ATOM     39  N   UNL A   1      39.319  30.466  32.131  1.00  0.00    -0.354 N 
ATOM     40  C   UNL A   1      41.058  27.955  29.089  1.00  0.00     0.074 A 
ATOM     41  C   UNL A   1      40.326  28.070  27.845  1.00  0.00     0.031 C 
ATOM     42  C   UNL A   1      37.817  31.862  33.019  1.00  0.00     0.029 A 
ATOM     43  C   UNL A   1      39.053  31.141  33.298  1.00  0.00     0.049 A 
ATOM     44  H   UNL A   1      40.133  29.929  31.991  1.00  0.00     0.167 HD
ATOM     45  C   UNL A   1      42.191  27.227  29.247  1.00  0.00     0.037 A 
ATOM     46  C   UNL A   1      39.702  31.143  34.478  1.00  0.00     0.037 A 
ATOM     47  C   UNL A   1      42.948  27.159  30.470  1.00  0.00     0.049 A 
ATOM     48  C   UNL A   1      40.926  30.288  34.645  1.00  0.00     0.074 A 
ATOM     49  C   UNL A   1      44.115  26.460  30.725  1.00  0.00     0.029 A 
ATOM     50  N   UNL A   1      42.619  27.828  31.639  1.00  0.00    -0.354 N 
ATOM     51  N   UNL A   1      41.528  29.526  33.763  1.00  0.00    -0.248 NA
ATOM     52  C   UNL A   1      41.548  30.275  35.976  1.00  0.00     0.031 C 
ATOM     53  C   UNL A   1      44.473  26.676  32.059  1.00  0.00     0.029 A 
ATOM     54  C   UNL A   1      43.553  27.545  32.623  1.00  0.00     0.049 A 
ATOM     55  H   UNL A   1      41.839  28.417  31.753  1.00  0.00     0.167 HD
ATOM     56  C   UNL A   1      42.605  28.955  34.428  1.00  0.00     0.074 A 
ATOM     57  C   UNL A   1      42.586  29.474  35.780  1.00  0.00     0.031 C 
ATOM     58  C   UNL A   1      43.522  28.074  33.963  1.00  0.00     0.037 A 
BRANCH  45  59
ATOM     59  C   UNL A   1      42.661  26.413  28.077  1.00  0.00     0.057 A 
ATOM     60  C   UNL A   1      42.247  25.091  27.868  1.00  0.00     0.134 A 
ATOM     61  C   UNL A   1      43.520  26.977  27.123  1.00  0.00     0.134 A 
ATOM     62  F   UNL A   1      41.437  24.486  28.750  1.00  0.00    -0.206 F 
ATOM     63  C   UNL A   1      42.685  24.354  26.766  1.00  0.00     0.040 A 
ATOM     64  C   UNL A   1      43.945  26.259  26.004  1.00  0.00     0.040 A 
ATOM     65  F   UNL A   1      43.951  28.240  27.259  1.00  0.00    -0.206 F 
ATOM     66  C   UNL A   1      43.532  24.940  25.827  1.00  0.00     0.006 A 
ENDBRANCH  45  59
BRANCH  46  67
ATOM     67  C   UNL A   1      39.175  31.940  35.616  1.00  0.00     0.057 A 
ATOM     68  C   UNL A   1      39.559  33.272  35.808  1.00  0.00     0.134 A 
ATOM     69  C   UNL A   1      38.283  31.387  36.544  1.00  0.00     0.134 A 
ATOM     70  F   UNL A   1      40.430  33.851  34.970  1.00  0.00    -0.206 F 
ATOM     71  C   UNL A   1      39.085  34.021  36.886  1.00  0.00     0.040 A 
ATOM     72  C   UNL A   1      37.778  32.132  37.609  1.00  0.00     0.040 A 
ATOM     73  F   UNL A   1      37.878  30.114  36.418  1.00  0.00    -0.206 F 
ATOM     74  C   UNL A   1      38.185  33.452  37.787  1.00  0.00     0.006 A 
ENDBRANCH  46  67
BRANCH  58  75
ATOM     75  C   UNL A   1      44.599  27.642  34.914  1.00  0.00     0.057 A 
ATOM     76  C   UNL A   1      44.462  26.498  35.710  1.00  0.00     0.134 A 
ATOM     77  C   UNL A   1      45.796  28.361  35.012  1.00  0.00     0.134 A 
ATOM     78  F   UNL A   1      43.334  25.773  35.673  1.00  0.00    -0.206 F 
ATOM     79  C   UNL A   1      45.471  26.097  36.588  1.00  0.00     0.040 A 
ATOM     80  C   UNL A   1      46.821  27.957  35.868  1.00  0.00     0.040 A 
ATOM     81  F   UNL A   1      45.991  29.463  34.271  1.00  0.00    -0.206 F 
ATOM     82  C   UNL A   1      46.657  26.824  36.663  1.00  0.00     0.006 A 
ENDBRANCH  58  75
ENDBRANCH  32  33
ENDBRANCH  25  27
ENDBRANCH  24  25
ENDBRANCH  23  24
ENDBRANCH   1  23
TORSDOF 13
ENDMDL
MODEL 3
REMARK VINA RESULT:     -11.4      4.119      7.836
REMARK SMILES Cn1ncc(C(=O)OCCOC(=O)c2ccc(-c3c4nc(c(-c5c(F)cccc5F)c5ccc([nH]5)c(-c5c(F)cccc5F)c5nc(c(-c6c(F)cccc6F)c6ccc3[nH]6)C=C5)C=C4)cc2)c1C(=O)N1CCN(S(C)(=O)=O)CC1
REMARK SMILES IDX 9 1 8 2 6 3 7 4 5 5 1 6 2 7 3 8 68 9 4 10 69 11 70 12 71 13
REMARK SMILES IDX 72 14 80 15 73 16 79 17 74 18 75 19 76 20 77 21 78 22 10 23
REMARK SMILES IDX 11 24 12 25 13 26 14 27 15 28 67 29 16 30 66 31 17 32 18 33
REMARK SMILES IDX 19 34 60 35 20 36 65 37 59 38 61 39 21 40 64 41 58 42 57 43
REMARK SMILES IDX 22 45 48 46 31 47 47 48 32 49 35 50 46 51 62 52 33 53 34 54
REMARK SMILES IDX 45 56 63 57 36 58 23 59 24 60 29 61 25 62 26 63 28 64 30 65
REMARK SMILES IDX 27 66 49 67 50 68 55 69 51 70 52 71 54 72 56 73 53 74 37 75
REMARK SMILES IDX 38 76 43 77 39 78 40 79 42 80 44 81 41 82
REMARK H PARENT 61 44 35 55
REMARK Flexibility Score: inf
ROOT
ATOM      1  C   UNL A   1      31.358  31.952  26.553  1.00  0.00     0.275 C 
ENDROOT
BRANCH   1   2
ATOM      2  O   UNL A   1      31.761  30.598  26.839  1.00  0.00    -0.458 OA
BRANCH   2   3
ATOM      3  C   UNL A   1      32.369  29.924  25.823  1.00  0.00     0.342 C 
ATOM      4  O   UNL A   1      33.582  29.874  25.652  1.00  0.00    -0.246 OA
BRANCH   3   5
ATOM      5  C   UNL A   1      31.461  29.117  25.022  1.00  0.00     0.111 A 
ATOM      6  C   UNL A   1      29.332  26.433  23.859  1.00  0.00     0.174 C 
ATOM      7  N   UNL A   1      30.169  27.573  24.146  1.00  0.00    -0.262 N 
ATOM      8  N   UNL A   1      29.913  28.672  23.414  1.00  0.00    -0.180 NA
ATOM      9  C   UNL A   1      31.112  27.769  25.139  1.00  0.00     0.140 A 
ATOM     10  C   UNL A   1      30.624  29.620  24.007  1.00  0.00     0.151 A 
BRANCH   9  11
ATOM     11  C   UNL A   1      31.513  26.888  26.223  1.00  0.00     0.273 C 
ATOM     12  O   UNL A   1      31.098  27.030  27.373  1.00  0.00    -0.267 OA
ATOM     13  N   UNL A   1      32.212  25.734  25.903  1.00  0.00    -0.335 N 
ATOM     14  C   UNL A   1      31.782  24.523  26.596  1.00  0.00     0.136 C 
ATOM     15  C   UNL A   1      33.638  25.768  25.568  1.00  0.00     0.136 C 
ATOM     16  C   UNL A   1      32.128  23.280  25.782  1.00  0.00     0.123 C 
ATOM     17  C   UNL A   1      34.082  24.507  24.802  1.00  0.00     0.123 C 
ATOM     18  N   UNL A   1      33.571  23.259  25.430  1.00  0.00    -0.199 NA
BRANCH  18  19
ATOM     19  S   UNL A   1      34.615  22.243  26.258  1.00  0.00     0.211 S 
ATOM     20  C   UNL A   1      36.212  22.956  25.927  1.00  0.00     0.176 C 
ATOM     21  O   UNL A   1      34.353  22.384  27.672  1.00  0.00    -0.213 OA
ATOM     22  O   UNL A   1      34.572  20.950  25.609  1.00  0.00    -0.213 OA
ENDBRANCH  18  19
ENDBRANCH   9  11
ENDBRANCH   3   5
ENDBRANCH   2   3
ENDBRANCH   1   2
BRANCH   1  23
ATOM     23  C   UNL A   1      32.497  32.930  26.835  1.00  0.00     0.275 C 
BRANCH  23  24
ATOM     24  O   UNL A   1      32.141  33.800  27.926  1.00  0.00    -0.458 OA
BRANCH  24  25
ATOM     25  C   UNL A   1      33.130  34.608  28.372  1.00  0.00     0.338 C 
ATOM     26  O   UNL A   1      33.089  35.811  28.559  1.00  0.00    -0.246 OA
BRANCH  25  27
ATOM     27  C   UNL A   1      34.295  33.788  28.731  1.00  0.00     0.060 A 
ATOM     28  C   UNL A   1      34.055  32.516  29.236  1.00  0.00     0.016 A 
ATOM     29  C   UNL A   1      35.586  34.303  28.716  1.00  0.00     0.016 A 
ATOM     30  C   UNL A   1      35.082  31.770  29.804  1.00  0.00     0.010 A 
ATOM     31  C   UNL A   1      36.638  33.518  29.209  1.00  0.00     0.010 A 
ATOM     32  C   UNL A   1      36.393  32.257  29.787  1.00  0.00    -0.014 A 
BRANCH  32  33
ATOM     33  C   UNL A   1      37.486  31.470  30.425  1.00  0.00     0.031 A 
ATOM     34  C   UNL A   1      37.792  31.655  31.887  1.00  0.00     0.074 A 
ATOM     35  C   UNL A   1      38.190  30.567  29.711  1.00  0.00     0.049 A 
ATOM     36  N   UNL A   1      38.805  31.211  32.586  1.00  0.00    -0.248 NA
ATOM     37  C   UNL A   1      36.833  32.457  32.664  1.00  0.00     0.031 C 
ATOM     38  C   UNL A   1      37.963  30.232  28.303  1.00  0.00     0.029 A 
ATOM     39  N   UNL A   1      39.242  29.762  30.075  1.00  0.00    -0.354 N 
ATOM     40  C   UNL A   1      38.636  31.723  33.866  1.00  0.00     0.074 A 
ATOM     41  C   UNL A   1      37.426  32.517  33.847  1.00  0.00     0.031 C 
ATOM     42  C   UNL A   1      38.826  29.275  27.934  1.00  0.00     0.029 A 
ATOM     43  C   UNL A   1      39.726  28.990  29.045  1.00  0.00     0.049 A 
ATOM     44  H   UNL A   1      39.613  29.740  30.987  1.00  0.00     0.167 HD
ATOM     45  C   UNL A   1      39.421  31.549  34.957  1.00  0.00     0.037 A 
ATOM     46  C   UNL A   1      40.801  28.182  28.984  1.00  0.00     0.037 A 
ATOM     47  C   UNL A   1      40.594  30.713  34.987  1.00  0.00     0.049 A 
ATOM     48  C   UNL A   1      41.685  28.044  30.192  1.00  0.00     0.074 A 
ATOM     49  C   UNL A   1      41.446  30.460  36.048  1.00  0.00     0.029 A 
ATOM     50  N   UNL A   1      41.068  29.980  33.910  1.00  0.00    -0.354 N 
ATOM     51  N   UNL A   1      41.550  28.581  31.380  1.00  0.00    -0.248 NA
ATOM     52  C   UNL A   1      42.883  27.206  30.043  1.00  0.00     0.031 C 
ATOM     53  C   UNL A   1      42.459  29.605  35.602  1.00  0.00     0.029 A 
ATOM     54  C   UNL A   1      42.213  29.289  34.276  1.00  0.00     0.049 A 
ATOM     55  H   UNL A   1      40.655  29.955  33.017  1.00  0.00     0.167 HD
ATOM     56  C   UNL A   1      42.635  28.136  32.124  1.00  0.00     0.074 A 
ATOM     57  C   UNL A   1      43.408  27.268  31.258  1.00  0.00     0.031 C 
ATOM     58  C   UNL A   1      42.967  28.426  33.404  1.00  0.00     0.037 A 
BRANCH  45  59
ATOM     59  C   UNL A   1      39.059  32.305  36.202  1.00  0.00     0.057 A 
ATOM     60  C   UNL A   1      39.547  33.592  36.465  1.00  0.00     0.134 A 
ATOM     61  C   UNL A   1      38.177  31.747  37.137  1.00  0.00     0.134 A 
ATOM     62  F   UNL A   1      40.406  34.179  35.618  1.00  0.00    -0.206 F 
ATOM     63  C   UNL A   1      39.187  34.285  37.623  1.00  0.00     0.040 A 
ATOM     64  C   UNL A   1      37.791  32.440  38.285  1.00  0.00     0.040 A 
ATOM     65  F   UNL A   1      37.668  30.520  36.943  1.00  0.00    -0.206 F 
ATOM     66  C   UNL A   1      38.302  33.712  38.533  1.00  0.00     0.006 A 
ENDBRANCH  45  59
BRANCH  46  67
ATOM     67  C   UNL A   1      41.134  27.482  27.718  1.00  0.00     0.057 A 
ATOM     68  C   UNL A   1      41.902  28.102  26.726  1.00  0.00     0.134 A 
ATOM     69  C   UNL A   1      40.685  26.179  27.464  1.00  0.00     0.134 A 
ATOM     70  F   UNL A   1      42.339  29.357  26.897  1.00  0.00    -0.206 F 
ATOM     71  C   UNL A   1      42.201  27.458  25.524  1.00  0.00     0.040 A 
ATOM     72  C   UNL A   1      41.001  25.512  26.280  1.00  0.00     0.040 A 
ATOM     73  F   UNL A   1      39.942  25.529  28.373  1.00  0.00    -0.206 F 
ATOM     74  C   UNL A   1      41.756  26.155  25.303  1.00  0.00     0.006 A 
ENDBRANCH  46  67
BRANCH  58  75
ATOM     75  C   UNL A   1      44.200  27.774  33.955  1.00  0.00     0.057 A 
ATOM     76  C   UNL A   1      44.162  26.504  34.544  1.00  0.00     0.134 A 
ATOM     77  C   UNL A   1      45.444  28.411  33.869  1.00  0.00     0.134 A 
ATOM     78  F   UNL A   1      42.999  25.847  34.669  1.00  0.00    -0.206 F 
ATOM     79  C   UNL A   1      45.315  25.900  35.047  1.00  0.00     0.040 A 
ATOM     80  C   UNL A   1      46.608  27.808  34.346  1.00  0.00     0.040 A 
ATOM     81  F   UNL A   1      45.549  29.627  33.310  1.00  0.00    -0.206 F 
ATOM     82  C   UNL A   1      46.543  26.550  34.943  1.00  0.00     0.006 A 
ENDBRANCH  58  75
ENDBRANCH  32  33
ENDBRANCH  25  27
ENDBRANCH  24  25
ENDBRANCH  23  24
ENDBRANCH   1  23
TORSDOF 13
ENDMDL
