MODEL 1
REMARK VINA RESULT:     -11.1      0.000      0.000
REMARK SMILES Cn1cc(SCC[C@@H]2CCC[C@@]2([NH3+])C(=O)OCCOC(=O)c2ccc(-c3c4nc(c(-c5c(F)cccc5F)c5ccc([nH]5)c(-c5c(F)cccc5F)c5nc(c(-c6c(F)cccc6F)c6ccc3[nH]6)C=C5)C=C4)cc2)cn1
REMARK SMILES IDX 17 1 16 2 14 3 15 4 12 5 8 6 9 7 10 8 11 9 7 10 6 11 5 12
REMARK SMILES IDX 4 13 1 14 2 15 3 16 77 17 76 18 13 19 18 23 19 24 20 25
REMARK SMILES IDX 21 26 22 27 23 28 75 29 24 30 74 31 25 32 26 33 27 34 68 35
REMARK SMILES IDX 28 36 73 37 67 38 69 39 29 40 72 41 66 42 65 43 30 45 56 46
REMARK SMILES IDX 39 47 55 48 40 49 43 50 54 51 70 52 41 53 42 54 53 56 71 57
REMARK SMILES IDX 44 58 31 59 32 60 37 61 33 62 34 63 36 64 38 65 35 66 57 67
REMARK SMILES IDX 58 68 63 69 59 70 60 71 62 72 64 73 61 74 45 75 46 76 51 77
REMARK SMILES IDX 47 78 48 79 50 80 52 81 49 82
REMARK H PARENT 13 20 13 21 13 22 69 44 43 55
REMARK Flexibility Score: inf
ROOT
ATOM      1  C   UNL A   1      40.604  20.182  26.181  1.00  0.00     0.274 C 
ENDROOT
BRANCH   1   2
ATOM      2  O   UNL A   1      39.519  21.125  26.060  1.00  0.00    -0.457 OA
BRANCH   2   3
ATOM      3  C   UNL A   1      38.432  20.702  25.348  1.00  0.00     0.368 C 
ATOM      4  O   UNL A   1      38.284  19.561  24.925  1.00  0.00    -0.245 OA
BRANCH   3   5
ATOM      5  C   UNL A   1      37.425  21.859  25.103  1.00  0.00     0.195 C 
ATOM      6  C   UNL A   1      36.064  21.565  25.765  1.00  0.00     0.063 C 
ATOM      7  C   UNL A   1      35.432  22.963  25.864  1.00  0.00     0.011 C 
ATOM      8  C   UNL A   1      36.589  23.899  26.199  1.00  0.00     0.008 C 
ATOM      9  C   UNL A   1      37.863  23.114  25.893  1.00  0.00     0.081 C 
BRANCH   6  10
ATOM     10  C   UNL A   1      35.159  20.536  25.070  1.00  0.00     0.022 C 
BRANCH  10  11
ATOM     11  C   UNL A   1      33.651  20.843  25.130  1.00  0.00     0.075 C 
BRANCH  11  12
ATOM     12  S   UNL A   1      32.557  19.905  24.013  1.00  0.00    -0.123 SA
BRANCH  12  13
ATOM     13  C   UNL A   1      33.001  18.248  24.303  1.00  0.00     0.045 A 
ATOM     14  C   UNL A   1      32.588  14.923  25.537  1.00  0.00     0.173 C 
ATOM     15  N   UNL A   1      33.029  16.167  24.954  1.00  0.00    -0.275 N 
ATOM     16  C   UNL A   1      32.661  17.423  25.348  1.00  0.00     0.123 A 
ATOM     17  N   UNL A   1      33.764  16.155  23.825  1.00  0.00    -0.181 NA
ATOM     18  C   UNL A   1      33.745  17.432  23.429  1.00  0.00     0.150 A 
ENDBRANCH  12  13
ENDBRANCH  11  12
ENDBRANCH  10  11
ENDBRANCH   6  10
BRANCH   5  19
ATOM     19  N   UNL A   1      37.307  22.194  23.666  1.00  0.00    -0.343 N 
ATOM     20  H   UNL A   1      37.555  23.172  23.523  1.00  0.00     0.345 HD
ATOM     21  H   UNL A   1      36.346  22.038  23.359  1.00  0.00     0.345 HD
ATOM     22  H   UNL A   1      37.937  21.601  23.126  1.00  0.00     0.345 HD
ENDBRANCH   5  19
ENDBRANCH   3   5
ENDBRANCH   2   3
ENDBRANCH   1   2
BRANCH   1  23
ATOM     23  C   UNL A   1      41.924  20.946  26.106  1.00  0.00     0.275 C 
BRANCH  23  24
ATOM     24  O   UNL A   1      41.685  22.196  25.431  1.00  0.00    -0.458 OA
BRANCH  24  25
ATOM     25  C   UNL A   1      42.676  23.107  25.520  1.00  0.00     0.338 C 
ATOM     26  O   UNL A   1      43.757  23.072  24.945  1.00  0.00    -0.246 OA
BRANCH  25  27
ATOM     27  C   UNL A   1      42.260  24.217  26.408  1.00  0.00     0.060 A 
ATOM     28  C   UNL A   1      42.894  25.456  26.323  1.00  0.00     0.016 A 
ATOM     29  C   UNL A   1      41.304  24.006  27.403  1.00  0.00     0.016 A 
ATOM     30  C   UNL A   1      42.647  26.453  27.265  1.00  0.00     0.010 A 
ATOM     31  C   UNL A   1      40.985  25.044  28.289  1.00  0.00     0.010 A 
ATOM     32  C   UNL A   1      41.674  26.270  28.252  1.00  0.00    -0.014 A 
BRANCH  32  33
ATOM     33  C   UNL A   1      41.417  27.328  29.271  1.00  0.00     0.031 A 
ATOM     34  C   UNL A   1      42.264  27.387  30.516  1.00  0.00     0.074 A 
ATOM     35  C   UNL A   1      40.442  28.243  29.099  1.00  0.00     0.049 A 
ATOM     36  N   UNL A   1      42.065  28.056  31.623  1.00  0.00    -0.248 NA
ATOM     37  C   UNL A   1      43.492  26.574  30.518  1.00  0.00     0.031 C 
ATOM     38  C   UNL A   1      39.579  28.361  27.922  1.00  0.00     0.029 A 
ATOM     39  N   UNL A   1      40.010  29.254  29.925  1.00  0.00    -0.354 N 
ATOM     40  C   UNL A   1      43.096  27.686  32.478  1.00  0.00     0.074 A 
ATOM     41  C   UNL A   1      43.930  26.749  31.757  1.00  0.00     0.031 C 
ATOM     42  C   UNL A   1      38.739  29.395  28.091  1.00  0.00     0.029 A 
ATOM     43  C   UNL A   1      38.941  29.958  29.421  1.00  0.00     0.049 A 
ATOM     44  H   UNL A   1      40.426  29.455  30.795  1.00  0.00     0.167 HD
ATOM     45  C   UNL A   1      43.321  28.086  33.752  1.00  0.00     0.037 A 
ATOM     46  C   UNL A   1      38.171  30.911  29.982  1.00  0.00     0.037 A 
ATOM     47  C   UNL A   1      42.540  29.075  34.444  1.00  0.00     0.049 A 
ATOM     48  C   UNL A   1      38.434  31.332  31.401  1.00  0.00     0.074 A 
ATOM     49  C   UNL A   1      42.703  29.559  35.731  1.00  0.00     0.029 A 
ATOM     50  N   UNL A   1      41.462  29.753  33.896  1.00  0.00    -0.354 N 
ATOM     51  N   UNL A   1      39.364  30.919  32.227  1.00  0.00    -0.248 NA
ATOM     52  C   UNL A   1      37.522  32.332  31.975  1.00  0.00     0.031 C 
ATOM     53  C   UNL A   1      41.709  30.514  35.971  1.00  0.00     0.029 A 
ATOM     54  C   UNL A   1      40.947  30.645  34.822  1.00  0.00     0.049 A 
ATOM     55  H   UNL A   1      41.115  29.620  32.985  1.00  0.00     0.167 HD
ATOM     56  C   UNL A   1      39.152  31.608  33.413  1.00  0.00     0.074 A 
ATOM     57  C   UNL A   1      38.021  32.485  33.193  1.00  0.00     0.031 C 
ATOM     58  C   UNL A   1      39.825  31.514  34.585  1.00  0.00     0.037 A 
BRANCH  45  59
ATOM     59  C   UNL A   1      44.436  27.422  34.501  1.00  0.00     0.057 A 
ATOM     60  C   UNL A   1      45.720  27.973  34.570  1.00  0.00     0.134 A 
ATOM     61  C   UNL A   1      44.201  26.233  35.203  1.00  0.00     0.134 A 
ATOM     62  F   UNL A   1      46.013  29.102  33.908  1.00  0.00    -0.206 F 
ATOM     63  C   UNL A   1      46.737  27.357  35.304  1.00  0.00     0.040 A 
ATOM     64  C   UNL A   1      45.202  25.618  35.956  1.00  0.00     0.040 A 
ATOM     65  F   UNL A   1      42.989  25.656  35.179  1.00  0.00    -0.206 F 
ATOM     66  C   UNL A   1      46.476  26.180  36.005  1.00  0.00     0.006 A 
ENDBRANCH  45  59
BRANCH  46  67
ATOM     67  C   UNL A   1      37.031  31.487  29.227  1.00  0.00     0.057 A 
ATOM     68  C   UNL A   1      37.105  32.766  28.665  1.00  0.00     0.134 A 
ATOM     69  C   UNL A   1      35.833  30.779  29.065  1.00  0.00     0.134 A 
ATOM     70  F   UNL A   1      38.214  33.505  28.811  1.00  0.00    -0.206 F 
ATOM     71  C   UNL A   1      36.025  33.325  27.977  1.00  0.00     0.040 A 
ATOM     72  C   UNL A   1      34.757  31.315  28.358  1.00  0.00     0.040 A 
ATOM     73  F   UNL A   1      35.699  29.548  29.582  1.00  0.00    -0.206 F 
ATOM     74  C   UNL A   1      34.848  32.595  27.818  1.00  0.00     0.006 A 
ENDBRANCH  46  67
BRANCH  58  75
ATOM     75  C   UNL A   1      39.369  32.396  35.706  1.00  0.00     0.057 A 
ATOM     76  C   UNL A   1      39.876  33.690  35.872  1.00  0.00     0.134 A 
ATOM     77  C   UNL A   1      38.392  31.958  36.607  1.00  0.00     0.134 A 
ATOM     78  F   UNL A   1      40.825  34.159  35.048  1.00  0.00    -0.206 F 
ATOM     79  C   UNL A   1      39.436  34.515  36.908  1.00  0.00     0.040 A 
ATOM     80  C   UNL A   1      37.930  32.780  37.635  1.00  0.00     0.040 A 
ATOM     81  F   UNL A   1      37.864  30.730  36.496  1.00  0.00    -0.206 F 
ATOM     82  C   UNL A   1      38.457  34.062  37.790  1.00  0.00     0.006 A 
ENDBRANCH  58  75
ENDBRANCH  32  33
ENDBRANCH  25  27
ENDBRANCH  24  25
ENDBRANCH  23  24
ENDBRANCH   1  23
TORSDOF 16
ENDMDL
MODEL 2
REMARK VINA RESULT:     -10.8      6.194     10.678
REMARK SMILES Cn1cc(SCC[C@@H]2CCC[C@@]2([NH3+])C(=O)OCCOC(=O)c2ccc(-c3c4nc(c(-c5c(F)cccc5F)c5ccc([nH]5)c(-c5c(F)cccc5F)c5nc(c(-c6c(F)cccc6F)c6ccc3[nH]6)C=C5)C=C4)cc2)cn1
REMARK SMILES IDX 17 1 16 2 14 3 15 4 12 5 8 6 9 7 10 8 11 9 7 10 6 11 5 12
REMARK SMILES IDX 4 13 1 14 2 15 3 16 77 17 76 18 13 19 18 23 19 24 20 25
REMARK SMILES IDX 21 26 22 27 23 28 75 29 24 30 74 31 25 32 26 33 27 34 68 35
REMARK SMILES IDX 28 36 73 37 67 38 69 39 29 40 72 41 66 42 65 43 30 45 56 46
REMARK SMILES IDX 39 47 55 48 40 49 43 50 54 51 70 52 41 53 42 54 53 56 71 57
REMARK SMILES IDX 44 58 31 59 32 60 37 61 33 62 34 63 36 64 38 65 35 66 57 67
REMARK SMILES IDX 58 68 63 69 59 70 60 71 62 72 64 73 61 74 45 75 46 76 51 77
REMARK SMILES IDX 47 78 48 79 50 80 52 81 49 82
REMARK H PARENT 13 20 13 21 13 22 69 44 43 55
REMARK Flexibility Score: inf
ROOT
ATOM      1  C   UNL A   1      32.473  30.107  26.934  1.00  0.00     0.274 C 
ENDROOT
BRANCH   1   2
ATOM      2  O   UNL A   1      32.925  28.742  26.813  1.00  0.00    -0.457 OA
BRANCH   2   3
ATOM      3  C   UNL A   1      31.985  27.775  27.036  1.00  0.00     0.368 C 
ATOM      4  O   UNL A   1      31.128  27.834  27.911  1.00  0.00    -0.245 OA
BRANCH   3   5
ATOM      5  C   UNL A   1      32.165  26.572  26.071  1.00  0.00     0.195 C 
ATOM      6  C   UNL A   1      31.667  26.913  24.653  1.00  0.00     0.063 C 
ATOM      7  C   UNL A   1      32.379  25.862  23.787  1.00  0.00     0.011 C 
ATOM      8  C   UNL A   1      33.762  25.703  24.412  1.00  0.00     0.008 C 
ATOM      9  C   UNL A   1      33.668  26.335  25.799  1.00  0.00     0.081 C 
BRANCH   6  10
ATOM     10  C   UNL A   1      30.146  26.949  24.438  1.00  0.00     0.022 C 
BRANCH  10  11
ATOM     11  C   UNL A   1      29.679  27.719  23.188  1.00  0.00     0.075 C 
BRANCH  11  12
ATOM     12  S   UNL A   1      27.933  28.241  23.126  1.00  0.00    -0.123 SA
BRANCH  12  13
ATOM     13  C   UNL A   1      28.024  29.915  22.661  1.00  0.00     0.045 A 
ATOM     14  C   UNL A   1      27.847  32.703  20.438  1.00  0.00     0.173 C 
ATOM     15  N   UNL A   1      28.009  31.784  21.539  1.00  0.00    -0.275 N 
ATOM     16  C   UNL A   1      28.366  30.468  21.451  1.00  0.00     0.123 A 
ATOM     17  N   UNL A   1      27.653  32.160  22.782  1.00  0.00    -0.181 NA
ATOM     18  C   UNL A   1      27.665  31.012  23.468  1.00  0.00     0.150 A 
ENDBRANCH  12  13
ENDBRANCH  11  12
ENDBRANCH  10  11
ENDBRANCH   6  10
BRANCH   5  19
ATOM     19  N   UNL A   1      31.558  25.334  26.613  1.00  0.00    -0.343 N 
ATOM     20  H   UNL A   1      30.701  25.567  27.115  1.00  0.00     0.345 HD
ATOM     21  H   UNL A   1      32.215  24.884  27.250  1.00  0.00     0.345 HD
ATOM     22  H   UNL A   1      31.339  24.700  25.845  1.00  0.00     0.345 HD
ENDBRANCH   5  19
ENDBRANCH   3   5
ENDBRANCH   2   3
ENDBRANCH   1   2
BRANCH   1  23
ATOM     23  C   UNL A   1      33.619  30.952  27.486  1.00  0.00     0.275 C 
BRANCH  23  24
ATOM     24  O   UNL A   1      34.671  30.065  27.911  1.00  0.00    -0.458 OA
BRANCH  24  25
ATOM     25  C   UNL A   1      35.523  30.567  28.829  1.00  0.00     0.338 C 
ATOM     26  O   UNL A   1      35.272  31.417  29.674  1.00  0.00    -0.246 OA
BRANCH  25  27
ATOM     27  C   UNL A   1      36.843  29.907  28.701  1.00  0.00     0.060 A 
ATOM     28  C   UNL A   1      37.450  29.335  29.819  1.00  0.00     0.016 A 
ATOM     29  C   UNL A   1      37.537  29.939  27.491  1.00  0.00     0.016 A 
ATOM     30  C   UNL A   1      38.763  28.873  29.763  1.00  0.00     0.010 A 
ATOM     31  C   UNL A   1      38.821  29.385  27.411  1.00  0.00     0.010 A 
ATOM     32  C   UNL A   1      39.464  28.872  28.554  1.00  0.00    -0.014 A 
BRANCH  32  33
ATOM     33  C   UNL A   1      40.875  28.393  28.493  1.00  0.00     0.031 A 
ATOM     34  C   UNL A   1      42.003  29.360  28.741  1.00  0.00     0.074 A 
ATOM     35  C   UNL A   1      41.164  27.103  28.226  1.00  0.00     0.049 A 
ATOM     36  N   UNL A   1      43.283  29.219  28.505  1.00  0.00    -0.248 NA
ATOM     37  C   UNL A   1      41.640  30.664  29.320  1.00  0.00     0.031 C 
ATOM     38  C   UNL A   1      40.187  26.031  28.027  1.00  0.00     0.029 A 
ATOM     39  N   UNL A   1      42.378  26.473  28.073  1.00  0.00    -0.354 N 
ATOM     40  C   UNL A   1      43.863  30.438  28.833  1.00  0.00     0.074 A 
ATOM     41  C   UNL A   1      42.802  31.301  29.302  1.00  0.00     0.031 C 
ATOM     42  C   UNL A   1      40.836  24.878  27.800  1.00  0.00     0.029 A 
ATOM     43  C   UNL A   1      42.269  25.141  27.750  1.00  0.00     0.049 A 
ATOM     44  H   UNL A   1      43.241  26.932  28.184  1.00  0.00     0.167 HD
ATOM     45  C   UNL A   1      45.164  30.805  28.741  1.00  0.00     0.037 A 
ATOM     46  C   UNL A   1      43.208  24.242  27.397  1.00  0.00     0.037 A 
ATOM     47  C   UNL A   1      46.232  29.925  28.350  1.00  0.00     0.049 A 
ATOM     48  C   UNL A   1      44.644  24.675  27.294  1.00  0.00     0.074 A 
ATOM     49  C   UNL A   1      47.585  30.203  28.246  1.00  0.00     0.029 A 
ATOM     50  N   UNL A   1      46.072  28.588  28.023  1.00  0.00    -0.354 N 
ATOM     51  N   UNL A   1      45.172  25.851  27.531  1.00  0.00    -0.248 NA
ATOM     52  C   UNL A   1      45.611  23.662  26.846  1.00  0.00     0.031 C 
ATOM     53  C   UNL A   1      48.241  29.039  27.833  1.00  0.00     0.029 A 
ATOM     54  C   UNL A   1      47.300  28.030  27.710  1.00  0.00     0.049 A 
ATOM     55  H   UNL A   1      45.213  28.108  28.014  1.00  0.00     0.167 HD
ATOM     56  C   UNL A   1      46.527  25.720  27.265  1.00  0.00     0.074 A 
ATOM     57  C   UNL A   1      46.748  24.343  26.873  1.00  0.00     0.031 C 
ATOM     58  C   UNL A   1      47.502  26.658  27.328  1.00  0.00     0.037 A 
BRANCH  45  59
ATOM     59  C   UNL A   1      45.503  32.236  29.032  1.00  0.00     0.057 A 
ATOM     60  C   UNL A   1      45.456  33.229  28.047  1.00  0.00     0.134 A 
ATOM     61  C   UNL A   1      45.837  32.627  30.334  1.00  0.00     0.134 A 
ATOM     62  F   UNL A   1      45.157  32.916  26.778  1.00  0.00    -0.206 F 
ATOM     63  C   UNL A   1      45.741  34.563  28.347  1.00  0.00     0.040 A 
ATOM     64  C   UNL A   1      46.105  33.959  30.651  1.00  0.00     0.040 A 
ATOM     65  F   UNL A   1      45.897  31.722  31.323  1.00  0.00    -0.206 F 
ATOM     66  C   UNL A   1      46.060  34.931  29.654  1.00  0.00     0.006 A 
ENDBRANCH  45  59
BRANCH  46  67
ATOM     67  C   UNL A   1      42.815  22.854  27.047  1.00  0.00     0.057 A 
ATOM     68  C   UNL A   1      42.515  21.912  28.038  1.00  0.00     0.134 A 
ATOM     69  C   UNL A   1      42.748  22.431  25.713  1.00  0.00     0.134 A 
ATOM     70  F   UNL A   1      42.590  22.248  29.333  1.00  0.00    -0.206 F 
ATOM     71  C   UNL A   1      42.173  20.597  27.715  1.00  0.00     0.040 A 
ATOM     72  C   UNL A   1      42.382  21.128  25.376  1.00  0.00     0.040 A 
ATOM     73  F   UNL A   1      43.026  23.286  24.717  1.00  0.00    -0.206 F 
ATOM     74  C   UNL A   1      42.100  20.204  26.379  1.00  0.00     0.006 A 
ENDBRANCH  46  67
BRANCH  58  75
ATOM     75  C   UNL A   1      48.893  26.220  26.985  1.00  0.00     0.057 A 
ATOM     76  C   UNL A   1      49.400  26.345  25.687  1.00  0.00     0.134 A 
ATOM     77  C   UNL A   1      49.742  25.702  27.970  1.00  0.00     0.134 A 
ATOM     78  F   UNL A   1      48.630  26.822  24.698  1.00  0.00    -0.206 F 
ATOM     79  C   UNL A   1      50.704  25.953  25.376  1.00  0.00     0.040 A 
ATOM     80  C   UNL A   1      51.052  25.324  27.675  1.00  0.00     0.040 A 
ATOM     81  F   UNL A   1      49.314  25.563  29.234  1.00  0.00    -0.206 F 
ATOM     82  C   UNL A   1      51.534  25.446  26.373  1.00  0.00     0.006 A 
ENDBRANCH  58  75
ENDBRANCH  32  33
ENDBRANCH  25  27
ENDBRANCH  24  25
ENDBRANCH  23  24
ENDBRANCH   1  23
TORSDOF 16
ENDMDL
MODEL 3
REMARK VINA RESULT:     -10.4      1.580      2.581
REMARK SMILES Cn1cc(SCC[C@@H]2CCC[C@@]2([NH3+])C(=O)OCCOC(=O)c2ccc(-c3c4nc(c(-c5c(F)cccc5F)c5ccc([nH]5)c(-c5c(F)cccc5F)c5nc(c(-c6c(F)cccc6F)c6ccc3[nH]6)C=C5)C=C4)cc2)cn1
REMARK SMILES IDX 17 1 16 2 14 3 15 4 12 5 8 6 9 7 10 8 11 9 7 10 6 11 5 12
REMARK SMILES IDX 4 13 1 14 2 15 3 16 77 17 76 18 13 19 18 23 19 24 20 25
REMARK SMILES IDX 21 26 22 27 23 28 75 29 24 30 74 31 25 32 26 33 27 34 68 35
REMARK SMILES IDX 28 36 73 37 67 38 69 39 29 40 72 41 66 42 65 43 30 45 56 46
REMARK SMILES IDX 39 47 55 48 40 49 43 50 54 51 70 52 41 53 42 54 53 56 71 57
REMARK SMILES IDX 44 58 31 59 32 60 37 61 33 62 34 63 36 64 38 65 35 66 57 67
REMARK SMILES IDX 58 68 63 69 59 70 60 71 62 72 64 73 61 74 45 75 46 76 51 77
REMARK SMILES IDX 47 78 48 79 50 80 52 81 49 82
REMARK H PARENT 13 20 13 21 13 22 69 44 43 55
REMARK Flexibility Score: inf
ROOT
ATOM      1  C   UNL A   1      40.517  20.134  26.126  1.00  0.00     0.274 C 
ENDROOT
BRANCH   1   2
ATOM      2  O   UNL A   1      39.415  21.065  26.166  1.00  0.00    -0.457 OA
BRANCH   2   3
ATOM      3  C   UNL A   1      38.346  20.766  25.369  1.00  0.00     0.368 C 
ATOM      4  O   UNL A   1      38.148  19.668  24.862  1.00  0.00    -0.245 OA
BRANCH   3   5
ATOM      5  C   UNL A   1      37.436  22.005  25.148  1.00  0.00     0.195 C 
ATOM      6  C   UNL A   1      36.093  21.851  25.890  1.00  0.00     0.063 C 
ATOM      7  C   UNL A   1      35.596  23.303  25.986  1.00  0.00     0.011 C 
ATOM      8  C   UNL A   1      36.851  24.136  26.233  1.00  0.00     0.008 C 
ATOM      9  C   UNL A   1      38.029  23.232  25.879  1.00  0.00     0.081 C 
BRANCH   6  10
ATOM     10  C   UNL A   1      35.061  20.895  25.273  1.00  0.00     0.022 C 
BRANCH  10  11
ATOM     11  C   UNL A   1      33.633  21.020  25.836  1.00  0.00     0.075 C 
BRANCH  11  12
ATOM     12  S   UNL A   1      32.277  21.261  24.640  1.00  0.00    -0.123 SA
BRANCH  12  13
ATOM     13  C   UNL A   1      32.679  22.766  23.865  1.00  0.00     0.045 A 
ATOM     14  C   UNL A   1      33.636  26.202  23.699  1.00  0.00     0.173 C 
ATOM     15  N   UNL A   1      33.229  24.838  23.464  1.00  0.00    -0.275 N 
ATOM     16  C   UNL A   1      32.494  24.053  24.308  1.00  0.00     0.123 A 
ATOM     17  N   UNL A   1      33.703  24.172  22.394  1.00  0.00    -0.181 NA
ATOM     18  C   UNL A   1      33.364  22.903  22.642  1.00  0.00     0.150 A 
ENDBRANCH  12  13
ENDBRANCH  11  12
ENDBRANCH  10  11
ENDBRANCH   6  10
BRANCH   5  19
ATOM     19  N   UNL A   1      37.267  22.318  23.710  1.00  0.00    -0.343 N 
ATOM     20  H   UNL A   1      36.277  22.455  23.506  1.00  0.00     0.345 HD
ATOM     21  H   UNL A   1      37.626  21.544  23.150  1.00  0.00     0.345 HD
ATOM     22  H   UNL A   1      37.782  23.169  23.486  1.00  0.00     0.345 HD
ENDBRANCH   5  19
ENDBRANCH   3   5
ENDBRANCH   2   3
ENDBRANCH   1   2
BRANCH   1  23
ATOM     23  C   UNL A   1      41.823  20.923  26.182  1.00  0.00     0.275 C 
BRANCH  23  24
ATOM     24  O   UNL A   1      41.604  22.204  25.563  1.00  0.00    -0.458 OA
BRANCH  24  25
ATOM     25  C   UNL A   1      42.622  23.084  25.665  1.00  0.00     0.338 C 
ATOM     26  O   UNL A   1      43.714  23.008  25.115  1.00  0.00    -0.246 OA
BRANCH  25  27
ATOM     27  C   UNL A   1      42.222  24.216  26.532  1.00  0.00     0.060 A 
ATOM     28  C   UNL A   1      42.919  25.423  26.472  1.00  0.00     0.016 A 
ATOM     29  C   UNL A   1      41.215  24.057  27.485  1.00  0.00     0.016 A 
ATOM     30  C   UNL A   1      42.679  26.435  27.400  1.00  0.00     0.010 A 
ATOM     31  C   UNL A   1      40.908  25.112  28.355  1.00  0.00     0.010 A 
ATOM     32  C   UNL A   1      41.657  26.304  28.344  1.00  0.00    -0.014 A 
BRANCH  32  33
ATOM     33  C   UNL A   1      41.408  27.377  29.349  1.00  0.00     0.031 A 
ATOM     34  C   UNL A   1      42.257  27.448  30.592  1.00  0.00     0.074 A 
ATOM     35  C   UNL A   1      40.438  28.295  29.166  1.00  0.00     0.049 A 
ATOM     36  N   UNL A   1      42.064  28.134  31.689  1.00  0.00    -0.248 NA
ATOM     37  C   UNL A   1      43.480  26.629  30.603  1.00  0.00     0.031 C 
ATOM     38  C   UNL A   1      39.574  28.402  27.988  1.00  0.00     0.029 A 
ATOM     39  N   UNL A   1      40.013  29.320  29.978  1.00  0.00    -0.354 N 
ATOM     40  C   UNL A   1      43.094  27.769  32.548  1.00  0.00     0.074 A 
ATOM     41  C   UNL A   1      43.921  26.817  31.839  1.00  0.00     0.031 C 
ATOM     42  C   UNL A   1      38.740  29.443  28.145  1.00  0.00     0.029 A 
ATOM     43  C   UNL A   1      38.947  30.023  29.466  1.00  0.00     0.049 A 
ATOM     44  H   UNL A   1      40.431  29.531  30.845  1.00  0.00     0.167 HD
ATOM     45  C   UNL A   1      43.323  28.185  33.816  1.00  0.00     0.037 A 
ATOM     46  C   UNL A   1      38.184  30.988  30.015  1.00  0.00     0.037 A 
ATOM     47  C   UNL A   1      42.548  29.189  34.496  1.00  0.00     0.049 A 
ATOM     48  C   UNL A   1      38.452  31.428  31.428  1.00  0.00     0.074 A 
ATOM     49  C   UNL A   1      42.717  29.689  35.776  1.00  0.00     0.029 A 
ATOM     50  N   UNL A   1      41.474  29.865  33.940  1.00  0.00    -0.354 N 
ATOM     51  N   UNL A   1      39.380  31.021  32.258  1.00  0.00    -0.248 NA
ATOM     52  C   UNL A   1      37.546  32.441  31.989  1.00  0.00     0.031 C 
ATOM     53  C   UNL A   1      41.728  30.653  36.003  1.00  0.00     0.029 A 
ATOM     54  C   UNL A   1      40.965  30.773  34.854  1.00  0.00     0.049 A 
ATOM     55  H   UNL A   1      41.125  29.721  33.031  1.00  0.00     0.167 HD
ATOM     56  C   UNL A   1      39.174  31.727  33.435  1.00  0.00     0.074 A 
ATOM     57  C   UNL A   1      38.048  32.608  33.205  1.00  0.00     0.031 C 
ATOM     58  C   UNL A   1      39.848  31.645  34.606  1.00  0.00     0.037 A 
BRANCH  45  59
ATOM     59  C   UNL A   1      44.436  27.526  34.573  1.00  0.00     0.057 A 
ATOM     60  C   UNL A   1      44.260  26.317  35.256  1.00  0.00     0.134 A 
ATOM     61  C   UNL A   1      45.716  28.093  34.575  1.00  0.00     0.134 A 
ATOM     62  F   UNL A   1      43.055  25.731  35.304  1.00  0.00    -0.206 F 
ATOM     63  C   UNL A   1      45.320  25.701  35.925  1.00  0.00     0.040 A 
ATOM     64  C   UNL A   1      46.787  27.478  35.224  1.00  0.00     0.040 A 
ATOM     65  F   UNL A   1      45.949  29.250  33.936  1.00  0.00    -0.206 F 
ATOM     66  C   UNL A   1      46.589  26.278  35.904  1.00  0.00     0.006 A 
ENDBRANCH  45  59
BRANCH  46  67
ATOM     67  C   UNL A   1      37.046  31.561  29.253  1.00  0.00     0.057 A 
ATOM     68  C   UNL A   1      37.120  32.839  28.689  1.00  0.00     0.134 A 
ATOM     69  C   UNL A   1      35.851  30.850  29.087  1.00  0.00     0.134 A 
ATOM     70  F   UNL A   1      38.226  33.580  28.839  1.00  0.00    -0.206 F 
ATOM     71  C   UNL A   1      36.042  33.394  27.996  1.00  0.00     0.040 A 
ATOM     72  C   UNL A   1      34.776  31.382  28.374  1.00  0.00     0.040 A 
ATOM     73  F   UNL A   1      35.717  29.620  29.606  1.00  0.00    -0.206 F 
ATOM     74  C   UNL A   1      34.867  32.661  27.832  1.00  0.00     0.006 A 
ENDBRANCH  46  67
BRANCH  58  75
ATOM     75  C   UNL A   1      39.399  32.545  35.716  1.00  0.00     0.057 A 
ATOM     76  C   UNL A   1      38.442  32.132  36.651  1.00  0.00     0.134 A 
ATOM     77  C   UNL A   1      39.954  33.821  35.871  1.00  0.00     0.134 A 
ATOM     78  F   UNL A   1      37.865  30.926  36.546  1.00  0.00    -0.206 F 
ATOM     79  C   UNL A   1      38.039  32.967  37.694  1.00  0.00     0.040 A 
ATOM     80  C   UNL A   1      39.573  34.657  36.921  1.00  0.00     0.040 A 
ATOM     81  F   UNL A   1      40.880  34.270  35.011  1.00  0.00    -0.206 F 
ATOM     82  C   UNL A   1      38.609  34.231  37.834  1.00  0.00     0.006 A 
ENDBRANCH  58  75
ENDBRANCH  32  33
ENDBRANCH  25  27
ENDBRANCH  24  25
ENDBRANCH  23  24
ENDBRANCH   1  23
TORSDOF 16
ENDMDL
