MODEL 1
REMARK VINA RESULT:     -11.5      0.000      0.000
REMARK SMILES CC[C@@H](C)[C@@H](NC(=O)CCn1ccc2ccc(Br)cc21)C(=O)OCCOC(=O)c1ccc(-c2c3nc(c(-c4c(F)cccc4F)c4ccc([nH]4)c(-c4c(F)cccc4F)c4nc(c(-c5c(F)cccc5F)c5ccc2[nH]5)C=C4)C=C3)cc1
REMARK SMILES IDX 24 1 23 2 21 3 22 4 5 5 3 6 4 7 2 8 1 9 6 10 7 11 8 13 9 14
REMARK SMILES IDX 10 15 11 16 12 17 20 18 13 19 14 20 19 21 15 22 17 23 16 24
REMARK SMILES IDX 18 25 25 26 26 27 27 28 28 29 29 30 30 31 82 32 31 33 81 34
REMARK SMILES IDX 32 35 33 36 34 37 75 38 35 39 80 40 74 41 76 42 36 43 79 44
REMARK SMILES IDX 73 45 72 46 37 48 63 49 46 50 62 51 47 52 50 53 61 54 77 55
REMARK SMILES IDX 48 56 49 57 60 59 78 60 51 61 38 62 39 63 44 64 40 65 41 66
REMARK SMILES IDX 43 67 45 68 42 69 64 70 65 71 70 72 66 73 67 74 69 75 71 76
REMARK SMILES IDX 68 77 52 78 53 79 58 80 54 81 55 82 57 83 59 84 56 85
REMARK H PARENT 6 12 76 47 50 58
REMARK Flexibility Score: inf
ROOT
ATOM      1  C   UNL A   1      36.720  21.704  25.804  1.00  0.00     0.274 C 
ENDROOT
BRANCH   1   2
ATOM      2  O   UNL A   1      35.853  21.522  24.563  1.00  0.00    -0.461 OA
BRANCH   2   3
ATOM      3  C   UNL A   1      34.577  21.983  24.279  1.00  0.00     0.329 C 
ATOM      4  O   UNL A   1      34.446  23.061  23.687  1.00  0.00    -0.250 OA
BRANCH   3   5
ATOM      5  C   UNL A   1      33.089  21.036  24.809  1.00  0.00     0.195 C 
BRANCH   5   6
ATOM      6  C   UNL A   1      32.351  19.422  24.812  1.00  0.00     0.019 C 
ATOM      7  C   UNL A   1      32.792  18.145  25.634  1.00  0.00     0.010 C 
BRANCH   6   8
ATOM      8  C   UNL A   1      32.422  18.821  23.352  1.00  0.00     0.002 C 
ATOM      9  C   UNL A   1      33.147  17.458  23.236  1.00  0.00     0.004 C 
ENDBRANCH   6   8
ENDBRANCH   5   6
BRANCH   5  10
ATOM     10  N   UNL A   1      32.988  21.472  26.168  1.00  0.00    -0.342 N 
ATOM     11  C   UNL A   1      32.126  22.441  26.553  1.00  0.00     0.222 C 
ATOM     12  H   UNL A   1      33.568  21.054  26.845  1.00  0.00     0.164 HD
ATOM     13  O   UNL A   1      32.152  22.789  27.734  1.00  0.00    -0.275 OA
BRANCH  11  14
ATOM     14  C   UNL A   1      31.055  22.956  25.562  1.00  0.00     0.122 C 
BRANCH  14  15
ATOM     15  C   UNL A   1      31.028  24.423  24.971  1.00  0.00     0.132 C 
BRANCH  15  16
ATOM     16  N   UNL A   1      31.498  25.795  25.299  1.00  0.00    -0.347 N 
ATOM     17  C   UNL A   1      32.594  25.936  26.146  1.00  0.00     0.087 A 
ATOM     18  C   UNL A   1      31.235  27.100  24.954  1.00  0.00     0.049 A 
ATOM     19  C   UNL A   1      32.923  27.272  26.312  1.00  0.00     0.028 A 
ATOM     20  C   UNL A   1      32.040  28.057  25.560  1.00  0.00    -0.000 A 
ATOM     21  C   UNL A   1      30.461  27.664  24.007  1.00  0.00     0.042 A 
ATOM     22  C   UNL A   1      31.876  29.455  25.216  1.00  0.00     0.011 A 
ATOM     23  C   UNL A   1      30.097  28.943  23.804  1.00  0.00     0.020 A 
ATOM     24  C   UNL A   1      30.835  29.908  24.376  1.00  0.00     0.016 A 
ATOM     25  Br  UNL A   1      28.571  28.756  22.822  1.00  0.00    -0.051 Br
ENDBRANCH  15  16
ENDBRANCH  14  15
ENDBRANCH  11  14
ENDBRANCH   5  10
ENDBRANCH   3   5
ENDBRANCH   2   3
ENDBRANCH   1   2
BRANCH   1  26
ATOM     26  C   UNL A   1      38.346  21.800  25.646  1.00  0.00     0.275 C 
BRANCH  26  27
ATOM     27  O   UNL A   1      39.006  22.591  26.710  1.00  0.00    -0.458 OA
BRANCH  27  28
ATOM     28  C   UNL A   1      40.215  22.233  27.303  1.00  0.00     0.338 C 
ATOM     29  O   UNL A   1      40.570  21.121  27.613  1.00  0.00    -0.246 OA
BRANCH  28  30
ATOM     30  C   UNL A   1      41.154  23.446  27.210  1.00  0.00     0.060 A 
ATOM     31  C   UNL A   1      41.802  23.834  28.383  1.00  0.00     0.016 A 
ATOM     32  C   UNL A   1      40.900  24.438  26.242  1.00  0.00     0.016 A 
ATOM     33  C   UNL A   1      41.744  25.173  28.805  1.00  0.00     0.010 A 
ATOM     34  C   UNL A   1      40.863  25.798  26.664  1.00  0.00     0.010 A 
ATOM     35  C   UNL A   1      41.070  26.134  28.043  1.00  0.00    -0.014 A 
BRANCH  35  36
ATOM     36  C   UNL A   1      40.774  27.512  28.624  1.00  0.00     0.031 A 
ATOM     37  C   UNL A   1      41.812  28.298  28.000  1.00  0.00     0.074 A 
ATOM     38  C   UNL A   1      39.971  28.214  29.495  1.00  0.00     0.049 A 
ATOM     39  N   UNL A   1      43.027  28.132  28.386  1.00  0.00    -0.248 NA
ATOM     40  C   UNL A   1      41.628  28.883  26.673  1.00  0.00     0.031 C 
ATOM     41  C   UNL A   1      38.707  27.887  30.153  1.00  0.00     0.029 A 
ATOM     42  N   UNL A   1      40.187  29.497  30.023  1.00  0.00    -0.354 N 
ATOM     43  C   UNL A   1      43.749  28.866  27.498  1.00  0.00     0.074 A 
ATOM     44  C   UNL A   1      42.915  29.008  26.327  1.00  0.00     0.031 C 
ATOM     45  C   UNL A   1      38.155  28.969  30.773  1.00  0.00     0.029 A 
ATOM     46  C   UNL A   1      39.127  30.048  30.780  1.00  0.00     0.049 A 
ATOM     47  H   UNL A   1      41.029  29.985  29.875  1.00  0.00     0.167 HD
ATOM     48  C   UNL A   1      44.727  29.638  28.017  1.00  0.00     0.037 A 
ATOM     49  C   UNL A   1      39.093  31.223  31.487  1.00  0.00     0.037 A 
ATOM     50  C   UNL A   1      44.994  29.292  29.408  1.00  0.00     0.049 A 
ATOM     51  C   UNL A   1      40.484  31.515  31.884  1.00  0.00     0.074 A 
ATOM     52  C   UNL A   1      45.541  28.224  30.095  1.00  0.00     0.029 A 
ATOM     53  N   UNL A   1      44.196  29.958  30.304  1.00  0.00    -0.354 N 
ATOM     54  N   UNL A   1      41.113  30.857  32.814  1.00  0.00    -0.248 NA
ATOM     55  C   UNL A   1      41.301  32.398  31.066  1.00  0.00     0.031 C 
ATOM     56  C   UNL A   1      45.007  28.257  31.421  1.00  0.00     0.029 A 
ATOM     57  C   UNL A   1      44.160  29.352  31.534  1.00  0.00     0.049 A 
ATOM     58  H   UNL A   1      43.702  30.781  30.087  1.00  0.00     0.167 HD
ATOM     59  C   UNL A   1      42.419  30.869  32.384  1.00  0.00     0.074 A 
ATOM     60  C   UNL A   1      42.510  31.974  31.440  1.00  0.00     0.031 C 
ATOM     61  C   UNL A   1      43.187  29.755  32.525  1.00  0.00     0.037 A 
BRANCH  48  62
ATOM     62  C   UNL A   1      44.999  31.000  27.474  1.00  0.00     0.057 A 
ATOM     63  C   UNL A   1      44.172  32.131  27.658  1.00  0.00     0.134 A 
ATOM     64  C   UNL A   1      46.273  31.251  26.964  1.00  0.00     0.134 A 
ATOM     65  F   UNL A   1      42.987  32.082  28.275  1.00  0.00    -0.206 F 
ATOM     66  C   UNL A   1      44.571  33.418  27.319  1.00  0.00     0.040 A 
ATOM     67  C   UNL A   1      46.708  32.545  26.683  1.00  0.00     0.040 A 
ATOM     68  F   UNL A   1      47.152  30.251  26.797  1.00  0.00    -0.206 F 
ATOM     69  C   UNL A   1      45.855  33.632  26.853  1.00  0.00     0.006 A 
ENDBRANCH  48  62
BRANCH  49  70
ATOM     70  C   UNL A   1      38.044  32.200  31.932  1.00  0.00     0.057 A 
ATOM     71  C   UNL A   1      37.301  31.957  33.095  1.00  0.00     0.134 A 
ATOM     72  C   UNL A   1      37.480  33.154  31.050  1.00  0.00     0.134 A 
ATOM     73  F   UNL A   1      37.717  31.041  33.981  1.00  0.00    -0.206 F 
ATOM     74  C   UNL A   1      36.053  32.564  33.336  1.00  0.00     0.040 A 
ATOM     75  C   UNL A   1      36.235  33.769  31.280  1.00  0.00     0.040 A 
ATOM     76  F   UNL A   1      38.080  33.460  29.892  1.00  0.00    -0.206 F 
ATOM     77  C   UNL A   1      35.504  33.455  32.417  1.00  0.00     0.006 A 
ENDBRANCH  49  70
BRANCH  61  78
ATOM     78  C   UNL A   1      42.905  28.876  33.707  1.00  0.00     0.057 A 
ATOM     79  C   UNL A   1      43.710  29.039  34.842  1.00  0.00     0.134 A 
ATOM     80  C   UNL A   1      41.905  27.895  33.777  1.00  0.00     0.134 A 
ATOM     81  F   UNL A   1      44.693  29.954  34.845  1.00  0.00    -0.206 F 
ATOM     82  C   UNL A   1      43.538  28.269  35.993  1.00  0.00     0.040 A 
ATOM     83  C   UNL A   1      41.701  27.137  34.939  1.00  0.00     0.040 A 
ATOM     84  F   UNL A   1      41.117  27.627  32.725  1.00  0.00    -0.206 F 
ATOM     85  C   UNL A   1      42.524  27.320  36.048  1.00  0.00     0.006 A 
ENDBRANCH  61  78
ENDBRANCH  35  36
ENDBRANCH  28  30
ENDBRANCH  27  28
ENDBRANCH  26  27
ENDBRANCH   1  26
TORSDOF 17
ENDMDL
MODEL 2
REMARK VINA RESULT:     -11.4      3.467      5.942
REMARK SMILES CC[C@@H](C)[C@@H](NC(=O)CCn1ccc2ccc(Br)cc21)C(=O)OCCOC(=O)c1ccc(-c2c3nc(c(-c4c(F)cccc4F)c4ccc([nH]4)c(-c4c(F)cccc4F)c4nc(c(-c5c(F)cccc5F)c5ccc2[nH]5)C=C4)C=C3)cc1
REMARK SMILES IDX 24 1 23 2 21 3 22 4 5 5 3 6 4 7 2 8 1 9 6 10 7 11 8 13 9 14
REMARK SMILES IDX 10 15 11 16 12 17 20 18 13 19 14 20 19 21 15 22 17 23 16 24
REMARK SMILES IDX 18 25 25 26 26 27 27 28 28 29 29 30 30 31 82 32 31 33 81 34
REMARK SMILES IDX 32 35 33 36 34 37 75 38 35 39 80 40 74 41 76 42 36 43 79 44
REMARK SMILES IDX 73 45 72 46 37 48 63 49 46 50 62 51 47 52 50 53 61 54 77 55
REMARK SMILES IDX 48 56 49 57 60 59 78 60 51 61 38 62 39 63 44 64 40 65 41 66
REMARK SMILES IDX 43 67 45 68 42 69 64 70 65 71 70 72 66 73 67 74 69 75 71 76
REMARK SMILES IDX 68 77 52 78 53 79 58 80 54 81 55 82 57 83 59 84 56 85
REMARK H PARENT 6 12 76 47 50 58
REMARK Flexibility Score: inf
ROOT
ATOM      1  C   UNL A   1      41.358  19.511  26.156  1.00  0.00     0.274 C 
ENDROOT
BRANCH   1   2
ATOM      2  O   UNL A   1      40.714  20.888  26.044  1.00  0.00    -0.461 OA
BRANCH   2   3
ATOM      3  C   UNL A   1      39.387  21.251  25.878  1.00  0.00     0.329 C 
ATOM      4  O   UNL A   1      38.587  20.418  25.433  1.00  0.00    -0.250 OA
BRANCH   3   5
ATOM      5  C   UNL A   1      38.817  22.959  26.267  1.00  0.00     0.195 C 
BRANCH   5   6
ATOM      6  C   UNL A   1      39.356  24.543  26.857  1.00  0.00     0.019 C 
ATOM      7  C   UNL A   1      40.206  25.636  26.092  1.00  0.00     0.010 C 
BRANCH   6   8
ATOM      8  C   UNL A   1      40.287  24.333  28.117  1.00  0.00     0.002 C 
ATOM      9  C   UNL A   1      40.924  25.624  28.687  1.00  0.00     0.004 C 
ENDBRANCH   6   8
ENDBRANCH   5   6
BRANCH   5  10
ATOM     10  N   UNL A   1      38.091  23.257  25.071  1.00  0.00    -0.342 N 
ATOM     11  C   UNL A   1      36.740  23.213  25.016  1.00  0.00     0.222 C 
ATOM     12  H   UNL A   1      38.592  23.501  24.259  1.00  0.00     0.164 HD
ATOM     13  O   UNL A   1      36.207  23.429  23.927  1.00  0.00    -0.275 OA
BRANCH  11  14
ATOM     14  C   UNL A   1      35.922  23.052  26.320  1.00  0.00     0.122 C 
BRANCH  14  15
ATOM     15  C   UNL A   1      34.378  23.368  26.443  1.00  0.00     0.132 C 
BRANCH  15  16
ATOM     16  N   UNL A   1      33.207  23.691  25.584  1.00  0.00    -0.347 N 
ATOM     17  C   UNL A   1      32.820  22.770  24.615  1.00  0.00     0.087 A 
ATOM     18  C   UNL A   1      32.235  24.657  25.464  1.00  0.00     0.049 A 
ATOM     19  C   UNL A   1      31.693  23.208  23.938  1.00  0.00     0.028 A 
ATOM     20  C   UNL A   1      31.300  24.448  24.458  1.00  0.00    -0.000 A 
ATOM     21  C   UNL A   1      31.879  25.705  26.231  1.00  0.00     0.042 A 
ATOM     22  C   UNL A   1      30.205  25.382  24.290  1.00  0.00     0.011 A 
ATOM     23  C   UNL A   1      31.033  26.726  26.000  1.00  0.00     0.020 A 
ATOM     24  C   UNL A   1      30.116  26.580  25.032  1.00  0.00     0.016 A 
ATOM     25  Br  UNL A   1      31.638  27.994  27.165  1.00  0.00    -0.051 Br
ENDBRANCH  15  16
ENDBRANCH  14  15
ENDBRANCH  11  14
ENDBRANCH   5  10
ENDBRANCH   3   5
ENDBRANCH   2   3
ENDBRANCH   1   2
BRANCH   1  26
ATOM     26  C   UNL A   1      42.978  19.361  25.979  1.00  0.00     0.275 C 
BRANCH  26  27
ATOM     27  O   UNL A   1      43.570  20.330  25.029  1.00  0.00    -0.458 OA
BRANCH  27  28
ATOM     28  C   UNL A   1      44.435  21.356  25.409  1.00  0.00     0.338 C 
ATOM     29  O   UNL A   1      45.611  21.445  25.152  1.00  0.00    -0.246 OA
BRANCH  28  30
ATOM     30  C   UNL A   1      43.575  22.513  25.942  1.00  0.00     0.060 A 
ATOM     31  C   UNL A   1      43.095  23.426  25.003  1.00  0.00     0.016 A 
ATOM     32  C   UNL A   1      43.781  22.973  27.258  1.00  0.00     0.016 A 
ATOM     33  C   UNL A   1      43.290  24.803  25.200  1.00  0.00     0.010 A 
ATOM     34  C   UNL A   1      43.959  24.371  27.463  1.00  0.00     0.010 A 
ATOM     35  C   UNL A   1      43.935  25.275  26.350  1.00  0.00    -0.014 A 
BRANCH  35  36
ATOM     36  C   UNL A   1      44.388  26.728  26.440  1.00  0.00     0.031 A 
ATOM     37  C   UNL A   1      45.809  26.582  26.228  1.00  0.00     0.074 A 
ATOM     38  C   UNL A   1      43.976  28.020  26.678  1.00  0.00     0.049 A 
ATOM     39  N   UNL A   1      46.520  26.051  27.159  1.00  0.00    -0.248 NA
ATOM     40  C   UNL A   1      46.377  26.550  24.881  1.00  0.00     0.031 C 
ATOM     41  C   UNL A   1      42.653  28.640  26.724  1.00  0.00     0.029 A 
ATOM     42  N   UNL A   1      44.771  29.137  26.980  1.00  0.00    -0.354 N 
ATOM     43  C   UNL A   1      47.742  25.899  26.582  1.00  0.00     0.074 A 
ATOM     44  C   UNL A   1      47.512  25.895  25.156  1.00  0.00     0.031 C 
ATOM     45  C   UNL A   1      42.725  30.001  26.788  1.00  0.00     0.029 A 
ATOM     46  C   UNL A   1      44.105  30.383  27.031  1.00  0.00     0.049 A 
ATOM     47  H   UNL A   1      45.738  29.057  27.147  1.00  0.00     0.167 HD
ATOM     48  C   UNL A   1      48.804  26.262  27.332  1.00  0.00     0.037 A 
ATOM     49  C   UNL A   1      44.601  31.611  27.392  1.00  0.00     0.037 A 
ATOM     50  C   UNL A   1      48.427  26.467  28.724  1.00  0.00     0.049 A 
ATOM     51  C   UNL A   1      45.716  31.357  28.324  1.00  0.00     0.074 A 
ATOM     52  C   UNL A   1      48.011  25.682  29.784  1.00  0.00     0.029 A 
ATOM     53  N   UNL A   1      47.990  27.740  28.994  1.00  0.00    -0.354 N 
ATOM     54  N   UNL A   1      45.545  30.954  29.549  1.00  0.00    -0.248 NA
ATOM     55  C   UNL A   1      47.081  31.306  27.822  1.00  0.00     0.031 C 
ATOM     56  C   UNL A   1      47.276  26.527  30.673  1.00  0.00     0.029 A 
ATOM     57  C   UNL A   1      47.270  27.818  30.159  1.00  0.00     0.049 A 
ATOM     58  H   UNL A   1      48.172  28.514  28.414  1.00  0.00     0.167 HD
ATOM     59  C   UNL A   1      46.648  30.168  29.783  1.00  0.00     0.074 A 
ATOM     60  C   UNL A   1      47.635  30.574  28.790  1.00  0.00     0.031 C 
ATOM     61  C   UNL A   1      46.517  29.009  30.482  1.00  0.00     0.037 A 
BRANCH  48  62
ATOM     62  C   UNL A   1      49.975  26.954  26.719  1.00  0.00     0.057 A 
ATOM     63  C   UNL A   1      49.972  28.276  26.223  1.00  0.00     0.134 A 
ATOM     64  C   UNL A   1      51.229  26.359  26.868  1.00  0.00     0.134 A 
ATOM     65  F   UNL A   1      48.873  29.037  26.164  1.00  0.00    -0.206 F 
ATOM     66  C   UNL A   1      51.134  28.947  25.860  1.00  0.00     0.040 A 
ATOM     67  C   UNL A   1      52.405  27.047  26.571  1.00  0.00     0.040 A 
ATOM     68  F   UNL A   1      51.344  25.123  27.376  1.00  0.00    -0.206 F 
ATOM     69  C   UNL A   1      52.360  28.340  26.059  1.00  0.00     0.006 A 
ENDBRANCH  48  62
BRANCH  49  70
ATOM     70  C   UNL A   1      44.282  33.047  27.094  1.00  0.00     0.057 A 
ATOM     71  C   UNL A   1      43.793  33.886  28.104  1.00  0.00     0.134 A 
ATOM     72  C   UNL A   1      44.069  33.514  25.774  1.00  0.00     0.134 A 
ATOM     73  F   UNL A   1      43.899  33.525  29.391  1.00  0.00    -0.206 F 
ATOM     74  C   UNL A   1      43.082  35.070  27.826  1.00  0.00     0.040 A 
ATOM     75  C   UNL A   1      43.363  34.696  25.482  1.00  0.00     0.040 A 
ATOM     76  F   UNL A   1      44.470  32.794  24.717  1.00  0.00    -0.206 F 
ATOM     77  C   UNL A   1      42.844  35.467  26.513  1.00  0.00     0.006 A 
ENDBRANCH  49  70
BRANCH  61  78
ATOM     78  C   UNL A   1      45.460  28.970  31.546  1.00  0.00     0.057 A 
ATOM     79  C   UNL A   1      44.213  28.432  31.199  1.00  0.00     0.134 A 
ATOM     80  C   UNL A   1      45.606  29.429  32.863  1.00  0.00     0.134 A 
ATOM     81  F   UNL A   1      43.997  27.980  29.953  1.00  0.00    -0.206 F 
ATOM     82  C   UNL A   1      43.158  28.354  32.109  1.00  0.00     0.040 A 
ATOM     83  C   UNL A   1      44.565  29.327  33.795  1.00  0.00     0.040 A 
ATOM     84  F   UNL A   1      46.744  30.008  33.276  1.00  0.00    -0.206 F 
ATOM     85  C   UNL A   1      43.335  28.794  33.416  1.00  0.00     0.006 A 
ENDBRANCH  61  78
ENDBRANCH  35  36
ENDBRANCH  28  30
ENDBRANCH  27  28
ENDBRANCH  26  27
ENDBRANCH   1  26
TORSDOF 17
ENDMDL
MODEL 3
REMARK VINA RESULT:     -11.3      5.237     10.183
REMARK SMILES CC[C@@H](C)[C@@H](NC(=O)CCn1ccc2ccc(Br)cc21)C(=O)OCCOC(=O)c1ccc(-c2c3nc(c(-c4c(F)cccc4F)c4ccc([nH]4)c(-c4c(F)cccc4F)c4nc(c(-c5c(F)cccc5F)c5ccc2[nH]5)C=C4)C=C3)cc1
REMARK SMILES IDX 24 1 23 2 21 3 22 4 5 5 3 6 4 7 2 8 1 9 6 10 7 11 8 13 9 14
REMARK SMILES IDX 10 15 11 16 12 17 20 18 13 19 14 20 19 21 15 22 17 23 16 24
REMARK SMILES IDX 18 25 25 26 26 27 27 28 28 29 29 30 30 31 82 32 31 33 81 34
REMARK SMILES IDX 32 35 33 36 34 37 75 38 35 39 80 40 74 41 76 42 36 43 79 44
REMARK SMILES IDX 73 45 72 46 37 48 63 49 46 50 62 51 47 52 50 53 61 54 77 55
REMARK SMILES IDX 48 56 49 57 60 59 78 60 51 61 38 62 39 63 44 64 40 65 41 66
REMARK SMILES IDX 43 67 45 68 42 69 64 70 65 71 70 72 66 73 67 74 69 75 71 76
REMARK SMILES IDX 68 77 52 78 53 79 58 80 54 81 55 82 57 83 59 84 56 85
REMARK H PARENT 6 12 76 47 50 58
REMARK Flexibility Score: inf
ROOT
ATOM      1  C   UNL A   1      46.353  30.269  26.293  1.00  0.00     0.274 C 
ENDROOT
BRANCH   1   2
ATOM      2  O   UNL A   1      46.408  29.626  24.912  1.00  0.00    -0.461 OA
BRANCH   2   3
ATOM      3  C   UNL A   1      46.739  28.336  24.530  1.00  0.00     0.329 C 
ATOM      4  O   UNL A   1      46.957  28.100  23.335  1.00  0.00    -0.250 OA
BRANCH   3   5
ATOM      5  C   UNL A   1      46.815  26.973  25.766  1.00  0.00     0.195 C 
BRANCH   5   6
ATOM      6  C   UNL A   1      47.391  26.551  27.391  1.00  0.00     0.019 C 
ATOM      7  C   UNL A   1      47.261  27.391  28.725  1.00  0.00     0.010 C 
BRANCH   6   8
ATOM      8  C   UNL A   1      48.962  26.378  27.352  1.00  0.00     0.002 C 
ATOM      9  C   UNL A   1      49.468  24.925  27.520  1.00  0.00     0.004 C 
ENDBRANCH   6   8
ENDBRANCH   5   6
BRANCH   5  10
ATOM     10  N   UNL A   1      45.448  26.554  25.758  1.00  0.00    -0.342 N 
ATOM     11  C   UNL A   1      45.057  25.378  25.213  1.00  0.00     0.222 C 
ATOM     12  H   UNL A   1      44.767  27.142  26.159  1.00  0.00     0.164 HD
ATOM     13  O   UNL A   1      43.850  25.130  25.201  1.00  0.00    -0.275 OA
BRANCH  11  14
ATOM     14  C   UNL A   1      46.119  24.341  24.777  1.00  0.00     0.122 C 
BRANCH  14  15
ATOM     15  C   UNL A   1      46.200  22.865  25.338  1.00  0.00     0.132 C 
BRANCH  15  16
ATOM     16  N   UNL A   1      45.490  21.562  25.231  1.00  0.00    -0.347 N 
ATOM     17  C   UNL A   1      46.208  20.448  24.806  1.00  0.00     0.087 A 
ATOM     18  C   UNL A   1      44.257  21.018  25.509  1.00  0.00     0.049 A 
ATOM     19  C   UNL A   1      45.409  19.316  24.803  1.00  0.00     0.028 A 
ATOM     20  C   UNL A   1      44.124  19.662  25.240  1.00  0.00    -0.000 A 
ATOM     21  C   UNL A   1      43.173  21.481  26.159  1.00  0.00     0.042 A 
ATOM     22  C   UNL A   1      42.880  18.987  25.553  1.00  0.00     0.011 A 
ATOM     23  C   UNL A   1      41.926  20.986  26.268  1.00  0.00     0.020 A 
ATOM     24  C   UNL A   1      41.739  19.683  26.009  1.00  0.00     0.016 A 
ATOM     25  Br  UNL A   1      40.956  22.478  26.675  1.00  0.00    -0.051 Br
ENDBRANCH  15  16
ENDBRANCH  14  15
ENDBRANCH  11  14
ENDBRANCH   5  10
ENDBRANCH   3   5
ENDBRANCH   2   3
ENDBRANCH   1   2
BRANCH   1  26
ATOM     26  C   UNL A   1      47.673  31.039  26.878  1.00  0.00     0.275 C 
BRANCH  26  27
ATOM     27  O   UNL A   1      47.387  32.380  27.438  1.00  0.00    -0.458 OA
BRANCH  27  28
ATOM     28  C   UNL A   1      47.093  33.497  26.658  1.00  0.00     0.338 C 
ATOM     29  O   UNL A   1      47.658  33.846  25.649  1.00  0.00    -0.246 OA
BRANCH  28  30
ATOM     30  C   UNL A   1      45.730  34.038  27.118  1.00  0.00     0.060 A 
ATOM     31  C   UNL A   1      45.703  34.733  28.327  1.00  0.00     0.016 A 
ATOM     32  C   UNL A   1      44.556  33.368  26.720  1.00  0.00     0.016 A 
ATOM     33  C   UNL A   1      44.774  34.378  29.319  1.00  0.00     0.010 A 
ATOM     34  C   UNL A   1      43.603  33.026  27.721  1.00  0.00     0.010 A 
ATOM     35  C   UNL A   1      43.848  33.351  29.096  1.00  0.00    -0.014 A 
BRANCH  35  36
ATOM     36  C   UNL A   1      43.031  32.785  30.252  1.00  0.00     0.031 A 
ATOM     37  C   UNL A   1      43.489  31.415  30.261  1.00  0.00     0.074 A 
ATOM     38  C   UNL A   1      42.058  33.068  31.184  1.00  0.00     0.049 A 
ATOM     39  N   UNL A   1      43.123  30.637  29.305  1.00  0.00    -0.248 NA
ATOM     40  C   UNL A   1      44.689  31.020  30.994  1.00  0.00     0.031 C 
ATOM     41  C   UNL A   1      41.487  34.326  31.661  1.00  0.00     0.029 A 
ATOM     42  N   UNL A   1      41.303  32.162  31.945  1.00  0.00    -0.354 N 
ATOM     43  C   UNL A   1      43.854  29.510  29.511  1.00  0.00     0.074 A 
ATOM     44  C   UNL A   1      44.991  29.911  30.307  1.00  0.00     0.031 C 
ATOM     45  C   UNL A   1      40.688  34.146  32.752  1.00  0.00     0.029 A 
ATOM     46  C   UNL A   1      40.472  32.723  32.943  1.00  0.00     0.049 A 
ATOM     47  H   UNL A   1      41.349  31.190  31.793  1.00  0.00     0.167 HD
ATOM     48  C   UNL A   1      43.190  28.339  29.399  1.00  0.00     0.037 A 
ATOM     49  C   UNL A   1      39.565  32.098  33.760  1.00  0.00     0.037 A 
ATOM     50  C   UNL A   1      41.882  28.527  28.784  1.00  0.00     0.049 A 
ATOM     51  C   UNL A   1      39.103  30.898  33.035  1.00  0.00     0.074 A 
ATOM     52  C   UNL A   1      41.393  28.867  27.537  1.00  0.00     0.029 A 
ATOM     53  N   UNL A   1      40.891  28.833  29.682  1.00  0.00    -0.354 N 
ATOM     54  N   UNL A   1      38.300  30.947  32.013  1.00  0.00    -0.248 NA
ATOM     55  C   UNL A   1      39.736  29.612  33.285  1.00  0.00     0.031 C 
ATOM     56  C   UNL A   1      40.090  29.423  27.731  1.00  0.00     0.029 A 
ATOM     57  C   UNL A   1      39.791  29.397  29.088  1.00  0.00     0.049 A 
ATOM     58  H   UNL A   1      40.961  28.666  30.650  1.00  0.00     0.167 HD
ATOM     59  C   UNL A   1      38.703  29.885  31.240  1.00  0.00     0.074 A 
ATOM     60  C   UNL A   1      39.430  29.000  32.140  1.00  0.00     0.031 C 
ATOM     61  C   UNL A   1      38.756  30.015  29.887  1.00  0.00     0.037 A 
BRANCH  48  62
ATOM     62  C   UNL A   1      43.474  27.204  30.325  1.00  0.00     0.057 A 
ATOM     63  C   UNL A   1      44.122  26.002  29.964  1.00  0.00     0.134 A 
ATOM     64  C   UNL A   1      43.324  27.433  31.693  1.00  0.00     0.134 A 
ATOM     65  F   UNL A   1      44.477  25.706  28.710  1.00  0.00    -0.206 F 
ATOM     66  C   UNL A   1      44.553  25.070  30.901  1.00  0.00     0.040 A 
ATOM     67  C   UNL A   1      43.814  26.536  32.643  1.00  0.00     0.040 A 
ATOM     68  F   UNL A   1      42.765  28.567  32.141  1.00  0.00    -0.206 F 
ATOM     69  C   UNL A   1      44.423  25.349  32.248  1.00  0.00     0.006 A 
ENDBRANCH  48  62
BRANCH  49  70
ATOM     70  C   UNL A   1      38.964  32.343  35.113  1.00  0.00     0.057 A 
ATOM     71  C   UNL A   1      37.634  32.771  35.229  1.00  0.00     0.134 A 
ATOM     72  C   UNL A   1      39.761  32.551  36.266  1.00  0.00     0.134 A 
ATOM     73  F   UNL A   1      36.799  32.665  34.185  1.00  0.00    -0.206 F 
ATOM     74  C   UNL A   1      37.146  33.422  36.378  1.00  0.00     0.040 A 
ATOM     75  C   UNL A   1      39.285  33.198  37.421  1.00  0.00     0.040 A 
ATOM     76  F   UNL A   1      41.056  32.206  36.278  1.00  0.00    -0.206 F 
ATOM     77  C   UNL A   1      37.977  33.659  37.471  1.00  0.00     0.006 A 
ENDBRANCH  49  70
BRANCH  61  78
ATOM     78  C   UNL A   1      37.757  30.934  29.249  1.00  0.00     0.057 A 
ATOM     79  C   UNL A   1      36.600  30.358  28.709  1.00  0.00     0.134 A 
ATOM     80  C   UNL A   1      37.879  32.327  29.140  1.00  0.00     0.134 A 
ATOM     81  F   UNL A   1      36.419  29.028  28.769  1.00  0.00    -0.206 F 
ATOM     82  C   UNL A   1      35.610  31.119  28.086  1.00  0.00     0.040 A 
ATOM     83  C   UNL A   1      36.877  33.107  28.547  1.00  0.00     0.040 A 
ATOM     84  F   UNL A   1      38.974  32.967  29.580  1.00  0.00    -0.206 F 
ATOM     85  C   UNL A   1      35.743  32.501  28.012  1.00  0.00     0.006 A 
ENDBRANCH  61  78
ENDBRANCH  35  36
ENDBRANCH  28  30
ENDBRANCH  27  28
ENDBRANCH  26  27
ENDBRANCH   1  26
TORSDOF 17
ENDMDL
