MODEL 1
REMARK VINA RESULT:     -12.4      0.000      0.000
REMARK SMILES CS(=O)(=O)c1ccc(/C=C(/C(=O)OCCOC(=O)c2ccc(-c3c4nc(c(-c5c(F)cccc5F)c5ccc([nH]5)c(-c5c(F)cccc5F)c5nc(c(-c6c(F)cccc6F)c6ccc3[nH]6)C=C5)C=C4)cc2)c2ccc(F)cc2)cc1
REMARK SMILES IDX 14 1 13 2 11 3 12 4 10 5 9 6 8 7 5 8 6 9 81 10 7 11 80 12
REMARK SMILES IDX 2 13 1 14 3 15 4 16 73 17 74 18 79 19 75 20 78 21 76 22
REMARK SMILES IDX 77 23 15 24 16 25 17 26 18 27 19 28 20 29 72 30 21 31 71 32
REMARK SMILES IDX 22 33 23 34 24 35 65 36 25 37 70 38 64 39 66 40 26 41 69 42
REMARK SMILES IDX 63 43 62 44 27 46 53 47 36 48 52 49 37 50 40 51 51 52 67 53
REMARK SMILES IDX 38 54 39 55 50 57 68 58 41 59 28 60 29 61 34 62 30 63 31 64
REMARK SMILES IDX 33 65 35 66 32 67 54 68 55 69 60 70 56 71 57 72 59 73 61 74
REMARK SMILES IDX 58 75 42 76 43 77 48 78 44 79 45 80 47 81 49 82 46 83
REMARK H PARENT 66 45 40 56
REMARK Flexibility Score: inf
ROOT
ATOM      1  C   UNL A   1      34.362  22.391  24.406  1.00  0.00     0.275 C 
ENDROOT
BRANCH   1   2
ATOM      2  O   UNL A   1      34.394  23.672  25.071  1.00  0.00    -0.458 OA
BRANCH   2   3
ATOM      3  C   UNL A   1      33.261  24.008  25.741  1.00  0.00     0.338 C 
ATOM      4  O   UNL A   1      32.803  23.412  26.707  1.00  0.00    -0.246 OA
BRANCH   3   5
ATOM      5  C   UNL A   1      32.637  25.251  25.196  1.00  0.00     0.067 C 
ATOM      6  C   UNL A   1      31.816  25.157  24.126  1.00  0.00     0.024 C 
BRANCH   6   7
ATOM      7  C   UNL A   1      30.907  26.201  23.597  1.00  0.00    -0.025 A 
ATOM      8  C   UNL A   1      29.150  28.280  22.902  1.00  0.00     0.067 A 
ATOM      9  C   UNL A   1      30.459  28.297  22.431  1.00  0.00     0.021 A 
ATOM     10  C   UNL A   1      28.681  27.193  23.640  1.00  0.00     0.021 A 
ATOM     11  C   UNL A   1      31.317  27.246  22.757  1.00  0.00     0.009 A 
ATOM     12  C   UNL A   1      29.559  26.161  23.985  1.00  0.00     0.009 A 
BRANCH   8  13
ATOM     13  S   UNL A   1      28.086  29.662  22.573  1.00  0.00     0.175 S 
ATOM     14  C   UNL A   1      28.808  31.006  23.484  1.00  0.00     0.163 C 
ATOM     15  O   UNL A   1      26.802  29.377  23.172  1.00  0.00    -0.224 OA
ATOM     16  O   UNL A   1      28.207  29.954  21.153  1.00  0.00    -0.224 OA
ENDBRANCH   8  13
ENDBRANCH   6   7
BRANCH   5  17
ATOM     17  C   UNL A   1      32.817  26.503  25.959  1.00  0.00    -0.011 A 
ATOM     18  C   UNL A   1      33.962  27.288  25.733  1.00  0.00     0.012 A 
ATOM     19  C   UNL A   1      31.838  26.954  26.853  1.00  0.00     0.012 A 
ATOM     20  C   UNL A   1      34.097  28.531  26.352  1.00  0.00     0.040 A 
ATOM     21  C   UNL A   1      31.986  28.190  27.487  1.00  0.00     0.040 A 
ATOM     22  C   UNL A   1      33.106  28.971  27.222  1.00  0.00     0.123 A 
ATOM     23  F   UNL A   1      33.233  30.165  27.813  1.00  0.00    -0.207 F 
ENDBRANCH   5  17
ENDBRANCH   3   5
ENDBRANCH   2   3
ENDBRANCH   1   2
BRANCH   1  24
ATOM     24  C   UNL A   1      35.449  21.468  24.956  1.00  0.00     0.275 C 
BRANCH  24  25
ATOM     25  O   UNL A   1      36.748  21.939  24.547  1.00  0.00    -0.458 OA
BRANCH  25  26
ATOM     26  C   UNL A   1      37.798  21.431  25.229  1.00  0.00     0.338 C 
ATOM     27  O   UNL A   1      38.230  20.289  25.181  1.00  0.00    -0.246 OA
BRANCH  26  28
ATOM     28  C   UNL A   1      38.428  22.471  26.063  1.00  0.00     0.060 A 
ATOM     29  C   UNL A   1      37.889  23.752  26.102  1.00  0.00     0.016 A 
ATOM     30  C   UNL A   1      39.666  22.223  26.655  1.00  0.00     0.016 A 
ATOM     31  C   UNL A   1      38.655  24.808  26.597  1.00  0.00     0.010 A 
ATOM     32  C   UNL A   1      40.379  23.271  27.254  1.00  0.00     0.010 A 
ATOM     33  C   UNL A   1      39.918  24.596  27.171  1.00  0.00    -0.014 A 
BRANCH  33  34
ATOM     34  C   UNL A   1      40.777  25.749  27.601  1.00  0.00     0.031 A 
ATOM     35  C   UNL A   1      40.238  26.803  28.545  1.00  0.00     0.074 A 
ATOM     36  C   UNL A   1      42.061  25.858  27.197  1.00  0.00     0.049 A 
ATOM     37  N   UNL A   1      40.733  27.980  28.847  1.00  0.00    -0.248 NA
ATOM     38  C   UNL A   1      38.966  26.508  29.223  1.00  0.00     0.031 C 
ATOM     39  C   UNL A   1      42.769  24.911  26.335  1.00  0.00     0.029 A 
ATOM     40  N   UNL A   1      43.010  26.813  27.478  1.00  0.00    -0.354 N 
ATOM     41  C   UNL A   1      39.793  28.595  29.668  1.00  0.00     0.074 A 
ATOM     42  C   UNL A   1      38.705  27.655  29.835  1.00  0.00     0.031 C 
ATOM     43  C   UNL A   1      44.050  25.284  26.224  1.00  0.00     0.029 A 
ATOM     44  C   UNL A   1      44.232  26.564  26.900  1.00  0.00     0.049 A 
ATOM     45  H   UNL A   1      42.831  27.602  28.039  1.00  0.00     0.167 HD
ATOM     46  C   UNL A   1      39.829  29.830  30.226  1.00  0.00     0.037 A 
ATOM     47  C   UNL A   1      45.363  27.295  26.863  1.00  0.00     0.037 A 
ATOM     48  C   UNL A   1      40.954  30.728  30.153  1.00  0.00     0.049 A 
ATOM     49  C   UNL A   1      45.388  28.655  27.495  1.00  0.00     0.074 A 
ATOM     50  C   UNL A   1      41.084  31.994  30.701  1.00  0.00     0.029 A 
ATOM     51  N   UNL A   1      42.155  30.442  29.523  1.00  0.00    -0.354 N 
ATOM     52  N   UNL A   1      44.445  29.273  28.162  1.00  0.00    -0.248 NA
ATOM     53  C   UNL A   1      46.623  29.435  27.335  1.00  0.00     0.031 C 
ATOM     54  C   UNL A   1      42.358  32.482  30.385  1.00  0.00     0.029 A 
ATOM     55  C   UNL A   1      43.030  31.506  29.671  1.00  0.00     0.049 A 
ATOM     56  H   UNL A   1      42.355  29.607  29.044  1.00  0.00     0.167 HD
ATOM     57  C   UNL A   1      44.969  30.514  28.497  1.00  0.00     0.074 A 
ATOM     58  C   UNL A   1      46.324  30.551  27.986  1.00  0.00     0.031 C 
ATOM     59  C   UNL A   1      44.374  31.536  29.158  1.00  0.00     0.037 A 
BRANCH  46  60
ATOM     60  C   UNL A   1      38.601  30.313  30.944  1.00  0.00     0.057 A 
ATOM     61  C   UNL A   1      38.408  30.121  32.316  1.00  0.00     0.134 A 
ATOM     62  C   UNL A   1      37.624  31.040  30.249  1.00  0.00     0.134 A 
ATOM     63  F   UNL A   1      39.298  29.424  33.038  1.00  0.00    -0.206 F 
ATOM     64  C   UNL A   1      37.279  30.623  32.970  1.00  0.00     0.040 A 
ATOM     65  C   UNL A   1      36.505  31.566  30.895  1.00  0.00     0.040 A 
ATOM     66  F   UNL A   1      37.753  31.268  28.933  1.00  0.00    -0.206 F 
ATOM     67  C   UNL A   1      36.328  31.355  32.260  1.00  0.00     0.006 A 
ENDBRANCH  46  60
BRANCH  47  68
ATOM     68  C   UNL A   1      46.552  26.774  26.142  1.00  0.00     0.057 A 
ATOM     69  C   UNL A   1      46.768  27.079  24.794  1.00  0.00     0.134 A 
ATOM     70  C   UNL A   1      47.505  25.977  26.787  1.00  0.00     0.134 A 
ATOM     71  F   UNL A   1      45.877  27.814  24.114  1.00  0.00    -0.206 F 
ATOM     72  C   UNL A   1      47.894  26.610  24.113  1.00  0.00     0.040 A 
ATOM     73  C   UNL A   1      48.648  25.527  26.128  1.00  0.00     0.040 A 
ATOM     74  F   UNL A   1      47.351  25.650  28.078  1.00  0.00    -0.206 F 
ATOM     75  C   UNL A   1      48.843  25.841  24.784  1.00  0.00     0.006 A 
ENDBRANCH  47  68
BRANCH  59  76
ATOM     76  C   UNL A   1      45.192  32.771  29.381  1.00  0.00     0.057 A 
ATOM     77  C   UNL A   1      46.057  32.892  30.476  1.00  0.00     0.134 A 
ATOM     78  C   UNL A   1      45.128  33.842  28.482  1.00  0.00     0.134 A 
ATOM     79  F   UNL A   1      46.151  31.904  31.380  1.00  0.00    -0.206 F 
ATOM     80  C   UNL A   1      46.815  34.046  30.682  1.00  0.00     0.040 A 
ATOM     81  C   UNL A   1      45.896  34.994  28.666  1.00  0.00     0.040 A 
ATOM     82  F   UNL A   1      44.323  33.786  27.411  1.00  0.00    -0.206 F 
ATOM     83  C   UNL A   1      46.738  35.099  29.772  1.00  0.00     0.006 A 
ENDBRANCH  59  76
ENDBRANCH  33  34
ENDBRANCH  26  28
ENDBRANCH  25  26
ENDBRANCH  24  25
ENDBRANCH   1  24
TORSDOF 14
ENDMDL
MODEL 2
REMARK VINA RESULT:     -12.1      1.405      2.442
REMARK SMILES CS(=O)(=O)c1ccc(/C=C(/C(=O)OCCOC(=O)c2ccc(-c3c4nc(c(-c5c(F)cccc5F)c5ccc([nH]5)c(-c5c(F)cccc5F)c5nc(c(-c6c(F)cccc6F)c6ccc3[nH]6)C=C5)C=C4)cc2)c2ccc(F)cc2)cc1
REMARK SMILES IDX 14 1 13 2 11 3 12 4 10 5 9 6 8 7 5 8 6 9 81 10 7 11 80 12
REMARK SMILES IDX 2 13 1 14 3 15 4 16 73 17 74 18 79 19 75 20 78 21 76 22
REMARK SMILES IDX 77 23 15 24 16 25 17 26 18 27 19 28 20 29 72 30 21 31 71 32
REMARK SMILES IDX 22 33 23 34 24 35 65 36 25 37 70 38 64 39 66 40 26 41 69 42
REMARK SMILES IDX 63 43 62 44 27 46 53 47 36 48 52 49 37 50 40 51 51 52 67 53
REMARK SMILES IDX 38 54 39 55 50 57 68 58 41 59 28 60 29 61 34 62 30 63 31 64
REMARK SMILES IDX 33 65 35 66 32 67 54 68 55 69 60 70 56 71 57 72 59 73 61 74
REMARK SMILES IDX 58 75 42 76 43 77 48 78 44 79 45 80 47 81 49 82 46 83
REMARK H PARENT 66 45 40 56
REMARK Flexibility Score: inf
ROOT
ATOM      1  C   UNL A   1      35.196  21.021  24.766  1.00  0.00     0.275 C 
ENDROOT
BRANCH   1   2
ATOM      2  O   UNL A   1      35.396  22.444  24.909  1.00  0.00    -0.458 OA
BRANCH   2   3
ATOM      3  C   UNL A   1      35.232  23.172  23.775  1.00  0.00     0.338 C 
ATOM      4  O   UNL A   1      35.806  22.973  22.712  1.00  0.00    -0.246 OA
BRANCH   3   5
ATOM      5  C   UNL A   1      34.207  24.246  23.943  1.00  0.00     0.067 C 
ATOM      6  C   UNL A   1      34.307  25.370  23.197  1.00  0.00     0.024 C 
BRANCH   6   7
ATOM      7  C   UNL A   1      33.280  26.423  23.018  1.00  0.00    -0.025 A 
ATOM      8  C   UNL A   1      31.123  28.211  22.814  1.00  0.00     0.067 A 
ATOM      9  C   UNL A   1      32.214  28.535  23.614  1.00  0.00     0.021 A 
ATOM     10  C   UNL A   1      31.134  27.048  22.044  1.00  0.00     0.021 A 
ATOM     11  C   UNL A   1      33.295  27.655  23.686  1.00  0.00     0.009 A 
ATOM     12  C   UNL A   1      32.210  26.159  22.150  1.00  0.00     0.009 A 
BRANCH   8  13
ATOM     13  S   UNL A   1      29.706  29.280  22.797  1.00  0.00     0.175 S 
ATOM     14  C   UNL A   1      28.335  28.206  23.154  1.00  0.00     0.163 C 
ATOM     15  O   UNL A   1      29.536  29.759  21.443  1.00  0.00    -0.224 OA
ATOM     16  O   UNL A   1      29.866  30.204  23.908  1.00  0.00    -0.224 OA
ENDBRANCH   8  13
ENDBRANCH   6   7
BRANCH   5  17
ATOM     17  C   UNL A   1      33.039  23.955  24.799  1.00  0.00    -0.011 A 
ATOM     18  C   UNL A   1      32.084  23.019  24.363  1.00  0.00     0.012 A 
ATOM     19  C   UNL A   1      32.900  24.546  26.061  1.00  0.00     0.012 A 
ATOM     20  C   UNL A   1      31.037  22.640  25.204  1.00  0.00     0.040 A 
ATOM     21  C   UNL A   1      31.840  24.179  26.892  1.00  0.00     0.040 A 
ATOM     22  C   UNL A   1      30.926  23.222  26.461  1.00  0.00     0.123 A 
ATOM     23  F   UNL A   1      29.924  22.856  27.269  1.00  0.00    -0.207 F 
ENDBRANCH   5  17
ENDBRANCH   3   5
ENDBRANCH   2   3
ENDBRANCH   1   2
BRANCH   1  24
ATOM     24  C   UNL A   1      36.503  20.264  24.997  1.00  0.00     0.275 C 
BRANCH  24  25
ATOM     25  O   UNL A   1      37.621  21.166  24.884  1.00  0.00    -0.458 OA
BRANCH  25  26
ATOM     26  C   UNL A   1      38.701  20.859  25.635  1.00  0.00     0.338 C 
ATOM     27  O   UNL A   1      39.261  19.775  25.719  1.00  0.00    -0.246 OA
BRANCH  26  28
ATOM     28  C   UNL A   1      39.185  22.047  26.361  1.00  0.00     0.060 A 
ATOM     29  C   UNL A   1      38.621  23.292  26.110  1.00  0.00     0.016 A 
ATOM     30  C   UNL A   1      40.330  21.952  27.152  1.00  0.00     0.016 A 
ATOM     31  C   UNL A   1      39.288  24.447  26.521  1.00  0.00     0.010 A 
ATOM     32  C   UNL A   1      40.929  23.114  27.659  1.00  0.00     0.010 A 
ATOM     33  C   UNL A   1      40.460  24.387  27.292  1.00  0.00    -0.014 A 
BRANCH  33  34
ATOM     34  C   UNL A   1      41.226  25.630  27.636  1.00  0.00     0.031 A 
ATOM     35  C   UNL A   1      40.619  26.686  28.537  1.00  0.00     0.074 A 
ATOM     36  C   UNL A   1      42.486  25.825  27.193  1.00  0.00     0.049 A 
ATOM     37  N   UNL A   1      41.018  27.915  28.762  1.00  0.00    -0.248 NA
ATOM     38  C   UNL A   1      39.393  26.322  29.264  1.00  0.00     0.031 C 
ATOM     39  C   UNL A   1      43.254  24.894  26.364  1.00  0.00     0.029 A 
ATOM     40  N   UNL A   1      43.356  26.871  27.396  1.00  0.00    -0.354 N 
ATOM     41  C   UNL A   1      40.047  28.493  29.574  1.00  0.00     0.074 A 
ATOM     42  C   UNL A   1      39.048  27.475  29.820  1.00  0.00     0.031 C 
ATOM     43  C   UNL A   1      44.495  25.368  26.199  1.00  0.00     0.029 A 
ATOM     44  C   UNL A   1      44.582  26.693  26.800  1.00  0.00     0.049 A 
ATOM     45  H   UNL A   1      43.122  27.671  27.920  1.00  0.00     0.167 HD
ATOM     46  C   UNL A   1      39.990  29.755  30.065  1.00  0.00     0.037 A 
ATOM     47  C   UNL A   1      45.644  27.515  26.694  1.00  0.00     0.037 A 
ATOM     48  C   UNL A   1      41.031  30.739  29.913  1.00  0.00     0.049 A 
ATOM     49  C   UNL A   1      45.566  28.905  27.252  1.00  0.00     0.074 A 
ATOM     50  C   UNL A   1      41.065  32.041  30.390  1.00  0.00     0.029 A 
ATOM     51  N   UNL A   1      42.238  30.522  29.268  1.00  0.00    -0.354 N 
ATOM     52  N   UNL A   1      44.589  29.477  27.910  1.00  0.00    -0.248 NA
ATOM     53  C   UNL A   1      46.726  29.777  27.017  1.00  0.00     0.031 C 
ATOM     54  C   UNL A   1      42.284  32.616  30.014  1.00  0.00     0.029 A 
ATOM     55  C   UNL A   1      43.022  31.662  29.335  1.00  0.00     0.049 A 
ATOM     56  H   UNL A   1      42.499  29.681  28.828  1.00  0.00     0.167 HD
ATOM     57  C   UNL A   1      45.013  30.775  28.164  1.00  0.00     0.074 A 
ATOM     58  C   UNL A   1      46.347  30.897  27.615  1.00  0.00     0.031 C 
ATOM     59  C   UNL A   1      44.347  31.778  28.786  1.00  0.00     0.037 A 
BRANCH  46  60
ATOM     60  C   UNL A   1      38.741  30.171  30.788  1.00  0.00     0.057 A 
ATOM     61  C   UNL A   1      37.645  30.740  30.131  1.00  0.00     0.134 A 
ATOM     62  C   UNL A   1      38.618  29.937  32.166  1.00  0.00     0.134 A 
ATOM     63  F   UNL A   1      37.700  31.002  28.817  1.00  0.00    -0.206 F 
ATOM     64  C   UNL A   1      36.475  31.074  30.820  1.00  0.00     0.040 A 
ATOM     65  C   UNL A   1      37.447  30.244  32.860  1.00  0.00     0.040 A 
ATOM     66  F   UNL A   1      39.629  29.385  32.855  1.00  0.00    -0.206 F 
ATOM     67  C   UNL A   1      36.372  30.818  32.186  1.00  0.00     0.006 A 
ENDBRANCH  46  60
BRANCH  47  68
ATOM     68  C   UNL A   1      46.857  27.057  25.970  1.00  0.00     0.057 A 
ATOM     69  C   UNL A   1      47.035  27.337  24.611  1.00  0.00     0.134 A 
ATOM     70  C   UNL A   1      47.872  26.347  26.623  1.00  0.00     0.134 A 
ATOM     71  F   UNL A   1      46.085  27.989  23.925  1.00  0.00    -0.206 F 
ATOM     72  C   UNL A   1      48.181  26.928  23.926  1.00  0.00     0.040 A 
ATOM     73  C   UNL A   1      49.035  25.957  25.959  1.00  0.00     0.040 A 
ATOM     74  F   UNL A   1      47.758  26.046  27.925  1.00  0.00    -0.206 F 
ATOM     75  C   UNL A   1      49.191  26.246  24.605  1.00  0.00     0.006 A 
ENDBRANCH  47  68
BRANCH  59  76
ATOM     76  C   UNL A   1      45.060  33.087  28.920  1.00  0.00     0.057 A 
ATOM     77  C   UNL A   1      44.915  34.104  27.967  1.00  0.00     0.134 A 
ATOM     78  C   UNL A   1      45.888  33.341  30.020  1.00  0.00     0.134 A 
ATOM     79  F   UNL A   1      44.148  33.915  26.883  1.00  0.00    -0.206 F 
ATOM     80  C   UNL A   1      45.585  35.322  28.094  1.00  0.00     0.040 A 
ATOM     81  C   UNL A   1      46.547  34.563  30.169  1.00  0.00     0.040 A 
ATOM     82  F   UNL A   1      46.064  32.411  30.969  1.00  0.00    -0.206 F 
ATOM     83  C   UNL A   1      46.401  35.555  29.200  1.00  0.00     0.006 A 
ENDBRANCH  59  76
ENDBRANCH  33  34
ENDBRANCH  26  28
ENDBRANCH  25  26
ENDBRANCH  24  25
ENDBRANCH   1  24
TORSDOF 14
ENDMDL
MODEL 3
REMARK VINA RESULT:     -12.1      3.994      8.797
REMARK SMILES CS(=O)(=O)c1ccc(/C=C(/C(=O)OCCOC(=O)c2ccc(-c3c4nc(c(-c5c(F)cccc5F)c5ccc([nH]5)c(-c5c(F)cccc5F)c5nc(c(-c6c(F)cccc6F)c6ccc3[nH]6)C=C5)C=C4)cc2)c2ccc(F)cc2)cc1
REMARK SMILES IDX 14 1 13 2 11 3 12 4 10 5 9 6 8 7 5 8 6 9 81 10 7 11 80 12
REMARK SMILES IDX 2 13 1 14 3 15 4 16 73 17 74 18 79 19 75 20 78 21 76 22
REMARK SMILES IDX 77 23 15 24 16 25 17 26 18 27 19 28 20 29 72 30 21 31 71 32
REMARK SMILES IDX 22 33 23 34 24 35 65 36 25 37 70 38 64 39 66 40 26 41 69 42
REMARK SMILES IDX 63 43 62 44 27 46 53 47 36 48 52 49 37 50 40 51 51 52 67 53
REMARK SMILES IDX 38 54 39 55 50 57 68 58 41 59 28 60 29 61 34 62 30 63 31 64
REMARK SMILES IDX 33 65 35 66 32 67 54 68 55 69 60 70 56 71 57 72 59 73 61 74
REMARK SMILES IDX 58 75 42 76 43 77 48 78 44 79 45 80 47 81 49 82 46 83
REMARK H PARENT 66 45 40 56
REMARK Flexibility Score: inf
ROOT
ATOM      1  C   UNL A   1      32.815  27.516  24.731  1.00  0.00     0.275 C 
ENDROOT
BRANCH   1   2
ATOM      2  O   UNL A   1      32.238  26.681  23.704  1.00  0.00    -0.458 OA
BRANCH   2   3
ATOM      3  C   UNL A   1      33.126  25.954  22.978  1.00  0.00     0.338 C 
ATOM      4  O   UNL A   1      33.780  26.369  22.031  1.00  0.00    -0.246 OA
BRANCH   3   5
ATOM      5  C   UNL A   1      33.269  24.561  23.501  1.00  0.00     0.067 C 
ATOM      6  C   UNL A   1      32.217  23.716  23.408  1.00  0.00     0.024 C 
BRANCH   6   7
ATOM      7  C   UNL A   1      32.223  22.249  23.620  1.00  0.00    -0.025 A 
ATOM      8  C   UNL A   1      32.518  19.466  23.864  1.00  0.00     0.067 A 
ATOM      9  C   UNL A   1      32.503  20.260  25.006  1.00  0.00     0.021 A 
ATOM     10  C   UNL A   1      32.298  20.032  22.608  1.00  0.00     0.021 A 
ATOM     11  C   UNL A   1      32.326  21.639  24.878  1.00  0.00     0.009 A 
ATOM     12  C   UNL A   1      32.153  21.419  22.491  1.00  0.00     0.009 A 
BRANCH   8  13
ATOM     13  S   UNL A   1      32.841  17.727  24.014  1.00  0.00     0.175 S 
ATOM     14  C   UNL A   1      34.547  17.632  24.501  1.00  0.00     0.163 C 
ATOM     15  O   UNL A   1      32.737  17.147  22.694  1.00  0.00    -0.224 OA
ATOM     16  O   UNL A   1      32.023  17.245  25.115  1.00  0.00    -0.224 OA
ENDBRANCH   8  13
ENDBRANCH   6   7
BRANCH   5  17
ATOM     17  C   UNL A   1      34.609  24.126  23.945  1.00  0.00    -0.011 A 
ATOM     18  C   UNL A   1      35.039  24.440  25.246  1.00  0.00     0.012 A 
ATOM     19  C   UNL A   1      35.430  23.352  23.116  1.00  0.00     0.012 A 
ATOM     20  C   UNL A   1      36.249  23.939  25.728  1.00  0.00     0.040 A 
ATOM     21  C   UNL A   1      36.650  22.869  23.594  1.00  0.00     0.040 A 
ATOM     22  C   UNL A   1      37.042  23.157  24.897  1.00  0.00     0.123 A 
ATOM     23  F   UNL A   1      38.201  22.673  25.360  1.00  0.00    -0.207 F 
ENDBRANCH   5  17
ENDBRANCH   3   5
ENDBRANCH   2   3
ENDBRANCH   1   2
BRANCH   1  24
ATOM     24  C   UNL A   1      32.269  28.940  24.641  1.00  0.00     0.275 C 
BRANCH  24  25
ATOM     25  O   UNL A   1      33.243  29.873  25.147  1.00  0.00    -0.458 OA
BRANCH  25  26
ATOM     26  C   UNL A   1      32.846  30.625  26.197  1.00  0.00     0.338 C 
ATOM     27  O   UNL A   1      31.804  31.255  26.305  1.00  0.00    -0.246 OA
BRANCH  26  28
ATOM     28  C   UNL A   1      33.847  30.578  27.278  1.00  0.00     0.060 A 
ATOM     29  C   UNL A   1      34.554  31.724  27.622  1.00  0.00     0.016 A 
ATOM     30  C   UNL A   1      34.217  29.347  27.821  1.00  0.00     0.016 A 
ATOM     31  C   UNL A   1      35.719  31.614  28.383  1.00  0.00     0.010 A 
ATOM     32  C   UNL A   1      35.322  29.265  28.680  1.00  0.00     0.010 A 
ATOM     33  C   UNL A   1      36.136  30.385  28.918  1.00  0.00    -0.014 A 
BRANCH  33  34
ATOM     34  C   UNL A   1      37.444  30.259  29.642  1.00  0.00     0.031 A 
ATOM     35  C   UNL A   1      38.640  29.621  28.968  1.00  0.00     0.074 A 
ATOM     36  C   UNL A   1      37.607  30.746  30.891  1.00  0.00     0.049 A 
ATOM     37  N   UNL A   1      39.772  29.215  29.492  1.00  0.00    -0.248 NA
ATOM     38  C   UNL A   1      38.547  29.389  27.517  1.00  0.00     0.031 C 
ATOM     39  C   UNL A   1      36.586  31.441  31.676  1.00  0.00     0.029 A 
ATOM     40  N   UNL A   1      38.707  30.746  31.716  1.00  0.00    -0.354 N 
ATOM     41  C   UNL A   1      40.477  28.601  28.462  1.00  0.00     0.074 A 
ATOM     42  C   UNL A   1      39.656  28.703  27.275  1.00  0.00     0.031 C 
ATOM     43  C   UNL A   1      37.126  31.868  32.825  1.00  0.00     0.029 A 
ATOM     44  C   UNL A   1      38.493  31.372  32.921  1.00  0.00     0.049 A 
ATOM     45  H   UNL A   1      39.567  30.335  31.468  1.00  0.00     0.167 HD
ATOM     46  C   UNL A   1      41.692  28.001  28.503  1.00  0.00     0.037 A 
ATOM     47  C   UNL A   1      39.278  31.495  34.009  1.00  0.00     0.037 A 
ATOM     48  C   UNL A   1      42.560  27.989  29.652  1.00  0.00     0.049 A 
ATOM     49  C   UNL A   1      40.624  30.833  34.032  1.00  0.00     0.074 A 
ATOM     50  C   UNL A   1      43.817  27.417  29.779  1.00  0.00     0.029 A 
ATOM     51  N   UNL A   1      42.281  28.606  30.861  1.00  0.00    -0.354 N 
ATOM     52  N   UNL A   1      41.224  30.149  33.089  1.00  0.00    -0.248 NA
ATOM     53  C   UNL A   1      41.386  30.929  35.285  1.00  0.00     0.031 C 
ATOM     54  C   UNL A   1      44.288  27.671  31.073  1.00  0.00     0.029 A 
ATOM     55  C   UNL A   1      43.340  28.430  31.737  1.00  0.00     0.049 A 
ATOM     56  H   UNL A   1      41.453  29.097  31.066  1.00  0.00     0.167 HD
ATOM     57  C   UNL A   1      42.429  29.729  33.636  1.00  0.00     0.074 A 
ATOM     58  C   UNL A   1      42.489  30.260  34.982  1.00  0.00     0.031 C 
ATOM     59  C   UNL A   1      43.393  28.960  33.074  1.00  0.00     0.037 A 
BRANCH  46  60
ATOM     60  C   UNL A   1      42.155  27.269  27.275  1.00  0.00     0.057 A 
ATOM     61  C   UNL A   1      42.929  27.879  26.283  1.00  0.00     0.134 A 
ATOM     62  C   UNL A   1      41.867  25.905  27.122  1.00  0.00     0.134 A 
ATOM     63  F   UNL A   1      43.231  29.183  26.361  1.00  0.00    -0.206 F 
ATOM     64  C   UNL A   1      43.389  27.163  25.174  1.00  0.00     0.040 A 
ATOM     65  C   UNL A   1      42.340  25.173  26.033  1.00  0.00     0.040 A 
ATOM     66  F   UNL A   1      41.137  25.256  28.044  1.00  0.00    -0.206 F 
ATOM     67  C   UNL A   1      43.101  25.804  25.052  1.00  0.00     0.006 A 
ENDBRANCH  46  60
BRANCH  47  68
ATOM     68  C   UNL A   1      38.776  32.230  35.198  1.00  0.00     0.057 A 
ATOM     69  C   UNL A   1      38.845  33.625  35.265  1.00  0.00     0.134 A 
ATOM     70  C   UNL A   1      38.202  31.557  36.283  1.00  0.00     0.134 A 
ATOM     71  F   UNL A   1      39.410  34.323  34.269  1.00  0.00    -0.206 F 
ATOM     72  C   UNL A   1      38.358  34.326  36.370  1.00  0.00     0.040 A 
ATOM     73  C   UNL A   1      37.685  32.245  37.379  1.00  0.00     0.040 A 
ATOM     74  F   UNL A   1      38.110  30.219  36.278  1.00  0.00    -0.206 F 
ATOM     75  C   UNL A   1      37.765  33.636  37.426  1.00  0.00     0.006 A 
ENDBRANCH  47  68
BRANCH  59  76
ATOM     76  C   UNL A   1      44.600  28.664  33.909  1.00  0.00     0.057 A 
ATOM     77  C   UNL A   1      44.681  27.512  34.702  1.00  0.00     0.134 A 
ATOM     78  C   UNL A   1      45.700  29.530  33.907  1.00  0.00     0.134 A 
ATOM     79  F   UNL A   1      43.653  26.652  34.757  1.00  0.00    -0.206 F 
ATOM     80  C   UNL A   1      45.807  27.242  35.482  1.00  0.00     0.040 A 
ATOM     81  C   UNL A   1      46.840  29.261  34.667  1.00  0.00     0.040 A 
ATOM     82  F   UNL A   1      45.687  30.646  33.164  1.00  0.00    -0.206 F 
ATOM     83  C   UNL A   1      46.893  28.117  35.461  1.00  0.00     0.006 A 
ENDBRANCH  59  76
ENDBRANCH  33  34
ENDBRANCH  26  28
ENDBRANCH  25  26
ENDBRANCH  24  25
ENDBRANCH   1  24
TORSDOF 14
ENDMDL
