MODEL 1
REMARK VINA RESULT:      -8.8      0.000      0.000
REMARK SMILES O=C(CCCC[C@@H]1CCSS1)OCCOC(=O)c1ccc(-c2c3nc(c(-c4c(F)cccc4F)c4ccc([nH]4)c(-c4c(F)cccc4F)c4nc(c(-c5c(F)cccc5F)c5ccc2[nH]5)C=C4)C=C3)cc1
REMARK SMILES IDX 13 1 12 2 2 3 1 4 3 5 4 6 5 7 6 8 7 9 8 10 11 11 9 12 10 13
REMARK SMILES IDX 14 14 15 15 16 16 17 17 18 18 19 19 71 20 20 21 70 22 21 23
REMARK SMILES IDX 22 24 23 25 64 26 24 27 69 28 63 29 65 30 25 31 68 32 62 33
REMARK SMILES IDX 61 34 26 36 52 37 35 38 51 39 36 40 39 41 50 42 66 43 37 44
REMARK SMILES IDX 38 45 49 47 67 48 40 49 27 50 28 51 33 52 29 53 30 54 32 55
REMARK SMILES IDX 34 56 31 57 53 58 54 59 59 60 55 61 56 62 58 63 60 64 57 65
REMARK SMILES IDX 41 66 42 67 47 68 43 69 44 70 46 71 48 72 45 73
REMARK H PARENT 65 35 39 46
REMARK Flexibility Score: inf
ROOT
ATOM      1  C   UNL A   1      44.562  18.365  25.734  1.00  0.00     0.274 C 
ENDROOT
BRANCH   1   2
ATOM      2  O   UNL A   1      44.902  19.349  24.742  1.00  0.00    -0.462 OA
BRANCH   2   3
ATOM      3  C   UNL A   1      46.012  20.114  24.898  1.00  0.00     0.305 C 
ATOM      4  O   UNL A   1      47.133  19.632  24.772  1.00  0.00    -0.252 OA
BRANCH   3   5
ATOM      5  C   UNL A   1      45.806  21.528  25.401  1.00  0.00     0.123 C 
BRANCH   5   6
ATOM      6  C   UNL A   1      45.926  22.602  24.322  1.00  0.00     0.012 C 
BRANCH   6   7
ATOM      7  C   UNL A   1      45.788  24.054  24.803  1.00  0.00     0.002 C 
BRANCH   7   8
ATOM      8  C   UNL A   1      47.044  24.757  25.358  1.00  0.00     0.015 C 
BRANCH   8   9
ATOM      9  C   UNL A   1      46.914  26.136  26.016  1.00  0.00     0.059 C 
ATOM     10  C   UNL A   1      45.475  26.660  26.060  1.00  0.00     0.027 C 
ATOM     11  S   UNL A   1      47.962  27.423  25.275  1.00  0.00    -0.091 SA
ATOM     12  C   UNL A   1      45.468  28.105  26.546  1.00  0.00     0.083 C 
ATOM     13  S   UNL A   1      46.652  28.982  25.499  1.00  0.00    -0.094 SA
ENDBRANCH   8   9
ENDBRANCH   7   8
ENDBRANCH   6   7
ENDBRANCH   5   6
ENDBRANCH   3   5
ENDBRANCH   2   3
ENDBRANCH   1   2
BRANCH   1  14
ATOM     14  C   UNL A   1      43.102  18.455  26.187  1.00  0.00     0.275 C 
BRANCH  14  15
ATOM     15  O   UNL A   1      42.309  19.196  25.247  1.00  0.00    -0.458 OA
BRANCH  15  16
ATOM     16  C   UNL A   1      41.246  19.838  25.800  1.00  0.00     0.338 C 
ATOM     17  O   UNL A   1      40.113  19.409  25.912  1.00  0.00    -0.246 OA
BRANCH  16  18
ATOM     18  C   UNL A   1      41.690  21.108  26.417  1.00  0.00     0.060 A 
ATOM     19  C   UNL A   1      41.470  21.266  27.790  1.00  0.00     0.016 A 
ATOM     20  C   UNL A   1      42.299  22.129  25.680  1.00  0.00     0.016 A 
ATOM     21  C   UNL A   1      41.821  22.457  28.423  1.00  0.00     0.010 A 
ATOM     22  C   UNL A   1      42.644  23.328  26.314  1.00  0.00     0.010 A 
ATOM     23  C   UNL A   1      42.383  23.507  27.683  1.00  0.00    -0.014 A 
BRANCH  23  24
ATOM     24  C   UNL A   1      42.583  24.827  28.330  1.00  0.00     0.031 A 
ATOM     25  C   UNL A   1      43.935  25.174  28.888  1.00  0.00     0.074 A 
ATOM     26  C   UNL A   1      41.582  25.723  28.388  1.00  0.00     0.049 A 
ATOM     27  N   UNL A   1      44.340  26.285  29.448  1.00  0.00    -0.248 NA
ATOM     28  C   UNL A   1      44.969  24.131  28.800  1.00  0.00     0.031 C 
ATOM     29  C   UNL A   1      40.229  25.518  27.876  1.00  0.00     0.029 A 
ATOM     30  N   UNL A   1      41.556  26.991  28.914  1.00  0.00    -0.354 N 
ATOM     31  C   UNL A   1      45.676  26.082  29.767  1.00  0.00     0.074 A 
ATOM     32  C   UNL A   1      46.005  24.730  29.370  1.00  0.00     0.031 C 
ATOM     33  C   UNL A   1      39.499  26.621  28.121  1.00  0.00     0.029 A 
ATOM     34  C   UNL A   1      40.330  27.602  28.818  1.00  0.00     0.049 A 
ATOM     35  H   UNL A   1      42.342  27.422  29.322  1.00  0.00     0.167 HD
ATOM     36  C   UNL A   1      46.553  26.948  30.326  1.00  0.00     0.037 A 
ATOM     37  C   UNL A   1      39.925  28.810  29.253  1.00  0.00     0.037 A 
ATOM     38  C   UNL A   1      46.233  28.291  30.729  1.00  0.00     0.049 A 
ATOM     39  C   UNL A   1      40.904  29.727  29.937  1.00  0.00     0.074 A 
ATOM     40  C   UNL A   1      47.071  29.251  31.271  1.00  0.00     0.029 A 
ATOM     41  N   UNL A   1      44.972  28.859  30.648  1.00  0.00    -0.354 N 
ATOM     42  N   UNL A   1      42.181  29.549  30.172  1.00  0.00    -0.248 NA
ATOM     43  C   UNL A   1      40.383  31.018  30.412  1.00  0.00     0.031 C 
ATOM     44  C   UNL A   1      46.306  30.386  31.558  1.00  0.00     0.029 A 
ATOM     45  C   UNL A   1      45.002  30.147  31.159  1.00  0.00     0.049 A 
ATOM     46  H   UNL A   1      44.174  28.414  30.282  1.00  0.00     0.167 HD
ATOM     47  C   UNL A   1      42.620  30.710  30.796  1.00  0.00     0.074 A 
ATOM     48  C   UNL A   1      41.477  31.592  30.894  1.00  0.00     0.031 C 
ATOM     49  C   UNL A   1      43.860  31.017  31.246  1.00  0.00     0.037 A 
BRANCH  36  50
ATOM     50  C   UNL A   1      47.955  26.465  30.541  1.00  0.00     0.057 A 
ATOM     51  C   UNL A   1      48.307  25.722  31.673  1.00  0.00     0.134 A 
ATOM     52  C   UNL A   1      48.947  26.701  29.582  1.00  0.00     0.134 A 
ATOM     53  F   UNL A   1      47.403  25.473  32.632  1.00  0.00    -0.206 F 
ATOM     54  C   UNL A   1      49.604  25.237  31.851  1.00  0.00     0.040 A 
ATOM     55  C   UNL A   1      50.243  26.208  29.740  1.00  0.00     0.040 A 
ATOM     56  F   UNL A   1      48.670  27.406  28.475  1.00  0.00    -0.206 F 
ATOM     57  C   UNL A   1      50.574  25.475  30.878  1.00  0.00     0.006 A 
ENDBRANCH  36  50
BRANCH  37  58
ATOM     58  C   UNL A   1      38.515  29.236  29.068  1.00  0.00     0.057 A 
ATOM     59  C   UNL A   1      37.594  29.172  30.119  1.00  0.00     0.134 A 
ATOM     60  C   UNL A   1      38.046  29.666  27.821  1.00  0.00     0.134 A 
ATOM     61  F   UNL A   1      37.979  28.740  31.329  1.00  0.00    -0.206 F 
ATOM     62  C   UNL A   1      36.251  29.502  29.933  1.00  0.00     0.040 A 
ATOM     63  C   UNL A   1      36.711  30.019  27.626  1.00  0.00     0.040 A 
ATOM     64  F   UNL A   1      38.881  29.741  26.774  1.00  0.00    -0.206 F 
ATOM     65  C   UNL A   1      35.807  29.929  28.682  1.00  0.00     0.006 A 
ENDBRANCH  37  58
BRANCH  49  66
ATOM     66  C   UNL A   1      44.055  32.371  31.864  1.00  0.00     0.057 A 
ATOM     67  C   UNL A   1      43.924  32.577  33.243  1.00  0.00     0.134 A 
ATOM     68  C   UNL A   1      44.420  33.471  31.076  1.00  0.00     0.134 A 
ATOM     69  F   UNL A   1      43.565  31.567  34.050  1.00  0.00    -0.206 F 
ATOM     70  C   UNL A   1      44.132  33.833  33.815  1.00  0.00     0.040 A 
ATOM     71  C   UNL A   1      44.653  34.726  31.639  1.00  0.00     0.040 A 
ATOM     72  F   UNL A   1      44.570  33.338  29.750  1.00  0.00    -0.206 F 
ATOM     73  C   UNL A   1      44.505  34.910  33.012  1.00  0.00     0.006 A 
ENDBRANCH  49  66
ENDBRANCH  23  24
ENDBRANCH  16  18
ENDBRANCH  15  16
ENDBRANCH  14  15
ENDBRANCH   1  14
TORSDOF 15
ENDMDL
MODEL 2
REMARK VINA RESULT:      -8.7      4.347      5.986
REMARK SMILES O=C(CCCC[C@@H]1CCSS1)OCCOC(=O)c1ccc(-c2c3nc(c(-c4c(F)cccc4F)c4ccc([nH]4)c(-c4c(F)cccc4F)c4nc(c(-c5c(F)cccc5F)c5ccc2[nH]5)C=C4)C=C3)cc1
REMARK SMILES IDX 13 1 12 2 2 3 1 4 3 5 4 6 5 7 6 8 7 9 8 10 11 11 9 12 10 13
REMARK SMILES IDX 14 14 15 15 16 16 17 17 18 18 19 19 71 20 20 21 70 22 21 23
REMARK SMILES IDX 22 24 23 25 64 26 24 27 69 28 63 29 65 30 25 31 68 32 62 33
REMARK SMILES IDX 61 34 26 36 52 37 35 38 51 39 36 40 39 41 50 42 66 43 37 44
REMARK SMILES IDX 38 45 49 47 67 48 40 49 27 50 28 51 33 52 29 53 30 54 32 55
REMARK SMILES IDX 34 56 31 57 53 58 54 59 59 60 55 61 56 62 58 63 60 64 57 65
REMARK SMILES IDX 41 66 42 67 47 68 43 69 44 70 46 71 48 72 45 73
REMARK H PARENT 65 35 39 46
REMARK Flexibility Score: inf
ROOT
ATOM      1  C   UNL A   1      43.511  21.291  25.839  1.00  0.00     0.274 C 
ENDROOT
BRANCH   1   2
ATOM      2  O   UNL A   1      42.588  20.299  25.360  1.00  0.00    -0.462 OA
BRANCH   2   3
ATOM      3  C   UNL A   1      41.402  20.114  25.995  1.00  0.00     0.305 C 
ATOM      4  O   UNL A   1      40.785  19.060  25.883  1.00  0.00    -0.252 OA
BRANCH   3   5
ATOM      5  C   UNL A   1      40.802  21.317  26.694  1.00  0.00     0.123 C 
BRANCH   5   6
ATOM      6  C   UNL A   1      39.471  21.782  26.110  1.00  0.00     0.012 C 
BRANCH   6   7
ATOM      7  C   UNL A   1      38.951  23.134  26.619  1.00  0.00     0.002 C 
BRANCH   7   8
ATOM      8  C   UNL A   1      37.767  23.785  25.874  1.00  0.00     0.015 C 
BRANCH   8   9
ATOM      9  C   UNL A   1      36.760  22.900  25.130  1.00  0.00     0.059 C 
ATOM     10  C   UNL A   1      35.999  23.636  24.022  1.00  0.00     0.027 C 
ATOM     11  S   UNL A   1      35.543  22.082  26.204  1.00  0.00    -0.091 SA
ATOM     12  C   UNL A   1      34.893  22.741  23.476  1.00  0.00     0.083 C 
ATOM     13  S   UNL A   1      33.952  22.186  24.917  1.00  0.00    -0.094 SA
ENDBRANCH   8   9
ENDBRANCH   7   8
ENDBRANCH   6   7
ENDBRANCH   5   6
ENDBRANCH   3   5
ENDBRANCH   2   3
ENDBRANCH   1   2
BRANCH   1  14
ATOM     14  C   UNL A   1      44.137  22.117  24.711  1.00  0.00     0.275 C 
BRANCH  14  15
ATOM     15  O   UNL A   1      43.502  23.399  24.589  1.00  0.00    -0.458 OA
BRANCH  15  16
ATOM     16  C   UNL A   1      44.270  24.442  24.999  1.00  0.00     0.338 C 
ATOM     17  O   UNL A   1      45.344  24.780  24.539  1.00  0.00    -0.246 OA
BRANCH  16  18
ATOM     18  C   UNL A   1      43.536  25.244  26.003  1.00  0.00     0.060 A 
ATOM     19  C   UNL A   1      43.984  26.550  26.233  1.00  0.00     0.016 A 
ATOM     20  C   UNL A   1      42.443  24.740  26.714  1.00  0.00     0.016 A 
ATOM     21  C   UNL A   1      43.367  27.342  27.201  1.00  0.00     0.010 A 
ATOM     22  C   UNL A   1      41.829  25.533  27.690  1.00  0.00     0.010 A 
ATOM     23  C   UNL A   1      42.305  26.828  27.957  1.00  0.00    -0.014 A 
BRANCH  23  24
ATOM     24  C   UNL A   1      41.779  27.612  29.101  1.00  0.00     0.031 A 
ATOM     25  C   UNL A   1      42.461  27.510  30.436  1.00  0.00     0.074 A 
ATOM     26  C   UNL A   1      40.726  28.434  28.945  1.00  0.00     0.049 A 
ATOM     27  N   UNL A   1      42.197  28.141  31.552  1.00  0.00    -0.248 NA
ATOM     28  C   UNL A   1      43.593  26.574  30.525  1.00  0.00     0.031 C 
ATOM     29  C   UNL A   1      39.982  28.634  27.703  1.00  0.00     0.029 A 
ATOM     30  N   UNL A   1      40.099  29.254  29.850  1.00  0.00    -0.354 N 
ATOM     31  C   UNL A   1      43.136  27.692  32.470  1.00  0.00     0.074 A 
ATOM     32  C   UNL A   1      43.954  26.708  31.794  1.00  0.00     0.031 C 
ATOM     33  C   UNL A   1      38.991  29.515  27.927  1.00  0.00     0.029 A 
ATOM     34  C   UNL A   1      39.024  29.929  29.329  1.00  0.00     0.049 A 
ATOM     35  H   UNL A   1      40.393  29.348  30.785  1.00  0.00     0.167 HD
ATOM     36  C   UNL A   1      43.310  28.074  33.757  1.00  0.00     0.037 A 
ATOM     37  C   UNL A   1      38.160  30.778  29.919  1.00  0.00     0.037 A 
ATOM     38  C   UNL A   1      42.499  29.046  34.439  1.00  0.00     0.049 A 
ATOM     39  C   UNL A   1      38.335  31.131  31.373  1.00  0.00     0.074 A 
ATOM     40  C   UNL A   1      42.627  29.521  35.733  1.00  0.00     0.029 A 
ATOM     41  N   UNL A   1      41.398  29.680  33.887  1.00  0.00    -0.354 N 
ATOM     42  N   UNL A   1      39.266  30.751  32.213  1.00  0.00    -0.248 NA
ATOM     43  C   UNL A   1      37.336  32.039  31.959  1.00  0.00     0.031 C 
ATOM     44  C   UNL A   1      41.578  30.412  35.978  1.00  0.00     0.029 A 
ATOM     45  C   UNL A   1      40.819  30.520  34.825  1.00  0.00     0.049 A 
ATOM     46  H   UNL A   1      41.075  29.554  32.966  1.00  0.00     0.167 HD
ATOM     47  C   UNL A   1      38.982  31.390  33.413  1.00  0.00     0.074 A 
ATOM     48  C   UNL A   1      37.798  32.192  33.192  1.00  0.00     0.031 C 
ATOM     49  C   UNL A   1      39.644  31.318  34.592  1.00  0.00     0.037 A 
BRANCH  36  50
ATOM     50  C   UNL A   1      44.428  27.432  34.521  1.00  0.00     0.057 A 
ATOM     51  C   UNL A   1      45.689  28.032  34.614  1.00  0.00     0.134 A 
ATOM     52  C   UNL A   1      44.224  26.232  35.212  1.00  0.00     0.134 A 
ATOM     53  F   UNL A   1      45.948  29.176  33.965  1.00  0.00    -0.206 F 
ATOM     54  C   UNL A   1      46.716  27.452  35.361  1.00  0.00     0.040 A 
ATOM     55  C   UNL A   1      45.238  25.652  35.976  1.00  0.00     0.040 A 
ATOM     56  F   UNL A   1      43.036  25.611  35.162  1.00  0.00    -0.206 F 
ATOM     57  C   UNL A   1      46.488  26.262  36.050  1.00  0.00     0.006 A 
ENDBRANCH  36  50
BRANCH  37  58
ATOM     58  C   UNL A   1      37.034  31.355  29.145  1.00  0.00     0.057 A 
ATOM     59  C   UNL A   1      37.073  32.674  28.681  1.00  0.00     0.134 A 
ATOM     60  C   UNL A   1      35.871  30.616  28.900  1.00  0.00     0.134 A 
ATOM     61  F   UNL A   1      38.150  33.440  28.911  1.00  0.00    -0.206 F 
ATOM     62  C   UNL A   1      35.988  33.246  28.015  1.00  0.00     0.040 A 
ATOM     63  C   UNL A   1      34.786  31.169  28.218  1.00  0.00     0.040 A 
ATOM     64  F   UNL A   1      35.771  29.349  29.327  1.00  0.00    -0.206 F 
ATOM     65  C   UNL A   1      34.840  32.491  27.781  1.00  0.00     0.006 A 
ENDBRANCH  37  58
BRANCH  49  66
ATOM     66  C   UNL A   1      39.122  32.146  35.729  1.00  0.00     0.057 A 
ATOM     67  C   UNL A   1      38.247  31.616  36.686  1.00  0.00     0.134 A 
ATOM     68  C   UNL A   1      39.532  33.476  35.894  1.00  0.00     0.134 A 
ATOM     69  F   UNL A   1      37.808  30.352  36.578  1.00  0.00    -0.206 F 
ATOM     70  C   UNL A   1      37.785  32.383  37.757  1.00  0.00     0.040 A 
ATOM     71  C   UNL A   1      39.095  34.246  36.972  1.00  0.00     0.040 A 
ATOM     72  F   UNL A   1      40.375  34.042  35.017  1.00  0.00    -0.206 F 
ATOM     73  C   UNL A   1      38.215  33.701  37.905  1.00  0.00     0.006 A 
ENDBRANCH  49  66
ENDBRANCH  23  24
ENDBRANCH  16  18
ENDBRANCH  15  16
ENDBRANCH  14  15
ENDBRANCH   1  14
TORSDOF 15
ENDMDL
MODEL 3
REMARK VINA RESULT:      -8.6      0.675      6.528
REMARK SMILES O=C(CCCC[C@@H]1CCSS1)OCCOC(=O)c1ccc(-c2c3nc(c(-c4c(F)cccc4F)c4ccc([nH]4)c(-c4c(F)cccc4F)c4nc(c(-c5c(F)cccc5F)c5ccc2[nH]5)C=C4)C=C3)cc1
REMARK SMILES IDX 13 1 12 2 2 3 1 4 3 5 4 6 5 7 6 8 7 9 8 10 11 11 9 12 10 13
REMARK SMILES IDX 14 14 15 15 16 16 17 17 18 18 19 19 71 20 20 21 70 22 21 23
REMARK SMILES IDX 22 24 23 25 64 26 24 27 69 28 63 29 65 30 25 31 68 32 62 33
REMARK SMILES IDX 61 34 26 36 52 37 35 38 51 39 36 40 39 41 50 42 66 43 37 44
REMARK SMILES IDX 38 45 49 47 67 48 40 49 27 50 28 51 33 52 29 53 30 54 32 55
REMARK SMILES IDX 34 56 31 57 53 58 54 59 59 60 55 61 56 62 58 63 60 64 57 65
REMARK SMILES IDX 41 66 42 67 47 68 43 69 44 70 46 71 48 72 45 73
REMARK H PARENT 65 35 39 46
REMARK Flexibility Score: inf
ROOT
ATOM      1  C   UNL A   1      43.898  17.828  26.142  1.00  0.00     0.274 C 
ENDROOT
BRANCH   1   2
ATOM      2  O   UNL A   1      44.505  18.645  25.126  1.00  0.00    -0.462 OA
BRANCH   2   3
ATOM      3  C   UNL A   1      45.857  18.749  25.059  1.00  0.00     0.305 C 
ATOM      4  O   UNL A   1      46.580  17.828  25.427  1.00  0.00    -0.252 OA
BRANCH   3   5
ATOM      5  C   UNL A   1      46.423  20.102  24.679  1.00  0.00     0.123 C 
BRANCH   5   6
ATOM      6  C   UNL A   1      45.425  21.252  24.784  1.00  0.00     0.012 C 
BRANCH   6   7
ATOM      7  C   UNL A   1      45.935  22.520  25.484  1.00  0.00     0.002 C 
BRANCH   7   8
ATOM      8  C   UNL A   1      46.480  23.665  24.606  1.00  0.00     0.015 C 
BRANCH   8   9
ATOM      9  C   UNL A   1      46.596  25.079  25.188  1.00  0.00     0.059 C 
ATOM     10  C   UNL A   1      45.280  25.863  25.159  1.00  0.00     0.027 C 
ATOM     11  S   UNL A   1      47.882  26.105  24.416  1.00  0.00    -0.091 SA
ATOM     12  C   UNL A   1      45.533  27.308  25.571  1.00  0.00     0.083 C 
ATOM     13  S   UNL A   1      46.882  27.891  24.518  1.00  0.00    -0.094 SA
ENDBRANCH   8   9
ENDBRANCH   7   8
ENDBRANCH   6   7
ENDBRANCH   5   6
ENDBRANCH   3   5
ENDBRANCH   2   3
ENDBRANCH   1   2
BRANCH   1  14
ATOM     14  C   UNL A   1      42.471  18.267  26.485  1.00  0.00     0.275 C 
BRANCH  14  15
ATOM     15  O   UNL A   1      41.953  19.173  25.500  1.00  0.00    -0.458 OA
BRANCH  15  16
ATOM     16  C   UNL A   1      40.965  19.987  25.957  1.00  0.00     0.338 C 
ATOM     17  O   UNL A   1      39.784  19.711  26.061  1.00  0.00    -0.246 OA
BRANCH  16  18
ATOM     18  C   UNL A   1      41.547  21.241  26.484  1.00  0.00     0.060 A 
ATOM     19  C   UNL A   1      41.479  21.449  27.867  1.00  0.00     0.016 A 
ATOM     20  C   UNL A   1      42.139  22.200  25.656  1.00  0.00     0.016 A 
ATOM     21  C   UNL A   1      41.967  22.631  28.422  1.00  0.00     0.010 A 
ATOM     22  C   UNL A   1      42.621  23.390  26.214  1.00  0.00     0.010 A 
ATOM     23  C   UNL A   1      42.513  23.622  27.595  1.00  0.00    -0.014 A 
BRANCH  23  24
ATOM     24  C   UNL A   1      42.860  24.943  28.174  1.00  0.00     0.031 A 
ATOM     25  C   UNL A   1      41.779  25.971  28.356  1.00  0.00     0.074 A 
ATOM     26  C   UNL A   1      44.117  25.214  28.567  1.00  0.00     0.049 A 
ATOM     27  N   UNL A   1      41.852  27.167  28.885  1.00  0.00    -0.248 NA
ATOM     28  C   UNL A   1      40.435  25.603  27.883  1.00  0.00     0.031 C 
ATOM     29  C   UNL A   1      45.254  24.303  28.458  1.00  0.00     0.029 A 
ATOM     30  N   UNL A   1      44.644  26.346  29.138  1.00  0.00    -0.354 N 
ATOM     31  C   UNL A   1      40.566  27.687  28.820  1.00  0.00     0.074 A 
ATOM     32  C   UNL A   1      39.739  26.694  28.171  1.00  0.00     0.031 C 
ATOM     33  C   UNL A   1      46.350  24.916  28.938  1.00  0.00     0.029 A 
ATOM     34  C   UNL A   1      45.994  26.265  29.376  1.00  0.00     0.049 A 
ATOM     35  H   UNL A   1      44.106  27.141  29.355  1.00  0.00     0.167 HD
ATOM     36  C   UNL A   1      40.113  28.879  29.275  1.00  0.00     0.037 A 
ATOM     37  C   UNL A   1      46.844  27.180  29.881  1.00  0.00     0.037 A 
ATOM     38  C   UNL A   1      40.929  29.874  29.916  1.00  0.00     0.049 A 
ATOM     39  C   UNL A   1      46.324  28.526  30.312  1.00  0.00     0.074 A 
ATOM     40  C   UNL A   1      40.545  31.096  30.442  1.00  0.00     0.029 A 
ATOM     41  N   UNL A   1      42.297  29.769  30.106  1.00  0.00    -0.354 N 
ATOM     42  N   UNL A   1      45.096  28.980  30.309  1.00  0.00    -0.248 NA
ATOM     43  C   UNL A   1      47.315  29.485  30.825  1.00  0.00     0.031 C 
ATOM     44  C   UNL A   1      41.689  31.750  30.911  1.00  0.00     0.029 A 
ATOM     45  C   UNL A   1      42.778  30.918  30.713  1.00  0.00     0.049 A 
ATOM     46  H   UNL A   1      42.846  28.994  29.848  1.00  0.00     0.167 HD
ATOM     47  C   UNL A   1      45.161  30.263  30.839  1.00  0.00     0.074 A 
ATOM     48  C   UNL A   1      46.548  30.512  31.165  1.00  0.00     0.031 C 
ATOM     49  C   UNL A   1      44.160  31.153  31.038  1.00  0.00     0.037 A 
BRANCH  36  50
ATOM     50  C   UNL A   1      38.656  29.177  29.090  1.00  0.00     0.057 A 
ATOM     51  C   UNL A   1      37.751  29.088  30.153  1.00  0.00     0.134 A 
ATOM     52  C   UNL A   1      38.167  29.608  27.851  1.00  0.00     0.134 A 
ATOM     53  F   UNL A   1      38.158  28.670  31.360  1.00  0.00    -0.206 F 
ATOM     54  C   UNL A   1      36.402  29.407  29.988  1.00  0.00     0.040 A 
ATOM     55  C   UNL A   1      36.824  29.946  27.678  1.00  0.00     0.040 A 
ATOM     56  F   UNL A   1      38.987  29.715  26.795  1.00  0.00    -0.206 F 
ATOM     57  C   UNL A   1      35.938  29.844  28.748  1.00  0.00     0.006 A 
ENDBRANCH  36  50
BRANCH  37  58
ATOM     58  C   UNL A   1      48.289  26.868  30.002  1.00  0.00     0.057 A 
ATOM     59  C   UNL A   1      48.827  26.372  31.194  1.00  0.00     0.134 A 
ATOM     60  C   UNL A   1      49.173  27.112  28.944  1.00  0.00     0.134 A 
ATOM     61  F   UNL A   1      48.033  26.146  32.251  1.00  0.00    -0.206 F 
ATOM     62  C   UNL A   1      50.197  26.145  31.338  1.00  0.00     0.040 A 
ATOM     63  C   UNL A   1      50.542  26.870  29.067  1.00  0.00     0.040 A 
ATOM     64  F   UNL A   1      48.718  27.594  27.779  1.00  0.00    -0.206 F 
ATOM     65  C   UNL A   1      51.058  26.394  30.271  1.00  0.00     0.006 A 
ENDBRANCH  37  58
BRANCH  49  66
ATOM     66  C   UNL A   1      44.520  32.470  31.659  1.00  0.00     0.057 A 
ATOM     67  C   UNL A   1      44.544  32.647  33.048  1.00  0.00     0.134 A 
ATOM     68  C   UNL A   1      44.888  33.562  30.861  1.00  0.00     0.134 A 
ATOM     69  F   UNL A   1      44.191  31.645  33.868  1.00  0.00    -0.206 F 
ATOM     70  C   UNL A   1      44.905  33.868  33.622  1.00  0.00     0.040 A 
ATOM     71  C   UNL A   1      45.271  34.780  31.422  1.00  0.00     0.040 A 
ATOM     72  F   UNL A   1      44.893  33.456  29.524  1.00  0.00    -0.206 F 
ATOM     73  C   UNL A   1      45.276  34.937  32.807  1.00  0.00     0.006 A 
ENDBRANCH  49  66
ENDBRANCH  23  24
ENDBRANCH  16  18
ENDBRANCH  15  16
ENDBRANCH  14  15
ENDBRANCH   1  14
TORSDOF 15
ENDMDL
