MODEL 1
REMARK VINA RESULT:     -10.9      0.000      0.000
REMARK SMILES C[C@H](c1ccc(Br)s1)[NH+]1CCC(CC(=O)OCCOC(=O)c2ccc(-c3c4nc(c(-c5c(F)cccc5F)c5ccc([nH]5)c(-c5c(F)cccc5F)c5nc(c(-c6c(F)cccc6F)c6ccc3[nH]6)C=C5)C=C4)cc2)CC1
REMARK SMILES IDX 17 1 16 2 14 3 15 4 13 5 12 6 9 7 10 8 77 9 11 11 76 12 2 13
REMARK SMILES IDX 1 14 3 15 4 16 8 17 5 18 6 19 7 20 18 21 19 22 20 23 21 24
REMARK SMILES IDX 22 25 23 26 75 27 24 28 74 29 25 30 26 31 27 32 68 33 28 34
REMARK SMILES IDX 73 35 67 36 69 37 29 38 72 39 66 40 65 41 30 43 56 44 39 45
REMARK SMILES IDX 55 46 40 47 43 48 54 49 70 50 41 51 42 52 53 54 71 55 44 56
REMARK SMILES IDX 31 57 32 58 37 59 33 60 34 61 36 62 38 63 35 64 57 65 58 66
REMARK SMILES IDX 63 67 59 68 60 69 62 70 64 71 61 72 45 73 46 74 51 75 47 76
REMARK SMILES IDX 48 77 50 78 52 79 49 80
REMARK H PARENT 9 10 69 42 43 53
REMARK Flexibility Score: inf
ROOT
ATOM      1  C   UNL A   1      41.533  20.303  26.313  1.00  0.00     0.274 C 
ENDROOT
BRANCH   1   2
ATOM      2  O   UNL A   1      40.390  21.087  26.701  1.00  0.00    -0.462 OA
BRANCH   2   3
ATOM      3  C   UNL A   1      39.272  20.990  25.942  1.00  0.00     0.306 C 
ATOM      4  O   UNL A   1      38.898  19.969  25.377  1.00  0.00    -0.252 OA
BRANCH   3   5
ATOM      5  C   UNL A   1      38.547  22.316  25.805  1.00  0.00     0.126 C 
BRANCH   5   6
ATOM      6  C   UNL A   1      37.090  22.226  25.320  1.00  0.00     0.011 C 
ATOM      7  N   UNL A   1      34.606  23.578  24.524  1.00  0.00    -0.328 N 
ATOM      8  C   UNL A   1      34.684  22.837  25.782  1.00  0.00     0.263 C 
ATOM      9  C   UNL A   1      35.455  22.955  23.500  1.00  0.00     0.263 C 
ATOM     10  H   UNL A   1      34.975  24.508  24.725  1.00  0.00     0.348 HD
ATOM     11  C   UNL A   1      36.110  22.855  26.319  1.00  0.00     0.066 C 
ATOM     12  C   UNL A   1      36.922  22.917  23.955  1.00  0.00     0.066 C 
BRANCH   7  13
ATOM     13  C   UNL A   1      33.233  23.853  24.042  1.00  0.00     0.222 C 
ATOM     14  C   UNL A   1      33.247  24.233  22.551  1.00  0.00     0.082 C 
BRANCH  13  15
ATOM     15  C   UNL A   1      32.456  24.873  24.854  1.00  0.00     0.063 A 
ATOM     16  C   UNL A   1      31.106  24.907  25.172  1.00  0.00     0.023 A 
ATOM     17  S   UNL A   1      33.280  26.209  25.566  1.00  0.00    -0.127 S 
ATOM     18  C   UNL A   1      30.750  26.044  25.955  1.00  0.00     0.028 A 
ATOM     19  C   UNL A   1      31.848  26.815  26.232  1.00  0.00     0.070 A 
ATOM     20  Br  UNL A   1      31.778  28.384  27.253  1.00  0.00    -0.039 Br
ENDBRANCH  13  15
ENDBRANCH   7  13
ENDBRANCH   5   6
ENDBRANCH   3   5
ENDBRANCH   2   3
ENDBRANCH   1   2
BRANCH   1  21
ATOM     21  C   UNL A   1      42.649  21.194  25.766  1.00  0.00     0.275 C 
BRANCH  21  22
ATOM     22  O   UNL A   1      42.127  22.476  25.376  1.00  0.00    -0.458 OA
BRANCH  22  23
ATOM     23  C   UNL A   1      43.026  23.486  25.349  1.00  0.00     0.338 C 
ATOM     24  O   UNL A   1      44.005  23.595  24.634  1.00  0.00    -0.246 OA
BRANCH  23  25
ATOM     25  C   UNL A   1      42.585  24.533  26.281  1.00  0.00     0.060 A 
ATOM     26  C   UNL A   1      43.235  25.770  26.265  1.00  0.00     0.016 A 
ATOM     27  C   UNL A   1      41.573  24.266  27.203  1.00  0.00     0.016 A 
ATOM     28  C   UNL A   1      42.874  26.756  27.181  1.00  0.00     0.010 A 
ATOM     29  C   UNL A   1      41.214  25.253  28.120  1.00  0.00     0.010 A 
ATOM     30  C   UNL A   1      41.871  26.497  28.123  1.00  0.00    -0.014 A 
BRANCH  30  31
ATOM     31  C   UNL A   1      41.545  27.484  29.177  1.00  0.00     0.031 A 
ATOM     32  C   UNL A   1      42.306  27.448  30.470  1.00  0.00     0.074 A 
ATOM     33  C   UNL A   1      40.551  28.371  28.994  1.00  0.00     0.049 A 
ATOM     34  N   UNL A   1      42.068  28.081  31.589  1.00  0.00    -0.248 NA
ATOM     35  C   UNL A   1      43.488  26.574  30.507  1.00  0.00     0.031 C 
ATOM     36  C   UNL A   1      39.776  28.532  27.765  1.00  0.00     0.029 A 
ATOM     37  N   UNL A   1      40.009  29.288  29.859  1.00  0.00    -0.354 N 
ATOM     38  C   UNL A   1      43.053  27.661  32.473  1.00  0.00     0.074 A 
ATOM     39  C   UNL A   1      43.886  26.713  31.763  1.00  0.00     0.031 C 
ATOM     40  C   UNL A   1      38.842  29.479  27.961  1.00  0.00     0.029 A 
ATOM     41  C   UNL A   1      38.924  29.951  29.341  1.00  0.00     0.049 A 
ATOM     42  H   UNL A   1      40.364  29.454  30.762  1.00  0.00     0.167 HD
ATOM     43  C   UNL A   1      43.240  28.032  33.761  1.00  0.00     0.037 A 
ATOM     44  C   UNL A   1      38.070  30.810  29.929  1.00  0.00     0.037 A 
ATOM     45  C   UNL A   1      42.414  28.983  34.454  1.00  0.00     0.049 A 
ATOM     46  C   UNL A   1      38.263  31.164  31.379  1.00  0.00     0.074 A 
ATOM     47  C   UNL A   1      42.521  29.430  35.760  1.00  0.00     0.029 A 
ATOM     48  N   UNL A   1      41.327  29.637  33.893  1.00  0.00    -0.354 N 
ATOM     49  N   UNL A   1      39.187  30.753  32.214  1.00  0.00    -0.248 NA
ATOM     50  C   UNL A   1      37.291  32.094  31.971  1.00  0.00     0.031 C 
ATOM     51  C   UNL A   1      41.478  30.331  35.999  1.00  0.00     0.029 A 
ATOM     52  C   UNL A   1      40.747  30.476  34.830  1.00  0.00     0.049 A 
ATOM     53  H   UNL A   1      41.014  29.521  32.967  1.00  0.00     0.167 HD
ATOM     54  C   UNL A   1      38.928  31.398  33.417  1.00  0.00     0.074 A 
ATOM     55  C   UNL A   1      37.760  32.227  33.205  1.00  0.00     0.031 C 
ATOM     56  C   UNL A   1      39.601  31.314  34.589  1.00  0.00     0.037 A 
BRANCH  43  57
ATOM     57  C   UNL A   1      44.364  27.383  34.510  1.00  0.00     0.057 A 
ATOM     58  C   UNL A   1      44.198  26.171  35.191  1.00  0.00     0.134 A 
ATOM     59  C   UNL A   1      45.637  27.967  34.528  1.00  0.00     0.134 A 
ATOM     60  F   UNL A   1      42.999  25.569  35.225  1.00  0.00    -0.206 F 
ATOM     61  C   UNL A   1      45.254  25.571  35.880  1.00  0.00     0.040 A 
ATOM     62  C   UNL A   1      46.706  27.366  35.194  1.00  0.00     0.040 A 
ATOM     63  F   UNL A   1      45.863  29.127  33.894  1.00  0.00    -0.206 F 
ATOM     64  C   UNL A   1      46.514  26.166  35.876  1.00  0.00     0.006 A 
ENDBRANCH  43  57
BRANCH  44  65
ATOM     65  C   UNL A   1      36.939  31.377  29.155  1.00  0.00     0.057 A 
ATOM     66  C   UNL A   1      36.957  32.706  28.717  1.00  0.00     0.134 A 
ATOM     67  C   UNL A   1      35.812  30.609  28.839  1.00  0.00     0.134 A 
ATOM     68  F   UNL A   1      37.999  33.498  29.010  1.00  0.00    -0.206 F 
ATOM     69  C   UNL A   1      35.891  33.255  28.002  1.00  0.00     0.040 A 
ATOM     70  C   UNL A   1      34.749  31.138  28.105  1.00  0.00     0.040 A 
ATOM     71  F   UNL A   1      35.734  29.328  29.230  1.00  0.00    -0.206 F 
ATOM     72  C   UNL A   1      34.785  32.467  27.690  1.00  0.00     0.006 A 
ENDBRANCH  44  65
BRANCH  56  73
ATOM     73  C   UNL A   1      39.132  32.179  35.719  1.00  0.00     0.057 A 
ATOM     74  C   UNL A   1      38.274  31.698  36.714  1.00  0.00     0.134 A 
ATOM     75  C   UNL A   1      39.607  33.491  35.848  1.00  0.00     0.134 A 
ATOM     76  F   UNL A   1      37.777  30.454  36.640  1.00  0.00    -0.206 F 
ATOM     77  C   UNL A   1      37.897  32.496  37.796  1.00  0.00     0.040 A 
ATOM     78  C   UNL A   1      39.253  34.291  36.934  1.00  0.00     0.040 A 
ATOM     79  F   UNL A   1      40.439  34.006  34.930  1.00  0.00    -0.206 F 
ATOM     80  C   UNL A   1      38.394  33.792  37.912  1.00  0.00     0.006 A 
ENDBRANCH  56  73
ENDBRANCH  30  31
ENDBRANCH  23  25
ENDBRANCH  22  23
ENDBRANCH  21  22
ENDBRANCH   1  21
TORSDOF 14
ENDMDL
MODEL 2
REMARK VINA RESULT:     -10.8      4.492      9.062
REMARK SMILES C[C@H](c1ccc(Br)s1)[NH+]1CCC(CC(=O)OCCOC(=O)c2ccc(-c3c4nc(c(-c5c(F)cccc5F)c5ccc([nH]5)c(-c5c(F)cccc5F)c5nc(c(-c6c(F)cccc6F)c6ccc3[nH]6)C=C5)C=C4)cc2)CC1
REMARK SMILES IDX 17 1 16 2 14 3 15 4 13 5 12 6 9 7 10 8 77 9 11 11 76 12 2 13
REMARK SMILES IDX 1 14 3 15 4 16 8 17 5 18 6 19 7 20 18 21 19 22 20 23 21 24
REMARK SMILES IDX 22 25 23 26 75 27 24 28 74 29 25 30 26 31 27 32 68 33 28 34
REMARK SMILES IDX 73 35 67 36 69 37 29 38 72 39 66 40 65 41 30 43 56 44 39 45
REMARK SMILES IDX 55 46 40 47 43 48 54 49 70 50 41 51 42 52 53 54 71 55 44 56
REMARK SMILES IDX 31 57 32 58 37 59 33 60 34 61 36 62 38 63 35 64 57 65 58 66
REMARK SMILES IDX 63 67 59 68 60 69 62 70 64 71 61 72 45 73 46 74 51 75 47 76
REMARK SMILES IDX 48 77 50 78 52 79 49 80
REMARK H PARENT 9 10 69 42 43 53
REMARK Flexibility Score: inf
ROOT
ATOM      1  C   UNL A   1      32.916  35.027  28.820  1.00  0.00     0.274 C 
ENDROOT
BRANCH   1   2
ATOM      2  O   UNL A   1      33.641  33.890  29.323  1.00  0.00    -0.462 OA
BRANCH   2   3
ATOM      3  C   UNL A   1      34.497  33.264  28.479  1.00  0.00     0.306 C 
ATOM      4  O   UNL A   1      35.172  33.827  27.626  1.00  0.00    -0.252 OA
BRANCH   3   5
ATOM      5  C   UNL A   1      34.487  31.757  28.656  1.00  0.00     0.126 C 
BRANCH   5   6
ATOM      6  C   UNL A   1      34.221  30.943  27.377  1.00  0.00     0.011 C 
ATOM      7  N   UNL A   1      32.920  28.662  26.061  1.00  0.00    -0.328 N 
ATOM      8  C   UNL A   1      34.370  28.684  26.260  1.00  0.00     0.263 C 
ATOM      9  C   UNL A   1      32.405  30.019  25.840  1.00  0.00     0.263 C 
ATOM     10  H   UNL A   1      32.525  28.305  26.931  1.00  0.00     0.348 HD
ATOM     11  C   UNL A   1      34.720  29.498  27.500  1.00  0.00     0.066 C 
ATOM     12  C   UNL A   1      32.719  30.926  27.040  1.00  0.00     0.066 C 
BRANCH   7  13
ATOM     13  C   UNL A   1      32.442  27.693  25.048  1.00  0.00     0.222 C 
ATOM     14  C   UNL A   1      31.208  28.244  24.311  1.00  0.00     0.082 C 
BRANCH  13  15
ATOM     15  C   UNL A   1      32.182  26.291  25.568  1.00  0.00     0.063 A 
ATOM     16  C   UNL A   1      33.085  25.301  25.929  1.00  0.00     0.023 A 
ATOM     17  S   UNL A   1      30.564  25.757  25.820  1.00  0.00    -0.127 S 
ATOM     18  C   UNL A   1      32.447  24.103  26.366  1.00  0.00     0.028 A 
ATOM     19  C   UNL A   1      31.084  24.238  26.352  1.00  0.00     0.070 A 
ATOM     20  Br  UNL A   1      29.906  22.879  26.877  1.00  0.00    -0.039 Br
ENDBRANCH  13  15
ENDBRANCH   7  13
ENDBRANCH   5   6
ENDBRANCH   3   5
ENDBRANCH   2   3
ENDBRANCH   1   2
BRANCH   1  21
ATOM     21  C   UNL A   1      32.887  36.158  29.849  1.00  0.00     0.275 C 
BRANCH  21  22
ATOM     22  O   UNL A   1      32.068  35.796  30.975  1.00  0.00    -0.458 OA
BRANCH  22  23
ATOM     23  C   UNL A   1      32.586  36.092  32.188  1.00  0.00     0.338 C 
ATOM     24  O   UNL A   1      32.161  36.884  33.009  1.00  0.00    -0.246 OA
BRANCH  23  25
ATOM     25  C   UNL A   1      33.737  35.212  32.435  1.00  0.00     0.060 A 
ATOM     26  C   UNL A   1      33.506  33.909  32.888  1.00  0.00     0.016 A 
ATOM     27  C   UNL A   1      35.034  35.696  32.273  1.00  0.00     0.016 A 
ATOM     28  C   UNL A   1      34.584  33.078  33.186  1.00  0.00     0.010 A 
ATOM     29  C   UNL A   1      36.111  34.863  32.574  1.00  0.00     0.010 A 
ATOM     30  C   UNL A   1      35.892  33.556  33.045  1.00  0.00    -0.014 A 
BRANCH  30  31
ATOM     31  C   UNL A   1      37.051  32.733  33.460  1.00  0.00     0.031 A 
ATOM     32  C   UNL A   1      37.716  33.020  34.774  1.00  0.00     0.074 A 
ATOM     33  C   UNL A   1      37.528  31.772  32.649  1.00  0.00     0.049 A 
ATOM     34  N   UNL A   1      38.844  32.562  35.249  1.00  0.00    -0.248 NA
ATOM     35  C   UNL A   1      37.017  33.957  35.667  1.00  0.00     0.031 C 
ATOM     36  C   UNL A   1      36.937  31.371  31.373  1.00  0.00     0.029 A 
ATOM     37  N   UNL A   1      38.638  30.976  32.774  1.00  0.00    -0.354 N 
ATOM     38  C   UNL A   1      39.006  33.176  36.485  1.00  0.00     0.074 A 
ATOM     39  C   UNL A   1      37.865  34.044  36.682  1.00  0.00     0.031 C 
ATOM     40  C   UNL A   1      37.704  30.415  30.821  1.00  0.00     0.029 A 
ATOM     41  C   UNL A   1      38.861  30.176  31.680  1.00  0.00     0.049 A 
ATOM     42  H   UNL A   1      39.218  30.978  33.569  1.00  0.00     0.167 HD
ATOM     43  C   UNL A   1      40.019  33.028  37.369  1.00  0.00     0.037 A 
ATOM     44  C   UNL A   1      39.903  29.374  31.389  1.00  0.00     0.037 A 
ATOM     45  C   UNL A   1      41.143  32.153  37.170  1.00  0.00     0.049 A 
ATOM     46  C   UNL A   1      41.046  29.269  32.362  1.00  0.00     0.074 A 
ATOM     47  C   UNL A   1      42.222  31.928  38.008  1.00  0.00     0.029 A 
ATOM     48  N   UNL A   1      41.331  31.356  36.051  1.00  0.00    -0.354 N 
ATOM     49  N   UNL A   1      41.201  29.862  33.521  1.00  0.00    -0.248 NA
ATOM     50  C   UNL A   1      42.163  28.391  31.984  1.00  0.00     0.031 C 
ATOM     51  C   UNL A   1      43.079  31.018  37.380  1.00  0.00     0.029 A 
ATOM     52  C   UNL A   1      42.513  30.646  36.171  1.00  0.00     0.049 A 
ATOM     53  H   UNL A   1      40.714  31.303  35.285  1.00  0.00     0.167 HD
ATOM     54  C   UNL A   1      42.412  29.404  34.025  1.00  0.00     0.074 A 
ATOM     55  C   UNL A   1      42.953  28.485  33.045  1.00  0.00     0.031 C 
ATOM     56  C   UNL A   1      43.019  29.715  35.195  1.00  0.00     0.037 A 
BRANCH  43  57
ATOM     57  C   UNL A   1      39.970  33.853  38.620  1.00  0.00     0.057 A 
ATOM     58  C   UNL A   1      39.265  33.436  39.755  1.00  0.00     0.134 A 
ATOM     59  C   UNL A   1      40.661  35.069  38.697  1.00  0.00     0.134 A 
ATOM     60  F   UNL A   1      38.570  32.288  39.740  1.00  0.00    -0.206 F 
ATOM     61  C   UNL A   1      39.233  34.208  40.918  1.00  0.00     0.040 A 
ATOM     62  C   UNL A   1      40.655  35.839  39.860  1.00  0.00     0.040 A 
ATOM     63  F   UNL A   1      41.358  35.524  37.644  1.00  0.00    -0.206 F 
ATOM     64  C   UNL A   1      39.935  35.411  40.974  1.00  0.00     0.006 A 
ENDBRANCH  43  57
BRANCH  44  65
ATOM     65  C   UNL A   1      39.927  28.625  30.108  1.00  0.00     0.057 A 
ATOM     66  C   UNL A   1      39.249  27.409  29.970  1.00  0.00     0.134 A 
ATOM     67  C   UNL A   1      40.629  29.102  28.997  1.00  0.00     0.134 A 
ATOM     68  F   UNL A   1      38.577  26.890  31.009  1.00  0.00    -0.206 F 
ATOM     69  C   UNL A   1      39.278  26.687  28.776  1.00  0.00     0.040 A 
ATOM     70  C   UNL A   1      40.649  28.403  27.788  1.00  0.00     0.040 A 
ATOM     71  F   UNL A   1      41.300  30.262  29.065  1.00  0.00    -0.206 F 
ATOM     72  C   UNL A   1      39.976  27.188  27.678  1.00  0.00     0.006 A 
ENDBRANCH  44  65
BRANCH  56  73
ATOM     73  C   UNL A   1      44.305  29.016  35.514  1.00  0.00     0.057 A 
ATOM     74  C   UNL A   1      44.335  27.798  36.202  1.00  0.00     0.134 A 
ATOM     75  C   UNL A   1      45.524  29.538  35.061  1.00  0.00     0.134 A 
ATOM     76  F   UNL A   1      43.202  27.254  36.670  1.00  0.00    -0.206 F 
ATOM     77  C   UNL A   1      45.536  27.125  36.436  1.00  0.00     0.040 A 
ATOM     78  C   UNL A   1      46.728  28.865  35.272  1.00  0.00     0.040 A 
ATOM     79  F   UNL A   1      45.559  30.698  34.389  1.00  0.00    -0.206 F 
ATOM     80  C   UNL A   1      46.735  27.655  35.962  1.00  0.00     0.006 A 
ENDBRANCH  56  73
ENDBRANCH  30  31
ENDBRANCH  23  25
ENDBRANCH  22  23
ENDBRANCH  21  22
ENDBRANCH   1  21
TORSDOF 14
ENDMDL
MODEL 3
REMARK VINA RESULT:     -10.7      5.125      7.500
REMARK SMILES C[C@H](c1ccc(Br)s1)[NH+]1CCC(CC(=O)OCCOC(=O)c2ccc(-c3c4nc(c(-c5c(F)cccc5F)c5ccc([nH]5)c(-c5c(F)cccc5F)c5nc(c(-c6c(F)cccc6F)c6ccc3[nH]6)C=C5)C=C4)cc2)CC1
REMARK SMILES IDX 17 1 16 2 14 3 15 4 13 5 12 6 9 7 10 8 77 9 11 11 76 12 2 13
REMARK SMILES IDX 1 14 3 15 4 16 8 17 5 18 6 19 7 20 18 21 19 22 20 23 21 24
REMARK SMILES IDX 22 25 23 26 75 27 24 28 74 29 25 30 26 31 27 32 68 33 28 34
REMARK SMILES IDX 73 35 67 36 69 37 29 38 72 39 66 40 65 41 30 43 56 44 39 45
REMARK SMILES IDX 55 46 40 47 43 48 54 49 70 50 41 51 42 52 53 54 71 55 44 56
REMARK SMILES IDX 31 57 32 58 37 59 33 60 34 61 36 62 38 63 35 64 57 65 58 66
REMARK SMILES IDX 63 67 59 68 60 69 62 70 64 71 61 72 45 73 46 74 51 75 47 76
REMARK SMILES IDX 48 77 50 78 52 79 49 80
REMARK H PARENT 9 10 69 42 43 53
REMARK Flexibility Score: inf
ROOT
ATOM      1  C   UNL A   1      41.755  19.469  26.489  1.00  0.00     0.274 C 
ENDROOT
BRANCH   1   2
ATOM      2  O   UNL A   1      42.375  20.559  27.197  1.00  0.00    -0.462 OA
BRANCH   2   3
ATOM      3  C   UNL A   1      41.680  21.717  27.302  1.00  0.00     0.306 C 
ATOM      4  O   UNL A   1      41.744  22.486  28.254  1.00  0.00    -0.252 OA
BRANCH   3   5
ATOM      5  C   UNL A   1      40.744  21.941  26.129  1.00  0.00     0.126 C 
BRANCH   5   6
ATOM      6  C   UNL A   1      39.284  22.258  26.499  1.00  0.00     0.011 C 
ATOM      7  N   UNL A   1      36.689  23.421  25.763  1.00  0.00    -0.328 N 
ATOM      8  C   UNL A   1      37.533  24.055  26.775  1.00  0.00     0.263 C 
ATOM      9  C   UNL A   1      36.849  21.962  25.793  1.00  0.00     0.263 C 
ATOM     10  H   UNL A   1      37.027  23.763  24.863  1.00  0.00     0.348 HD
ATOM     11  C   UNL A   1      39.003  23.766  26.495  1.00  0.00     0.066 C 
ATOM     12  C   UNL A   1      38.310  21.566  25.529  1.00  0.00     0.066 C 
BRANCH   7  13
ATOM     13  C   UNL A   1      35.270  23.844  25.776  1.00  0.00     0.222 C 
ATOM     14  C   UNL A   1      34.458  22.989  26.764  1.00  0.00     0.082 C 
BRANCH  13  15
ATOM     15  C   UNL A   1      34.597  23.888  24.416  1.00  0.00     0.063 A 
ATOM     16  C   UNL A   1      34.383  22.866  23.502  1.00  0.00     0.023 A 
ATOM     17  S   UNL A   1      33.930  25.367  23.838  1.00  0.00    -0.127 S 
ATOM     18  C   UNL A   1      33.716  23.309  22.322  1.00  0.00     0.028 A 
ATOM     19  C   UNL A   1      33.418  24.644  22.397  1.00  0.00     0.070 A 
ATOM     20  Br  UNL A   1      32.527  25.581  21.042  1.00  0.00    -0.039 Br
ENDBRANCH  13  15
ENDBRANCH   7  13
ENDBRANCH   5   6
ENDBRANCH   3   5
ENDBRANCH   2   3
ENDBRANCH   1   2
BRANCH   1  21
ATOM     21  C   UNL A   1      42.805  18.592  25.806  1.00  0.00     0.275 C 
BRANCH  21  22
ATOM     22  O   UNL A   1      43.230  19.185  24.567  1.00  0.00    -0.458 OA
BRANCH  22  23
ATOM     23  C   UNL A   1      44.561  19.396  24.450  1.00  0.00     0.338 C 
ATOM     24  O   UNL A   1      45.414  18.605  24.094  1.00  0.00    -0.246 OA
BRANCH  23  25
ATOM     25  C   UNL A   1      44.838  20.811  24.735  1.00  0.00     0.060 A 
ATOM     26  C   UNL A   1      45.354  21.161  25.986  1.00  0.00     0.016 A 
ATOM     27  C   UNL A   1      44.532  21.787  23.787  1.00  0.00     0.016 A 
ATOM     28  C   UNL A   1      45.567  22.502  26.299  1.00  0.00     0.010 A 
ATOM     29  C   UNL A   1      44.743  23.129  24.103  1.00  0.00     0.010 A 
ATOM     30  C   UNL A   1      45.248  23.494  25.364  1.00  0.00    -0.014 A 
BRANCH  30  31
ATOM     31  C   UNL A   1      45.359  24.929  25.710  1.00  0.00     0.031 A 
ATOM     32  C   UNL A   1      46.697  25.602  25.612  1.00  0.00     0.074 A 
ATOM     33  C   UNL A   1      44.285  25.607  26.150  1.00  0.00     0.049 A 
ATOM     34  N   UNL A   1      47.064  26.781  26.038  1.00  0.00    -0.248 NA
ATOM     35  C   UNL A   1      47.765  24.836  24.950  1.00  0.00     0.031 C 
ATOM     36  C   UNL A   1      42.927  25.074  26.241  1.00  0.00     0.029 A 
ATOM     37  N   UNL A   1      44.178  26.890  26.626  1.00  0.00    -0.354 N 
ATOM     38  C   UNL A   1      48.413  26.890  25.723  1.00  0.00     0.074 A 
ATOM     39  C   UNL A   1      48.799  25.653  25.077  1.00  0.00     0.031 C 
ATOM     40  C   UNL A   1      42.124  26.017  26.764  1.00  0.00     0.029 A 
ATOM     41  C   UNL A   1      42.922  27.197  27.087  1.00  0.00     0.049 A 
ATOM     42  H   UNL A   1      44.929  27.526  26.637  1.00  0.00     0.167 HD
ATOM     43  C   UNL A   1      49.249  27.927  25.958  1.00  0.00     0.037 A 
ATOM     44  C   UNL A   1      42.478  28.293  27.733  1.00  0.00     0.037 A 
ATOM     45  C   UNL A   1      48.853  29.157  26.590  1.00  0.00     0.049 A 
ATOM     46  C   UNL A   1      43.440  29.410  28.034  1.00  0.00     0.074 A 
ATOM     47  C   UNL A   1      49.623  30.271  26.870  1.00  0.00     0.029 A 
ATOM     48  N   UNL A   1      47.569  29.432  27.038  1.00  0.00    -0.354 N 
ATOM     49  N   UNL A   1      44.716  29.501  27.747  1.00  0.00    -0.248 NA
ATOM     50  C   UNL A   1      42.903  30.573  28.756  1.00  0.00     0.031 C 
ATOM     51  C   UNL A   1      48.813  31.210  27.518  1.00  0.00     0.029 A 
ATOM     52  C   UNL A   1      47.529  30.695  27.604  1.00  0.00     0.049 A 
ATOM     53  H   UNL A   1      46.802  28.820  26.965  1.00  0.00     0.167 HD
ATOM     54  C   UNL A   1      45.126  30.741  28.222  1.00  0.00     0.074 A 
ATOM     55  C   UNL A   1      43.964  31.367  28.817  1.00  0.00     0.031 C 
ATOM     56  C   UNL A   1      46.354  31.310  28.166  1.00  0.00     0.037 A 
BRANCH  43  57
ATOM     57  C   UNL A   1      50.683  27.763  25.554  1.00  0.00     0.057 A 
ATOM     58  C   UNL A   1      51.104  27.934  24.229  1.00  0.00     0.134 A 
ATOM     59  C   UNL A   1      51.660  27.456  26.509  1.00  0.00     0.134 A 
ATOM     60  F   UNL A   1      50.214  28.213  23.264  1.00  0.00    -0.206 F 
ATOM     61  C   UNL A   1      52.443  27.787  23.865  1.00  0.00     0.040 A 
ATOM     62  C   UNL A   1      53.005  27.329  26.162  1.00  0.00     0.040 A 
ATOM     63  F   UNL A   1      51.323  27.282  27.796  1.00  0.00    -0.206 F 
ATOM     64  C   UNL A   1      53.399  27.490  24.835  1.00  0.00     0.006 A 
ENDBRANCH  43  57
BRANCH  44  65
ATOM     65  C   UNL A   1      41.061  28.376  28.163  1.00  0.00     0.057 A 
ATOM     66  C   UNL A   1      40.077  28.886  27.309  1.00  0.00     0.134 A 
ATOM     67  C   UNL A   1      40.657  27.955  29.434  1.00  0.00     0.134 A 
ATOM     68  F   UNL A   1      40.407  29.327  26.086  1.00  0.00    -0.206 F 
ATOM     69  C   UNL A   1      38.742  28.986  27.708  1.00  0.00     0.040 A 
ATOM     70  C   UNL A   1      39.323  28.027  29.839  1.00  0.00     0.040 A 
ATOM     71  F   UNL A   1      41.553  27.457  30.300  1.00  0.00    -0.206 F 
ATOM     72  C   UNL A   1      38.362  28.549  28.976  1.00  0.00     0.006 A 
ENDBRANCH  44  65
BRANCH  56  73
ATOM     73  C   UNL A   1      46.497  32.700  28.707  1.00  0.00     0.057 A 
ATOM     74  C   UNL A   1      46.877  32.943  30.031  1.00  0.00     0.134 A 
ATOM     75  C   UNL A   1      46.321  33.807  27.866  1.00  0.00     0.134 A 
ATOM     76  F   UNL A   1      47.050  31.925  30.886  1.00  0.00    -0.206 F 
ATOM     77  C   UNL A   1      47.070  34.242  30.504  1.00  0.00     0.040 A 
ATOM     78  C   UNL A   1      46.529  35.109  28.322  1.00  0.00     0.040 A 
ATOM     79  F   UNL A   1      45.964  33.637  26.583  1.00  0.00    -0.206 F 
ATOM     80  C   UNL A   1      46.905  35.328  29.646  1.00  0.00     0.006 A 
ENDBRANCH  56  73
ENDBRANCH  30  31
ENDBRANCH  23  25
ENDBRANCH  22  23
ENDBRANCH  21  22
ENDBRANCH   1  21
TORSDOF 14
ENDMDL
