MODEL 1
REMARK VINA RESULT:     -12.5      0.000      0.000
REMARK SMILES CCc1cc(=O)oc2c3c(cc(OCC(=O)NCC(=O)OCCOC(=O)c4ccc(-c5c6nc(c(-c7c(F)cccc7F)c7ccc([nH]7)c(-c7c(F)cccc7F)c7nc(c(-c8c(F)cccc8F)c8ccc5[nH]8)C=C7)C=C6)cc4)c12)OC(C)(C)CC3
REMARK SMILES IDX 21 1 19 2 20 3 18 4 17 5 15 6 16 7 14 9 13 10 12 11 3 12
REMARK SMILES IDX 4 13 81 14 5 15 8 16 6 17 7 18 9 19 11 20 10 21 87 22 82 23
REMARK SMILES IDX 86 24 83 25 84 26 85 27 2 28 1 29 22 30 23 31 24 32 25 33
REMARK SMILES IDX 26 34 27 35 28 36 80 37 29 38 79 39 30 40 31 41 32 42 73 43
REMARK SMILES IDX 33 44 78 45 72 46 74 47 34 48 77 49 71 50 70 51 35 53 61 54
REMARK SMILES IDX 44 55 60 56 45 57 48 58 59 59 75 60 46 61 47 62 58 64 76 65
REMARK SMILES IDX 49 66 36 67 37 68 42 69 38 70 39 71 41 72 43 73 40 74 62 75
REMARK SMILES IDX 63 76 68 77 64 78 65 79 67 80 69 81 66 82 50 83 51 84 56 85
REMARK SMILES IDX 52 86 53 87 55 88 57 89 54 90
REMARK H PARENT 17 8 74 52 48 63
REMARK Flexibility Score: inf
ROOT
ATOM      1  O   UNL A   1      41.124  20.783  26.931  1.00  0.00    -0.461 OA
ENDROOT
BRANCH   1   2
ATOM      2  C   UNL A   1      40.121  20.263  26.177  1.00  0.00     0.325 C 
ATOM      3  O   UNL A   1      40.154  19.172  25.618  1.00  0.00    -0.250 OA
BRANCH   2   4
ATOM      4  C   UNL A   1      38.921  21.202  26.058  1.00  0.00     0.238 C 
BRANCH   4   5
ATOM      5  N   UNL A   1      39.135  22.566  26.501  1.00  0.00    -0.342 N 
ATOM      6  C   UNL A   1      38.350  23.653  26.252  1.00  0.00     0.258 C 
ATOM      7  O   UNL A   1      38.608  24.727  26.795  1.00  0.00    -0.271 OA
ATOM      8  H   UNL A   1      39.941  22.728  27.043  1.00  0.00     0.164 HD
BRANCH   6   9
ATOM      9  C   UNL A   1      37.141  23.493  25.319  1.00  0.00     0.329 C 
BRANCH   9  10
ATOM     10  O   UNL A   1      35.902  23.212  25.965  1.00  0.00    -0.483 OA
BRANCH  10  11
ATOM     11  C   UNL A   1      35.007  22.374  25.350  1.00  0.00     0.135 A 
ATOM     12  C   UNL A   1      33.446  24.372  24.799  1.00  0.00    -0.026 A 
ATOM     13  C   UNL A   1      32.280  24.733  24.237  1.00  0.00     0.098 A 
ATOM     14  C   UNL A   1      33.832  22.934  24.792  1.00  0.00     0.063 A 
ATOM     15  C   UNL A   1      31.352  23.803  23.594  1.00  0.00     0.336 A 
ATOM     16  C   UNL A   1      32.933  22.031  24.183  1.00  0.00     0.149 A 
ATOM     17  O   UNL A   1      30.302  24.195  23.099  1.00  0.00    -0.246 OA
ATOM     18  O   UNL A   1      31.721  22.477  23.602  1.00  0.00    -0.422 OA
ATOM     19  C   UNL A   1      33.148  20.642  24.109  1.00  0.00     0.038 A 
ATOM     20  C   UNL A   1      35.230  20.989  25.266  1.00  0.00     0.094 A 
ATOM     21  C   UNL A   1      34.302  20.133  24.685  1.00  0.00     0.130 A 
ATOM     22  C   UNL A   1      32.151  19.721  23.466  1.00  0.00     0.047 C 
ATOM     23  O   UNL A   1      34.629  18.808  24.723  1.00  0.00    -0.487 OA
ATOM     24  C   UNL A   1      32.766  18.351  23.204  1.00  0.00     0.053 C 
ATOM     25  C   UNL A   1      33.587  17.870  24.407  1.00  0.00     0.104 C 
ATOM     26  C   UNL A   1      34.306  16.564  24.040  1.00  0.00     0.056 C 
ATOM     27  C   UNL A   1      32.730  17.619  25.658  1.00  0.00     0.056 C 
BRANCH  12  28
ATOM     28  C   UNL A   1      34.264  25.454  25.464  1.00  0.00     0.033 C 
ATOM     29  C   UNL A   1      33.441  26.589  26.055  1.00  0.00     0.009 C 
ENDBRANCH  12  28
ENDBRANCH  10  11
ENDBRANCH   9  10
ENDBRANCH   6   9
ENDBRANCH   4   5
ENDBRANCH   2   4
ENDBRANCH   1   2
BRANCH   1  30
ATOM     30  C   UNL A   1      42.469  20.557  26.470  1.00  0.00     0.274 C 
BRANCH  30  31
ATOM     31  C   UNL A   1      42.908  21.679  25.524  1.00  0.00     0.275 C 
BRANCH  31  32
ATOM     32  O   UNL A   1      43.826  22.590  26.162  1.00  0.00    -0.458 OA
BRANCH  32  33
ATOM     33  C   UNL A   1      43.849  23.837  25.642  1.00  0.00     0.338 C 
ATOM     34  O   UNL A   1      44.220  24.179  24.531  1.00  0.00    -0.246 OA
BRANCH  33  35
ATOM     35  C   UNL A   1      43.178  24.772  26.555  1.00  0.00     0.060 A 
ATOM     36  C   UNL A   1      43.627  26.093  26.556  1.00  0.00     0.016 A 
ATOM     37  C   UNL A   1      42.218  24.347  27.472  1.00  0.00     0.016 A 
ATOM     38  C   UNL A   1      43.151  26.998  27.493  1.00  0.00     0.010 A 
ATOM     39  C   UNL A   1      41.728  25.261  28.409  1.00  0.00     0.010 A 
ATOM     40  C   UNL A   1      42.208  26.583  28.436  1.00  0.00    -0.014 A 
BRANCH  40  41
ATOM     41  C   UNL A   1      41.795  27.524  29.499  1.00  0.00     0.031 A 
ATOM     42  C   UNL A   1      42.572  27.574  30.780  1.00  0.00     0.074 A 
ATOM     43  C   UNL A   1      40.766  28.365  29.289  1.00  0.00     0.049 A 
ATOM     44  N   UNL A   1      42.306  28.221  31.884  1.00  0.00    -0.248 NA
ATOM     45  C   UNL A   1      43.818  26.792  30.823  1.00  0.00     0.031 C 
ATOM     46  C   UNL A   1      39.998  28.469  28.047  1.00  0.00     0.029 A 
ATOM     47  N   UNL A   1      40.192  29.293  30.117  1.00  0.00    -0.354 N 
ATOM     48  C   UNL A   1      43.331  27.900  32.763  1.00  0.00     0.074 A 
ATOM     49  C   UNL A   1      44.223  26.999  32.068  1.00  0.00     0.031 C 
ATOM     50  C   UNL A   1      39.053  29.411  28.196  1.00  0.00     0.029 A 
ATOM     51  C   UNL A   1      39.112  29.930  29.559  1.00  0.00     0.049 A 
ATOM     52  H   UNL A   1      40.524  29.485  31.025  1.00  0.00     0.167 HD
ATOM     53  C   UNL A   1      43.504  28.320  34.038  1.00  0.00     0.037 A 
ATOM     54  C   UNL A   1      38.245  30.803  30.104  1.00  0.00     0.037 A 
ATOM     55  C   UNL A   1      42.619  29.233  34.712  1.00  0.00     0.049 A 
ATOM     56  C   UNL A   1      38.416  31.197  31.543  1.00  0.00     0.074 A 
ATOM     57  C   UNL A   1      42.683  29.699  36.012  1.00  0.00     0.029 A 
ATOM     58  N   UNL A   1      41.512  29.827  34.126  1.00  0.00    -0.354 N 
ATOM     59  N   UNL A   1      39.347  30.836  32.393  1.00  0.00    -0.248 NA
ATOM     60  C   UNL A   1      37.408  32.105  32.106  1.00  0.00     0.031 C 
ATOM     61  C   UNL A   1      41.598  30.558  36.222  1.00  0.00     0.029 A 
ATOM     62  C   UNL A   1      40.880  30.653  35.040  1.00  0.00     0.049 A 
ATOM     63  H   UNL A   1      41.218  29.684  33.197  1.00  0.00     0.167 HD
ATOM     64  C   UNL A   1      39.050  31.485  33.582  1.00  0.00     0.074 A 
ATOM     65  C   UNL A   1      37.856  32.271  33.341  1.00  0.00     0.031 C 
ATOM     66  C   UNL A   1      39.702  31.436  34.768  1.00  0.00     0.037 A 
BRANCH  53  67
ATOM     67  C   UNL A   1      44.672  27.764  34.793  1.00  0.00     0.057 A 
ATOM     68  C   UNL A   1      44.586  26.567  35.514  1.00  0.00     0.134 A 
ATOM     69  C   UNL A   1      45.906  28.428  34.784  1.00  0.00     0.134 A 
ATOM     70  F   UNL A   1      43.427  25.894  35.578  1.00  0.00    -0.206 F 
ATOM     71  C   UNL A   1      45.682  26.058  36.214  1.00  0.00     0.040 A 
ATOM     72  C   UNL A   1      47.013  27.919  35.463  1.00  0.00     0.040 A 
ATOM     73  F   UNL A   1      46.053  29.580  34.112  1.00  0.00    -0.206 F 
ATOM     74  C   UNL A   1      46.901  26.733  36.184  1.00  0.00     0.006 A 
ENDBRANCH  53  67
BRANCH  54  75
ATOM     75  C   UNL A   1      37.117  31.329  29.297  1.00  0.00     0.057 A 
ATOM     76  C   UNL A   1      35.984  30.550  29.041  1.00  0.00     0.134 A 
ATOM     77  C   UNL A   1      37.146  32.622  28.760  1.00  0.00     0.134 A 
ATOM     78  F   UNL A   1      35.908  29.295  29.512  1.00  0.00    -0.206 F 
ATOM     79  C   UNL A   1      34.925  31.031  28.271  1.00  0.00     0.040 A 
ATOM     80  C   UNL A   1      36.085  33.125  28.008  1.00  0.00     0.040 A 
ATOM     81  F   UNL A   1      38.205  33.419  28.971  1.00  0.00    -0.206 F 
ATOM     82  C   UNL A   1      34.973  32.326  27.757  1.00  0.00     0.006 A 
ENDBRANCH  54  75
BRANCH  66  83
ATOM     83  C   UNL A   1      39.163  32.285  35.877  1.00  0.00     0.057 A 
ATOM     84  C   UNL A   1      38.272  31.772  36.829  1.00  0.00     0.134 A 
ATOM     85  C   UNL A   1      39.569  33.617  36.015  1.00  0.00     0.134 A 
ATOM     86  F   UNL A   1      37.836  30.507  36.740  1.00  0.00    -0.206 F 
ATOM     87  C   UNL A   1      37.793  32.564  37.874  1.00  0.00     0.040 A 
ATOM     88  C   UNL A   1      39.113  34.412  37.066  1.00  0.00     0.040 A 
ATOM     89  F   UNL A   1      40.426  34.162  35.138  1.00  0.00    -0.206 F 
ATOM     90  C   UNL A   1      38.219  33.886  37.997  1.00  0.00     0.006 A 
ENDBRANCH  66  83
ENDBRANCH  40  41
ENDBRANCH  33  35
ENDBRANCH  32  33
ENDBRANCH  31  32
ENDBRANCH  30  31
ENDBRANCH   1  30
TORSDOF 16
ENDMDL
MODEL 2
REMARK VINA RESULT:     -12.5      4.909     10.140
REMARK SMILES CCc1cc(=O)oc2c3c(cc(OCC(=O)NCC(=O)OCCOC(=O)c4ccc(-c5c6nc(c(-c7c(F)cccc7F)c7ccc([nH]7)c(-c7c(F)cccc7F)c7nc(c(-c8c(F)cccc8F)c8ccc5[nH]8)C=C7)C=C6)cc4)c12)OC(C)(C)CC3
REMARK SMILES IDX 21 1 19 2 20 3 18 4 17 5 15 6 16 7 14 9 13 10 12 11 3 12
REMARK SMILES IDX 4 13 81 14 5 15 8 16 6 17 7 18 9 19 11 20 10 21 87 22 82 23
REMARK SMILES IDX 86 24 83 25 84 26 85 27 2 28 1 29 22 30 23 31 24 32 25 33
REMARK SMILES IDX 26 34 27 35 28 36 80 37 29 38 79 39 30 40 31 41 32 42 73 43
REMARK SMILES IDX 33 44 78 45 72 46 74 47 34 48 77 49 71 50 70 51 35 53 61 54
REMARK SMILES IDX 44 55 60 56 45 57 48 58 59 59 75 60 46 61 47 62 58 64 76 65
REMARK SMILES IDX 49 66 36 67 37 68 42 69 38 70 39 71 41 72 43 73 40 74 62 75
REMARK SMILES IDX 63 76 68 77 64 78 65 79 67 80 69 81 66 82 50 83 51 84 56 85
REMARK SMILES IDX 52 86 53 87 55 88 57 89 54 90
REMARK H PARENT 17 8 74 52 48 63
REMARK Flexibility Score: inf
ROOT
ATOM      1  O   UNL A   1      34.264  33.366  28.865  1.00  0.00    -0.461 OA
ENDROOT
BRANCH   1   2
ATOM      2  C   UNL A   1      33.260  33.053  28.005  1.00  0.00     0.325 C 
ATOM      3  O   UNL A   1      32.390  33.832  27.627  1.00  0.00    -0.250 OA
BRANCH   2   4
ATOM      4  C   UNL A   1      33.292  31.591  27.561  1.00  0.00     0.238 C 
BRANCH   4   5
ATOM      5  N   UNL A   1      34.518  30.869  27.841  1.00  0.00    -0.342 N 
ATOM      6  C   UNL A   1      34.784  29.556  27.589  1.00  0.00     0.258 C 
ATOM      7  O   UNL A   1      35.918  29.116  27.781  1.00  0.00    -0.271 OA
ATOM      8  H   UNL A   1      35.243  31.386  28.261  1.00  0.00     0.164 HD
BRANCH   6   9
ATOM      9  C   UNL A   1      33.659  28.667  27.039  1.00  0.00     0.329 C 
BRANCH   9  10
ATOM     10  O   UNL A   1      33.625  28.530  25.620  1.00  0.00    -0.483 OA
BRANCH  10  11
ATOM     11  C   UNL A   1      32.414  28.364  24.998  1.00  0.00     0.135 A 
ATOM     12  C   UNL A   1      32.836  25.814  24.760  1.00  0.00    -0.026 A 
ATOM     13  C   UNL A   1      32.336  24.657  24.295  1.00  0.00     0.098 A 
ATOM     14  C   UNL A   1      32.039  27.061  24.588  1.00  0.00     0.063 A 
ATOM     15  C   UNL A   1      31.039  24.526  23.632  1.00  0.00     0.336 A 
ATOM     16  C   UNL A   1      30.792  26.941  23.938  1.00  0.00     0.149 A 
ATOM     17  O   UNL A   1      30.640  23.440  23.229  1.00  0.00    -0.246 OA
ATOM     18  O   UNL A   1      30.320  25.688  23.475  1.00  0.00    -0.422 OA
ATOM     19  C   UNL A   1      29.931  28.026  23.687  1.00  0.00     0.038 A 
ATOM     20  C   UNL A   1      31.552  29.447  24.760  1.00  0.00     0.094 A 
ATOM     21  C   UNL A   1      30.345  29.287  24.087  1.00  0.00     0.130 A 
ATOM     22  C   UNL A   1      28.621  27.848  22.975  1.00  0.00     0.047 C 
ATOM     23  O   UNL A   1      29.637  30.437  23.882  1.00  0.00    -0.487 OA
ATOM     24  C   UNL A   1      27.740  29.080  23.140  1.00  0.00     0.053 C 
ATOM     25  C   UNL A   1      28.546  30.371  22.949  1.00  0.00     0.104 C 
ATOM     26  C   UNL A   1      27.654  31.578  23.274  1.00  0.00     0.056 C 
ATOM     27  C   UNL A   1      29.086  30.536  21.520  1.00  0.00     0.056 C 
BRANCH  12  28
ATOM     28  C   UNL A   1      34.215  25.781  25.377  1.00  0.00     0.033 C 
ATOM     29  C   UNL A   1      34.875  24.411  25.365  1.00  0.00     0.009 C 
ENDBRANCH  12  28
ENDBRANCH  10  11
ENDBRANCH   9  10
ENDBRANCH   6   9
ENDBRANCH   4   5
ENDBRANCH   2   4
ENDBRANCH   1   2
BRANCH   1  30
ATOM     30  C   UNL A   1      34.010  34.425  29.806  1.00  0.00     0.274 C 
BRANCH  30  31
ATOM     31  C   UNL A   1      34.355  33.974  31.229  1.00  0.00     0.275 C 
BRANCH  31  32
ATOM     32  O   UNL A   1      34.660  32.566  31.285  1.00  0.00    -0.458 OA
BRANCH  32  33
ATOM     33  C   UNL A   1      35.647  32.228  32.146  1.00  0.00     0.338 C 
ATOM     34  O   UNL A   1      35.648  32.330  33.362  1.00  0.00    -0.246 OA
BRANCH  33  35
ATOM     35  C   UNL A   1      36.716  31.522  31.427  1.00  0.00     0.060 A 
ATOM     36  C   UNL A   1      37.576  30.727  32.186  1.00  0.00     0.016 A 
ATOM     37  C   UNL A   1      36.949  31.722  30.068  1.00  0.00     0.016 A 
ATOM     38  C   UNL A   1      38.698  30.153  31.609  1.00  0.00     0.010 A 
ATOM     39  C   UNL A   1      38.073  31.133  29.481  1.00  0.00     0.010 A 
ATOM     40  C   UNL A   1      38.961  30.364  30.254  1.00  0.00    -0.014 A 
BRANCH  40  41
ATOM     41  C   UNL A   1      40.218  29.841  29.678  1.00  0.00     0.031 A 
ATOM     42  C   UNL A   1      41.414  30.740  29.584  1.00  0.00     0.074 A 
ATOM     43  C   UNL A   1      40.297  28.553  29.296  1.00  0.00     0.049 A 
ATOM     44  N   UNL A   1      42.563  30.529  28.997  1.00  0.00    -0.248 NA
ATOM     45  C   UNL A   1      41.303  32.051  30.242  1.00  0.00     0.031 C 
ATOM     46  C   UNL A   1      39.227  27.564  29.427  1.00  0.00     0.029 A 
ATOM     47  N   UNL A   1      41.328  27.857  28.722  1.00  0.00    -0.354 N 
ATOM     48  C   UNL A   1      43.299  31.691  29.185  1.00  0.00     0.074 A 
ATOM     49  C   UNL A   1      42.469  32.605  29.939  1.00  0.00     0.031 C 
ATOM     50  C   UNL A   1      39.659  26.387  28.948  1.00  0.00     0.029 A 
ATOM     51  C   UNL A   1      41.010  26.557  28.422  1.00  0.00     0.049 A 
ATOM     52  H   UNL A   1      42.213  28.253  28.542  1.00  0.00     0.167 HD
ATOM     53  C   UNL A   1      44.554  31.966  28.761  1.00  0.00     0.037 A 
ATOM     54  C   UNL A   1      41.717  25.622  27.761  1.00  0.00     0.037 A 
ATOM     55  C   UNL A   1      45.377  31.041  28.029  1.00  0.00     0.049 A 
ATOM     56  C   UNL A   1      43.079  25.976  27.236  1.00  0.00     0.074 A 
ATOM     57  C   UNL A   1      46.651  31.228  27.524  1.00  0.00     0.029 A 
ATOM     58  N   UNL A   1      45.005  29.744  27.710  1.00  0.00    -0.354 N 
ATOM     59  N   UNL A   1      43.744  27.100  27.356  1.00  0.00    -0.248 NA
ATOM     60  C   UNL A   1      43.783  24.940  26.469  1.00  0.00     0.031 C 
ATOM     61  C   UNL A   1      47.041  30.050  26.876  1.00  0.00     0.029 A 
ATOM     62  C   UNL A   1      46.023  29.119  27.009  1.00  0.00     0.049 A 
ATOM     63  H   UNL A   1      44.145  29.328  27.947  1.00  0.00     0.167 HD
ATOM     64  C   UNL A   1      44.950  26.901  26.699  1.00  0.00     0.074 A 
ATOM     65  C   UNL A   1      44.929  25.544  26.190  1.00  0.00     0.031 C 
ATOM     66  C   UNL A   1      45.981  27.763  26.529  1.00  0.00     0.037 A 
BRANCH  53  67
ATOM     67  C   UNL A   1      45.092  33.335  29.047  1.00  0.00     0.057 A 
ATOM     68  C   UNL A   1      44.833  34.423  28.207  1.00  0.00     0.134 A 
ATOM     69  C   UNL A   1      45.868  33.569  30.190  1.00  0.00     0.134 A 
ATOM     70  F   UNL A   1      44.113  34.260  27.086  1.00  0.00    -0.206 F 
ATOM     71  C   UNL A   1      45.340  35.695  28.483  1.00  0.00     0.040 A 
ATOM     72  C   UNL A   1      46.363  34.839  30.488  1.00  0.00     0.040 A 
ATOM     73  F   UNL A   1      46.153  32.567  31.036  1.00  0.00    -0.206 F 
ATOM     74  C   UNL A   1      46.103  35.905  29.630  1.00  0.00     0.006 A 
ENDBRANCH  53  67
BRANCH  54  75
ATOM     75  C   UNL A   1      41.133  24.279  27.524  1.00  0.00     0.057 A 
ATOM     76  C   UNL A   1      41.583  23.159  28.230  1.00  0.00     0.134 A 
ATOM     77  C   UNL A   1      40.114  24.084  26.584  1.00  0.00     0.134 A 
ATOM     78  F   UNL A   1      42.573  23.281  29.129  1.00  0.00    -0.206 F 
ATOM     79  C   UNL A   1      41.050  21.890  28.003  1.00  0.00     0.040 A 
ATOM     80  C   UNL A   1      39.556  22.825  26.363  1.00  0.00     0.040 A 
ATOM     81  F   UNL A   1      39.638  25.119  25.875  1.00  0.00    -0.206 F 
ATOM     82  C   UNL A   1      40.028  21.722  27.070  1.00  0.00     0.006 A 
ENDBRANCH  54  75
BRANCH  66  83
ATOM     83  C   UNL A   1      47.183  27.248  25.799  1.00  0.00     0.057 A 
ATOM     84  C   UNL A   1      47.353  27.455  24.424  1.00  0.00     0.134 A 
ATOM     85  C   UNL A   1      48.198  26.574  26.488  1.00  0.00     0.134 A 
ATOM     86  F   UNL A   1      46.407  28.082  23.709  1.00  0.00    -0.206 F 
ATOM     87  C   UNL A   1      48.489  26.994  23.757  1.00  0.00     0.040 A 
ATOM     88  C   UNL A   1      49.346  26.125  25.835  1.00  0.00     0.040 A 
ATOM     89  F   UNL A   1      48.094  26.351  27.807  1.00  0.00    -0.206 F 
ATOM     90  C   UNL A   1      49.492  26.332  24.465  1.00  0.00     0.006 A 
ENDBRANCH  66  83
ENDBRANCH  40  41
ENDBRANCH  33  35
ENDBRANCH  32  33
ENDBRANCH  31  32
ENDBRANCH  30  31
ENDBRANCH   1  30
TORSDOF 16
ENDMDL
MODEL 3
REMARK VINA RESULT:     -12.3      1.376      6.245
REMARK SMILES CCc1cc(=O)oc2c3c(cc(OCC(=O)NCC(=O)OCCOC(=O)c4ccc(-c5c6nc(c(-c7c(F)cccc7F)c7ccc([nH]7)c(-c7c(F)cccc7F)c7nc(c(-c8c(F)cccc8F)c8ccc5[nH]8)C=C7)C=C6)cc4)c12)OC(C)(C)CC3
REMARK SMILES IDX 21 1 19 2 20 3 18 4 17 5 15 6 16 7 14 9 13 10 12 11 3 12
REMARK SMILES IDX 4 13 81 14 5 15 8 16 6 17 7 18 9 19 11 20 10 21 87 22 82 23
REMARK SMILES IDX 86 24 83 25 84 26 85 27 2 28 1 29 22 30 23 31 24 32 25 33
REMARK SMILES IDX 26 34 27 35 28 36 80 37 29 38 79 39 30 40 31 41 32 42 73 43
REMARK SMILES IDX 33 44 78 45 72 46 74 47 34 48 77 49 71 50 70 51 35 53 61 54
REMARK SMILES IDX 44 55 60 56 45 57 48 58 59 59 75 60 46 61 47 62 58 64 76 65
REMARK SMILES IDX 49 66 36 67 37 68 42 69 38 70 39 71 41 72 43 73 40 74 62 75
REMARK SMILES IDX 63 76 68 77 64 78 65 79 67 80 69 81 66 82 50 83 51 84 56 85
REMARK SMILES IDX 52 86 53 87 55 88 57 89 54 90
REMARK H PARENT 17 8 74 52 48 63
REMARK Flexibility Score: inf
ROOT
ATOM      1  O   UNL A   1      41.846  21.085  25.773  1.00  0.00    -0.461 OA
ENDROOT
BRANCH   1   2
ATOM      2  C   UNL A   1      40.811  20.789  26.602  1.00  0.00     0.325 C 
ATOM      3  O   UNL A   1      40.882  20.051  27.578  1.00  0.00    -0.250 OA
BRANCH   2   4
ATOM      4  C   UNL A   1      39.502  21.455  26.179  1.00  0.00     0.238 C 
BRANCH   4   5
ATOM      5  N   UNL A   1      39.332  22.837  26.586  1.00  0.00    -0.342 N 
ATOM      6  C   UNL A   1      38.283  23.662  26.306  1.00  0.00     0.258 C 
ATOM      7  O   UNL A   1      38.232  24.779  26.821  1.00  0.00    -0.271 OA
ATOM      8  H   UNL A   1      40.057  23.225  27.127  1.00  0.00     0.164 HD
BRANCH   6   9
ATOM      9  C   UNL A   1      37.174  23.155  25.372  1.00  0.00     0.329 C 
BRANCH   9  10
ATOM     10  O   UNL A   1      35.927  22.872  26.002  1.00  0.00    -0.483 OA
BRANCH  10  11
ATOM     11  C   UNL A   1      35.026  22.063  25.356  1.00  0.00     0.135 A 
ATOM     12  C   UNL A   1      33.494  24.096  24.852  1.00  0.00    -0.026 A 
ATOM     13  C   UNL A   1      32.337  24.487  24.292  1.00  0.00     0.098 A 
ATOM     14  C   UNL A   1      33.863  22.653  24.806  1.00  0.00     0.063 A 
ATOM     15  C   UNL A   1      31.402  23.588  23.616  1.00  0.00     0.336 A 
ATOM     16  C   UNL A   1      32.957  21.780  24.165  1.00  0.00     0.149 A 
ATOM     17  O   UNL A   1      30.362  24.007  23.125  1.00  0.00    -0.246 OA
ATOM     18  O   UNL A   1      31.754  22.258  23.589  1.00  0.00    -0.422 OA
ATOM     19  C   UNL A   1      33.154  20.391  24.053  1.00  0.00     0.038 A 
ATOM     20  C   UNL A   1      35.232  20.679  25.235  1.00  0.00     0.094 A 
ATOM     21  C   UNL A   1      34.297  19.851  24.623  1.00  0.00     0.130 A 
ATOM     22  C   UNL A   1      32.151  19.502  23.377  1.00  0.00     0.047 C 
ATOM     23  O   UNL A   1      34.608  18.521  24.625  1.00  0.00    -0.487 OA
ATOM     24  C   UNL A   1      32.750  18.132  23.081  1.00  0.00     0.053 C 
ATOM     25  C   UNL A   1      33.556  17.606  24.276  1.00  0.00     0.104 C 
ATOM     26  C   UNL A   1      34.262  16.303  23.876  1.00  0.00     0.056 C 
ATOM     27  C   UNL A   1      32.687  17.331  25.512  1.00  0.00     0.056 C 
BRANCH  12  28
ATOM     28  C   UNL A   1      34.321  25.148  25.553  1.00  0.00     0.033 C 
ATOM     29  C   UNL A   1      33.651  26.511  25.650  1.00  0.00     0.009 C 
ENDBRANCH  12  28
ENDBRANCH  10  11
ENDBRANCH   9  10
ENDBRANCH   6   9
ENDBRANCH   4   5
ENDBRANCH   2   4
ENDBRANCH   1   2
BRANCH   1  30
ATOM     30  C   UNL A   1      42.845  21.990  26.275  1.00  0.00     0.274 C 
BRANCH  30  31
ATOM     31  C   UNL A   1      42.794  23.321  25.517  1.00  0.00     0.275 C 
BRANCH  31  32
ATOM     32  O   UNL A   1      41.910  24.266  26.152  1.00  0.00    -0.458 OA
BRANCH  32  33
ATOM     33  C   UNL A   1      42.186  25.566  25.902  1.00  0.00     0.338 C 
ATOM     34  O   UNL A   1      42.676  26.047  24.893  1.00  0.00    -0.246 OA
BRANCH  33  35
ATOM     35  C   UNL A   1      41.640  26.407  26.975  1.00  0.00     0.060 A 
ATOM     36  C   UNL A   1      42.043  27.743  27.003  1.00  0.00     0.016 A 
ATOM     37  C   UNL A   1      40.850  25.882  27.996  1.00  0.00     0.016 A 
ATOM     38  C   UNL A   1      41.696  28.561  28.067  1.00  0.00     0.010 A 
ATOM     39  C   UNL A   1      40.488  26.710  29.063  1.00  0.00     0.010 A 
ATOM     40  C   UNL A   1      40.927  28.045  29.112  1.00  0.00    -0.014 A 
BRANCH  40  41
ATOM     41  C   UNL A   1      40.659  28.894  30.293  1.00  0.00     0.031 A 
ATOM     42  C   UNL A   1      39.543  29.894  30.242  1.00  0.00     0.074 A 
ATOM     43  C   UNL A   1      41.377  28.725  31.417  1.00  0.00     0.049 A 
ATOM     44  N   UNL A   1      39.225  30.822  31.105  1.00  0.00    -0.248 NA
ATOM     45  C   UNL A   1      38.666  29.839  29.061  1.00  0.00     0.031 C 
ATOM     46  C   UNL A   1      42.423  27.721  31.611  1.00  0.00     0.029 A 
ATOM     47  N   UNL A   1      41.331  29.396  32.611  1.00  0.00    -0.354 N 
ATOM     48  C   UNL A   1      38.133  31.483  30.559  1.00  0.00     0.074 A 
ATOM     49  C   UNL A   1      37.843  30.854  29.289  1.00  0.00     0.031 C 
ATOM     50  C   UNL A   1      42.920  27.841  32.852  1.00  0.00     0.029 A 
ATOM     51  C   UNL A   1      42.270  28.968  33.515  1.00  0.00     0.049 A 
ATOM     52  H   UNL A   1      40.686  30.117  32.801  1.00  0.00     0.167 HD
ATOM     53  C   UNL A   1      37.441  32.526  31.075  1.00  0.00     0.037 A 
ATOM     54  C   UNL A   1      42.594  29.458  34.726  1.00  0.00     0.037 A 
ATOM     55  C   UNL A   1      37.727  33.130  32.348  1.00  0.00     0.049 A 
ATOM     56  C   UNL A   1      41.860  30.661  35.244  1.00  0.00     0.074 A 
ATOM     57  C   UNL A   1      37.109  34.211  32.952  1.00  0.00     0.029 A 
ATOM     58  N   UNL A   1      38.712  32.693  33.220  1.00  0.00    -0.354 N 
ATOM     59  N   UNL A   1      40.874  31.328  34.693  1.00  0.00    -0.248 NA
ATOM     60  C   UNL A   1      42.293  31.193  36.543  1.00  0.00     0.031 C 
ATOM     61  C   UNL A   1      37.738  34.443  34.180  1.00  0.00     0.029 A 
ATOM     62  C   UNL A   1      38.724  33.485  34.356  1.00  0.00     0.049 A 
ATOM     63  H   UNL A   1      39.314  31.932  33.057  1.00  0.00     0.167 HD
ATOM     64  C   UNL A   1      40.555  32.343  35.584  1.00  0.00     0.074 A 
ATOM     65  C   UNL A   1      41.447  32.198  36.717  1.00  0.00     0.031 C 
ATOM     66  C   UNL A   1      39.612  33.309  35.475  1.00  0.00     0.037 A 
BRANCH  53  67
ATOM     67  C   UNL A   1      36.336  33.097  30.241  1.00  0.00     0.057 A 
ATOM     68  C   UNL A   1      36.590  33.895  29.120  1.00  0.00     0.134 A 
ATOM     69  C   UNL A   1      34.997  32.830  30.555  1.00  0.00     0.134 A 
ATOM     70  F   UNL A   1      37.850  34.204  28.778  1.00  0.00    -0.206 F 
ATOM     71  C   UNL A   1      35.552  34.423  28.349  1.00  0.00     0.040 A 
ATOM     72  C   UNL A   1      33.951  33.334  29.782  1.00  0.00     0.040 A 
ATOM     73  F   UNL A   1      34.686  32.072  31.618  1.00  0.00    -0.206 F 
ATOM     74  C   UNL A   1      34.227  34.137  28.678  1.00  0.00     0.006 A 
ENDBRANCH  53  67
BRANCH  54  75
ATOM     75  C   UNL A   1      43.690  28.836  35.509  1.00  0.00     0.057 A 
ATOM     76  C   UNL A   1      45.019  29.236  35.337  1.00  0.00     0.134 A 
ATOM     77  C   UNL A   1      43.434  27.827  36.445  1.00  0.00     0.134 A 
ATOM     78  F   UNL A   1      45.328  30.184  34.439  1.00  0.00    -0.206 F 
ATOM     79  C   UNL A   1      46.058  28.646  36.059  1.00  0.00     0.040 A 
ATOM     80  C   UNL A   1      44.459  27.245  37.190  1.00  0.00     0.040 A 
ATOM     81  F   UNL A   1      42.179  27.401  36.656  1.00  0.00    -0.206 F 
ATOM     82  C   UNL A   1      45.776  27.651  36.994  1.00  0.00     0.006 A 
ENDBRANCH  54  75
BRANCH  66  83
ATOM     83  C   UNL A   1      39.473  34.255  36.627  1.00  0.00     0.057 A 
ATOM     84  C   UNL A   1      38.730  33.922  37.766  1.00  0.00     0.134 A 
ATOM     85  C   UNL A   1      40.121  35.496  36.610  1.00  0.00     0.134 A 
ATOM     86  F   UNL A   1      38.075  32.753  37.833  1.00  0.00    -0.206 F 
ATOM     87  C   UNL A   1      38.626  34.801  38.846  1.00  0.00     0.040 A 
ATOM     88  C   UNL A   1      40.040  36.374  37.690  1.00  0.00     0.040 A 
ATOM     89  F   UNL A   1      40.852  35.868  35.548  1.00  0.00    -0.206 F 
ATOM     90  C   UNL A   1      39.287  36.028  38.812  1.00  0.00     0.006 A 
ENDBRANCH  66  83
ENDBRANCH  40  41
ENDBRANCH  33  35
ENDBRANCH  32  33
ENDBRANCH  31  32
ENDBRANCH  30  31
ENDBRANCH   1  30
TORSDOF 16
ENDMDL
