MODEL 1
REMARK VINA RESULT:      -9.9      0.000      0.000
REMARK SMILES Cc1ncccc1NS(=O)(=O)[C@@H](C)C(=O)OCCOC(=O)c1ccc(-c2c3nc(c(-c4c(F)cccc4F)c4ccc([nH]4)c(-c4c(F)cccc4F)c4nc(c(-c5c(F)cccc5F)c5ccc2[nH]5)C=C4)C=C3)cc1
REMARK SMILES IDX 17 1 16 2 14 3 15 4 12 5 13 6 9 7 10 8 11 9 8 10 7 12 1 13
REMARK SMILES IDX 2 14 3 15 4 16 6 17 5 18 18 19 19 20 20 21 21 22 22 23 23 24
REMARK SMILES IDX 75 25 24 26 74 27 25 28 26 29 27 30 68 31 28 32 73 33 67 34
REMARK SMILES IDX 69 35 29 36 72 37 66 38 65 39 30 41 56 42 39 43 55 44 40 45
REMARK SMILES IDX 43 46 54 47 70 48 41 49 42 50 53 52 71 53 44 54 31 55 32 56
REMARK SMILES IDX 37 57 33 58 34 59 36 60 38 61 35 62 57 63 58 64 63 65 59 66
REMARK SMILES IDX 60 67 62 68 64 69 61 70 45 71 46 72 51 73 47 74 48 75 50 76
REMARK SMILES IDX 52 77 49 78
REMARK H PARENT 8 11 69 40 43 51
REMARK Flexibility Score: inf
ROOT
ATOM      1  C   UNL A   1      34.235  34.422  28.838  1.00  0.00     0.274 C 
ENDROOT
BRANCH   1   2
ATOM      2  O   UNL A   1      33.406  34.299  30.015  1.00  0.00    -0.461 OA
BRANCH   2   3
ATOM      3  C   UNL A   1      32.995  35.452  30.604  1.00  0.00     0.326 C 
ATOM      4  O   UNL A   1      32.604  36.430  29.975  1.00  0.00    -0.251 OA
BRANCH   3   5
ATOM      5  C   UNL A   1      32.970  35.372  32.105  1.00  0.00     0.235 C 
ATOM      6  C   UNL A   1      31.771  36.139  32.663  1.00  0.00     0.039 C 
BRANCH   5   7
ATOM      7  S   UNL A   1      34.483  35.916  32.896  1.00  0.00     0.246 S 
ATOM      8  O   UNL A   1      34.510  35.273  34.197  1.00  0.00    -0.206 OA
ATOM      9  O   UNL A   1      34.595  37.356  32.807  1.00  0.00    -0.206 OA
BRANCH   7  10
ATOM     10  N   UNL A   1      35.754  35.250  32.081  1.00  0.00    -0.281 N 
ATOM     11  H   UNL A   1      35.895  35.535  31.149  1.00  0.00     0.180 HD
BRANCH  10  12
ATOM     12  C   UNL A   1      36.664  34.294  32.622  1.00  0.00     0.070 A 
ATOM     13  C   UNL A   1      35.067  32.367  32.137  1.00  0.00     0.069 C 
ATOM     14  C   UNL A   1      36.418  32.921  32.493  1.00  0.00     0.061 A 
ATOM     15  N   UNL A   1      37.363  31.978  32.760  1.00  0.00    -0.259 NA
ATOM     16  C   UNL A   1      38.569  32.398  33.191  1.00  0.00     0.111 A 
ATOM     17  C   UNL A   1      37.903  34.678  33.140  1.00  0.00     0.030 A 
ATOM     18  C   UNL A   1      38.877  33.724  33.413  1.00  0.00     0.022 A 
ENDBRANCH  10  12
ENDBRANCH   7  10
ENDBRANCH   5   7
ENDBRANCH   3   5
ENDBRANCH   2   3
ENDBRANCH   1   2
BRANCH   1  19
ATOM     19  C   UNL A   1      34.222  33.112  28.050  1.00  0.00     0.275 C 
BRANCH  19  20
ATOM     20  O   UNL A   1      34.605  32.022  28.907  1.00  0.00    -0.458 OA
BRANCH  20  21
ATOM     21  C   UNL A   1      34.595  30.812  28.304  1.00  0.00     0.338 C 
ATOM     22  O   UNL A   1      33.707  30.316  27.628  1.00  0.00    -0.246 OA
BRANCH  21  23
ATOM     23  C   UNL A   1      35.925  30.212  28.425  1.00  0.00     0.060 A 
ATOM     24  C   UNL A   1      36.319  29.745  29.681  1.00  0.00     0.016 A 
ATOM     25  C   UNL A   1      36.806  30.199  27.345  1.00  0.00     0.016 A 
ATOM     26  C   UNL A   1      37.617  29.300  29.882  1.00  0.00     0.010 A 
ATOM     27  C   UNL A   1      38.106  29.729  27.541  1.00  0.00     0.010 A 
ATOM     28  C   UNL A   1      38.523  29.300  28.815  1.00  0.00    -0.014 A 
BRANCH  28  29
ATOM     29  C   UNL A   1      39.930  28.916  29.055  1.00  0.00     0.031 A 
ATOM     30  C   UNL A   1      40.860  29.893  29.708  1.00  0.00     0.074 A 
ATOM     31  C   UNL A   1      40.356  27.688  28.712  1.00  0.00     0.049 A 
ATOM     32  N   UNL A   1      42.153  29.811  29.886  1.00  0.00    -0.248 NA
ATOM     33  C   UNL A   1      40.255  31.128  30.231  1.00  0.00     0.031 C 
ATOM     34  C   UNL A   1      39.521  26.634  28.134  1.00  0.00     0.029 A 
ATOM     35  N   UNL A   1      41.599  27.120  28.803  1.00  0.00    -0.354 N 
ATOM     36  C   UNL A   1      42.522  30.995  30.509  1.00  0.00     0.074 A 
ATOM     37  C   UNL A   1      41.319  31.782  30.677  1.00  0.00     0.031 C 
ATOM     38  C   UNL A   1      40.277  25.543  27.924  1.00  0.00     0.029 A 
ATOM     39  C   UNL A   1      41.655  25.844  28.300  1.00  0.00     0.049 A 
ATOM     40  H   UNL A   1      42.377  27.582  29.189  1.00  0.00     0.167 HD
ATOM     41  C   UNL A   1      43.757  31.389  30.900  1.00  0.00     0.037 A 
ATOM     42  C   UNL A   1      42.709  25.024  28.130  1.00  0.00     0.037 A 
ATOM     43  C   UNL A   1      44.943  30.590  30.748  1.00  0.00     0.049 A 
ATOM     44  C   UNL A   1      44.076  25.505  28.524  1.00  0.00     0.074 A 
ATOM     45  C   UNL A   1      46.245  30.898  31.099  1.00  0.00     0.029 A 
ATOM     46  N   UNL A   1      44.965  29.313  30.207  1.00  0.00    -0.354 N 
ATOM     47  N   UNL A   1      44.426  26.648  29.062  1.00  0.00    -0.248 NA
ATOM     48  C   UNL A   1      45.197  24.589  28.271  1.00  0.00     0.031 C 
ATOM     49  C   UNL A   1      47.060  29.816  30.746  1.00  0.00     0.029 A 
ATOM     50  C   UNL A   1      46.260  28.823  30.204  1.00  0.00     0.049 A 
ATOM     51  H   UNL A   1      44.176  28.827  29.873  1.00  0.00     0.167 HD
ATOM     52  C   UNL A   1      45.803  26.587  29.222  1.00  0.00     0.074 A 
ATOM     53  C   UNL A   1      46.223  25.287  28.738  1.00  0.00     0.031 C 
ATOM     54  C   UNL A   1      46.647  27.523  29.718  1.00  0.00     0.037 A 
BRANCH  41  55
ATOM     55  C   UNL A   1      43.885  32.758  31.495  1.00  0.00     0.057 A 
ATOM     56  C   UNL A   1      44.094  33.894  30.705  1.00  0.00     0.134 A 
ATOM     57  C   UNL A   1      43.784  32.941  32.880  1.00  0.00     0.134 A 
ATOM     58  F   UNL A   1      44.219  33.781  29.374  1.00  0.00    -0.206 F 
ATOM     59  C   UNL A   1      44.217  35.163  31.272  1.00  0.00     0.040 A 
ATOM     60  C   UNL A   1      43.885  34.207  33.458  1.00  0.00     0.040 A 
ATOM     61  F   UNL A   1      43.585  31.892  33.693  1.00  0.00    -0.206 F 
ATOM     62  C   UNL A   1      44.107  35.323  32.652  1.00  0.00     0.006 A 
ENDBRANCH  41  55
BRANCH  42  63
ATOM     63  C   UNL A   1      42.513  23.684  27.527  1.00  0.00     0.057 A 
ATOM     64  C   UNL A   1      42.548  23.505  26.141  1.00  0.00     0.134 A 
ATOM     65  C   UNL A   1      42.291  22.554  28.321  1.00  0.00     0.134 A 
ATOM     66  F   UNL A   1      42.736  24.554  25.327  1.00  0.00    -0.206 F 
ATOM     67  C   UNL A   1      42.363  22.247  25.563  1.00  0.00     0.040 A 
ATOM     68  C   UNL A   1      42.125  21.288  27.760  1.00  0.00     0.040 A 
ATOM     69  F   UNL A   1      42.248  22.662  29.657  1.00  0.00    -0.206 F 
ATOM     70  C   UNL A   1      42.157  21.133  26.375  1.00  0.00     0.006 A 
ENDBRANCH  42  63
BRANCH  54  71
ATOM     71  C   UNL A   1      48.098  27.160  29.780  1.00  0.00     0.057 A 
ATOM     72  C   UNL A   1      48.628  26.441  30.856  1.00  0.00     0.134 A 
ATOM     73  C   UNL A   1      48.965  27.508  28.736  1.00  0.00     0.134 A 
ATOM     74  F   UNL A   1      47.848  26.093  31.892  1.00  0.00    -0.206 F 
ATOM     75  C   UNL A   1      49.978  26.092  30.902  1.00  0.00     0.040 A 
ATOM     76  C   UNL A   1      50.312  27.150  28.763  1.00  0.00     0.040 A 
ATOM     77  F   UNL A   1      48.514  28.193  27.675  1.00  0.00    -0.206 F 
ATOM     78  C   UNL A   1      50.823  26.442  29.850  1.00  0.00     0.006 A 
ENDBRANCH  54  71
ENDBRANCH  28  29
ENDBRANCH  21  23
ENDBRANCH  20  21
ENDBRANCH  19  20
ENDBRANCH   1  19
TORSDOF 14
ENDMDL
MODEL 2
REMARK VINA RESULT:      -9.8      5.587     11.755
REMARK SMILES Cc1ncccc1NS(=O)(=O)[C@@H](C)C(=O)OCCOC(=O)c1ccc(-c2c3nc(c(-c4c(F)cccc4F)c4ccc([nH]4)c(-c4c(F)cccc4F)c4nc(c(-c5c(F)cccc5F)c5ccc2[nH]5)C=C4)C=C3)cc1
REMARK SMILES IDX 17 1 16 2 14 3 15 4 12 5 13 6 9 7 10 8 11 9 8 10 7 12 1 13
REMARK SMILES IDX 2 14 3 15 4 16 6 17 5 18 18 19 19 20 20 21 21 22 22 23 23 24
REMARK SMILES IDX 75 25 24 26 74 27 25 28 26 29 27 30 68 31 28 32 73 33 67 34
REMARK SMILES IDX 69 35 29 36 72 37 66 38 65 39 30 41 56 42 39 43 55 44 40 45
REMARK SMILES IDX 43 46 54 47 70 48 41 49 42 50 53 52 71 53 44 54 31 55 32 56
REMARK SMILES IDX 37 57 33 58 34 59 36 60 38 61 35 62 57 63 58 64 63 65 59 66
REMARK SMILES IDX 60 67 62 68 64 69 61 70 45 71 46 72 51 73 47 74 48 75 50 76
REMARK SMILES IDX 52 77 49 78
REMARK H PARENT 8 11 69 40 43 51
REMARK Flexibility Score: inf
ROOT
ATOM      1  C   UNL A   1      41.133  20.673  26.637  1.00  0.00     0.274 C 
ENDROOT
BRANCH   1   2
ATOM      2  O   UNL A   1      42.064  20.372  25.574  1.00  0.00    -0.461 OA
BRANCH   2   3
ATOM      3  C   UNL A   1      42.964  19.381  25.803  1.00  0.00     0.326 C 
ATOM      4  O   UNL A   1      42.745  18.427  26.541  1.00  0.00    -0.251 OA
BRANCH   3   5
ATOM      5  C   UNL A   1      44.215  19.518  24.981  1.00  0.00     0.235 C 
ATOM      6  C   UNL A   1      45.237  18.452  25.377  1.00  0.00     0.039 C 
BRANCH   5   7
ATOM      7  S   UNL A   1      44.958  21.148  25.036  1.00  0.00     0.246 S 
ATOM      8  O   UNL A   1      44.384  21.889  23.928  1.00  0.00    -0.206 OA
ATOM      9  O   UNL A   1      46.396  21.029  25.149  1.00  0.00    -0.206 OA
BRANCH   7  10
ATOM     10  N   UNL A   1      44.399  21.919  26.382  1.00  0.00    -0.281 N 
ATOM     11  H   UNL A   1      43.579  21.567  26.800  1.00  0.00     0.180 HD
BRANCH  10  12
ATOM     12  C   UNL A   1      45.009  23.058  26.987  1.00  0.00     0.070 A 
ATOM     13  C   UNL A   1      43.546  22.849  29.064  1.00  0.00     0.069 C 
ATOM     14  C   UNL A   1      44.730  23.394  28.318  1.00  0.00     0.061 A 
ATOM     15  N   UNL A   1      45.466  24.304  29.015  1.00  0.00    -0.259 NA
ATOM     16  C   UNL A   1      46.481  24.917  28.373  1.00  0.00     0.111 A 
ATOM     17  C   UNL A   1      46.023  23.771  26.344  1.00  0.00     0.030 A 
ATOM     18  C   UNL A   1      46.783  24.700  27.045  1.00  0.00     0.022 A 
ENDBRANCH  10  12
ENDBRANCH   7  10
ENDBRANCH   5   7
ENDBRANCH   3   5
ENDBRANCH   2   3
ENDBRANCH   1   2
BRANCH   1  19
ATOM     19  C   UNL A   1      40.052  21.629  26.131  1.00  0.00     0.275 C 
BRANCH  19  20
ATOM     20  O   UNL A   1      40.029  22.815  26.945  1.00  0.00    -0.458 OA
BRANCH  20  21
ATOM     21  C   UNL A   1      41.005  23.705  26.659  1.00  0.00     0.338 C 
ATOM     22  O   UNL A   1      41.861  23.627  25.791  1.00  0.00    -0.246 OA
BRANCH  21  23
ATOM     23  C   UNL A   1      40.786  24.918  27.448  1.00  0.00     0.060 A 
ATOM     24  C   UNL A   1      41.760  25.917  27.393  1.00  0.00     0.016 A 
ATOM     25  C   UNL A   1      39.691  25.029  28.302  1.00  0.00     0.016 A 
ATOM     26  C   UNL A   1      41.673  27.021  28.229  1.00  0.00     0.010 A 
ATOM     27  C   UNL A   1      39.590  26.151  29.126  1.00  0.00     0.010 A 
ATOM     28  C   UNL A   1      40.592  27.139  29.109  1.00  0.00    -0.014 A 
BRANCH  28  29
ATOM     29  C   UNL A   1      40.551  28.267  30.063  1.00  0.00     0.031 A 
ATOM     30  C   UNL A   1      41.553  28.328  31.177  1.00  0.00     0.074 A 
ATOM     31  C   UNL A   1      39.637  29.241  29.910  1.00  0.00     0.049 A 
ATOM     32  N   UNL A   1      41.609  29.148  32.194  1.00  0.00    -0.248 NA
ATOM     33  C   UNL A   1      42.635  27.332  31.142  1.00  0.00     0.031 C 
ATOM     34  C   UNL A   1      38.660  29.320  28.824  1.00  0.00     0.029 A 
ATOM     35  N   UNL A   1      39.385  30.352  30.670  1.00  0.00    -0.354 N 
ATOM     36  C   UNL A   1      42.710  28.747  32.939  1.00  0.00     0.074 A 
ATOM     37  C   UNL A   1      43.294  27.610  32.259  1.00  0.00     0.031 C 
ATOM     38  C   UNL A   1      37.913  30.425  28.986  1.00  0.00     0.029 A 
ATOM     39  C   UNL A   1      38.325  31.097  30.215  1.00  0.00     0.049 A 
ATOM     40  H   UNL A   1      39.911  30.593  31.467  1.00  0.00     0.167 HD
ATOM     41  C   UNL A   1      43.186  29.281  34.088  1.00  0.00     0.037 A 
ATOM     42  C   UNL A   1      37.731  32.178  30.752  1.00  0.00     0.037 A 
ATOM     43  C   UNL A   1      42.613  30.427  34.742  1.00  0.00     0.049 A 
ATOM     44  C   UNL A   1      38.245  32.720  32.055  1.00  0.00     0.074 A 
ATOM     45  C   UNL A   1      43.010  31.041  35.916  1.00  0.00     0.029 A 
ATOM     46  N   UNL A   1      41.521  31.136  34.267  1.00  0.00    -0.354 N 
ATOM     47  N   UNL A   1      39.253  32.302  32.782  1.00  0.00    -0.248 NA
ATOM     48  C   UNL A   1      37.530  33.871  32.620  1.00  0.00     0.031 C 
ATOM     49  C   UNL A   1      42.140  32.110  36.165  1.00  0.00     0.029 A 
ATOM     50  C   UNL A   1      41.222  32.178  35.129  1.00  0.00     0.049 A 
ATOM     51  H   UNL A   1      41.030  30.930  33.438  1.00  0.00     0.167 HD
ATOM     52  C   UNL A   1      39.301  33.144  33.884  1.00  0.00     0.074 A 
ATOM     53  C   UNL A   1      38.230  34.106  33.722  1.00  0.00     0.031 C 
ATOM     54  C   UNL A   1      40.150  33.121  34.940  1.00  0.00     0.037 A 
BRANCH  41  55
ATOM     55  C   UNL A   1      44.364  28.606  34.722  1.00  0.00     0.057 A 
ATOM     56  C   UNL A   1      44.214  27.558  35.638  1.00  0.00     0.134 A 
ATOM     57  C   UNL A   1      45.668  29.005  34.401  1.00  0.00     0.134 A 
ATOM     58  F   UNL A   1      42.990  27.144  36.000  1.00  0.00    -0.206 F 
ATOM     59  C   UNL A   1      45.319  26.941  36.226  1.00  0.00     0.040 A 
ATOM     60  C   UNL A   1      46.781  28.384  34.968  1.00  0.00     0.040 A 
ATOM     61  F   UNL A   1      45.879  30.005  33.532  1.00  0.00    -0.206 F 
ATOM     62  C   UNL A   1      46.608  27.350  35.887  1.00  0.00     0.006 A 
ENDBRANCH  41  55
BRANCH  42  63
ATOM     63  C   UNL A   1      36.564  32.792  30.075  1.00  0.00     0.057 A 
ATOM     64  C   UNL A   1      36.734  33.720  29.044  1.00  0.00     0.134 A 
ATOM     65  C   UNL A   1      35.254  32.463  30.441  1.00  0.00     0.134 A 
ATOM     66  F   UNL A   1      37.966  34.091  28.664  1.00  0.00    -0.206 F 
ATOM     67  C   UNL A   1      35.641  34.307  28.402  1.00  0.00     0.040 A 
ATOM     68  C   UNL A   1      34.152  33.024  29.794  1.00  0.00     0.040 A 
ATOM     69  F   UNL A   1      35.026  31.578  31.422  1.00  0.00    -0.206 F 
ATOM     70  C   UNL A   1      34.345  33.953  28.774  1.00  0.00     0.006 A 
ENDBRANCH  42  63
BRANCH  54  71
ATOM     71  C   UNL A   1      39.961  34.179  35.982  1.00  0.00     0.057 A 
ATOM     72  C   UNL A   1      39.256  33.926  37.164  1.00  0.00     0.134 A 
ATOM     73  C   UNL A   1      40.517  35.453  35.814  1.00  0.00     0.134 A 
ATOM     74  F   UNL A   1      38.690  32.727  37.374  1.00  0.00    -0.206 F 
ATOM     75  C   UNL A   1      39.096  34.911  38.138  1.00  0.00     0.040 A 
ATOM     76  C   UNL A   1      40.378  36.441  36.788  1.00  0.00     0.040 A 
ATOM     77  F   UNL A   1      41.208  35.754  34.703  1.00  0.00    -0.206 F 
ATOM     78  C   UNL A   1      39.662  36.171  37.954  1.00  0.00     0.006 A 
ENDBRANCH  54  71
ENDBRANCH  28  29
ENDBRANCH  21  23
ENDBRANCH  20  21
ENDBRANCH  19  20
ENDBRANCH   1  19
TORSDOF 14
ENDMDL
MODEL 3
REMARK VINA RESULT:      -9.7      5.935     11.371
REMARK SMILES Cc1ncccc1NS(=O)(=O)[C@@H](C)C(=O)OCCOC(=O)c1ccc(-c2c3nc(c(-c4c(F)cccc4F)c4ccc([nH]4)c(-c4c(F)cccc4F)c4nc(c(-c5c(F)cccc5F)c5ccc2[nH]5)C=C4)C=C3)cc1
REMARK SMILES IDX 17 1 16 2 14 3 15 4 12 5 13 6 9 7 10 8 11 9 8 10 7 12 1 13
REMARK SMILES IDX 2 14 3 15 4 16 6 17 5 18 18 19 19 20 20 21 21 22 22 23 23 24
REMARK SMILES IDX 75 25 24 26 74 27 25 28 26 29 27 30 68 31 28 32 73 33 67 34
REMARK SMILES IDX 69 35 29 36 72 37 66 38 65 39 30 41 56 42 39 43 55 44 40 45
REMARK SMILES IDX 43 46 54 47 70 48 41 49 42 50 53 52 71 53 44 54 31 55 32 56
REMARK SMILES IDX 37 57 33 58 34 59 36 60 38 61 35 62 57 63 58 64 63 65 59 66
REMARK SMILES IDX 60 67 62 68 64 69 61 70 45 71 46 72 51 73 47 74 48 75 50 76
REMARK SMILES IDX 52 77 49 78
REMARK H PARENT 8 11 69 40 43 51
REMARK Flexibility Score: inf
ROOT
ATOM      1  C   UNL A   1      44.810  22.556  23.868  1.00  0.00     0.274 C 
ENDROOT
BRANCH   1   2
ATOM      2  O   UNL A   1      43.484  22.201  24.317  1.00  0.00    -0.461 OA
BRANCH   2   3
ATOM      3  C   UNL A   1      43.391  21.475  25.461  1.00  0.00     0.326 C 
ATOM      4  O   UNL A   1      44.060  20.471  25.680  1.00  0.00    -0.251 OA
BRANCH   3   5
ATOM      5  C   UNL A   1      42.463  22.084  26.475  1.00  0.00     0.235 C 
ATOM      6  C   UNL A   1      43.128  22.132  27.851  1.00  0.00     0.039 C 
BRANCH   5   7
ATOM      7  S   UNL A   1      40.863  21.286  26.581  1.00  0.00     0.246 S 
ATOM      8  O   UNL A   1      40.372  21.544  27.922  1.00  0.00    -0.206 OA
ATOM      9  O   UNL A   1      40.961  19.923  26.105  1.00  0.00    -0.206 OA
BRANCH   7  10
ATOM     10  N   UNL A   1      39.819  22.100  25.597  1.00  0.00    -0.281 N 
ATOM     11  H   UNL A   1      40.207  22.637  24.868  1.00  0.00     0.180 HD
BRANCH  10  12
ATOM     12  C   UNL A   1      38.397  22.088  25.721  1.00  0.00     0.070 A 
ATOM     13  C   UNL A   1      38.377  24.428  26.732  1.00  0.00     0.069 C 
ATOM     14  C   UNL A   1      37.704  23.247  26.093  1.00  0.00     0.061 A 
ATOM     15  N   UNL A   1      36.352  23.361  25.980  1.00  0.00    -0.259 NA
ATOM     16  C   UNL A   1      35.666  22.296  25.516  1.00  0.00     0.111 A 
ATOM     17  C   UNL A   1      37.638  20.988  25.314  1.00  0.00     0.030 A 
ATOM     18  C   UNL A   1      36.258  21.094  25.192  1.00  0.00     0.022 A 
ENDBRANCH  10  12
ENDBRANCH   7  10
ENDBRANCH   5   7
ENDBRANCH   3   5
ENDBRANCH   2   3
ENDBRANCH   1   2
BRANCH   1  19
ATOM     19  C   UNL A   1      45.373  23.681  24.738  1.00  0.00     0.275 C 
BRANCH  19  20
ATOM     20  O   UNL A   1      44.398  24.730  24.871  1.00  0.00    -0.458 OA
BRANCH  20  21
ATOM     21  C   UNL A   1      44.918  25.933  25.203  1.00  0.00     0.338 C 
ATOM     22  O   UNL A   1      45.819  26.541  24.647  1.00  0.00    -0.246 OA
BRANCH  21  23
ATOM     23  C   UNL A   1      44.101  26.525  26.264  1.00  0.00     0.060 A 
ATOM     24  C   UNL A   1      44.299  27.875  26.563  1.00  0.00     0.016 A 
ATOM     25  C   UNL A   1      43.227  25.743  27.016  1.00  0.00     0.016 A 
ATOM     26  C   UNL A   1      43.656  28.448  27.651  1.00  0.00     0.010 A 
ATOM     27  C   UNL A   1      42.562  26.326  28.096  1.00  0.00     0.010 A 
ATOM     28  C   UNL A   1      42.792  27.673  28.432  1.00  0.00    -0.014 A 
BRANCH  28  29
ATOM     29  C   UNL A   1      42.183  28.259  29.644  1.00  0.00     0.031 A 
ATOM     30  C   UNL A   1      40.876  28.987  29.535  1.00  0.00     0.074 A 
ATOM     31  C   UNL A   1      42.787  28.112  30.835  1.00  0.00     0.049 A 
ATOM     32  N   UNL A   1      40.242  29.687  30.439  1.00  0.00    -0.248 NA
ATOM     33  C   UNL A   1      40.193  28.918  28.233  1.00  0.00     0.031 C 
ATOM     34  C   UNL A   1      44.024  27.366  31.070  1.00  0.00     0.029 A 
ATOM     35  N   UNL A   1      42.440  28.584  32.074  1.00  0.00    -0.354 N 
ATOM     36  C   UNL A   1      39.104  30.170  29.808  1.00  0.00     0.074 A 
ATOM     37  C   UNL A   1      39.133  29.687  28.444  1.00  0.00     0.031 C 
ATOM     38  C   UNL A   1      44.332  27.427  32.375  1.00  0.00     0.029 A 
ATOM     39  C   UNL A   1      43.346  28.263  33.055  1.00  0.00     0.049 A 
ATOM     40  H   UNL A   1      41.623  29.105  32.244  1.00  0.00     0.167 HD
ATOM     41  C   UNL A   1      38.126  30.951  30.325  1.00  0.00     0.037 A 
ATOM     42  C   UNL A   1      43.391  28.633  34.347  1.00  0.00     0.037 A 
ATOM     43  C   UNL A   1      38.094  31.406  31.689  1.00  0.00     0.049 A 
ATOM     44  C   UNL A   1      42.322  29.542  34.883  1.00  0.00     0.074 A 
ATOM     45  C   UNL A   1      37.156  32.210  32.311  1.00  0.00     0.029 A 
ATOM     46  N   UNL A   1      39.044  31.085  32.645  1.00  0.00    -0.354 N 
ATOM     47  N   UNL A   1      41.278  30.040  34.266  1.00  0.00    -0.248 NA
ATOM     48  C   UNL A   1      42.447  29.953  36.287  1.00  0.00     0.031 C 
ATOM     49  C   UNL A   1      37.553  32.396  33.640  1.00  0.00     0.029 A 
ATOM     50  C   UNL A   1      38.722  31.682  33.852  1.00  0.00     0.049 A 
ATOM     51  H   UNL A   1      39.833  30.515  32.490  1.00  0.00     0.167 HD
ATOM     52  C   UNL A   1      40.615  30.815  35.208  1.00  0.00     0.074 A 
ATOM     53  C   UNL A   1      41.368  30.708  36.442  1.00  0.00     0.031 C 
ATOM     54  C   UNL A   1      39.489  31.555  35.064  1.00  0.00     0.037 A 
BRANCH  41  55
ATOM     55  C   UNL A   1      37.033  31.386  29.397  1.00  0.00     0.057 A 
ATOM     56  C   UNL A   1      37.035  32.646  28.788  1.00  0.00     0.134 A 
ATOM     57  C   UNL A   1      35.969  30.524  29.100  1.00  0.00     0.134 A 
ATOM     58  F   UNL A   1      38.016  33.524  29.047  1.00  0.00    -0.206 F 
ATOM     59  C   UNL A   1      36.008  33.041  27.929  1.00  0.00     0.040 A 
ATOM     60  C   UNL A   1      34.947  30.900  28.228  1.00  0.00     0.040 A 
ATOM     61  F   UNL A   1      35.909  29.303  29.652  1.00  0.00    -0.206 F 
ATOM     62  C   UNL A   1      34.963  32.165  27.643  1.00  0.00     0.006 A 
ENDBRANCH  41  55
BRANCH  42  63
ATOM     63  C   UNL A   1      44.506  28.172  35.209  1.00  0.00     0.057 A 
ATOM     64  C   UNL A   1      45.656  28.949  35.378  1.00  0.00     0.134 A 
ATOM     65  C   UNL A   1      44.445  26.949  35.886  1.00  0.00     0.134 A 
ATOM     66  F   UNL A   1      45.780  30.121  34.738  1.00  0.00    -0.206 F 
ATOM     67  C   UNL A   1      46.712  28.523  36.185  1.00  0.00     0.040 A 
ATOM     68  C   UNL A   1      45.483  26.520  36.714  1.00  0.00     0.040 A 
ATOM     69  F   UNL A   1      43.367  26.161  35.766  1.00  0.00    -0.206 F 
ATOM     70  C   UNL A   1      46.624  27.307  36.861  1.00  0.00     0.006 A 
ENDBRANCH  42  63
BRANCH  54  71
ATOM     71  C   UNL A   1      39.000  32.282  36.278  1.00  0.00     0.057 A 
ATOM     72  C   UNL A   1      39.364  33.610  36.532  1.00  0.00     0.134 A 
ATOM     73  C   UNL A   1      38.133  31.658  37.183  1.00  0.00     0.134 A 
ATOM     74  F   UNL A   1      40.203  34.255  35.707  1.00  0.00    -0.206 F 
ATOM     75  C   UNL A   1      38.894  34.288  37.657  1.00  0.00     0.040 A 
ATOM     76  C   UNL A   1      37.642  32.332  38.301  1.00  0.00     0.040 A 
ATOM     77  F   UNL A   1      37.745  30.389  36.989  1.00  0.00    -0.206 F 
ATOM     78  C   UNL A   1      38.026  33.650  38.542  1.00  0.00     0.006 A 
ENDBRANCH  54  71
ENDBRANCH  28  29
ENDBRANCH  21  23
ENDBRANCH  20  21
ENDBRANCH  19  20
ENDBRANCH   1  19
TORSDOF 14
ENDMDL
