MODEL 1
REMARK VINA RESULT:     -11.4      0.000      0.000
REMARK SMILES C[C@H](C(=O)OCCOC(=O)c1ccc(-c2c3nc(c(-c4c(F)cccc4F)c4ccc([nH]4)c(-c4c(F)cccc4F)c4nc(c(-c5c(F)cccc5F)c5ccc2[nH]5)C=C4)C=C3)cc1)c1ccc2c(c1)OCCO2
REMARK SMILES IDX 7 1 6 2 5 3 3 4 4 5 2 6 1 7 65 8 66 9 70 10 67 11 69 12
REMARK SMILES IDX 68 13 71 14 74 15 72 16 73 17 8 18 9 19 10 20 11 21 12 22
REMARK SMILES IDX 64 23 13 24 63 25 14 26 15 27 16 28 57 29 17 30 62 31 56 32
REMARK SMILES IDX 58 33 18 34 61 35 55 36 54 37 19 39 45 40 28 41 44 42 29 43
REMARK SMILES IDX 32 44 43 45 59 46 30 47 31 48 42 50 60 51 33 52 20 53 21 54
REMARK SMILES IDX 26 55 22 56 23 57 25 58 27 59 24 60 46 61 47 62 52 63 48 64
REMARK SMILES IDX 49 65 51 66 53 67 50 68 34 69 35 70 40 71 36 72 37 73 39 74
REMARK SMILES IDX 41 75 38 76
REMARK H PARENT 58 38 32 49
REMARK Flexibility Score: inf
ROOT
ATOM      1  C   UNL A   1      31.758  29.458  25.468  1.00  0.00     0.275 C 
ENDROOT
BRANCH   1   2
ATOM      2  C   UNL A   1      31.576  28.317  26.468  1.00  0.00     0.274 C 
BRANCH   2   3
ATOM      3  O   UNL A   1      32.018  27.078  25.877  1.00  0.00    -0.462 OA
BRANCH   3   4
ATOM      4  C   UNL A   1      31.034  26.196  25.548  1.00  0.00     0.313 C 
ATOM      5  O   UNL A   1      30.390  25.541  26.361  1.00  0.00    -0.252 OA
BRANCH   4   6
ATOM      6  C   UNL A   1      30.849  26.088  24.038  1.00  0.00     0.126 C 
ATOM      7  C   UNL A   1      30.484  24.641  23.653  1.00  0.00     0.025 C 
BRANCH   6   8
ATOM      8  C   UNL A   1      29.773  26.983  23.435  1.00  0.00    -0.030 A 
ATOM      9  C   UNL A   1      28.433  26.832  23.827  1.00  0.00     0.009 A 
ATOM     10  C   UNL A   1      30.133  28.109  22.679  1.00  0.00     0.055 A 
ATOM     11  C   UNL A   1      27.502  27.839  23.561  1.00  0.00     0.051 A 
ATOM     12  C   UNL A   1      29.226  29.137  22.469  1.00  0.00     0.161 A 
ATOM     13  C   UNL A   1      27.923  29.017  22.949  1.00  0.00     0.161 A 
ATOM     14  O   UNL A   1      29.731  30.277  21.901  1.00  0.00    -0.486 OA
ATOM     15  O   UNL A   1      27.049  30.075  22.938  1.00  0.00    -0.486 OA
ATOM     16  C   UNL A   1      28.813  31.376  21.921  1.00  0.00     0.271 C 
ATOM     17  C   UNL A   1      27.816  31.280  23.067  1.00  0.00     0.271 C 
ENDBRANCH   6   8
ENDBRANCH   4   6
ENDBRANCH   3   4
ENDBRANCH   2   3
ENDBRANCH   1   2
BRANCH   1  18
ATOM     18  O   UNL A   1      33.021  30.099  25.710  1.00  0.00    -0.458 OA
BRANCH  18  19
ATOM     19  C   UNL A   1      33.039  30.965  26.749  1.00  0.00     0.338 C 
ATOM     20  O   UNL A   1      32.132  31.726  27.067  1.00  0.00    -0.246 OA
BRANCH  19  21
ATOM     21  C   UNL A   1      34.334  30.875  27.469  1.00  0.00     0.060 A 
ATOM     22  C   UNL A   1      35.114  32.005  27.746  1.00  0.00     0.016 A 
ATOM     23  C   UNL A   1      34.797  29.616  27.855  1.00  0.00     0.016 A 
ATOM     24  C   UNL A   1      36.357  31.876  28.374  1.00  0.00     0.010 A 
ATOM     25  C   UNL A   1      36.004  29.496  28.551  1.00  0.00     0.010 A 
ATOM     26  C   UNL A   1      36.802  30.623  28.813  1.00  0.00    -0.014 A 
BRANCH  26  27
ATOM     27  C   UNL A   1      38.081  30.462  29.562  1.00  0.00     0.031 A 
ATOM     28  C   UNL A   1      39.195  29.630  28.987  1.00  0.00     0.074 A 
ATOM     29  C   UNL A   1      38.222  30.995  30.793  1.00  0.00     0.049 A 
ATOM     30  N   UNL A   1      40.267  29.158  29.572  1.00  0.00    -0.248 NA
ATOM     31  C   UNL A   1      39.075  29.265  27.567  1.00  0.00     0.031 C 
ATOM     32  C   UNL A   1      37.241  31.842  31.471  1.00  0.00     0.029 A 
ATOM     33  N   UNL A   1      39.245  30.879  31.704  1.00  0.00    -0.354 N 
ATOM     34  C   UNL A   1      40.922  28.399  28.610  1.00  0.00     0.074 A 
ATOM     35  C   UNL A   1      40.122  28.469  27.405  1.00  0.00     0.031 C 
ATOM     36  C   UNL A   1      37.707  32.173  32.684  1.00  0.00     0.029 A 
ATOM     37  C   UNL A   1      38.984  31.501  32.902  1.00  0.00     0.049 A 
ATOM     38  H   UNL A   1      40.083  30.398  31.517  1.00  0.00     0.167 HD
ATOM     39  C   UNL A   1      42.081  27.706  28.721  1.00  0.00     0.037 A 
ATOM     40  C   UNL A   1      39.665  31.493  34.063  1.00  0.00     0.037 A 
ATOM     41  C   UNL A   1      42.896  27.668  29.910  1.00  0.00     0.049 A 
ATOM     42  C   UNL A   1      40.933  30.695  34.175  1.00  0.00     0.074 A 
ATOM     43  C   UNL A   1      44.099  27.013  30.111  1.00  0.00     0.029 A 
ATOM     44  N   UNL A   1      42.595  28.320  31.096  1.00  0.00    -0.354 N 
ATOM     45  N   UNL A   1      41.525  29.956  33.270  1.00  0.00    -0.248 NA
ATOM     46  C   UNL A   1      41.618  30.719  35.475  1.00  0.00     0.031 C 
ATOM     47  C   UNL A   1      44.510  27.241  31.428  1.00  0.00     0.029 A 
ATOM     48  C   UNL A   1      43.585  28.074  32.035  1.00  0.00     0.049 A 
ATOM     49  H   UNL A   1      41.797  28.875  31.249  1.00  0.00     0.167 HD
ATOM     50  C   UNL A   1      42.660  29.440  33.883  1.00  0.00     0.074 A 
ATOM     51  C   UNL A   1      42.681  29.964  35.233  1.00  0.00     0.031 C 
ATOM     52  C   UNL A   1      43.597  28.605  33.374  1.00  0.00     0.037 A 
BRANCH  39  53
ATOM     53  C   UNL A   1      42.530  26.907  27.532  1.00  0.00     0.057 A 
ATOM     54  C   UNL A   1      42.154  25.569  27.351  1.00  0.00     0.134 A 
ATOM     55  C   UNL A   1      43.319  27.496  26.536  1.00  0.00     0.134 A 
ATOM     56  F   UNL A   1      41.410  24.941  28.273  1.00  0.00    -0.206 F 
ATOM     57  C   UNL A   1      42.567  24.841  26.233  1.00  0.00     0.040 A 
ATOM     58  C   UNL A   1      43.717  26.786  25.403  1.00  0.00     0.040 A 
ATOM     59  F   UNL A   1      43.708  28.777  26.643  1.00  0.00    -0.206 F 
ATOM     60  C   UNL A   1      43.346  25.453  25.252  1.00  0.00     0.006 A 
ENDBRANCH  39  53
BRANCH  40  61
ATOM     61  C   UNL A   1      39.139  32.243  35.231  1.00  0.00     0.057 A 
ATOM     62  C   UNL A   1      38.360  31.609  36.205  1.00  0.00     0.134 A 
ATOM     63  C   UNL A   1      39.405  33.608  35.405  1.00  0.00     0.134 A 
ATOM     64  F   UNL A   1      38.051  30.311  36.081  1.00  0.00    -0.206 F 
ATOM     65  C   UNL A   1      37.859  32.304  37.307  1.00  0.00     0.040 A 
ATOM     66  C   UNL A   1      38.933  34.309  36.514  1.00  0.00     0.040 A 
ATOM     67  F   UNL A   1      40.146  34.272  34.506  1.00  0.00    -0.206 F 
ATOM     68  C   UNL A   1      38.152  33.657  37.467  1.00  0.00     0.006 A 
ENDBRANCH  40  61
BRANCH  52  69
ATOM     69  C   UNL A   1      44.743  28.235  34.268  1.00  0.00     0.057 A 
ATOM     70  C   UNL A   1      45.906  29.011  34.339  1.00  0.00     0.134 A 
ATOM     71  C   UNL A   1      44.670  27.102  35.087  1.00  0.00     0.134 A 
ATOM     72  F   UNL A   1      46.044  30.101  33.569  1.00  0.00    -0.206 F 
ATOM     73  C   UNL A   1      46.965  28.662  35.179  1.00  0.00     0.040 A 
ATOM     74  C   UNL A   1      45.712  26.754  35.948  1.00  0.00     0.040 A 
ATOM     75  F   UNL A   1      43.580  26.318  35.071  1.00  0.00    -0.206 F 
ATOM     76  C   UNL A   1      46.866  27.533  35.990  1.00  0.00     0.006 A 
ENDBRANCH  52  69
ENDBRANCH  26  27
ENDBRANCH  19  21
ENDBRANCH  18  19
ENDBRANCH   1  18
TORSDOF 12
ENDMDL
MODEL 2
REMARK VINA RESULT:     -11.2      4.714      9.450
REMARK SMILES C[C@H](C(=O)OCCOC(=O)c1ccc(-c2c3nc(c(-c4c(F)cccc4F)c4ccc([nH]4)c(-c4c(F)cccc4F)c4nc(c(-c5c(F)cccc5F)c5ccc2[nH]5)C=C4)C=C3)cc1)c1ccc2c(c1)OCCO2
REMARK SMILES IDX 7 1 6 2 5 3 3 4 4 5 2 6 1 7 65 8 66 9 70 10 67 11 69 12
REMARK SMILES IDX 68 13 71 14 74 15 72 16 73 17 8 18 9 19 10 20 11 21 12 22
REMARK SMILES IDX 64 23 13 24 63 25 14 26 15 27 16 28 57 29 17 30 62 31 56 32
REMARK SMILES IDX 58 33 18 34 61 35 55 36 54 37 19 39 45 40 28 41 44 42 29 43
REMARK SMILES IDX 32 44 43 45 59 46 30 47 31 48 42 50 60 51 33 52 20 53 21 54
REMARK SMILES IDX 26 55 22 56 23 57 25 58 27 59 24 60 46 61 47 62 52 63 48 64
REMARK SMILES IDX 49 65 51 66 53 67 50 68 34 69 35 70 40 71 36 72 37 73 39 74
REMARK SMILES IDX 41 75 38 76
REMARK H PARENT 58 38 32 49
REMARK Flexibility Score: inf
ROOT
ATOM      1  C   UNL A   1      36.120  21.216  24.694  1.00  0.00     0.275 C 
ENDROOT
BRANCH   1   2
ATOM      2  C   UNL A   1      35.874  22.391  23.749  1.00  0.00     0.274 C 
BRANCH   2   3
ATOM      3  O   UNL A   1      34.770  23.182  24.234  1.00  0.00    -0.462 OA
BRANCH   3   4
ATOM      4  C   UNL A   1      33.725  23.328  23.372  1.00  0.00     0.313 C 
ATOM      5  O   UNL A   1      33.798  23.889  22.284  1.00  0.00    -0.252 OA
BRANCH   4   6
ATOM      6  C   UNL A   1      32.435  22.743  23.938  1.00  0.00     0.126 C 
ATOM      7  C   UNL A   1      31.219  23.502  23.373  1.00  0.00     0.025 C 
BRANCH   6   8
ATOM      8  C   UNL A   1      32.196  21.264  23.654  1.00  0.00    -0.030 A 
ATOM      9  C   UNL A   1      31.991  20.828  22.335  1.00  0.00     0.009 A 
ATOM     10  C   UNL A   1      32.416  20.308  24.656  1.00  0.00     0.055 A 
ATOM     11  C   UNL A   1      32.113  19.473  22.013  1.00  0.00     0.051 A 
ATOM     12  C   UNL A   1      32.600  18.973  24.329  1.00  0.00     0.161 A 
ATOM     13  C   UNL A   1      32.490  18.566  23.000  1.00  0.00     0.161 A 
ATOM     14  O   UNL A   1      33.012  18.156  25.349  1.00  0.00    -0.486 OA
ATOM     15  O   UNL A   1      32.849  17.304  22.599  1.00  0.00    -0.486 OA
ATOM     16  C   UNL A   1      33.405  16.851  24.907  1.00  0.00     0.271 C 
ATOM     17  C   UNL A   1      33.897  16.849  23.466  1.00  0.00     0.271 C 
ENDBRANCH   6   8
ENDBRANCH   4   6
ENDBRANCH   3   4
ENDBRANCH   2   3
ENDBRANCH   1   2
BRANCH   1  18
ATOM     18  O   UNL A   1      36.892  21.669  25.818  1.00  0.00    -0.458 OA
BRANCH  18  19
ATOM     19  C   UNL A   1      38.200  21.325  25.796  1.00  0.00     0.338 C 
ATOM     20  O   UNL A   1      38.656  20.255  25.411  1.00  0.00    -0.246 OA
BRANCH  19  21
ATOM     21  C   UNL A   1      39.031  22.439  26.318  1.00  0.00     0.060 A 
ATOM     22  C   UNL A   1      40.157  22.218  27.122  1.00  0.00     0.016 A 
ATOM     23  C   UNL A   1      38.657  23.750  26.014  1.00  0.00     0.016 A 
ATOM     24  C   UNL A   1      40.882  23.294  27.643  1.00  0.00     0.010 A 
ATOM     25  C   UNL A   1      39.428  24.822  26.472  1.00  0.00     0.010 A 
ATOM     26  C   UNL A   1      40.545  24.609  27.298  1.00  0.00    -0.014 A 
BRANCH  26  27
ATOM     27  C   UNL A   1      41.348  25.775  27.766  1.00  0.00     0.031 A 
ATOM     28  C   UNL A   1      40.708  26.847  28.605  1.00  0.00     0.074 A 
ATOM     29  C   UNL A   1      42.632  25.917  27.380  1.00  0.00     0.049 A 
ATOM     30  N   UNL A   1      41.145  28.046  28.896  1.00  0.00    -0.248 NA
ATOM     31  C   UNL A   1      39.389  26.534  29.175  1.00  0.00     0.031 C 
ATOM     32  C   UNL A   1      43.394  24.950  26.588  1.00  0.00     0.029 A 
ATOM     33  N   UNL A   1      43.518  26.949  27.585  1.00  0.00    -0.354 N 
ATOM     34  C   UNL A   1      40.136  28.650  29.638  1.00  0.00     0.074 A 
ATOM     35  C   UNL A   1      39.062  27.685  29.746  1.00  0.00     0.031 C 
ATOM     36  C   UNL A   1      44.629  25.430  26.378  1.00  0.00     0.029 A 
ATOM     37  C   UNL A   1      44.724  26.768  26.952  1.00  0.00     0.049 A 
ATOM     38  H   UNL A   1      43.307  27.739  28.132  1.00  0.00     0.167 HD
ATOM     39  C   UNL A   1      40.108  29.892  30.177  1.00  0.00     0.037 A 
ATOM     40  C   UNL A   1      45.772  27.601  26.803  1.00  0.00     0.037 A 
ATOM     41  C   UNL A   1      41.194  30.838  30.101  1.00  0.00     0.049 A 
ATOM     42  C   UNL A   1      45.708  28.985  27.383  1.00  0.00     0.074 A 
ATOM     43  C   UNL A   1      41.266  32.113  30.636  1.00  0.00     0.029 A 
ATOM     44  N   UNL A   1      42.399  30.608  29.456  1.00  0.00    -0.354 N 
ATOM     45  N   UNL A   1      44.739  29.554  28.054  1.00  0.00    -0.248 NA
ATOM     46  C   UNL A   1      46.881  29.845  27.172  1.00  0.00     0.031 C 
ATOM     47  C   UNL A   1      42.503  32.666  30.288  1.00  0.00     0.029 A 
ATOM     48  C   UNL A   1      43.217  31.720  29.572  1.00  0.00     0.049 A 
ATOM     49  H   UNL A   1      42.639  29.777  28.986  1.00  0.00     0.167 HD
ATOM     50  C   UNL A   1      45.187  30.833  28.360  1.00  0.00     0.074 A 
ATOM     51  C   UNL A   1      46.524  30.949  27.814  1.00  0.00     0.031 C 
ATOM     52  C   UNL A   1      44.548  31.822  29.029  1.00  0.00     0.037 A 
BRANCH  39  53
ATOM     53  C   UNL A   1      38.850  30.317  30.878  1.00  0.00     0.057 A 
ATOM     54  C   UNL A   1      37.811  30.975  30.207  1.00  0.00     0.134 A 
ATOM     55  C   UNL A   1      38.661  30.029  32.236  1.00  0.00     0.134 A 
ATOM     56  F   UNL A   1      37.933  31.292  28.910  1.00  0.00    -0.206 F 
ATOM     57  C   UNL A   1      36.640  31.352  30.868  1.00  0.00     0.040 A 
ATOM     58  C   UNL A   1      37.486  30.378  32.901  1.00  0.00     0.040 A 
ATOM     59  F   UNL A   1      39.614  29.393  32.937  1.00  0.00    -0.206 F 
ATOM     60  C   UNL A   1      36.473  31.048  32.218  1.00  0.00     0.006 A 
ENDBRANCH  39  53
BRANCH  40  61
ATOM     61  C   UNL A   1      46.964  27.155  26.038  1.00  0.00     0.057 A 
ATOM     62  C   UNL A   1      48.026  26.503  26.672  1.00  0.00     0.134 A 
ATOM     63  C   UNL A   1      47.067  27.366  24.657  1.00  0.00     0.134 A 
ATOM     64  F   UNL A   1      47.996  26.295  27.997  1.00  0.00    -0.206 F 
ATOM     65  C   UNL A   1      49.152  26.080  25.964  1.00  0.00     0.040 A 
ATOM     66  C   UNL A   1      48.175  26.925  23.932  1.00  0.00     0.040 A 
ATOM     67  F   UNL A   1      46.082  27.985  23.991  1.00  0.00    -0.206 F 
ATOM     68  C   UNL A   1      49.225  26.285  24.587  1.00  0.00     0.006 A 
ENDBRANCH  40  61
BRANCH  52  69
ATOM     69  C   UNL A   1      45.299  33.103  29.239  1.00  0.00     0.057 A 
ATOM     70  C   UNL A   1      46.135  33.297  30.346  1.00  0.00     0.134 A 
ATOM     71  C   UNL A   1      45.204  34.146  28.310  1.00  0.00     0.134 A 
ATOM     72  F   UNL A   1      46.258  32.343  31.281  1.00  0.00    -0.206 F 
ATOM     73  C   UNL A   1      46.835  34.491  30.530  1.00  0.00     0.040 A 
ATOM     74  C   UNL A   1      45.915  35.336  28.471  1.00  0.00     0.040 A 
ATOM     75  F   UNL A   1      44.424  34.022  27.224  1.00  0.00    -0.206 F 
ATOM     76  C   UNL A   1      46.729  35.512  29.587  1.00  0.00     0.006 A 
ENDBRANCH  52  69
ENDBRANCH  26  27
ENDBRANCH  19  21
ENDBRANCH  18  19
ENDBRANCH   1  18
TORSDOF 12
ENDMDL
MODEL 3
REMARK VINA RESULT:     -11.1      4.227      8.762
REMARK SMILES C[C@H](C(=O)OCCOC(=O)c1ccc(-c2c3nc(c(-c4c(F)cccc4F)c4ccc([nH]4)c(-c4c(F)cccc4F)c4nc(c(-c5c(F)cccc5F)c5ccc2[nH]5)C=C4)C=C3)cc1)c1ccc2c(c1)OCCO2
REMARK SMILES IDX 7 1 6 2 5 3 3 4 4 5 2 6 1 7 65 8 66 9 70 10 67 11 69 12
REMARK SMILES IDX 68 13 71 14 74 15 72 16 73 17 8 18 9 19 10 20 11 21 12 22
REMARK SMILES IDX 64 23 13 24 63 25 14 26 15 27 16 28 57 29 17 30 62 31 56 32
REMARK SMILES IDX 58 33 18 34 61 35 55 36 54 37 19 39 45 40 28 41 44 42 29 43
REMARK SMILES IDX 32 44 43 45 59 46 30 47 31 48 42 50 60 51 33 52 20 53 21 54
REMARK SMILES IDX 26 55 22 56 23 57 25 58 27 59 24 60 46 61 47 62 52 63 48 64
REMARK SMILES IDX 49 65 51 66 53 67 50 68 34 69 35 70 40 71 36 72 37 73 39 74
REMARK SMILES IDX 41 75 38 76
REMARK H PARENT 58 38 32 49
REMARK Flexibility Score: inf
ROOT
ATOM      1  C   UNL A   1      36.006  21.235  24.624  1.00  0.00     0.275 C 
ENDROOT
BRANCH   1   2
ATOM      2  C   UNL A   1      34.952  20.203  25.024  1.00  0.00     0.274 C 
BRANCH   2   3
ATOM      3  O   UNL A   1      33.916  20.841  25.798  1.00  0.00    -0.462 OA
BRANCH   3   4
ATOM      4  C   UNL A   1      32.644  20.661  25.343  1.00  0.00     0.313 C 
ATOM      5  O   UNL A   1      32.120  19.566  25.165  1.00  0.00    -0.252 OA
BRANCH   4   6
ATOM      6  C   UNL A   1      31.956  21.988  25.041  1.00  0.00     0.126 C 
ATOM      7  C   UNL A   1      31.617  22.718  26.355  1.00  0.00     0.025 C 
BRANCH   6   8
ATOM      8  C   UNL A   1      32.751  22.970  24.189  1.00  0.00    -0.030 A 
ATOM      9  C   UNL A   1      32.862  22.767  22.804  1.00  0.00     0.009 A 
ATOM     10  C   UNL A   1      33.168  24.196  24.728  1.00  0.00     0.055 A 
ATOM     11  C   UNL A   1      33.278  23.808  21.970  1.00  0.00     0.051 A 
ATOM     12  C   UNL A   1      33.520  25.249  23.897  1.00  0.00     0.161 A 
ATOM     13  C   UNL A   1      33.533  25.063  22.516  1.00  0.00     0.161 A 
ATOM     14  O   UNL A   1      33.712  26.460  24.509  1.00  0.00    -0.486 OA
ATOM     15  O   UNL A   1      33.685  26.115  21.647  1.00  0.00    -0.486 OA
ATOM     16  C   UNL A   1      33.845  27.548  23.587  1.00  0.00     0.271 C 
ATOM     17  C   UNL A   1      33.131  27.282  22.269  1.00  0.00     0.271 C 
ENDBRANCH   6   8
ENDBRANCH   4   6
ENDBRANCH   3   4
ENDBRANCH   2   3
ENDBRANCH   1   2
BRANCH   1  18
ATOM     18  O   UNL A   1      36.776  21.595  25.783  1.00  0.00    -0.458 OA
BRANCH  18  19
ATOM     19  C   UNL A   1      38.085  21.258  25.734  1.00  0.00     0.338 C 
ATOM     20  O   UNL A   1      38.540  20.198  25.322  1.00  0.00    -0.246 OA
BRANCH  19  21
ATOM     21  C   UNL A   1      38.919  22.366  26.262  1.00  0.00     0.060 A 
ATOM     22  C   UNL A   1      40.080  22.136  27.011  1.00  0.00     0.016 A 
ATOM     23  C   UNL A   1      38.512  23.680  26.024  1.00  0.00     0.016 A 
ATOM     24  C   UNL A   1      40.809  23.204  27.542  1.00  0.00     0.010 A 
ATOM     25  C   UNL A   1      39.284  24.749  26.490  1.00  0.00     0.010 A 
ATOM     26  C   UNL A   1      40.437  24.525  27.261  1.00  0.00    -0.014 A 
BRANCH  26  27
ATOM     27  C   UNL A   1      41.241  25.686  27.740  1.00  0.00     0.031 A 
ATOM     28  C   UNL A   1      40.595  26.764  28.567  1.00  0.00     0.074 A 
ATOM     29  C   UNL A   1      42.532  25.819  27.372  1.00  0.00     0.049 A 
ATOM     30  N   UNL A   1      41.036  27.961  28.863  1.00  0.00    -0.248 NA
ATOM     31  C   UNL A   1      39.266  26.459  29.117  1.00  0.00     0.031 C 
ATOM     32  C   UNL A   1      43.299  24.847  26.594  1.00  0.00     0.029 A 
ATOM     33  N   UNL A   1      43.421  26.846  27.589  1.00  0.00    -0.354 N 
ATOM     34  C   UNL A   1      40.020  28.571  29.588  1.00  0.00     0.074 A 
ATOM     35  C   UNL A   1      38.938  27.613  29.682  1.00  0.00     0.031 C 
ATOM     36  C   UNL A   1      44.541  25.318  26.401  1.00  0.00     0.029 A 
ATOM     37  C   UNL A   1      44.635  26.657  26.974  1.00  0.00     0.049 A 
ATOM     38  H   UNL A   1      43.207  27.639  28.131  1.00  0.00     0.167 HD
ATOM     39  C   UNL A   1      39.991  29.815  30.125  1.00  0.00     0.037 A 
ATOM     40  C   UNL A   1      45.690  27.483  26.840  1.00  0.00     0.037 A 
ATOM     41  C   UNL A   1      41.084  30.754  30.064  1.00  0.00     0.049 A 
ATOM     42  C   UNL A   1      45.627  28.868  27.417  1.00  0.00     0.074 A 
ATOM     43  C   UNL A   1      41.156  32.029  30.598  1.00  0.00     0.029 A 
ATOM     44  N   UNL A   1      42.297  30.515  29.437  1.00  0.00    -0.354 N 
ATOM     45  N   UNL A   1      44.651  29.445  28.072  1.00  0.00    -0.248 NA
ATOM     46  C   UNL A   1      46.808  29.721  27.222  1.00  0.00     0.031 C 
ATOM     47  C   UNL A   1      42.401  32.574  30.267  1.00  0.00     0.029 A 
ATOM     48  C   UNL A   1      43.121  31.622  29.564  1.00  0.00     0.049 A 
ATOM     49  H   UNL A   1      42.538  29.682  28.972  1.00  0.00     0.167 HD
ATOM     50  C   UNL A   1      45.103  30.721  28.382  1.00  0.00     0.074 A 
ATOM     51  C   UNL A   1      46.448  30.828  27.857  1.00  0.00     0.031 C 
ATOM     52  C   UNL A   1      44.459  31.715  29.041  1.00  0.00     0.037 A 
BRANCH  39  53
ATOM     53  C   UNL A   1      38.725  30.248  30.806  1.00  0.00     0.057 A 
ATOM     54  C   UNL A   1      37.699  30.908  30.118  1.00  0.00     0.134 A 
ATOM     55  C   UNL A   1      38.516  29.968  32.163  1.00  0.00     0.134 A 
ATOM     56  F   UNL A   1      37.840  31.219  28.821  1.00  0.00    -0.206 F 
ATOM     57  C   UNL A   1      36.521  31.294  30.761  1.00  0.00     0.040 A 
ATOM     58  C   UNL A   1      37.333  30.326  32.810  1.00  0.00     0.040 A 
ATOM     59  F   UNL A   1      39.456  29.331  32.880  1.00  0.00    -0.206 F 
ATOM     60  C   UNL A   1      36.334  30.997  32.110  1.00  0.00     0.006 A 
ENDBRANCH  39  53
BRANCH  40  61
ATOM     61  C   UNL A   1      46.891  27.028  26.093  1.00  0.00     0.057 A 
ATOM     62  C   UNL A   1      47.911  26.316  26.732  1.00  0.00     0.134 A 
ATOM     63  C   UNL A   1      47.044  27.290  24.725  1.00  0.00     0.134 A 
ATOM     64  F   UNL A   1      47.832  26.057  28.045  1.00  0.00    -0.206 F 
ATOM     65  C   UNL A   1      49.045  25.884  26.041  1.00  0.00     0.040 A 
ATOM     66  C   UNL A   1      48.159  26.843  24.016  1.00  0.00     0.040 A 
ATOM     67  F   UNL A   1      46.100  27.969  24.056  1.00  0.00    -0.206 F 
ATOM     68  C   UNL A   1      49.167  26.142  24.677  1.00  0.00     0.006 A 
ENDBRANCH  40  61
BRANCH  52  69
ATOM     69  C   UNL A   1      45.215  32.992  29.260  1.00  0.00     0.057 A 
ATOM     70  C   UNL A   1      45.139  34.061  28.359  1.00  0.00     0.134 A 
ATOM     71  C   UNL A   1      46.010  33.162  30.400  1.00  0.00     0.134 A 
ATOM     72  F   UNL A   1      44.407  33.955  27.240  1.00  0.00    -0.206 F 
ATOM     73  C   UNL A   1      45.842  35.247  28.575  1.00  0.00     0.040 A 
ATOM     74  C   UNL A   1      46.700  34.351  30.639  1.00  0.00     0.040 A 
ATOM     75  F   UNL A   1      46.122  32.178  31.306  1.00  0.00    -0.206 F 
ATOM     76  C   UNL A   1      46.621  35.396  29.721  1.00  0.00     0.006 A 
ENDBRANCH  52  69
ENDBRANCH  26  27
ENDBRANCH  19  21
ENDBRANCH  18  19
ENDBRANCH   1  18
TORSDOF 12
ENDMDL
