MODEL 1
REMARK VINA RESULT:     -11.1      0.000      0.000
REMARK SMILES Cc1c(F)cc(C(=O)OCCOC(=O)c2ccc(-c3c4nc(c(-c5c(F)cccc5F)c5ccc([nH]5)c(-c5c(F)cccc5F)c5nc(c(-c6c(F)cccc6F)c6ccc3[nH]6)C=C5)C=C4)cc2)cc1S(=O)(=O)NC#N
REMARK SMILES IDX 10 1 9 2 7 3 8 4 6 5 1 6 2 7 3 8 70 9 4 10 5 11 69 12 71 13
REMARK SMILES IDX 72 14 73 15 74 16 75 18 76 19 11 20 12 21 13 22 14 23 15 24
REMARK SMILES IDX 16 25 68 26 17 27 67 28 18 29 19 30 20 31 61 32 21 33 66 34
REMARK SMILES IDX 60 35 62 36 22 37 65 38 59 39 58 40 23 42 49 43 32 44 48 45
REMARK SMILES IDX 33 46 36 47 47 48 63 49 34 50 35 51 46 53 64 54 37 55 24 56
REMARK SMILES IDX 25 57 30 58 26 59 27 60 29 61 31 62 28 63 50 64 51 65 56 66
REMARK SMILES IDX 52 67 53 68 55 69 57 70 54 71 38 72 39 73 44 74 40 75 41 76
REMARK SMILES IDX 43 77 45 78 42 79
REMARK H PARENT 74 17 62 41 36 52
REMARK Flexibility Score: inf
ROOT
ATOM      1  C   UNL A   1      44.095  18.750  25.462  1.00  0.00     0.275 C 
ENDROOT
BRANCH   1   2
ATOM      2  O   UNL A   1      42.747  19.273  25.330  1.00  0.00    -0.458 OA
BRANCH   2   3
ATOM      3  C   UNL A   1      42.011  19.301  26.473  1.00  0.00     0.338 C 
ATOM      4  O   UNL A   1      42.238  18.648  27.483  1.00  0.00    -0.246 OA
BRANCH   3   5
ATOM      5  C   UNL A   1      40.964  20.361  26.462  1.00  0.00     0.064 A 
ATOM      6  C   UNL A   1      38.270  23.754  26.604  1.00  0.00     0.049 C 
ATOM      7  C   UNL A   1      39.087  22.508  26.504  1.00  0.00     0.005 A 
ATOM      8  C   UNL A   1      40.299  22.544  27.218  1.00  0.00     0.128 A 
ATOM      9  C   UNL A   1      38.776  21.322  25.824  1.00  0.00     0.095 A 
ATOM     10  F   UNL A   1      40.628  23.643  27.916  1.00  0.00    -0.207 F 
ATOM     11  C   UNL A   1      41.194  21.485  27.241  1.00  0.00     0.055 A 
ATOM     12  C   UNL A   1      39.766  20.286  25.754  1.00  0.00     0.038 A 
BRANCH   9  13
ATOM     13  S   UNL A   1      37.284  20.862  24.951  1.00  0.00     0.270 S 
ATOM     14  O   UNL A   1      37.163  21.828  23.878  1.00  0.00    -0.201 OA
ATOM     15  O   UNL A   1      37.476  19.459  24.624  1.00  0.00    -0.201 OA
BRANCH  13  16
ATOM     16  N   UNL A   1      35.801  20.870  25.680  1.00  0.00    -0.215 NA
ATOM     17  H   UNL A   1      35.587  20.113  26.273  1.00  0.00     0.193 HD
BRANCH  16  18
ATOM     18  C   UNL A   1      34.880  21.802  25.539  1.00  0.00     0.191 C 
ATOM     19  N   UNL A   1      33.973  22.490  25.365  1.00  0.00    -0.172 NA
ENDBRANCH  16  18
ENDBRANCH  13  16
ENDBRANCH   9  13
ENDBRANCH   3   5
ENDBRANCH   2   3
ENDBRANCH   1   2
BRANCH   1  20
ATOM     20  C   UNL A   1      45.115  19.441  24.550  1.00  0.00     0.275 C 
BRANCH  20  21
ATOM     21  O   UNL A   1      44.630  20.706  24.094  1.00  0.00    -0.458 OA
BRANCH  21  22
ATOM     22  C   UNL A   1      45.003  21.715  24.907  1.00  0.00     0.338 C 
ATOM     23  O   UNL A   1      46.131  21.959  25.311  1.00  0.00    -0.246 OA
BRANCH  22  24
ATOM     24  C   UNL A   1      43.836  22.399  25.468  1.00  0.00     0.060 A 
ATOM     25  C   UNL A   1      43.403  23.472  24.669  1.00  0.00     0.016 A 
ATOM     26  C   UNL A   1      43.943  22.505  26.852  1.00  0.00     0.016 A 
ATOM     27  C   UNL A   1      43.485  24.744  25.172  1.00  0.00     0.010 A 
ATOM     28  C   UNL A   1      44.017  23.769  27.362  1.00  0.00     0.010 A 
ATOM     29  C   UNL A   1      43.879  24.864  26.494  1.00  0.00    -0.014 A 
BRANCH  29  30
ATOM     30  C   UNL A   1      43.888  26.133  27.165  1.00  0.00     0.031 A 
ATOM     31  C   UNL A   1      42.572  26.793  27.156  1.00  0.00     0.074 A 
ATOM     32  C   UNL A   1      44.983  26.371  27.917  1.00  0.00     0.049 A 
ATOM     33  N   UNL A   1      42.372  28.022  27.445  1.00  0.00    -0.248 NA
ATOM     34  C   UNL A   1      41.337  26.125  26.701  1.00  0.00     0.031 C 
ATOM     35  C   UNL A   1      45.145  27.180  29.110  1.00  0.00     0.029 A 
ATOM     36  N   UNL A   1      46.296  25.994  27.593  1.00  0.00    -0.354 N 
ATOM     37  C   UNL A   1      41.014  28.145  27.664  1.00  0.00     0.074 A 
ATOM     38  C   UNL A   1      40.404  27.039  26.983  1.00  0.00     0.031 C 
ATOM     39  C   UNL A   1      46.448  27.503  29.247  1.00  0.00     0.029 A 
ATOM     40  C   UNL A   1      47.132  27.040  28.050  1.00  0.00     0.049 A 
ATOM     41  H   UNL A   1      46.578  25.167  27.138  1.00  0.00     0.167 HD
ATOM     42  C   UNL A   1      40.610  29.039  28.608  1.00  0.00     0.037 A 
ATOM     43  C   UNL A   1      47.746  27.855  27.134  1.00  0.00     0.037 A 
ATOM     44  C   UNL A   1      41.790  29.684  29.169  1.00  0.00     0.049 A 
ATOM     45  C   UNL A   1      47.168  29.254  27.127  1.00  0.00     0.074 A 
ATOM     46  C   UNL A   1      42.608  29.397  30.248  1.00  0.00     0.029 A 
ATOM     47  N   UNL A   1      42.514  30.506  28.343  1.00  0.00    -0.354 N 
ATOM     48  N   UNL A   1      46.013  29.566  27.650  1.00  0.00    -0.248 NA
ATOM     49  C   UNL A   1      47.822  30.401  26.502  1.00  0.00     0.031 C 
ATOM     50  C   UNL A   1      43.849  30.070  30.036  1.00  0.00     0.029 A 
ATOM     51  C   UNL A   1      43.778  30.740  28.828  1.00  0.00     0.049 A 
ATOM     52  H   UNL A   1      42.169  30.885  27.503  1.00  0.00     0.167 HD
ATOM     53  C   UNL A   1      45.774  30.899  27.484  1.00  0.00     0.074 A 
ATOM     54  C   UNL A   1      46.907  31.367  26.699  1.00  0.00     0.031 C 
ATOM     55  C   UNL A   1      44.676  31.525  28.004  1.00  0.00     0.037 A 
BRANCH  42  56
ATOM     56  C   UNL A   1      39.247  29.203  29.214  1.00  0.00     0.057 A 
ATOM     57  C   UNL A   1      38.197  29.691  28.407  1.00  0.00     0.134 A 
ATOM     58  C   UNL A   1      38.873  28.880  30.528  1.00  0.00     0.134 A 
ATOM     59  F   UNL A   1      38.383  30.014  27.120  1.00  0.00    -0.206 F 
ATOM     60  C   UNL A   1      36.892  29.870  28.869  1.00  0.00     0.040 A 
ATOM     61  C   UNL A   1      37.567  29.072  31.010  1.00  0.00     0.040 A 
ATOM     62  F   UNL A   1      39.728  28.326  31.395  1.00  0.00    -0.206 F 
ATOM     63  C   UNL A   1      36.571  29.566  30.180  1.00  0.00     0.006 A 
ENDBRANCH  42  56
BRANCH  43  64
ATOM     64  C   UNL A   1      48.139  27.085  25.910  1.00  0.00     0.057 A 
ATOM     65  C   UNL A   1      47.374  27.303  24.745  1.00  0.00     0.134 A 
ATOM     66  C   UNL A   1      49.467  26.681  25.739  1.00  0.00     0.134 A 
ATOM     67  F   UNL A   1      46.083  27.660  24.843  1.00  0.00    -0.206 F 
ATOM     68  C   UNL A   1      47.971  27.357  23.485  1.00  0.00     0.040 A 
ATOM     69  C   UNL A   1      50.068  26.712  24.476  1.00  0.00     0.040 A 
ATOM     70  F   UNL A   1      50.240  26.407  26.799  1.00  0.00    -0.206 F 
ATOM     71  C   UNL A   1      49.335  27.113  23.359  1.00  0.00     0.006 A 
ENDBRANCH  43  64
BRANCH  55  72
ATOM     72  C   UNL A   1      44.350  32.963  27.733  1.00  0.00     0.057 A 
ATOM     73  C   UNL A   1      44.366  33.925  28.744  1.00  0.00     0.134 A 
ATOM     74  C   UNL A   1      43.950  33.424  26.459  1.00  0.00     0.134 A 
ATOM     75  F   UNL A   1      44.591  33.582  30.021  1.00  0.00    -0.206 F 
ATOM     76  C   UNL A   1      44.140  35.278  28.479  1.00  0.00     0.040 A 
ATOM     77  C   UNL A   1      43.644  34.757  26.200  1.00  0.00     0.040 A 
ATOM     78  F   UNL A   1      43.870  32.623  25.389  1.00  0.00    -0.206 F 
ATOM     79  C   UNL A   1      43.781  35.698  27.203  1.00  0.00     0.006 A 
ENDBRANCH  55  72
ENDBRANCH  29  30
ENDBRANCH  22  24
ENDBRANCH  21  22
ENDBRANCH  20  21
ENDBRANCH   1  20
TORSDOF 14
ENDMDL
MODEL 2
REMARK VINA RESULT:     -10.8      5.665     10.435
REMARK SMILES Cc1c(F)cc(C(=O)OCCOC(=O)c2ccc(-c3c4nc(c(-c5c(F)cccc5F)c5ccc([nH]5)c(-c5c(F)cccc5F)c5nc(c(-c6c(F)cccc6F)c6ccc3[nH]6)C=C5)C=C4)cc2)cc1S(=O)(=O)NC#N
REMARK SMILES IDX 10 1 9 2 7 3 8 4 6 5 1 6 2 7 3 8 70 9 4 10 5 11 69 12 71 13
REMARK SMILES IDX 72 14 73 15 74 16 75 18 76 19 11 20 12 21 13 22 14 23 15 24
REMARK SMILES IDX 16 25 68 26 17 27 67 28 18 29 19 30 20 31 61 32 21 33 66 34
REMARK SMILES IDX 60 35 62 36 22 37 65 38 59 39 58 40 23 42 49 43 32 44 48 45
REMARK SMILES IDX 33 46 36 47 47 48 63 49 34 50 35 51 46 53 64 54 37 55 24 56
REMARK SMILES IDX 25 57 30 58 26 59 27 60 29 61 31 62 28 63 50 64 51 65 56 66
REMARK SMILES IDX 52 67 53 68 55 69 57 70 54 71 38 72 39 73 44 74 40 75 41 76
REMARK SMILES IDX 43 77 45 78 42 79
REMARK H PARENT 74 17 62 41 36 52
REMARK Flexibility Score: inf
ROOT
ATOM      1  C   UNL A   1      33.161  30.288  27.061  1.00  0.00     0.275 C 
ENDROOT
BRANCH   1   2
ATOM      2  O   UNL A   1      32.905  30.311  25.632  1.00  0.00    -0.458 OA
BRANCH   2   3
ATOM      3  C   UNL A   1      32.910  29.100  25.014  1.00  0.00     0.338 C 
ATOM      4  O   UNL A   1      33.865  28.338  24.946  1.00  0.00    -0.246 OA
BRANCH   3   5
ATOM      5  C   UNL A   1      31.556  28.678  24.557  1.00  0.00     0.064 A 
ATOM      6  C   UNL A   1      27.665  27.064  23.536  1.00  0.00     0.049 C 
ATOM      7  C   UNL A   1      28.976  27.727  23.795  1.00  0.00     0.005 A 
ATOM      8  C   UNL A   1      29.926  26.915  24.444  1.00  0.00     0.128 A 
ATOM      9  C   UNL A   1      29.374  29.025  23.444  1.00  0.00     0.095 A 
ATOM     10  F   UNL A   1      29.608  25.651  24.770  1.00  0.00    -0.207 F 
ATOM     11  C   UNL A   1      31.198  27.356  24.774  1.00  0.00     0.055 A 
ATOM     12  C   UNL A   1      30.646  29.506  23.902  1.00  0.00     0.038 A 
BRANCH   9  13
ATOM     13  S   UNL A   1      28.508  30.269  22.494  1.00  0.00     0.270 S 
ATOM     14  O   UNL A   1      28.199  29.628  21.231  1.00  0.00    -0.201 OA
ATOM     15  O   UNL A   1      27.420  30.690  23.360  1.00  0.00    -0.201 OA
BRANCH  13  16
ATOM     16  N   UNL A   1      29.215  31.700  22.068  1.00  0.00    -0.215 NA
ATOM     17  H   UNL A   1      29.980  31.657  21.449  1.00  0.00     0.193 HD
BRANCH  16  18
ATOM     18  C   UNL A   1      28.844  32.894  22.484  1.00  0.00     0.191 C 
ATOM     19  N   UNL A   1      28.530  33.872  23.004  1.00  0.00    -0.172 NA
ENDBRANCH  16  18
ENDBRANCH  13  16
ENDBRANCH   9  13
ENDBRANCH   3   5
ENDBRANCH   2   3
ENDBRANCH   1   2
BRANCH   1  20
ATOM     20  C   UNL A   1      33.678  31.621  27.615  1.00  0.00     0.275 C 
BRANCH  20  21
ATOM     21  O   UNL A   1      34.470  31.422  28.789  1.00  0.00    -0.458 OA
BRANCH  21  22
ATOM     22  C   UNL A   1      35.791  31.436  28.517  1.00  0.00     0.338 C 
ATOM     23  O   UNL A   1      36.478  32.410  28.245  1.00  0.00    -0.246 OA
BRANCH  22  24
ATOM     24  C   UNL A   1      36.310  30.077  28.354  1.00  0.00     0.060 A 
ATOM     25  C   UNL A   1      36.507  29.423  29.583  1.00  0.00     0.016 A 
ATOM     26  C   UNL A   1      37.254  30.027  27.331  1.00  0.00     0.016 A 
ATOM     27  C   UNL A   1      37.783  29.088  29.955  1.00  0.00     0.010 A 
ATOM     28  C   UNL A   1      38.526  29.687  27.693  1.00  0.00     0.010 A 
ATOM     29  C   UNL A   1      38.781  29.313  29.023  1.00  0.00    -0.014 A 
BRANCH  29  30
ATOM     30  C   UNL A   1      40.134  28.895  29.252  1.00  0.00     0.031 A 
ATOM     31  C   UNL A   1      40.361  27.480  28.914  1.00  0.00     0.074 A 
ATOM     32  C   UNL A   1      41.013  29.899  29.456  1.00  0.00     0.049 A 
ATOM     33  N   UNL A   1      41.386  26.803  29.266  1.00  0.00    -0.248 NA
ATOM     34  C   UNL A   1      39.364  26.649  28.211  1.00  0.00     0.031 C 
ATOM     35  C   UNL A   1      42.434  29.975  29.177  1.00  0.00     0.029 A 
ATOM     36  N   UNL A   1      40.752  31.083  30.165  1.00  0.00    -0.354 N 
ATOM     37  C   UNL A   1      41.388  25.675  28.469  1.00  0.00     0.074 A 
ATOM     38  C   UNL A   1      40.036  25.511  28.015  1.00  0.00     0.031 C 
ATOM     39  C   UNL A   1      42.981  30.941  29.943  1.00  0.00     0.029 A 
ATOM     40  C   UNL A   1      41.946  31.401  30.855  1.00  0.00     0.049 A 
ATOM     41  H   UNL A   1      39.908  31.590  30.179  1.00  0.00     0.167 HD
ATOM     42  C   UNL A   1      42.597  25.170  28.102  1.00  0.00     0.037 A 
ATOM     43  C   UNL A   1      41.986  31.266  32.219  1.00  0.00     0.037 A 
ATOM     44  C   UNL A   1      43.642  25.995  28.692  1.00  0.00     0.049 A 
ATOM     45  C   UNL A   1      42.859  30.110  32.659  1.00  0.00     0.074 A 
ATOM     46  C   UNL A   1      44.332  27.112  28.254  1.00  0.00     0.029 A 
ATOM     47  N   UNL A   1      43.770  25.973  30.058  1.00  0.00    -0.354 N 
ATOM     48  N   UNL A   1      43.239  29.144  31.867  1.00  0.00    -0.248 NA
ATOM     49  C   UNL A   1      43.340  29.928  34.026  1.00  0.00     0.031 C 
ATOM     50  C   UNL A   1      44.870  27.762  29.406  1.00  0.00     0.029 A 
ATOM     51  C   UNL A   1      44.488  27.045  30.526  1.00  0.00     0.049 A 
ATOM     52  H   UNL A   1      43.391  25.271  30.635  1.00  0.00     0.167 HD
ATOM     53  C   UNL A   1      44.014  28.257  32.557  1.00  0.00     0.074 A 
ATOM     54  C   UNL A   1      43.993  28.757  33.923  1.00  0.00     0.031 C 
ATOM     55  C   UNL A   1      44.621  27.187  31.963  1.00  0.00     0.037 A 
BRANCH  42  56
ATOM     56  C   UNL A   1      42.895  24.125  27.066  1.00  0.00     0.057 A 
ATOM     57  C   UNL A   1      42.769  22.763  27.416  1.00  0.00     0.134 A 
ATOM     58  C   UNL A   1      43.263  24.354  25.731  1.00  0.00     0.134 A 
ATOM     59  F   UNL A   1      42.393  22.379  28.643  1.00  0.00    -0.206 F 
ATOM     60  C   UNL A   1      43.011  21.715  26.526  1.00  0.00     0.040 A 
ATOM     61  C   UNL A   1      43.527  23.307  24.831  1.00  0.00     0.040 A 
ATOM     62  F   UNL A   1      43.343  25.586  25.216  1.00  0.00    -0.206 F 
ATOM     63  C   UNL A   1      43.400  21.983  25.226  1.00  0.00     0.006 A 
ENDBRANCH  42  56
BRANCH  43  64
ATOM     64  C   UNL A   1      40.667  31.624  32.833  1.00  0.00     0.057 A 
ATOM     65  C   UNL A   1      39.851  30.558  33.261  1.00  0.00     0.134 A 
ATOM     66  C   UNL A   1      40.515  32.851  33.488  1.00  0.00     0.134 A 
ATOM     67  F   UNL A   1      39.925  29.363  32.650  1.00  0.00    -0.206 F 
ATOM     68  C   UNL A   1      39.105  30.641  34.438  1.00  0.00     0.040 A 
ATOM     69  C   UNL A   1      39.753  32.949  34.657  1.00  0.00     0.040 A 
ATOM     70  F   UNL A   1      41.221  33.923  33.103  1.00  0.00    -0.206 F 
ATOM     71  C   UNL A   1      39.101  31.827  35.166  1.00  0.00     0.006 A 
ENDBRANCH  43  64
BRANCH  55  72
ATOM     72  C   UNL A   1      45.381  26.148  32.731  1.00  0.00     0.057 A 
ATOM     73  C   UNL A   1      46.772  26.048  32.659  1.00  0.00     0.134 A 
ATOM     74  C   UNL A   1      44.741  25.171  33.527  1.00  0.00     0.134 A 
ATOM     75  F   UNL A   1      47.478  26.828  31.826  1.00  0.00    -0.206 F 
ATOM     76  C   UNL A   1      47.488  25.134  33.435  1.00  0.00     0.040 A 
ATOM     77  C   UNL A   1      45.439  24.203  34.242  1.00  0.00     0.040 A 
ATOM     78  F   UNL A   1      43.412  25.123  33.687  1.00  0.00    -0.206 F 
ATOM     79  C   UNL A   1      46.822  24.209  34.233  1.00  0.00     0.006 A 
ENDBRANCH  55  72
ENDBRANCH  29  30
ENDBRANCH  22  24
ENDBRANCH  21  22
ENDBRANCH  20  21
ENDBRANCH   1  20
TORSDOF 14
ENDMDL
MODEL 3
REMARK VINA RESULT:     -10.7      5.834     11.340
REMARK SMILES Cc1c(F)cc(C(=O)OCCOC(=O)c2ccc(-c3c4nc(c(-c5c(F)cccc5F)c5ccc([nH]5)c(-c5c(F)cccc5F)c5nc(c(-c6c(F)cccc6F)c6ccc3[nH]6)C=C5)C=C4)cc2)cc1S(=O)(=O)NC#N
REMARK SMILES IDX 10 1 9 2 7 3 8 4 6 5 1 6 2 7 3 8 70 9 4 10 5 11 69 12 71 13
REMARK SMILES IDX 72 14 73 15 74 16 75 18 76 19 11 20 12 21 13 22 14 23 15 24
REMARK SMILES IDX 16 25 68 26 17 27 67 28 18 29 19 30 20 31 61 32 21 33 66 34
REMARK SMILES IDX 60 35 62 36 22 37 65 38 59 39 58 40 23 42 49 43 32 44 48 45
REMARK SMILES IDX 33 46 36 47 47 48 63 49 34 50 35 51 46 53 64 54 37 55 24 56
REMARK SMILES IDX 25 57 30 58 26 59 27 60 29 61 31 62 28 63 50 64 51 65 56 66
REMARK SMILES IDX 52 67 53 68 55 69 57 70 54 71 38 72 39 73 44 74 40 75 41 76
REMARK SMILES IDX 43 77 45 78 42 79
REMARK H PARENT 74 17 62 41 36 52
REMARK Flexibility Score: inf
ROOT
ATOM      1  C   UNL A   1      33.286  31.511  26.946  1.00  0.00     0.275 C 
ENDROOT
BRANCH   1   2
ATOM      2  O   UNL A   1      33.203  32.391  28.097  1.00  0.00    -0.458 OA
BRANCH   2   3
ATOM      3  C   UNL A   1      34.348  33.052  28.418  1.00  0.00     0.338 C 
ATOM      4  O   UNL A   1      35.191  33.443  27.622  1.00  0.00    -0.246 OA
BRANCH   3   5
ATOM      5  C   UNL A   1      34.413  33.431  29.856  1.00  0.00     0.064 A 
ATOM      6  C   UNL A   1      34.908  34.146  34.103  1.00  0.00     0.049 C 
ATOM      7  C   UNL A   1      34.652  34.016  32.639  1.00  0.00     0.005 A 
ATOM      8  C   UNL A   1      35.008  32.769  32.090  1.00  0.00     0.128 A 
ATOM      9  C   UNL A   1      34.078  34.959  31.773  1.00  0.00     0.095 A 
ATOM     10  F   UNL A   1      35.528  31.818  32.882  1.00  0.00    -0.207 F 
ATOM     11  C   UNL A   1      34.849  32.462  30.747  1.00  0.00     0.055 A 
ATOM     12  C   UNL A   1      34.036  34.671  30.368  1.00  0.00     0.038 A 
BRANCH   9  13
ATOM     13  S   UNL A   1      33.374  36.563  32.135  1.00  0.00     0.270 S 
ATOM     14  O   UNL A   1      31.998  36.295  32.499  1.00  0.00    -0.201 OA
ATOM     15  O   UNL A   1      34.271  37.135  33.124  1.00  0.00    -0.201 OA
BRANCH  13  16
ATOM     16  N   UNL A   1      33.274  37.755  30.995  1.00  0.00    -0.215 NA
ATOM     17  H   UNL A   1      33.205  38.683  31.319  1.00  0.00     0.193 HD
BRANCH  16  18
ATOM     18  C   UNL A   1      33.280  37.573  29.690  1.00  0.00     0.191 C 
ATOM     19  N   UNL A   1      33.256  37.582  28.539  1.00  0.00    -0.172 NA
ENDBRANCH  16  18
ENDBRANCH  13  16
ENDBRANCH   9  13
ENDBRANCH   3   5
ENDBRANCH   2   3
ENDBRANCH   1   2
BRANCH   1  20
ATOM     20  C   UNL A   1      32.871  30.065  27.245  1.00  0.00     0.275 C 
BRANCH  20  21
ATOM     21  O   UNL A   1      33.772  29.448  28.169  1.00  0.00    -0.458 OA
BRANCH  21  22
ATOM     22  C   UNL A   1      34.980  29.212  27.618  1.00  0.00     0.338 C 
ATOM     23  O   UNL A   1      35.271  28.324  26.828  1.00  0.00    -0.246 OA
BRANCH  22  24
ATOM     24  C   UNL A   1      36.017  30.026  28.254  1.00  0.00     0.060 A 
ATOM     25  C   UNL A   1      37.031  30.406  27.358  1.00  0.00     0.016 A 
ATOM     26  C   UNL A   1      36.300  29.554  29.534  1.00  0.00     0.016 A 
ATOM     27  C   UNL A   1      38.301  29.929  27.558  1.00  0.00     0.010 A 
ATOM     28  C   UNL A   1      37.565  29.084  29.743  1.00  0.00     0.010 A 
ATOM     29  C   UNL A   1      38.514  29.199  28.714  1.00  0.00    -0.014 A 
BRANCH  29  30
ATOM     30  C   UNL A   1      39.825  28.750  29.090  1.00  0.00     0.031 A 
ATOM     31  C   UNL A   1      40.068  27.340  28.744  1.00  0.00     0.074 A 
ATOM     32  C   UNL A   1      40.689  29.734  29.420  1.00  0.00     0.049 A 
ATOM     33  N   UNL A   1      41.034  26.636  29.196  1.00  0.00    -0.248 NA
ATOM     34  C   UNL A   1      39.148  26.544  27.909  1.00  0.00     0.031 C 
ATOM     35  C   UNL A   1      42.134  29.790  29.311  1.00  0.00     0.029 A 
ATOM     36  N   UNL A   1      40.365  30.905  30.123  1.00  0.00    -0.354 N 
ATOM     37  C   UNL A   1      41.112  25.527  28.376  1.00  0.00     0.074 A 
ATOM     38  C   UNL A   1      39.821  25.399  27.764  1.00  0.00     0.031 C 
ATOM     39  C   UNL A   1      42.603  30.727  30.159  1.00  0.00     0.029 A 
ATOM     40  C   UNL A   1      41.475  31.185  30.956  1.00  0.00     0.049 A 
ATOM     41  H   UNL A   1      39.533  31.427  30.051  1.00  0.00     0.167 HD
ATOM     42  C   UNL A   1      42.348  25.009  28.140  1.00  0.00     0.037 A 
ATOM     43  C   UNL A   1      41.353  31.017  32.311  1.00  0.00     0.037 A 
ATOM     44  C   UNL A   1      43.330  25.801  28.869  1.00  0.00     0.049 A 
ATOM     45  C   UNL A   1      42.151  29.835  32.821  1.00  0.00     0.074 A 
ATOM     46  C   UNL A   1      44.083  26.915  28.543  1.00  0.00     0.029 A 
ATOM     47  N   UNL A   1      43.296  25.745  30.239  1.00  0.00    -0.354 N 
ATOM     48  N   UNL A   1      42.606  28.882  32.054  1.00  0.00    -0.248 NA
ATOM     49  C   UNL A   1      42.466  29.613  34.229  1.00  0.00     0.031 C 
ATOM     50  C   UNL A   1      44.493  27.528  29.766  1.00  0.00     0.029 A 
ATOM     51  C   UNL A   1      43.971  26.793  30.815  1.00  0.00     0.049 A 
ATOM     52  H   UNL A   1      42.842  25.037  30.750  1.00  0.00     0.167 HD
ATOM     53  C   UNL A   1      43.281  27.965  32.807  1.00  0.00     0.074 A 
ATOM     54  C   UNL A   1      43.108  28.433  34.173  1.00  0.00     0.031 C 
ATOM     55  C   UNL A   1      43.938  26.898  32.261  1.00  0.00     0.037 A 
BRANCH  42  56
ATOM     56  C   UNL A   1      42.750  23.984  27.120  1.00  0.00     0.057 A 
ATOM     57  C   UNL A   1      42.619  22.615  27.442  1.00  0.00     0.134 A 
ATOM     58  C   UNL A   1      43.222  24.236  25.823  1.00  0.00     0.134 A 
ATOM     59  F   UNL A   1      42.150  22.208  28.629  1.00  0.00    -0.206 F 
ATOM     60  C   UNL A   1      42.953  21.584  26.563  1.00  0.00     0.040 A 
ATOM     61  C   UNL A   1      43.579  23.207  24.935  1.00  0.00     0.040 A 
ATOM     62  F   UNL A   1      43.323  25.477  25.331  1.00  0.00    -0.206 F 
ATOM     63  C   UNL A   1      43.443  21.875  25.303  1.00  0.00     0.006 A 
ENDBRANCH  42  56
BRANCH  43  64
ATOM     64  C   UNL A   1      39.977  31.385  32.776  1.00  0.00     0.057 A 
ATOM     65  C   UNL A   1      39.127  30.327  33.157  1.00  0.00     0.134 A 
ATOM     66  C   UNL A   1      39.753  32.632  33.369  1.00  0.00     0.134 A 
ATOM     67  F   UNL A   1      39.269  29.113  32.599  1.00  0.00    -0.206 F 
ATOM     68  C   UNL A   1      38.266  30.444  34.249  1.00  0.00     0.040 A 
ATOM     69  C   UNL A   1      38.877  32.764  34.451  1.00  0.00     0.040 A 
ATOM     70  F   UNL A   1      40.489  33.697  33.019  1.00  0.00    -0.206 F 
ATOM     71  C   UNL A   1      38.182  31.654  34.931  1.00  0.00     0.006 A 
ENDBRANCH  43  64
BRANCH  55  72
ATOM     72  C   UNL A   1      44.587  25.828  33.086  1.00  0.00     0.057 A 
ATOM     73  C   UNL A   1      43.857  25.038  33.975  1.00  0.00     0.134 A 
ATOM     74  C   UNL A   1      45.980  25.590  33.061  1.00  0.00     0.134 A 
ATOM     75  F   UNL A   1      42.552  25.266  34.191  1.00  0.00    -0.206 F 
ATOM     76  C   UNL A   1      44.445  23.989  34.685  1.00  0.00     0.040 A 
ATOM     77  C   UNL A   1      46.590  24.600  33.825  1.00  0.00     0.040 A 
ATOM     78  F   UNL A   1      46.819  26.273  32.272  1.00  0.00    -0.206 F 
ATOM     79  C   UNL A   1      45.816  23.764  34.608  1.00  0.00     0.006 A 
ENDBRANCH  55  72
ENDBRANCH  29  30
ENDBRANCH  22  24
ENDBRANCH  21  22
ENDBRANCH  20  21
ENDBRANCH   1  20
TORSDOF 14
ENDMDL
