MODEL 1
REMARK VINA RESULT:     -12.5      0.000      0.000
REMARK SMILES O=C1NC(=S)/C(=C/c2ccc(-c3ccc(C(=O)OCCOC(=O)c4ccc(-c5c6nc(c(-c7c(F)cccc7F)c7ccc([nH]7)c(-c7c(F)cccc7F)c7nc(c(-c8c(F)cccc8F)c8ccc5[nH]8)C=C7)C=C6)cc4)cc3)o2)S1
REMARK SMILES IDX 19 1 18 2 16 3 17 4 15 5 12 6 13 7 79 8 14 9 78 10 11 11
REMARK SMILES IDX 8 12 9 13 80 14 10 15 7 16 1 17 2 18 3 19 81 20 4 21 6 23
REMARK SMILES IDX 5 24 20 25 21 26 22 27 23 28 24 29 25 30 77 31 26 32 76 33
REMARK SMILES IDX 27 34 28 35 29 36 70 37 30 38 75 39 69 40 71 41 31 42 74 43
REMARK SMILES IDX 68 44 67 45 32 47 58 48 41 49 57 50 42 51 45 52 56 53 72 54
REMARK SMILES IDX 43 55 44 56 55 58 73 59 46 60 33 61 34 62 39 63 35 64 36 65
REMARK SMILES IDX 38 66 40 67 37 68 59 69 60 70 65 71 61 72 62 73 64 74 66 75
REMARK SMILES IDX 63 76 47 77 48 78 53 79 49 80 50 81 52 82 54 83 51 84
REMARK H PARENT 3 22 71 46 45 57
REMARK Flexibility Score: inf
ROOT
ATOM      1  C   UNL A   1      42.742  20.337  26.176  1.00  0.00     0.275 C 
ENDROOT
BRANCH   1   2
ATOM      2  O   UNL A   1      41.406  20.783  26.496  1.00  0.00    -0.458 OA
BRANCH   2   3
ATOM      3  C   UNL A   1      40.403  20.038  25.973  1.00  0.00     0.338 C 
ATOM      4  O   UNL A   1      40.431  18.837  25.753  1.00  0.00    -0.246 OA
BRANCH   3   5
ATOM      5  C   UNL A   1      39.191  20.855  25.729  1.00  0.00     0.060 A 
ATOM      6  C   UNL A   1      36.823  22.366  25.640  1.00  0.00     0.017 A 
ATOM      7  C   UNL A   1      37.999  22.938  26.123  1.00  0.00     0.013 A 
ATOM      8  C   UNL A   1      36.856  21.053  25.142  1.00  0.00     0.013 A 
ATOM      9  C   UNL A   1      39.159  22.174  26.199  1.00  0.00     0.016 A 
ATOM     10  C   UNL A   1      38.041  20.302  25.168  1.00  0.00     0.016 A 
BRANCH   6  11
ATOM     11  C   UNL A   1      35.573  23.074  25.823  1.00  0.00     0.134 A 
ATOM     12  C   UNL A   1      34.202  24.786  25.482  1.00  0.00     0.128 A 
ATOM     13  C   UNL A   1      33.667  24.000  26.497  1.00  0.00     0.051 A 
ATOM     14  O   UNL A   1      35.370  24.186  25.063  1.00  0.00    -0.457 OA
ATOM     15  C   UNL A   1      34.539  22.913  26.712  1.00  0.00     0.051 A 
BRANCH  12  16
ATOM     16  C   UNL A   1      33.692  25.979  24.899  1.00  0.00     0.065 C 
ATOM     17  O   UNL A   1      32.730  25.573  19.961  1.00  0.00    -0.261 OA
ATOM     18  C   UNL A   1      32.902  25.911  21.116  1.00  0.00     0.289 C 
ATOM     19  N   UNL A   1      32.697  27.156  21.625  1.00  0.00    -0.307 N 
ATOM     20  S   UNL A   1      33.479  24.860  22.384  1.00  0.00    -0.025 SA
ATOM     21  C   UNL A   1      32.946  27.376  22.954  1.00  0.00     0.120 C 
ATOM     22  H   UNL A   1      32.377  27.887  21.047  1.00  0.00     0.171 HD
ATOM     23  C   UNL A   1      33.408  26.106  23.593  1.00  0.00     0.056 C 
ATOM     24  S   UNL A   1      32.753  28.900  23.604  1.00  0.00    -0.059 S 
ENDBRANCH  12  16
ENDBRANCH   6  11
ENDBRANCH   3   5
ENDBRANCH   2   3
ENDBRANCH   1   2
BRANCH   1  25
ATOM     25  C   UNL A   1      43.549  21.424  25.462  1.00  0.00     0.275 C 
BRANCH  25  26
ATOM     26  O   UNL A   1      42.737  22.581  25.185  1.00  0.00    -0.458 OA
BRANCH  26  27
ATOM     27  C   UNL A   1      43.400  23.758  25.226  1.00  0.00     0.338 C 
ATOM     28  O   UNL A   1      44.389  24.077  24.587  1.00  0.00    -0.246 OA
BRANCH  27  29
ATOM     29  C   UNL A   1      42.713  24.710  26.109  1.00  0.00     0.060 A 
ATOM     30  C   UNL A   1      43.112  26.037  26.053  1.00  0.00     0.016 A 
ATOM     31  C   UNL A   1      41.879  24.276  27.134  1.00  0.00     0.016 A 
ATOM     32  C   UNL A   1      42.838  26.896  27.109  1.00  0.00     0.010 A 
ATOM     33  C   UNL A   1      41.463  25.191  28.110  1.00  0.00     0.010 A 
ATOM     34  C   UNL A   1      41.978  26.501  28.140  1.00  0.00    -0.014 A 
BRANCH  34  35
ATOM     35  C   UNL A   1      41.633  27.457  29.234  1.00  0.00     0.031 A 
ATOM     36  C   UNL A   1      42.427  27.478  30.517  1.00  0.00     0.074 A 
ATOM     37  C   UNL A   1      40.607  28.321  29.078  1.00  0.00     0.049 A 
ATOM     38  N   UNL A   1      42.169  28.099  31.641  1.00  0.00    -0.248 NA
ATOM     39  C   UNL A   1      43.665  26.683  30.546  1.00  0.00     0.031 C 
ATOM     40  C   UNL A   1      39.779  28.452  27.875  1.00  0.00     0.029 A 
ATOM     41  N   UNL A   1      40.084  29.261  29.933  1.00  0.00    -0.354 N 
ATOM     42  C   UNL A   1      43.177  27.727  32.524  1.00  0.00     0.074 A 
ATOM     43  C   UNL A   1      44.044  26.814  31.810  1.00  0.00     0.031 C 
ATOM     44  C   UNL A   1      38.893  29.441  28.049  1.00  0.00     0.029 A 
ATOM     45  C   UNL A   1      39.004  29.935  29.413  1.00  0.00     0.049 A 
ATOM     46  H   UNL A   1      40.448  29.435  30.831  1.00  0.00     0.167 HD
ATOM     47  C   UNL A   1      43.362  28.113  33.810  1.00  0.00     0.037 A 
ATOM     48  C   UNL A   1      38.153  30.809  29.981  1.00  0.00     0.037 A 
ATOM     49  C   UNL A   1      42.516  29.057  34.500  1.00  0.00     0.049 A 
ATOM     50  C   UNL A   1      38.336  31.167  31.426  1.00  0.00     0.074 A 
ATOM     51  C   UNL A   1      42.627  29.526  35.798  1.00  0.00     0.029 A 
ATOM     52  N   UNL A   1      41.408  29.680  33.945  1.00  0.00    -0.354 N 
ATOM     53  N   UNL A   1      39.267  30.776  32.261  1.00  0.00    -0.248 NA
ATOM     54  C   UNL A   1      37.342  32.074  32.013  1.00  0.00     0.031 C 
ATOM     55  C   UNL A   1      41.555  30.389  36.045  1.00  0.00     0.029 A 
ATOM     56  C   UNL A   1      40.813  30.510  34.881  1.00  0.00     0.049 A 
ATOM     57  H   UNL A   1      41.092  29.553  33.021  1.00  0.00     0.167 HD
ATOM     58  C   UNL A   1      38.987  31.409  33.463  1.00  0.00     0.074 A 
ATOM     59  C   UNL A   1      37.809  32.223  33.243  1.00  0.00     0.031 C 
ATOM     60  C   UNL A   1      39.646  31.323  34.645  1.00  0.00     0.037 A 
BRANCH  47  61
ATOM     61  C   UNL A   1      44.497  27.490  34.575  1.00  0.00     0.057 A 
ATOM     62  C   UNL A   1      45.805  27.990  34.516  1.00  0.00     0.134 A 
ATOM     63  C   UNL A   1      44.267  26.393  35.417  1.00  0.00     0.134 A 
ATOM     64  F   UNL A   1      46.101  29.032  33.725  1.00  0.00    -0.206 F 
ATOM     65  C   UNL A   1      46.845  27.405  35.244  1.00  0.00     0.040 A 
ATOM     66  C   UNL A   1      45.291  25.820  36.174  1.00  0.00     0.040 A 
ATOM     67  F   UNL A   1      43.038  25.868  35.532  1.00  0.00    -0.206 F 
ATOM     68  C   UNL A   1      46.587  26.321  36.082  1.00  0.00     0.006 A 
ENDBRANCH  47  61
BRANCH  48  69
ATOM     69  C   UNL A   1      37.022  31.366  29.194  1.00  0.00     0.057 A 
ATOM     70  C   UNL A   1      37.043  32.687  28.733  1.00  0.00     0.134 A 
ATOM     71  C   UNL A   1      35.894  30.596  28.882  1.00  0.00     0.134 A 
ATOM     72  F   UNL A   1      38.085  33.484  29.014  1.00  0.00    -0.206 F 
ATOM     73  C   UNL A   1      35.979  33.226  28.007  1.00  0.00     0.040 A 
ATOM     74  C   UNL A   1      34.839  31.110  28.127  1.00  0.00     0.040 A 
ATOM     75  F   UNL A   1      35.811  29.320  29.288  1.00  0.00    -0.206 F 
ATOM     76  C   UNL A   1      34.876  32.433  27.696  1.00  0.00     0.006 A 
ENDBRANCH  48  69
BRANCH  60  77
ATOM     77  C   UNL A   1      39.137  32.171  35.774  1.00  0.00     0.057 A 
ATOM     78  C   UNL A   1      39.535  33.503  35.942  1.00  0.00     0.134 A 
ATOM     79  C   UNL A   1      38.216  31.649  36.693  1.00  0.00     0.134 A 
ATOM     80  F   UNL A   1      40.427  34.058  35.108  1.00  0.00    -0.206 F 
ATOM     81  C   UNL A   1      39.055  34.278  37.001  1.00  0.00     0.040 A 
ATOM     82  C   UNL A   1      37.706  32.424  37.735  1.00  0.00     0.040 A 
ATOM     83  F   UNL A   1      37.789  30.382  36.585  1.00  0.00    -0.206 F 
ATOM     84  C   UNL A   1      38.133  33.740  37.895  1.00  0.00     0.006 A 
ENDBRANCH  60  77
ENDBRANCH  34  35
ENDBRANCH  27  29
ENDBRANCH  26  27
ENDBRANCH  25  26
ENDBRANCH   1  25
TORSDOF 13
ENDMDL
MODEL 2
REMARK VINA RESULT:     -12.5      1.486      2.316
REMARK SMILES O=C1NC(=S)/C(=C/c2ccc(-c3ccc(C(=O)OCCOC(=O)c4ccc(-c5c6nc(c(-c7c(F)cccc7F)c7ccc([nH]7)c(-c7c(F)cccc7F)c7nc(c(-c8c(F)cccc8F)c8ccc5[nH]8)C=C7)C=C6)cc4)cc3)o2)S1
REMARK SMILES IDX 19 1 18 2 16 3 17 4 15 5 12 6 13 7 79 8 14 9 78 10 11 11
REMARK SMILES IDX 8 12 9 13 80 14 10 15 7 16 1 17 2 18 3 19 81 20 4 21 6 23
REMARK SMILES IDX 5 24 20 25 21 26 22 27 23 28 24 29 25 30 77 31 26 32 76 33
REMARK SMILES IDX 27 34 28 35 29 36 70 37 30 38 75 39 69 40 71 41 31 42 74 43
REMARK SMILES IDX 68 44 67 45 32 47 58 48 41 49 57 50 42 51 45 52 56 53 72 54
REMARK SMILES IDX 43 55 44 56 55 58 73 59 46 60 33 61 34 62 39 63 35 64 36 65
REMARK SMILES IDX 38 66 40 67 37 68 59 69 60 70 65 71 61 72 62 73 64 74 66 75
REMARK SMILES IDX 63 76 47 77 48 78 53 79 49 80 50 81 52 82 54 83 51 84
REMARK H PARENT 3 22 71 46 45 57
REMARK Flexibility Score: inf
ROOT
ATOM      1  C   UNL A   1      42.756  20.871  26.115  1.00  0.00     0.275 C 
ENDROOT
BRANCH   1   2
ATOM      2  O   UNL A   1      41.377  21.124  25.770  1.00  0.00    -0.458 OA
BRANCH   2   3
ATOM      3  C   UNL A   1      40.558  21.406  26.810  1.00  0.00     0.338 C 
ATOM      4  O   UNL A   1      40.847  21.350  27.996  1.00  0.00    -0.246 OA
BRANCH   3   5
ATOM      5  C   UNL A   1      39.225  21.859  26.346  1.00  0.00     0.060 A 
ATOM      6  C   UNL A   1      36.850  22.720  25.116  1.00  0.00     0.017 A 
ATOM      7  C   UNL A   1      37.226  21.380  25.047  1.00  0.00     0.013 A 
ATOM      8  C   UNL A   1      37.639  23.614  25.859  1.00  0.00     0.013 A 
ATOM      9  C   UNL A   1      38.421  20.966  25.626  1.00  0.00     0.016 A 
ATOM     10  C   UNL A   1      38.815  23.183  26.491  1.00  0.00     0.016 A 
BRANCH   6  11
ATOM     11  C   UNL A   1      35.761  23.185  24.283  1.00  0.00     0.134 A 
ATOM     12  C   UNL A   1      33.812  24.197  23.960  1.00  0.00     0.128 A 
ATOM     13  C   UNL A   1      34.160  23.545  22.781  1.00  0.00     0.051 A 
ATOM     14  O   UNL A   1      34.824  23.981  24.869  1.00  0.00    -0.457 OA
ATOM     15  C   UNL A   1      35.398  22.902  22.988  1.00  0.00     0.051 A 
BRANCH  12  16
ATOM     16  C   UNL A   1      32.666  24.990  24.248  1.00  0.00     0.065 C 
ATOM     17  O   UNL A   1      29.579  22.922  27.664  1.00  0.00    -0.261 OA
ATOM     18  C   UNL A   1      30.144  23.594  26.823  1.00  0.00     0.289 C 
ATOM     19  N   UNL A   1      29.692  24.764  26.297  1.00  0.00    -0.307 N 
ATOM     20  S   UNL A   1      31.671  23.184  26.083  1.00  0.00    -0.025 SA
ATOM     21  C   UNL A   1      30.449  25.398  25.347  1.00  0.00     0.120 C 
ATOM     22  H   UNL A   1      28.834  25.148  26.593  1.00  0.00     0.171 HD
ATOM     23  C   UNL A   1      31.695  24.611  25.094  1.00  0.00     0.056 C 
ATOM     24  S   UNL A   1      29.906  26.810  24.644  1.00  0.00    -0.059 S 
ENDBRANCH  12  16
ENDBRANCH   6  11
ENDBRANCH   3   5
ENDBRANCH   2   3
ENDBRANCH   1   2
BRANCH   1  25
ATOM     25  C   UNL A   1      43.711  21.799  25.360  1.00  0.00     0.275 C 
BRANCH  25  26
ATOM     26  O   UNL A   1      43.029  22.972  24.878  1.00  0.00    -0.458 OA
BRANCH  26  27
ATOM     27  C   UNL A   1      43.704  24.129  25.053  1.00  0.00     0.338 C 
ATOM     28  O   UNL A   1      44.738  24.476  24.507  1.00  0.00    -0.246 OA
BRANCH  27  29
ATOM     29  C   UNL A   1      42.974  25.025  25.959  1.00  0.00     0.060 A 
ATOM     30  C   UNL A   1      43.295  26.373  25.923  1.00  0.00     0.016 A 
ATOM     31  C   UNL A   1      42.178  24.526  26.985  1.00  0.00     0.016 A 
ATOM     32  C   UNL A   1      42.984  27.197  26.996  1.00  0.00     0.010 A 
ATOM     33  C   UNL A   1      41.722  25.399  27.982  1.00  0.00     0.010 A 
ATOM     34  C   UNL A   1      42.161  26.736  28.030  1.00  0.00    -0.014 A 
BRANCH  34  35
ATOM     35  C   UNL A   1      41.774  27.652  29.144  1.00  0.00     0.031 A 
ATOM     36  C   UNL A   1      42.565  27.678  30.429  1.00  0.00     0.074 A 
ATOM     37  C   UNL A   1      40.713  28.475  29.005  1.00  0.00     0.049 A 
ATOM     38  N   UNL A   1      42.280  28.262  31.566  1.00  0.00    -0.248 NA
ATOM     39  C   UNL A   1      43.836  26.935  30.443  1.00  0.00     0.031 C 
ATOM     40  C   UNL A   1      39.882  28.597  27.803  1.00  0.00     0.029 A 
ATOM     41  N   UNL A   1      40.149  29.372  29.879  1.00  0.00    -0.354 N 
ATOM     42  C   UNL A   1      43.301  27.913  32.442  1.00  0.00     0.074 A 
ATOM     43  C   UNL A   1      44.207  27.053  31.710  1.00  0.00     0.031 C 
ATOM     44  C   UNL A   1      38.954  29.543  27.997  1.00  0.00     0.029 A 
ATOM     45  C   UNL A   1      39.042  30.011  29.373  1.00  0.00     0.049 A 
ATOM     46  H   UNL A   1      40.505  29.541  30.782  1.00  0.00     0.167 HD
ATOM     47  C   UNL A   1      43.468  28.278  33.738  1.00  0.00     0.037 A 
ATOM     48  C   UNL A   1      38.154  30.835  29.958  1.00  0.00     0.037 A 
ATOM     49  C   UNL A   1      42.582  29.169  34.446  1.00  0.00     0.049 A 
ATOM     50  C   UNL A   1      38.321  31.168  31.410  1.00  0.00     0.074 A 
ATOM     51  C   UNL A   1      42.671  29.613  35.754  1.00  0.00     0.029 A 
ATOM     52  N   UNL A   1      41.450  29.757  33.903  1.00  0.00    -0.354 N 
ATOM     53  N   UNL A   1      39.266  30.798  32.239  1.00  0.00    -0.248 NA
ATOM     54  C   UNL A   1      37.288  32.019  32.015  1.00  0.00     0.031 C 
ATOM     55  C   UNL A   1      41.564  30.424  36.019  1.00  0.00     0.029 A 
ATOM     56  C   UNL A   1      40.818  30.539  34.856  1.00  0.00     0.049 A 
ATOM     57  H   UNL A   1      41.140  29.637  32.975  1.00  0.00     0.167 HD
ATOM     58  C   UNL A   1      38.958  31.392  33.454  1.00  0.00     0.074 A 
ATOM     59  C   UNL A   1      37.747  32.160  33.249  1.00  0.00     0.031 C 
ATOM     60  C   UNL A   1      39.619  31.307  34.636  1.00  0.00     0.037 A 
BRANCH  47  61
ATOM     61  C   UNL A   1      44.628  27.686  34.490  1.00  0.00     0.057 A 
ATOM     62  C   UNL A   1      45.842  28.366  34.653  1.00  0.00     0.134 A 
ATOM     63  C   UNL A   1      44.511  26.428  35.098  1.00  0.00     0.134 A 
ATOM     64  F   UNL A   1      46.029  29.570  34.092  1.00  0.00    -0.206 F 
ATOM     65  C   UNL A   1      46.905  27.805  35.367  1.00  0.00     0.040 A 
ATOM     66  C   UNL A   1      45.554  25.871  35.841  1.00  0.00     0.040 A 
ATOM     67  F   UNL A   1      43.374  25.724  34.993  1.00  0.00    -0.206 F 
ATOM     68  C   UNL A   1      46.759  26.557  35.970  1.00  0.00     0.006 A 
ENDBRANCH  47  61
BRANCH  48  69
ATOM     69  C   UNL A   1      37.002  31.361  29.181  1.00  0.00     0.057 A 
ATOM     70  C   UNL A   1      35.893  30.556  28.896  1.00  0.00     0.134 A 
ATOM     71  C   UNL A   1      36.978  32.679  28.704  1.00  0.00     0.134 A 
ATOM     72  F   UNL A   1      35.862  29.280  29.307  1.00  0.00    -0.206 F 
ATOM     73  C   UNL A   1      34.812  31.036  28.152  1.00  0.00     0.040 A 
ATOM     74  C   UNL A   1      35.890  33.182  27.990  1.00  0.00     0.040 A 
ATOM     75  F   UNL A   1      38.006  33.506  28.946  1.00  0.00    -0.206 F 
ATOM     76  C   UNL A   1      34.807  32.355  27.704  1.00  0.00     0.006 A 
ENDBRANCH  48  69
BRANCH  60  77
ATOM     77  C   UNL A   1      39.073  32.107  35.782  1.00  0.00     0.057 A 
ATOM     78  C   UNL A   1      38.232  31.543  36.750  1.00  0.00     0.134 A 
ATOM     79  C   UNL A   1      39.414  33.458  35.929  1.00  0.00     0.134 A 
ATOM     80  F   UNL A   1      37.853  30.259  36.658  1.00  0.00    -0.206 F 
ATOM     81  C   UNL A   1      37.728  32.302  37.808  1.00  0.00     0.040 A 
ATOM     82  C   UNL A   1      38.943  34.217  37.001  1.00  0.00     0.040 A 
ATOM     83  F   UNL A   1      40.221  34.058  35.041  1.00  0.00    -0.206 F 
ATOM     84  C   UNL A   1      38.091  33.641  37.940  1.00  0.00     0.006 A 
ENDBRANCH  60  77
ENDBRANCH  34  35
ENDBRANCH  27  29
ENDBRANCH  26  27
ENDBRANCH  25  26
ENDBRANCH   1  25
TORSDOF 13
ENDMDL
MODEL 3
REMARK VINA RESULT:     -12.5      3.886      9.132
REMARK SMILES O=C1NC(=S)/C(=C/c2ccc(-c3ccc(C(=O)OCCOC(=O)c4ccc(-c5c6nc(c(-c7c(F)cccc7F)c7ccc([nH]7)c(-c7c(F)cccc7F)c7nc(c(-c8c(F)cccc8F)c8ccc5[nH]8)C=C7)C=C6)cc4)cc3)o2)S1
REMARK SMILES IDX 19 1 18 2 16 3 17 4 15 5 12 6 13 7 79 8 14 9 78 10 11 11
REMARK SMILES IDX 8 12 9 13 80 14 10 15 7 16 1 17 2 18 3 19 81 20 4 21 6 23
REMARK SMILES IDX 5 24 20 25 21 26 22 27 23 28 24 29 25 30 77 31 26 32 76 33
REMARK SMILES IDX 27 34 28 35 29 36 70 37 30 38 75 39 69 40 71 41 31 42 74 43
REMARK SMILES IDX 68 44 67 45 32 47 58 48 41 49 57 50 42 51 45 52 56 53 72 54
REMARK SMILES IDX 43 55 44 56 55 58 73 59 46 60 33 61 34 62 39 63 35 64 36 65
REMARK SMILES IDX 38 66 40 67 37 68 59 69 60 70 65 71 61 72 62 73 64 74 66 75
REMARK SMILES IDX 63 76 47 77 48 78 53 79 49 80 50 81 52 82 54 83 51 84
REMARK H PARENT 3 22 71 46 45 57
REMARK Flexibility Score: inf
ROOT
ATOM      1  C   UNL A   1      34.055  35.269  28.674  1.00  0.00     0.275 C 
ENDROOT
BRANCH   1   2
ATOM      2  O   UNL A   1      34.126  33.906  29.145  1.00  0.00    -0.458 OA
BRANCH   2   3
ATOM      3  C   UNL A   1      35.171  33.182  28.679  1.00  0.00     0.338 C 
ATOM      4  O   UNL A   1      36.349  33.500  28.725  1.00  0.00    -0.246 OA
BRANCH   3   5
ATOM      5  C   UNL A   1      34.728  31.880  28.128  1.00  0.00     0.060 A 
ATOM      6  C   UNL A   1      34.082  29.507  26.769  1.00  0.00     0.017 A 
ATOM      7  C   UNL A   1      35.341  29.660  27.347  1.00  0.00     0.013 A 
ATOM      8  C   UNL A   1      33.127  30.524  26.931  1.00  0.00     0.013 A 
ATOM      9  C   UNL A   1      35.668  30.851  27.986  1.00  0.00     0.016 A 
ATOM     10  C   UNL A   1      33.439  31.702  27.626  1.00  0.00     0.016 A 
BRANCH   6  11
ATOM     11  C   UNL A   1      33.852  28.389  25.877  1.00  0.00     0.134 A 
ATOM     12  C   UNL A   1      33.829  26.225  25.384  1.00  0.00     0.128 A 
ATOM     13  C   UNL A   1      33.637  26.938  24.206  1.00  0.00     0.051 A 
ATOM     14  O   UNL A   1      33.938  27.139  26.410  1.00  0.00    -0.457 OA
ATOM     15  C   UNL A   1      33.652  28.312  24.520  1.00  0.00     0.051 A 
BRANCH  12  16
ATOM     16  C   UNL A   1      33.881  24.818  25.591  1.00  0.00     0.065 C 
ATOM     17  O   UNL A   1      29.565  22.863  27.327  1.00  0.00    -0.261 OA
ATOM     18  C   UNL A   1      30.692  23.102  26.941  1.00  0.00     0.289 C 
ATOM     19  N   UNL A   1      31.708  22.203  26.829  1.00  0.00    -0.307 N 
ATOM     20  S   UNL A   1      31.266  24.679  26.461  1.00  0.00    -0.025 SA
ATOM     21  C   UNL A   1      32.928  22.638  26.381  1.00  0.00     0.120 C 
ATOM     22  H   UNL A   1      31.568  21.258  27.065  1.00  0.00     0.171 HD
ATOM     23  C   UNL A   1      32.860  24.102  26.087  1.00  0.00     0.056 C 
ATOM     24  S   UNL A   1      34.210  21.576  26.276  1.00  0.00    -0.059 S 
ENDBRANCH  12  16
ENDBRANCH   6  11
ENDBRANCH   3   5
ENDBRANCH   2   3
ENDBRANCH   1   2
BRANCH   1  25
ATOM     25  C   UNL A   1      32.993  36.076  29.425  1.00  0.00     0.275 C 
BRANCH  25  26
ATOM     26  O   UNL A   1      32.386  35.295  30.471  1.00  0.00    -0.458 OA
BRANCH  26  27
ATOM     27  C   UNL A   1      32.515  35.815  31.711  1.00  0.00     0.338 C 
ATOM     28  O   UNL A   1      31.837  36.688  32.226  1.00  0.00    -0.246 OA
BRANCH  27  29
ATOM     29  C   UNL A   1      33.568  35.116  32.460  1.00  0.00     0.060 A 
ATOM     30  C   UNL A   1      34.823  35.704  32.501  1.00  0.00     0.016 A 
ATOM     31  C   UNL A   1      33.399  33.807  32.897  1.00  0.00     0.016 A 
ATOM     32  C   UNL A   1      35.945  34.944  32.802  1.00  0.00     0.010 A 
ATOM     33  C   UNL A   1      34.510  33.092  33.363  1.00  0.00     0.010 A 
ATOM     34  C   UNL A   1      35.807  33.633  33.273  1.00  0.00    -0.014 A 
BRANCH  34  35
ATOM     35  C   UNL A   1      37.016  32.847  33.662  1.00  0.00     0.031 A 
ATOM     36  C   UNL A   1      37.701  33.091  34.984  1.00  0.00     0.074 A 
ATOM     37  C   UNL A   1      37.502  31.900  32.831  1.00  0.00     0.049 A 
ATOM     38  N   UNL A   1      38.855  32.646  35.415  1.00  0.00    -0.248 NA
ATOM     39  C   UNL A   1      37.004  33.965  35.943  1.00  0.00     0.031 C 
ATOM     40  C   UNL A   1      36.919  31.516  31.542  1.00  0.00     0.029 A 
ATOM     41  N   UNL A   1      38.598  31.078  32.947  1.00  0.00    -0.354 N 
ATOM     42  C   UNL A   1      39.047  33.227  36.663  1.00  0.00     0.074 A 
ATOM     43  C   UNL A   1      37.898  34.070  36.916  1.00  0.00     0.031 C 
ATOM     44  C   UNL A   1      37.628  30.511  31.013  1.00  0.00     0.029 A 
ATOM     45  C   UNL A   1      38.783  30.255  31.861  1.00  0.00     0.049 A 
ATOM     46  H   UNL A   1      39.193  31.079  33.732  1.00  0.00     0.167 HD
ATOM     47  C   UNL A   1      40.087  33.070  37.519  1.00  0.00     0.037 A 
ATOM     48  C   UNL A   1      39.796  29.429  31.543  1.00  0.00     0.037 A 
ATOM     49  C   UNL A   1      41.208  32.196  37.277  1.00  0.00     0.049 A 
ATOM     50  C   UNL A   1      40.968  29.326  32.473  1.00  0.00     0.074 A 
ATOM     51  C   UNL A   1      42.304  31.954  38.087  1.00  0.00     0.029 A 
ATOM     52  N   UNL A   1      41.372  31.415  36.143  1.00  0.00    -0.354 N 
ATOM     53  N   UNL A   1      41.158  29.912  33.630  1.00  0.00    -0.248 NA
ATOM     54  C   UNL A   1      42.075  28.460  32.047  1.00  0.00     0.031 C 
ATOM     55  C   UNL A   1      43.158  31.070  37.420  1.00  0.00     0.029 A 
ATOM     56  C   UNL A   1      42.563  30.710  36.221  1.00  0.00     0.049 A 
ATOM     57  H   UNL A   1      40.736  31.366  35.393  1.00  0.00     0.167 HD
ATOM     58  C   UNL A   1      42.391  29.466  34.082  1.00  0.00     0.074 A 
ATOM     59  C   UNL A   1      42.895  28.547  33.082  1.00  0.00     0.031 C 
ATOM     60  C   UNL A   1      43.048  29.790  35.223  1.00  0.00     0.037 A 
BRANCH  47  61
ATOM     61  C   UNL A   1      40.086  33.888  38.782  1.00  0.00     0.057 A 
ATOM     62  C   UNL A   1      40.774  35.103  38.890  1.00  0.00     0.134 A 
ATOM     63  C   UNL A   1      39.348  33.467  39.897  1.00  0.00     0.134 A 
ATOM     64  F   UNL A   1      41.508  35.563  37.866  1.00  0.00    -0.206 F 
ATOM     65  C   UNL A   1      40.751  35.855  40.068  1.00  0.00     0.040 A 
ATOM     66  C   UNL A   1      39.291  34.225  41.069  1.00  0.00     0.040 A 
ATOM     67  F   UNL A   1      38.655  32.319  39.863  1.00  0.00    -0.206 F 
ATOM     68  C   UNL A   1      40.001  35.419  41.159  1.00  0.00     0.006 A 
ENDBRANCH  47  61
BRANCH  48  69
ATOM     69  C   UNL A   1      39.767  28.673  30.263  1.00  0.00     0.057 A 
ATOM     70  C   UNL A   1      40.360  29.188  29.105  1.00  0.00     0.134 A 
ATOM     71  C   UNL A   1      39.149  27.419  30.165  1.00  0.00     0.134 A 
ATOM     72  F   UNL A   1      40.952  30.391  29.128  1.00  0.00    -0.206 F 
ATOM     73  C   UNL A   1      40.325  28.493  27.894  1.00  0.00     0.040 A 
ATOM     74  C   UNL A   1      39.136  26.698  28.970  1.00  0.00     0.040 A 
ATOM     75  F   UNL A   1      38.565  26.865  31.238  1.00  0.00    -0.206 F 
ATOM     76  C   UNL A   1      39.718  27.241  27.828  1.00  0.00     0.006 A 
ENDBRANCH  48  69
BRANCH  60  77
ATOM     77  C   UNL A   1      44.360  29.105  35.474  1.00  0.00     0.057 A 
ATOM     78  C   UNL A   1      45.579  29.661  35.068  1.00  0.00     0.134 A 
ATOM     79  C   UNL A   1      44.400  27.880  36.154  1.00  0.00     0.134 A 
ATOM     80  F   UNL A   1      45.609  30.823  34.398  1.00  0.00    -0.206 F 
ATOM     81  C   UNL A   1      46.791  29.008  35.305  1.00  0.00     0.040 A 
ATOM     82  C   UNL A   1      45.608  27.235  36.424  1.00  0.00     0.040 A 
ATOM     83  F   UNL A   1      43.268  27.296  36.575  1.00  0.00    -0.206 F 
ATOM     84  C   UNL A   1      46.807  27.796  35.992  1.00  0.00     0.006 A 
ENDBRANCH  60  77
ENDBRANCH  34  35
ENDBRANCH  27  29
ENDBRANCH  26  27
ENDBRANCH  25  26
ENDBRANCH   1  25
TORSDOF 13
ENDMDL
