MODEL 1
REMARK VINA RESULT:      -9.6      0.000      0.000
REMARK SMILES CC[C@H](NC(=O)c1ccc(C)nc1)C(=O)OCCOC(=O)c1ccc(-c2c3nc(c(-c4c(F)cccc4F)c4ccc([nH]4)c(-c4c(F)cccc4F)c4nc(c(-c5c(F)cccc5F)c5ccc2[nH]5)C=C4)C=C3)cc1
REMARK SMILES IDX 17 1 16 2 14 3 15 4 3 5 2 6 1 7 4 8 5 9 6 11 7 12 8 13 13 14
REMARK SMILES IDX 9 15 12 16 10 17 11 18 18 19 19 20 20 21 21 22 22 23 23 24
REMARK SMILES IDX 75 25 24 26 74 27 25 28 26 29 27 30 68 31 28 32 73 33 67 34
REMARK SMILES IDX 69 35 29 36 72 37 66 38 65 39 30 41 56 42 39 43 55 44 40 45
REMARK SMILES IDX 43 46 54 47 70 48 41 49 42 50 53 52 71 53 44 54 31 55 32 56
REMARK SMILES IDX 37 57 33 58 34 59 36 60 38 61 35 62 57 63 58 64 63 65 59 66
REMARK SMILES IDX 60 67 62 68 64 69 61 70 45 71 46 72 51 73 47 74 48 75 50 76
REMARK SMILES IDX 52 77 49 78
REMARK H PARENT 4 10 69 40 43 51
REMARK Flexibility Score: inf
ROOT
ATOM      1  C   UNL A   1      33.306  34.072  28.424  1.00  0.00     0.274 C 
ENDROOT
BRANCH   1   2
ATOM      2  O   UNL A   1      34.029  34.995  29.262  1.00  0.00    -0.461 OA
BRANCH   2   3
ATOM      3  C   UNL A   1      33.420  35.488  30.357  1.00  0.00     0.328 C 
ATOM      4  O   UNL A   1      32.562  36.365  30.330  1.00  0.00    -0.250 OA
BRANCH   3   5
ATOM      5  C   UNL A   1      33.928  34.865  31.682  1.00  0.00     0.192 C 
BRANCH   5   6
ATOM      6  C   UNL A   1      34.678  35.908  32.528  1.00  0.00     0.033 C 
ATOM      7  C   UNL A   1      33.808  36.694  33.485  1.00  0.00     0.007 C 
ENDBRANCH   5   6
BRANCH   5   8
ATOM      8  N   UNL A   1      34.451  33.496  31.872  1.00  0.00    -0.339 N 
ATOM      9  C   UNL A   1      35.662  32.866  31.798  1.00  0.00     0.253 C 
ATOM     10  H   UNL A   1      33.734  32.869  32.118  1.00  0.00     0.164 HD
ATOM     11  O   UNL A   1      35.765  31.713  32.212  1.00  0.00    -0.269 OA
BRANCH   9  12
ATOM     12  C   UNL A   1      36.811  33.466  31.127  1.00  0.00     0.058 A 
ATOM     13  C   UNL A   1      37.043  33.353  29.764  1.00  0.00     0.017 A 
ATOM     14  C   UNL A   1      37.720  34.176  31.896  1.00  0.00     0.125 A 
ATOM     15  C   UNL A   1      38.249  33.822  29.245  1.00  0.00     0.024 A 
ATOM     16  N   UNL A   1      38.897  34.651  31.413  1.00  0.00    -0.261 NA
ATOM     17  C   UNL A   1      39.170  34.414  30.109  1.00  0.00     0.037 A 
ATOM     18  C   UNL A   1      40.553  34.749  29.643  1.00  0.00     0.066 C 
ENDBRANCH   9  12
ENDBRANCH   5   8
ENDBRANCH   3   5
ENDBRANCH   2   3
ENDBRANCH   1   2
BRANCH   1  19
ATOM     19  C   UNL A   1      34.283  33.061  27.821  1.00  0.00     0.275 C 
BRANCH  19  20
ATOM     20  O   UNL A   1      34.185  31.815  28.525  1.00  0.00    -0.458 OA
BRANCH  20  21
ATOM     21  C   UNL A   1      34.477  30.710  27.794  1.00  0.00     0.338 C 
ATOM     22  O   UNL A   1      33.894  30.244  26.843  1.00  0.00    -0.246 OA
BRANCH  21  23
ATOM     23  C   UNL A   1      35.800  30.266  28.235  1.00  0.00     0.060 A 
ATOM     24  C   UNL A   1      35.919  29.724  29.517  1.00  0.00     0.016 A 
ATOM     25  C   UNL A   1      36.889  30.348  27.372  1.00  0.00     0.016 A 
ATOM     26  C   UNL A   1      37.144  29.243  29.948  1.00  0.00     0.010 A 
ATOM     27  C   UNL A   1      38.115  29.856  27.799  1.00  0.00     0.010 A 
ATOM     28  C   UNL A   1      38.243  29.306  29.087  1.00  0.00    -0.014 A 
BRANCH  28  29
ATOM     29  C   UNL A   1      39.564  28.852  29.549  1.00  0.00     0.031 A 
ATOM     30  C   UNL A   1      40.320  29.712  30.510  1.00  0.00     0.074 A 
ATOM     31  C   UNL A   1      40.068  27.700  29.075  1.00  0.00     0.049 A 
ATOM     32  N   UNL A   1      41.550  29.599  30.928  1.00  0.00    -0.248 NA
ATOM     33  C   UNL A   1      39.593  30.867  31.064  1.00  0.00     0.031 C 
ATOM     34  C   UNL A   1      39.376  26.789  28.161  1.00  0.00     0.029 A 
ATOM     35  N   UNL A   1      41.285  27.112  29.282  1.00  0.00    -0.354 N 
ATOM     36  C   UNL A   1      41.755  30.679  31.774  1.00  0.00     0.074 A 
ATOM     37  C   UNL A   1      40.534  31.452  31.789  1.00  0.00     0.031 C 
ATOM     38  C   UNL A   1      40.188  25.757  27.877  1.00  0.00     0.029 A 
ATOM     39  C   UNL A   1      41.469  25.968  28.545  1.00  0.00     0.049 A 
ATOM     40  H   UNL A   1      41.962  27.472  29.899  1.00  0.00     0.167 HD
ATOM     41  C   UNL A   1      42.870  30.987  32.476  1.00  0.00     0.037 A 
ATOM     42  C   UNL A   1      42.566  25.205  28.402  1.00  0.00     0.037 A 
ATOM     43  C   UNL A   1      44.071  30.195  32.438  1.00  0.00     0.049 A 
ATOM     44  C   UNL A   1      43.810  25.599  29.151  1.00  0.00     0.074 A 
ATOM     45  C   UNL A   1      45.264  30.400  33.104  1.00  0.00     0.029 A 
ATOM     46  N   UNL A   1      44.224  29.039  31.682  1.00  0.00    -0.354 N 
ATOM     47  N   UNL A   1      44.003  26.621  29.952  1.00  0.00    -0.248 NA
ATOM     48  C   UNL A   1      44.986  24.739  28.978  1.00  0.00     0.031 C 
ATOM     49  C   UNL A   1      46.154  29.392  32.717  1.00  0.00     0.029 A 
ATOM     50  C   UNL A   1      45.499  28.528  31.854  1.00  0.00     0.049 A 
ATOM     51  H   UNL A   1      43.529  28.641  31.110  1.00  0.00     0.167 HD
ATOM     52  C   UNL A   1      45.312  26.514  30.399  1.00  0.00     0.074 A 
ATOM     53  C   UNL A   1      45.859  25.317  29.790  1.00  0.00     0.031 C 
ATOM     54  C   UNL A   1      46.005  27.328  31.235  1.00  0.00     0.037 A 
BRANCH  41  55
ATOM     55  C   UNL A   1      42.840  32.238  33.303  1.00  0.00     0.057 A 
ATOM     56  C   UNL A   1      43.194  33.487  32.776  1.00  0.00     0.134 A 
ATOM     57  C   UNL A   1      42.452  32.193  34.648  1.00  0.00     0.134 A 
ATOM     58  F   UNL A   1      43.598  33.597  31.501  1.00  0.00    -0.206 F 
ATOM     59  C   UNL A   1      43.191  34.640  33.562  1.00  0.00     0.040 A 
ATOM     60  C   UNL A   1      42.417  33.344  35.437  1.00  0.00     0.040 A 
ATOM     61  F   UNL A   1      42.102  31.031  35.219  1.00  0.00    -0.206 F 
ATOM     62  C   UNL A   1      42.794  34.571  34.897  1.00  0.00     0.006 A 
ENDBRANCH  41  55
BRANCH  42  63
ATOM     63  C   UNL A   1      42.540  24.019  27.511  1.00  0.00     0.057 A 
ATOM     64  C   UNL A   1      42.246  22.744  28.008  1.00  0.00     0.134 A 
ATOM     65  C   UNL A   1      42.802  24.129  26.139  1.00  0.00     0.134 A 
ATOM     66  F   UNL A   1      42.000  22.571  29.315  1.00  0.00    -0.206 F 
ATOM     67  C   UNL A   1      42.233  21.621  27.179  1.00  0.00     0.040 A 
ATOM     68  C   UNL A   1      42.765  23.019  25.294  1.00  0.00     0.040 A 
ATOM     69  F   UNL A   1      43.083  25.323  25.596  1.00  0.00    -0.206 F 
ATOM     70  C   UNL A   1      42.486  21.757  25.816  1.00  0.00     0.006 A 
ENDBRANCH  42  63
BRANCH  54  71
ATOM     71  C   UNL A   1      47.409  26.921  31.565  1.00  0.00     0.057 A 
ATOM     72  C   UNL A   1      47.698  26.044  32.618  1.00  0.00     0.134 A 
ATOM     73  C   UNL A   1      48.480  27.382  30.790  1.00  0.00     0.134 A 
ATOM     74  F   UNL A   1      46.716  25.579  33.405  1.00  0.00    -0.206 F 
ATOM     75  C   UNL A   1      49.009  25.660  32.904  1.00  0.00     0.040 A 
ATOM     76  C   UNL A   1      49.790  26.981  31.046  1.00  0.00     0.040 A 
ATOM     77  F   UNL A   1      48.268  28.216  29.760  1.00  0.00    -0.206 F 
ATOM     78  C   UNL A   1      50.058  26.122  32.111  1.00  0.00     0.006 A 
ENDBRANCH  54  71
ENDBRANCH  28  29
ENDBRANCH  21  23
ENDBRANCH  20  21
ENDBRANCH  19  20
ENDBRANCH   1  19
TORSDOF 14
ENDMDL
MODEL 2
REMARK VINA RESULT:      -9.1      4.177      8.988
REMARK SMILES CC[C@H](NC(=O)c1ccc(C)nc1)C(=O)OCCOC(=O)c1ccc(-c2c3nc(c(-c4c(F)cccc4F)c4ccc([nH]4)c(-c4c(F)cccc4F)c4nc(c(-c5c(F)cccc5F)c5ccc2[nH]5)C=C4)C=C3)cc1
REMARK SMILES IDX 17 1 16 2 14 3 15 4 3 5 2 6 1 7 4 8 5 9 6 11 7 12 8 13 13 14
REMARK SMILES IDX 9 15 12 16 10 17 11 18 18 19 19 20 20 21 21 22 22 23 23 24
REMARK SMILES IDX 75 25 24 26 74 27 25 28 26 29 27 30 68 31 28 32 73 33 67 34
REMARK SMILES IDX 69 35 29 36 72 37 66 38 65 39 30 41 56 42 39 43 55 44 40 45
REMARK SMILES IDX 43 46 54 47 70 48 41 49 42 50 53 52 71 53 44 54 31 55 32 56
REMARK SMILES IDX 37 57 33 58 34 59 36 60 38 61 35 62 57 63 58 64 63 65 59 66
REMARK SMILES IDX 60 67 62 68 64 69 61 70 45 71 46 72 51 73 47 74 48 75 50 76
REMARK SMILES IDX 52 77 49 78
REMARK H PARENT 4 10 69 40 43 51
REMARK Flexibility Score: inf
ROOT
ATOM      1  C   UNL A   1      31.653  28.350  25.240  1.00  0.00     0.274 C 
ENDROOT
BRANCH   1   2
ATOM      2  O   UNL A   1      30.857  28.196  24.048  1.00  0.00    -0.461 OA
BRANCH   2   3
ATOM      3  C   UNL A   1      30.147  27.064  23.886  1.00  0.00     0.328 C 
ATOM      4  O   UNL A   1      28.964  27.035  23.560  1.00  0.00    -0.250 OA
BRANCH   3   5
ATOM      5  C   UNL A   1      30.958  25.777  24.183  1.00  0.00     0.192 C 
BRANCH   5   6
ATOM      6  C   UNL A   1      31.153  24.943  22.904  1.00  0.00     0.033 C 
ATOM      7  C   UNL A   1      32.487  25.138  22.217  1.00  0.00     0.007 C 
ENDBRANCH   5   6
BRANCH   5   8
ATOM      8  N   UNL A   1      30.877  24.942  25.399  1.00  0.00    -0.339 N 
ATOM      9  C   UNL A   1      31.734  24.205  26.168  1.00  0.00     0.253 C 
ATOM     10  H   UNL A   1      29.959  24.907  25.750  1.00  0.00     0.164 HD
ATOM     11  O   UNL A   1      31.347  23.773  27.251  1.00  0.00    -0.269 OA
BRANCH   9  12
ATOM     12  C   UNL A   1      33.055  23.803  25.694  1.00  0.00     0.058 A 
ATOM     13  C   UNL A   1      34.171  24.625  25.761  1.00  0.00     0.017 A 
ATOM     14  C   UNL A   1      33.195  22.541  25.139  1.00  0.00     0.125 A 
ATOM     15  C   UNL A   1      35.348  24.214  25.136  1.00  0.00     0.024 A 
ATOM     16  N   UNL A   1      34.333  22.114  24.532  1.00  0.00    -0.261 NA
ATOM     17  C   UNL A   1      35.371  22.980  24.488  1.00  0.00     0.037 A 
ATOM     18  C   UNL A   1      36.536  22.584  23.635  1.00  0.00     0.066 C 
ENDBRANCH   9  12
ENDBRANCH   5   8
ENDBRANCH   3   5
ENDBRANCH   2   3
ENDBRANCH   1   2
BRANCH   1  19
ATOM     19  C   UNL A   1      31.780  29.836  25.578  1.00  0.00     0.275 C 
BRANCH  19  20
ATOM     20  O   UNL A   1      33.116  30.120  26.016  1.00  0.00    -0.458 OA
BRANCH  20  21
ATOM     21  C   UNL A   1      33.239  31.173  26.863  1.00  0.00     0.338 C 
ATOM     22  O   UNL A   1      32.450  32.056  27.108  1.00  0.00    -0.246 OA
BRANCH  21  23
ATOM     23  C   UNL A   1      34.462  30.938  27.632  1.00  0.00     0.060 A 
ATOM     24  C   UNL A   1      34.729  29.636  28.062  1.00  0.00     0.016 A 
ATOM     25  C   UNL A   1      35.346  31.985  27.878  1.00  0.00     0.016 A 
ATOM     26  C   UNL A   1      35.904  29.366  28.743  1.00  0.00     0.010 A 
ATOM     27  C   UNL A   1      36.528  31.713  28.552  1.00  0.00     0.010 A 
ATOM     28  C   UNL A   1      36.807  30.405  28.987  1.00  0.00    -0.014 A 
BRANCH  28  29
ATOM     29  C   UNL A   1      38.032  30.147  29.758  1.00  0.00     0.031 A 
ATOM     30  C   UNL A   1      39.071  29.248  29.170  1.00  0.00     0.074 A 
ATOM     31  C   UNL A   1      38.172  30.696  30.976  1.00  0.00     0.049 A 
ATOM     32  N   UNL A   1      40.145  28.754  29.722  1.00  0.00    -0.248 NA
ATOM     33  C   UNL A   1      38.862  28.836  27.771  1.00  0.00     0.031 C 
ATOM     34  C   UNL A   1      37.218  31.612  31.605  1.00  0.00     0.029 A 
ATOM     35  N   UNL A   1      39.161  30.547  31.909  1.00  0.00    -0.354 N 
ATOM     36  C   UNL A   1      40.728  27.954  28.750  1.00  0.00     0.074 A 
ATOM     37  C   UNL A   1      39.876  28.005  27.583  1.00  0.00     0.031 C 
ATOM     38  C   UNL A   1      37.665  31.935  32.829  1.00  0.00     0.029 A 
ATOM     39  C   UNL A   1      38.905  31.208  33.084  1.00  0.00     0.049 A 
ATOM     40  H   UNL A   1      39.977  30.019  31.753  1.00  0.00     0.167 HD
ATOM     41  C   UNL A   1      41.878  27.247  28.834  1.00  0.00     0.037 A 
ATOM     42  C   UNL A   1      39.581  31.190  34.246  1.00  0.00     0.037 A 
ATOM     43  C   UNL A   1      42.703  27.218  30.012  1.00  0.00     0.049 A 
ATOM     44  C   UNL A   1      40.828  30.353  34.331  1.00  0.00     0.074 A 
ATOM     45  C   UNL A   1      43.891  26.543  30.220  1.00  0.00     0.029 A 
ATOM     46  N   UNL A   1      42.416  27.902  31.187  1.00  0.00    -0.354 N 
ATOM     47  N   UNL A   1      41.379  29.596  33.411  1.00  0.00    -0.248 NA
ATOM     48  C   UNL A   1      41.545  30.363  35.611  1.00  0.00     0.031 C 
ATOM     49  C   UNL A   1      44.299  26.783  31.537  1.00  0.00     0.029 A 
ATOM     50  C   UNL A   1      43.397  27.651  32.131  1.00  0.00     0.049 A 
ATOM     51  H   UNL A   1      41.632  28.480  31.328  1.00  0.00     0.167 HD
ATOM     52  C   UNL A   1      42.521  29.061  33.989  1.00  0.00     0.074 A 
ATOM     53  C   UNL A   1      42.589  29.593  35.336  1.00  0.00     0.031 C 
ATOM     54  C   UNL A   1      43.433  28.207  33.461  1.00  0.00     0.037 A 
BRANCH  41  55
ATOM     55  C   UNL A   1      42.276  26.435  27.637  1.00  0.00     0.057 A 
ATOM     56  C   UNL A   1      41.887  25.097  27.483  1.00  0.00     0.134 A 
ATOM     57  C   UNL A   1      43.061  26.998  26.623  1.00  0.00     0.134 A 
ATOM     58  F   UNL A   1      41.153  24.490  28.428  1.00  0.00    -0.206 F 
ATOM     59  C   UNL A   1      42.287  24.342  26.379  1.00  0.00     0.040 A 
ATOM     60  C   UNL A   1      43.444  26.261  25.501  1.00  0.00     0.040 A 
ATOM     61  F   UNL A   1      43.471  28.272  26.706  1.00  0.00    -0.206 F 
ATOM     62  C   UNL A   1      43.063  24.927  25.380  1.00  0.00     0.006 A 
ENDBRANCH  41  55
BRANCH  42  63
ATOM     63  C   UNL A   1      39.088  31.966  35.410  1.00  0.00     0.057 A 
ATOM     64  C   UNL A   1      38.267  31.378  36.379  1.00  0.00     0.134 A 
ATOM     65  C   UNL A   1      39.427  33.314  35.588  1.00  0.00     0.134 A 
ATOM     66  F   UNL A   1      37.894  30.095  36.258  1.00  0.00    -0.206 F 
ATOM     67  C   UNL A   1      37.787  32.104  37.471  1.00  0.00     0.040 A 
ATOM     68  C   UNL A   1      38.977  34.045  36.689  1.00  0.00     0.040 A 
ATOM     69  F   UNL A   1      40.218  33.937  34.701  1.00  0.00    -0.206 F 
ATOM     70  C   UNL A   1      38.148  33.441  37.632  1.00  0.00     0.006 A 
ENDBRANCH  42  63
BRANCH  54  71
ATOM     71  C   UNL A   1      44.596  27.835  34.332  1.00  0.00     0.057 A 
ATOM     72  C   UNL A   1      45.754  28.619  34.394  1.00  0.00     0.134 A 
ATOM     73  C   UNL A   1      44.533  26.701  35.149  1.00  0.00     0.134 A 
ATOM     74  F   UNL A   1      45.879  29.711  33.625  1.00  0.00    -0.206 F 
ATOM     75  C   UNL A   1      46.823  28.271  35.222  1.00  0.00     0.040 A 
ATOM     76  C   UNL A   1      45.581  26.360  36.004  1.00  0.00     0.040 A 
ATOM     77  F   UNL A   1      43.445  25.914  35.143  1.00  0.00    -0.206 F 
ATOM     78  C   UNL A   1      46.733  27.143  36.036  1.00  0.00     0.006 A 
ENDBRANCH  54  71
ENDBRANCH  28  29
ENDBRANCH  21  23
ENDBRANCH  20  21
ENDBRANCH  19  20
ENDBRANCH   1  19
TORSDOF 14
ENDMDL
MODEL 3
REMARK VINA RESULT:      -9.0      1.502      1.702
REMARK SMILES CC[C@H](NC(=O)c1ccc(C)nc1)C(=O)OCCOC(=O)c1ccc(-c2c3nc(c(-c4c(F)cccc4F)c4ccc([nH]4)c(-c4c(F)cccc4F)c4nc(c(-c5c(F)cccc5F)c5ccc2[nH]5)C=C4)C=C3)cc1
REMARK SMILES IDX 17 1 16 2 14 3 15 4 3 5 2 6 1 7 4 8 5 9 6 11 7 12 8 13 13 14
REMARK SMILES IDX 9 15 12 16 10 17 11 18 18 19 19 20 20 21 21 22 22 23 23 24
REMARK SMILES IDX 75 25 24 26 74 27 25 28 26 29 27 30 68 31 28 32 73 33 67 34
REMARK SMILES IDX 69 35 29 36 72 37 66 38 65 39 30 41 56 42 39 43 55 44 40 45
REMARK SMILES IDX 43 46 54 47 70 48 41 49 42 50 53 52 71 53 44 54 31 55 32 56
REMARK SMILES IDX 37 57 33 58 34 59 36 60 38 61 35 62 57 63 58 64 63 65 59 66
REMARK SMILES IDX 60 67 62 68 64 69 61 70 45 71 46 72 51 73 47 74 48 75 50 76
REMARK SMILES IDX 52 77 49 78
REMARK H PARENT 4 10 69 40 43 51
REMARK Flexibility Score: inf
ROOT
ATOM      1  C   UNL A   1      34.015  33.554  28.977  1.00  0.00     0.274 C 
ENDROOT
BRANCH   1   2
ATOM      2  O   UNL A   1      34.274  33.022  30.292  1.00  0.00    -0.461 OA
BRANCH   2   3
ATOM      3  C   UNL A   1      34.235  33.857  31.347  1.00  0.00     0.328 C 
ATOM      4  O   UNL A   1      33.677  34.950  31.338  1.00  0.00    -0.250 OA
BRANCH   3   5
ATOM      5  C   UNL A   1      34.998  33.325  32.587  1.00  0.00     0.192 C 
BRANCH   5   6
ATOM      6  C   UNL A   1      35.402  34.479  33.520  1.00  0.00     0.033 C 
ATOM      7  C   UNL A   1      35.450  34.120  34.990  1.00  0.00     0.007 C 
ENDBRANCH   5   6
BRANCH   5   8
ATOM      8  N   UNL A   1      35.960  32.204  32.619  1.00  0.00    -0.339 N 
ATOM      9  C   UNL A   1      37.265  31.992  32.272  1.00  0.00     0.253 C 
ATOM     10  H   UNL A   1      35.550  31.390  32.990  1.00  0.00     0.164 HD
ATOM     11  O   UNL A   1      37.816  30.950  32.619  1.00  0.00    -0.269 OA
BRANCH   9  12
ATOM     12  C   UNL A   1      37.994  32.903  31.395  1.00  0.00     0.058 A 
ATOM     13  C   UNL A   1      37.738  33.021  30.037  1.00  0.00     0.017 A 
ATOM     14  C   UNL A   1      39.000  33.681  31.949  1.00  0.00     0.125 A 
ATOM     15  C   UNL A   1      38.594  33.797  29.255  1.00  0.00     0.024 A 
ATOM     16  N   UNL A   1      39.840  34.451  31.211  1.00  0.00    -0.261 NA
ATOM     17  C   UNL A   1      39.661  34.450  29.869  1.00  0.00     0.037 A 
ATOM     18  C   UNL A   1      40.720  35.125  29.053  1.00  0.00     0.066 C 
ENDBRANCH   9  12
ENDBRANCH   5   8
ENDBRANCH   3   5
ENDBRANCH   2   3
ENDBRANCH   1   2
BRANCH   1  19
ATOM     19  C   UNL A   1      33.873  32.402  27.982  1.00  0.00     0.275 C 
BRANCH  19  20
ATOM     20  O   UNL A   1      35.130  31.726  27.841  1.00  0.00    -0.458 OA
BRANCH  20  21
ATOM     21  C   UNL A   1      35.090  30.381  28.010  1.00  0.00     0.338 C 
ATOM     22  O   UNL A   1      34.176  29.611  27.823  1.00  0.00    -0.246 OA
BRANCH  21  23
ATOM     23  C   UNL A   1      36.468  29.960  28.268  1.00  0.00     0.060 A 
ATOM     24  C   UNL A   1      36.756  29.372  29.502  1.00  0.00     0.016 A 
ATOM     25  C   UNL A   1      37.441  30.109  27.284  1.00  0.00     0.016 A 
ATOM     26  C   UNL A   1      38.037  28.911  29.760  1.00  0.00     0.010 A 
ATOM     27  C   UNL A   1      38.722  29.638  27.538  1.00  0.00     0.010 A 
ATOM     28  C   UNL A   1      39.021  29.042  28.776  1.00  0.00    -0.014 A 
BRANCH  28  29
ATOM     29  C   UNL A   1      40.399  28.610  29.054  1.00  0.00     0.031 A 
ATOM     30  C   UNL A   1      41.337  29.581  29.696  1.00  0.00     0.074 A 
ATOM     31  C   UNL A   1      40.786  27.374  28.699  1.00  0.00     0.049 A 
ATOM     32  N   UNL A   1      42.623  29.482  29.889  1.00  0.00    -0.248 NA
ATOM     33  C   UNL A   1      40.746  30.845  30.168  1.00  0.00     0.031 C 
ATOM     34  C   UNL A   1      39.920  26.356  28.101  1.00  0.00     0.029 A 
ATOM     35  N   UNL A   1      42.013  26.772  28.773  1.00  0.00    -0.354 N 
ATOM     36  C   UNL A   1      43.001  30.677  30.484  1.00  0.00     0.074 A 
ATOM     37  C   UNL A   1      41.816  31.498  30.594  1.00  0.00     0.031 C 
ATOM     38  C   UNL A   1      40.649  25.255  27.851  1.00  0.00     0.029 A 
ATOM     39  C   UNL A   1      42.036  25.514  28.223  1.00  0.00     0.049 A 
ATOM     40  H   UNL A   1      42.800  27.198  29.182  1.00  0.00     0.167 HD
ATOM     41  C   UNL A   1      44.234  31.046  30.902  1.00  0.00     0.037 A 
ATOM     42  C   UNL A   1      43.075  24.688  28.011  1.00  0.00     0.037 A 
ATOM     43  C   UNL A   1      45.394  30.203  30.777  1.00  0.00     0.049 A 
ATOM     44  C   UNL A   1      44.444  25.143  28.436  1.00  0.00     0.074 A 
ATOM     45  C   UNL A   1      46.695  30.460  31.165  1.00  0.00     0.029 A 
ATOM     46  N   UNL A   1      45.383  28.932  30.217  1.00  0.00    -0.354 N 
ATOM     47  N   UNL A   1      44.802  26.273  28.998  1.00  0.00    -0.248 NA
ATOM     48  C   UNL A   1      45.554  24.213  28.197  1.00  0.00     0.031 C 
ATOM     49  C   UNL A   1      47.481  29.363  30.797  1.00  0.00     0.029 A 
ATOM     50  C   UNL A   1      46.660  28.399  30.232  1.00  0.00     0.049 A 
ATOM     51  H   UNL A   1      44.586  28.478  29.861  1.00  0.00     0.167 HD
ATOM     52  C   UNL A   1      46.170  26.182  29.205  1.00  0.00     0.074 A 
ATOM     53  C   UNL A   1      46.574  24.877  28.720  1.00  0.00     0.031 C 
ATOM     54  C   UNL A   1      47.022  27.090  29.745  1.00  0.00     0.037 A 
BRANCH  41  55
ATOM     55  C   UNL A   1      44.380  32.416  31.494  1.00  0.00     0.057 A 
ATOM     56  C   UNL A   1      44.581  33.552  30.697  1.00  0.00     0.134 A 
ATOM     57  C   UNL A   1      44.321  32.604  32.880  1.00  0.00     0.134 A 
ATOM     58  F   UNL A   1      44.670  33.440  29.363  1.00  0.00    -0.206 F 
ATOM     59  C   UNL A   1      44.745  34.819  31.260  1.00  0.00     0.040 A 
ATOM     60  C   UNL A   1      44.455  33.870  33.453  1.00  0.00     0.040 A 
ATOM     61  F   UNL A   1      44.133  31.561  33.702  1.00  0.00    -0.206 F 
ATOM     62  C   UNL A   1      44.675  34.981  32.643  1.00  0.00     0.006 A 
ENDBRANCH  41  55
BRANCH  42  63
ATOM     63  C   UNL A   1      42.862  23.374  27.357  1.00  0.00     0.057 A 
ATOM     64  C   UNL A   1      42.418  22.265  28.086  1.00  0.00     0.134 A 
ATOM     65  C   UNL A   1      43.091  23.193  25.986  1.00  0.00     0.134 A 
ATOM     66  F   UNL A   1      42.195  22.369  29.403  1.00  0.00    -0.206 F 
ATOM     67  C   UNL A   1      42.229  21.020  27.481  1.00  0.00     0.040 A 
ATOM     68  C   UNL A   1      42.879  21.961  25.363  1.00  0.00     0.040 A 
ATOM     69  F   UNL A   1      43.509  24.217  25.228  1.00  0.00    -0.206 F 
ATOM     70  C   UNL A   1      42.452  20.867  26.114  1.00  0.00     0.006 A 
ENDBRANCH  42  63
BRANCH  54  71
ATOM     71  C   UNL A   1      48.458  26.679  29.873  1.00  0.00     0.057 A 
ATOM     72  C   UNL A   1      48.925  25.954  30.975  1.00  0.00     0.134 A 
ATOM     73  C   UNL A   1      49.372  26.979  28.856  1.00  0.00     0.134 A 
ATOM     74  F   UNL A   1      48.101  25.648  31.988  1.00  0.00    -0.206 F 
ATOM     75  C   UNL A   1      50.262  25.562  31.073  1.00  0.00     0.040 A 
ATOM     76  C   UNL A   1      50.702  26.567  28.927  1.00  0.00     0.040 A 
ATOM     77  F   UNL A   1      48.983  27.662  27.768  1.00  0.00    -0.206 F 
ATOM     78  C   UNL A   1      51.151  25.862  30.043  1.00  0.00     0.006 A 
ENDBRANCH  54  71
ENDBRANCH  28  29
ENDBRANCH  21  23
ENDBRANCH  20  21
ENDBRANCH  19  20
ENDBRANCH   1  19
TORSDOF 14
ENDMDL
