MODEL 1
REMARK VINA RESULT:     -11.7      0.000      0.000
REMARK SMILES COc1ccc(S(=O)(=O)Nc2c(C)cccc2C(=O)OCCOC(=O)c2ccc(-c3c4nc(c(-c5c(F)cccc5F)c5ccc([nH]5)c(-c5c(F)cccc5F)c5nc(c(-c6c(F)cccc6F)c6ccc3[nH]6)C=C5)C=C4)cc2)cc1
REMARK SMILES IDX 21 1 20 2 18 3 19 4 17 5 11 6 12 7 13 8 14 9 16 10 15 11
REMARK SMILES IDX 10 12 7 14 8 15 9 16 6 17 3 18 4 19 81 20 5 21 80 22 2 23
REMARK SMILES IDX 1 24 22 25 23 26 24 27 25 28 26 29 27 30 79 31 28 32 78 33
REMARK SMILES IDX 29 34 30 35 31 36 72 37 32 38 77 39 71 40 73 41 33 42 76 43
REMARK SMILES IDX 70 44 69 45 34 47 60 48 43 49 59 50 44 51 47 52 58 53 74 54
REMARK SMILES IDX 45 55 46 56 57 58 75 59 48 60 35 61 36 62 41 63 37 64 38 65
REMARK SMILES IDX 40 66 42 67 39 68 61 69 62 70 67 71 63 72 64 73 66 74 68 75
REMARK SMILES IDX 65 76 49 77 50 78 55 79 51 80 52 81 54 82 56 83 53 84
REMARK H PARENT 10 13 73 46 47 57
REMARK Flexibility Score: inf
ROOT
ATOM      1  C   UNL A   1      34.952  21.407  25.450  1.00  0.00     0.275 C 
ENDROOT
BRANCH   1   2
ATOM      2  O   UNL A   1      34.425  22.339  24.479  1.00  0.00    -0.458 OA
BRANCH   2   3
ATOM      3  C   UNL A   1      33.172  22.048  24.056  1.00  0.00     0.340 C 
ATOM      4  O   UNL A   1      32.608  20.975  24.191  1.00  0.00    -0.246 OA
BRANCH   3   5
ATOM      5  C   UNL A   1      32.551  23.156  23.303  1.00  0.00     0.084 A 
ATOM      6  C   UNL A   1      31.401  23.797  23.792  1.00  0.00     0.066 A 
ATOM      7  C   UNL A   1      30.969  24.989  23.180  1.00  0.00    -0.026 A 
ATOM      8  C   UNL A   1      29.747  25.751  23.607  1.00  0.00     0.046 C 
ATOM      9  C   UNL A   1      31.707  25.522  22.102  1.00  0.00     0.005 A 
ATOM     10  C   UNL A   1      33.246  23.685  22.206  1.00  0.00     0.018 A 
ATOM     11  C   UNL A   1      32.831  24.870  21.610  1.00  0.00     0.001 A 
BRANCH   6  12
ATOM     12  N   UNL A   1      30.724  23.252  24.929  1.00  0.00    -0.278 N 
ATOM     13  H   UNL A   1      30.031  22.567  24.792  1.00  0.00     0.180 HD
BRANCH  12  14
ATOM     14  S   UNL A   1      31.087  23.754  26.502  1.00  0.00     0.261 S 
ATOM     15  O   UNL A   1      32.031  22.764  26.988  1.00  0.00    -0.201 OA
ATOM     16  O   UNL A   1      29.858  24.025  27.210  1.00  0.00    -0.201 OA
BRANCH  14  17
ATOM     17  C   UNL A   1      31.965  25.298  26.367  1.00  0.00     0.088 A 
ATOM     18  C   UNL A   1      33.319  27.747  26.195  1.00  0.00     0.118 A 
ATOM     19  C   UNL A   1      34.002  26.542  25.995  1.00  0.00     0.048 A 
ATOM     20  C   UNL A   1      31.957  27.718  26.499  1.00  0.00     0.048 A 
ATOM     21  C   UNL A   1      33.333  25.315  26.084  1.00  0.00     0.026 A 
ATOM     22  C   UNL A   1      31.285  26.496  26.610  1.00  0.00     0.026 A 
BRANCH  18  23
ATOM     23  O   UNL A   1      34.087  28.872  26.069  1.00  0.00    -0.497 OA
ATOM     24  C   UNL A   1      34.741  29.336  27.244  1.00  0.00     0.278 C 
ENDBRANCH  18  23
ENDBRANCH  14  17
ENDBRANCH  12  14
ENDBRANCH   6  12
ENDBRANCH   3   5
ENDBRANCH   2   3
ENDBRANCH   1   2
BRANCH   1  25
ATOM     25  C   UNL A   1      36.248  20.734  24.990  1.00  0.00     0.275 C 
BRANCH  25  26
ATOM     26  O   UNL A   1      37.348  21.661  24.914  1.00  0.00    -0.458 OA
BRANCH  26  27
ATOM     27  C   UNL A   1      38.457  21.275  25.581  1.00  0.00     0.338 C 
ATOM     28  O   UNL A   1      39.021  20.194  25.517  1.00  0.00    -0.246 OA
BRANCH  27  29
ATOM     29  C   UNL A   1      39.002  22.376  26.387  1.00  0.00     0.060 A 
ATOM     30  C   UNL A   1      38.545  23.666  26.138  1.00  0.00     0.016 A 
ATOM     31  C   UNL A   1      40.126  22.177  27.182  1.00  0.00     0.016 A 
ATOM     32  C   UNL A   1      39.275  24.767  26.543  1.00  0.00     0.010 A 
ATOM     33  C   UNL A   1      40.795  23.291  27.702  1.00  0.00     0.010 A 
ATOM     34  C   UNL A   1      40.401  24.595  27.345  1.00  0.00    -0.014 A 
BRANCH  34  35
ATOM     35  C   UNL A   1      41.195  25.779  27.747  1.00  0.00     0.031 A 
ATOM     36  C   UNL A   1      40.563  26.829  28.612  1.00  0.00     0.074 A 
ATOM     37  C   UNL A   1      42.483  25.892  27.367  1.00  0.00     0.049 A 
ATOM     38  N   UNL A   1      40.973  28.042  28.876  1.00  0.00    -0.248 NA
ATOM     39  C   UNL A   1      39.286  26.472  29.253  1.00  0.00     0.031 C 
ATOM     40  C   UNL A   1      43.239  24.891  26.609  1.00  0.00     0.029 A 
ATOM     41  N   UNL A   1      43.385  26.904  27.568  1.00  0.00    -0.354 N 
ATOM     42  C   UNL A   1      39.972  28.616  29.650  1.00  0.00     0.074 A 
ATOM     43  C   UNL A   1      38.939  27.619  29.820  1.00  0.00     0.031 C 
ATOM     44  C   UNL A   1      44.494  25.328  26.431  1.00  0.00     0.029 A 
ATOM     45  C   UNL A   1      44.597  26.681  26.959  1.00  0.00     0.049 A 
ATOM     46  H   UNL A   1      43.185  27.711  28.096  1.00  0.00     0.167 HD
ATOM     47  C   UNL A   1      39.927  29.870  30.159  1.00  0.00     0.037 A 
ATOM     48  C   UNL A   1      45.648  27.500  26.785  1.00  0.00     0.037 A 
ATOM     49  C   UNL A   1      40.994  30.825  30.014  1.00  0.00     0.049 A 
ATOM     50  C   UNL A   1      45.552  28.905  27.304  1.00  0.00     0.074 A 
ATOM     51  C   UNL A   1      41.062  32.125  30.480  1.00  0.00     0.029 A 
ATOM     52  N   UNL A   1      42.193  30.570  29.361  1.00  0.00    -0.354 N 
ATOM     53  N   UNL A   1      44.571  29.477  27.960  1.00  0.00    -0.248 NA
ATOM     54  C   UNL A   1      46.695  29.786  27.038  1.00  0.00     0.031 C 
ATOM     55  C   UNL A   1      42.287  32.670  30.075  1.00  0.00     0.029 A 
ATOM     56  C   UNL A   1      43.003  31.692  29.400  1.00  0.00     0.049 A 
ATOM     57  H   UNL A   1      42.431  29.717  28.931  1.00  0.00     0.167 HD
ATOM     58  C   UNL A   1      44.984  30.779  28.204  1.00  0.00     0.074 A 
ATOM     59  C   UNL A   1      46.312  30.904  27.636  1.00  0.00     0.031 C 
ATOM     60  C   UNL A   1      44.326  31.781  28.835  1.00  0.00     0.037 A 
BRANCH  47  61
ATOM     61  C   UNL A   1      38.668  30.288  30.864  1.00  0.00     0.057 A 
ATOM     62  C   UNL A   1      37.593  30.885  30.194  1.00  0.00     0.134 A 
ATOM     63  C   UNL A   1      38.533  30.086  32.244  1.00  0.00     0.134 A 
ATOM     64  F   UNL A   1      37.663  31.126  28.876  1.00  0.00    -0.206 F 
ATOM     65  C   UNL A   1      36.442  31.291  30.874  1.00  0.00     0.040 A 
ATOM     66  C   UNL A   1      37.377  30.461  32.931  1.00  0.00     0.040 A 
ATOM     67  F   UNL A   1      39.523  29.518  32.950  1.00  0.00    -0.206 F 
ATOM     68  C   UNL A   1      36.330  31.074  32.246  1.00  0.00     0.006 A 
ENDBRANCH  47  61
BRANCH  48  69
ATOM     69  C   UNL A   1      46.843  27.028  26.041  1.00  0.00     0.057 A 
ATOM     70  C   UNL A   1      46.979  27.265  24.669  1.00  0.00     0.134 A 
ATOM     71  C   UNL A   1      47.886  26.348  26.684  1.00  0.00     0.134 A 
ATOM     72  F   UNL A   1      46.007  27.895  23.993  1.00  0.00    -0.206 F 
ATOM     73  C   UNL A   1      48.104  26.838  23.962  1.00  0.00     0.040 A 
ATOM     74  C   UNL A   1      49.030  25.941  25.996  1.00  0.00     0.040 A 
ATOM     75  F   UNL A   1      47.820  26.093  28.000  1.00  0.00    -0.206 F 
ATOM     76  C   UNL A   1      49.137  26.180  24.628  1.00  0.00     0.006 A 
ENDBRANCH  48  69
BRANCH  60  77
ATOM     77  C   UNL A   1      45.059  33.079  28.985  1.00  0.00     0.057 A 
ATOM     78  C   UNL A   1      44.928  34.116  28.054  1.00  0.00     0.134 A 
ATOM     79  C   UNL A   1      45.885  33.301  30.095  1.00  0.00     0.134 A 
ATOM     80  F   UNL A   1      44.165  33.957  26.962  1.00  0.00    -0.206 F 
ATOM     81  C   UNL A   1      45.612  35.323  28.210  1.00  0.00     0.040 A 
ATOM     82  C   UNL A   1      46.551  34.513  30.276  1.00  0.00     0.040 A 
ATOM     83  F   UNL A   1      46.045  32.348  31.025  1.00  0.00    -0.206 F 
ATOM     84  C   UNL A   1      46.420  35.525  29.327  1.00  0.00     0.006 A 
ENDBRANCH  60  77
ENDBRANCH  34  35
ENDBRANCH  27  29
ENDBRANCH  26  27
ENDBRANCH  25  26
ENDBRANCH   1  25
TORSDOF 15
ENDMDL
MODEL 2
REMARK VINA RESULT:     -11.7      3.672      8.583
REMARK SMILES COc1ccc(S(=O)(=O)Nc2c(C)cccc2C(=O)OCCOC(=O)c2ccc(-c3c4nc(c(-c5c(F)cccc5F)c5ccc([nH]5)c(-c5c(F)cccc5F)c5nc(c(-c6c(F)cccc6F)c6ccc3[nH]6)C=C5)C=C4)cc2)cc1
REMARK SMILES IDX 21 1 20 2 18 3 19 4 17 5 11 6 12 7 13 8 14 9 16 10 15 11
REMARK SMILES IDX 10 12 7 14 8 15 9 16 6 17 3 18 4 19 81 20 5 21 80 22 2 23
REMARK SMILES IDX 1 24 22 25 23 26 24 27 25 28 26 29 27 30 79 31 28 32 78 33
REMARK SMILES IDX 29 34 30 35 31 36 72 37 32 38 77 39 71 40 73 41 33 42 76 43
REMARK SMILES IDX 70 44 69 45 34 47 60 48 43 49 59 50 44 51 47 52 58 53 74 54
REMARK SMILES IDX 45 55 46 56 57 58 75 59 48 60 35 61 36 62 41 63 37 64 38 65
REMARK SMILES IDX 40 66 42 67 39 68 61 69 62 70 67 71 63 72 64 73 66 74 68 75
REMARK SMILES IDX 65 76 49 77 50 78 55 79 51 80 52 81 54 82 56 83 53 84
REMARK H PARENT 10 13 73 46 47 57
REMARK Flexibility Score: inf
ROOT
ATOM      1  C   UNL A   1      32.091  28.867  24.892  1.00  0.00     0.275 C 
ENDROOT
BRANCH   1   2
ATOM      2  O   UNL A   1      31.538  27.632  25.400  1.00  0.00    -0.458 OA
BRANCH   2   3
ATOM      3  C   UNL A   1      30.728  26.988  24.526  1.00  0.00     0.340 C 
ATOM      4  O   UNL A   1      30.041  27.519  23.670  1.00  0.00    -0.246 OA
BRANCH   3   5
ATOM      5  C   UNL A   1      30.672  25.532  24.765  1.00  0.00     0.084 A 
ATOM      6  C   UNL A   1      31.091  24.629  23.774  1.00  0.00     0.066 A 
ATOM      7  C   UNL A   1      31.245  23.270  24.109  1.00  0.00    -0.026 A 
ATOM      8  C   UNL A   1      31.671  22.213  23.130  1.00  0.00     0.046 C 
ATOM      9  C   UNL A   1      30.993  22.848  25.431  1.00  0.00     0.005 A 
ATOM     10  C   UNL A   1      30.391  25.082  26.063  1.00  0.00     0.018 A 
ATOM     11  C   UNL A   1      30.558  23.745  26.399  1.00  0.00     0.001 A 
BRANCH   6  12
ATOM     12  N   UNL A   1      31.397  25.116  22.465  1.00  0.00    -0.278 N 
ATOM     13  H   UNL A   1      30.667  25.235  21.814  1.00  0.00     0.180 HD
BRANCH  12  14
ATOM     14  S   UNL A   1      32.980  25.494  22.006  1.00  0.00     0.261 S 
ATOM     15  O   UNL A   1      33.062  26.936  22.148  1.00  0.00    -0.201 OA
ATOM     16  O   UNL A   1      33.278  24.848  20.749  1.00  0.00    -0.201 OA
BRANCH  14  17
ATOM     17  C   UNL A   1      34.061  24.782  23.230  1.00  0.00     0.088 A 
ATOM     18  C   UNL A   1      35.796  23.649  25.118  1.00  0.00     0.118 A 
ATOM     19  C   UNL A   1      35.102  24.829  25.409  1.00  0.00     0.048 A 
ATOM     20  C   UNL A   1      35.630  23.049  23.868  1.00  0.00     0.048 A 
ATOM     21  C   UNL A   1      34.237  25.402  24.469  1.00  0.00     0.026 A 
ATOM     22  C   UNL A   1      34.784  23.626  22.915  1.00  0.00     0.026 A 
BRANCH  18  23
ATOM     23  O   UNL A   1      36.600  23.189  26.125  1.00  0.00    -0.497 OA
ATOM     24  C   UNL A   1      37.781  22.497  25.739  1.00  0.00     0.278 C 
ENDBRANCH  18  23
ENDBRANCH  14  17
ENDBRANCH  12  14
ENDBRANCH   6  12
ENDBRANCH   3   5
ENDBRANCH   2   3
ENDBRANCH   1   2
BRANCH   1  25
ATOM     25  C   UNL A   1      31.697  30.087  25.729  1.00  0.00     0.275 C 
BRANCH  25  26
ATOM     26  O   UNL A   1      32.391  30.131  26.991  1.00  0.00    -0.458 OA
BRANCH  26  27
ATOM     27  C   UNL A   1      33.035  31.292  27.238  1.00  0.00     0.338 C 
ATOM     28  O   UNL A   1      32.559  32.415  27.255  1.00  0.00    -0.246 OA
BRANCH  27  29
ATOM     29  C   UNL A   1      34.443  31.053  27.585  1.00  0.00     0.060 A 
ATOM     30  C   UNL A   1      34.848  29.747  27.842  1.00  0.00     0.016 A 
ATOM     31  C   UNL A   1      35.280  32.117  27.907  1.00  0.00     0.016 A 
ATOM     32  C   UNL A   1      36.006  29.491  28.551  1.00  0.00     0.010 A 
ATOM     33  C   UNL A   1      36.514  31.851  28.510  1.00  0.00     0.010 A 
ATOM     34  C   UNL A   1      36.863  30.538  28.881  1.00  0.00    -0.014 A 
BRANCH  34  35
ATOM     35  C   UNL A   1      38.085  30.257  29.669  1.00  0.00     0.031 A 
ATOM     36  C   UNL A   1      39.163  29.401  29.074  1.00  0.00     0.074 A 
ATOM     37  C   UNL A   1      38.239  30.796  30.895  1.00  0.00     0.049 A 
ATOM     38  N   UNL A   1      40.184  28.830  29.658  1.00  0.00    -0.248 NA
ATOM     39  C   UNL A   1      39.071  29.138  27.628  1.00  0.00     0.031 C 
ATOM     40  C   UNL A   1      37.307  31.723  31.542  1.00  0.00     0.029 A 
ATOM     41  N   UNL A   1      39.240  30.637  31.818  1.00  0.00    -0.354 N 
ATOM     42  C   UNL A   1      40.811  28.082  28.669  1.00  0.00     0.074 A 
ATOM     43  C   UNL A   1      40.062  28.276  27.447  1.00  0.00     0.031 C 
ATOM     44  C   UNL A   1      37.791  32.069  32.744  1.00  0.00     0.029 A 
ATOM     45  C   UNL A   1      39.003  31.304  32.996  1.00  0.00     0.049 A 
ATOM     46  H   UNL A   1      40.048  30.100  31.653  1.00  0.00     0.167 HD
ATOM     47  C   UNL A   1      41.908  27.296  28.786  1.00  0.00     0.037 A 
ATOM     48  C   UNL A   1      39.652  31.249  34.172  1.00  0.00     0.037 A 
ATOM     49  C   UNL A   1      42.660  27.160  30.006  1.00  0.00     0.049 A 
ATOM     50  C   UNL A   1      40.828  30.326  34.298  1.00  0.00     0.074 A 
ATOM     51  C   UNL A   1      43.784  26.392  30.249  1.00  0.00     0.029 A 
ATOM     52  N   UNL A   1      42.368  27.828  31.188  1.00  0.00    -0.354 N 
ATOM     53  N   UNL A   1      41.369  29.552  33.388  1.00  0.00    -0.248 NA
ATOM     54  C   UNL A   1      41.468  30.249  35.616  1.00  0.00     0.031 C 
ATOM     55  C   UNL A   1      44.149  26.565  31.589  1.00  0.00     0.029 A 
ATOM     56  C   UNL A   1      43.282  27.480  32.167  1.00  0.00     0.049 A 
ATOM     57  H   UNL A   1      41.619  28.455  31.312  1.00  0.00     0.167 HD
ATOM     58  C   UNL A   1      42.426  28.908  34.016  1.00  0.00     0.074 A 
ATOM     59  C   UNL A   1      42.456  29.398  35.381  1.00  0.00     0.031 C 
ATOM     60  C   UNL A   1      43.292  27.994  33.514  1.00  0.00     0.037 A 
BRANCH  47  61
ATOM     61  C   UNL A   1      42.316  26.490  27.586  1.00  0.00     0.057 A 
ATOM     62  C   UNL A   1      41.859  25.185  27.366  1.00  0.00     0.134 A 
ATOM     63  C   UNL A   1      43.184  27.037  26.632  1.00  0.00     0.134 A 
ATOM     64  F   UNL A   1      41.041  24.592  28.248  1.00  0.00    -0.206 F 
ATOM     65  C   UNL A   1      42.273  24.443  26.256  1.00  0.00     0.040 A 
ATOM     66  C   UNL A   1      43.583  26.318  25.505  1.00  0.00     0.040 A 
ATOM     67  F   UNL A   1      43.660  28.283  26.779  1.00  0.00    -0.206 F 
ATOM     68  C   UNL A   1      43.134  25.012  25.319  1.00  0.00     0.006 A 
ENDBRANCH  47  61
BRANCH  48  69
ATOM     69  C   UNL A   1      39.164  32.045  35.327  1.00  0.00     0.057 A 
ATOM     70  C   UNL A   1      39.562  33.374  35.508  1.00  0.00     0.134 A 
ATOM     71  C   UNL A   1      38.273  31.507  36.265  1.00  0.00     0.134 A 
ATOM     72  F   UNL A   1      40.428  33.941  34.654  1.00  0.00    -0.206 F 
ATOM     73  C   UNL A   1      39.100  34.136  36.582  1.00  0.00     0.040 A 
ATOM     74  C   UNL A   1      37.779  32.266  37.327  1.00  0.00     0.040 A 
ATOM     75  F   UNL A   1      37.847  30.240  36.146  1.00  0.00    -0.206 F 
ATOM     76  C   UNL A   1      38.198  33.583  37.491  1.00  0.00     0.006 A 
ENDBRANCH  48  69
BRANCH  60  77
ATOM     77  C   UNL A   1      44.369  27.509  34.435  1.00  0.00     0.057 A 
ATOM     78  C   UNL A   1      44.213  26.358  35.217  1.00  0.00     0.134 A 
ATOM     79  C   UNL A   1      45.590  28.190  34.517  1.00  0.00     0.134 A 
ATOM     80  F   UNL A   1      43.060  25.672  35.195  1.00  0.00    -0.206 F 
ATOM     81  C   UNL A   1      45.228  25.913  36.065  1.00  0.00     0.040 A 
ATOM     82  C   UNL A   1      46.622  27.740  35.340  1.00  0.00     0.040 A 
ATOM     83  F   UNL A   1      45.803  29.296  33.788  1.00  0.00    -0.206 F 
ATOM     84  C   UNL A   1      46.438  26.601  36.122  1.00  0.00     0.006 A 
ENDBRANCH  60  77
ENDBRANCH  34  35
ENDBRANCH  27  29
ENDBRANCH  26  27
ENDBRANCH  25  26
ENDBRANCH   1  25
TORSDOF 15
ENDMDL
MODEL 3
REMARK VINA RESULT:     -11.5      1.167      2.164
REMARK SMILES COc1ccc(S(=O)(=O)Nc2c(C)cccc2C(=O)OCCOC(=O)c2ccc(-c3c4nc(c(-c5c(F)cccc5F)c5ccc([nH]5)c(-c5c(F)cccc5F)c5nc(c(-c6c(F)cccc6F)c6ccc3[nH]6)C=C5)C=C4)cc2)cc1
REMARK SMILES IDX 21 1 20 2 18 3 19 4 17 5 11 6 12 7 13 8 14 9 16 10 15 11
REMARK SMILES IDX 10 12 7 14 8 15 9 16 6 17 3 18 4 19 81 20 5 21 80 22 2 23
REMARK SMILES IDX 1 24 22 25 23 26 24 27 25 28 26 29 27 30 79 31 28 32 78 33
REMARK SMILES IDX 29 34 30 35 31 36 72 37 32 38 77 39 71 40 73 41 33 42 76 43
REMARK SMILES IDX 70 44 69 45 34 47 60 48 43 49 59 50 44 51 47 52 58 53 74 54
REMARK SMILES IDX 45 55 46 56 57 58 75 59 48 60 35 61 36 62 41 63 37 64 38 65
REMARK SMILES IDX 40 66 42 67 39 68 61 69 62 70 67 71 63 72 64 73 66 74 68 75
REMARK SMILES IDX 65 76 49 77 50 78 55 79 51 80 52 81 54 82 56 83 53 84
REMARK H PARENT 10 13 73 46 47 57
REMARK Flexibility Score: inf
ROOT
ATOM      1  C   UNL A   1      34.772  21.391  24.546  1.00  0.00     0.275 C 
ENDROOT
BRANCH   1   2
ATOM      2  O   UNL A   1      33.856  22.363  25.097  1.00  0.00    -0.458 OA
BRANCH   2   3
ATOM      3  C   UNL A   1      32.618  22.330  24.549  1.00  0.00     0.340 C 
ATOM      4  O   UNL A   1      32.229  21.523  23.721  1.00  0.00    -0.246 OA
BRANCH   3   5
ATOM      5  C   UNL A   1      31.769  23.456  24.985  1.00  0.00     0.084 A 
ATOM      6  C   UNL A   1      31.394  24.462  24.079  1.00  0.00     0.066 A 
ATOM      7  C   UNL A   1      30.405  25.390  24.457  1.00  0.00    -0.026 A 
ATOM      8  C   UNL A   1      29.937  26.515  23.578  1.00  0.00     0.046 C 
ATOM      9  C   UNL A   1      29.799  25.280  25.726  1.00  0.00     0.005 A 
ATOM     10  C   UNL A   1      31.179  23.391  26.256  1.00  0.00     0.018 A 
ATOM     11  C   UNL A   1      30.190  24.294  26.625  1.00  0.00     0.001 A 
BRANCH   6  12
ATOM     12  N   UNL A   1      31.991  24.493  22.779  1.00  0.00    -0.278 N 
ATOM     13  H   UNL A   1      31.539  24.037  22.032  1.00  0.00     0.180 HD
BRANCH  12  14
ATOM     14  S   UNL A   1      33.451  25.296  22.493  1.00  0.00     0.261 S 
ATOM     15  O   UNL A   1      33.276  25.909  21.189  1.00  0.00    -0.201 OA
ATOM     16  O   UNL A   1      34.549  24.393  22.753  1.00  0.00    -0.201 OA
BRANCH  14  17
ATOM     17  C   UNL A   1      33.563  26.615  23.685  1.00  0.00     0.088 A 
ATOM     18  C   UNL A   1      33.694  28.712  25.540  1.00  0.00     0.118 A 
ATOM     19  C   UNL A   1      34.027  27.406  25.919  1.00  0.00     0.048 A 
ATOM     20  C   UNL A   1      33.277  28.959  24.231  1.00  0.00     0.048 A 
ATOM     21  C   UNL A   1      33.959  26.354  24.999  1.00  0.00     0.026 A 
ATOM     22  C   UNL A   1      33.187  27.909  23.310  1.00  0.00     0.026 A 
BRANCH  18  23
ATOM     23  O   UNL A   1      33.813  29.648  26.532  1.00  0.00    -0.497 OA
ATOM     24  C   UNL A   1      34.681  29.330  27.613  1.00  0.00     0.278 C 
ENDBRANCH  18  23
ENDBRANCH  14  17
ENDBRANCH  12  14
ENDBRANCH   6  12
ENDBRANCH   3   5
ENDBRANCH   2   3
ENDBRANCH   1   2
BRANCH   1  25
ATOM     25  C   UNL A   1      35.986  21.138  25.444  1.00  0.00     0.275 C 
BRANCH  25  26
ATOM     26  O   UNL A   1      37.190  21.726  24.914  1.00  0.00    -0.458 OA
BRANCH  26  27
ATOM     27  C   UNL A   1      38.325  21.336  25.531  1.00  0.00     0.338 C 
ATOM     28  O   UNL A   1      38.894  20.261  25.426  1.00  0.00    -0.246 OA
BRANCH  27  29
ATOM     29  C   UNL A   1      38.894  22.426  26.335  1.00  0.00     0.060 A 
ATOM     30  C   UNL A   1      38.445  23.722  26.101  1.00  0.00     0.016 A 
ATOM     31  C   UNL A   1      40.029  22.212  27.111  1.00  0.00     0.016 A 
ATOM     32  C   UNL A   1      39.193  24.814  26.502  1.00  0.00     0.010 A 
ATOM     33  C   UNL A   1      40.716  23.316  27.627  1.00  0.00     0.010 A 
ATOM     34  C   UNL A   1      40.330  24.626  27.284  1.00  0.00    -0.014 A 
BRANCH  34  35
ATOM     35  C   UNL A   1      41.141  25.799  27.681  1.00  0.00     0.031 A 
ATOM     36  C   UNL A   1      40.522  26.867  28.534  1.00  0.00     0.074 A 
ATOM     37  C   UNL A   1      42.433  25.887  27.308  1.00  0.00     0.049 A 
ATOM     38  N   UNL A   1      40.952  28.075  28.790  1.00  0.00    -0.248 NA
ATOM     39  C   UNL A   1      39.236  26.538  29.170  1.00  0.00     0.031 C 
ATOM     40  C   UNL A   1      43.177  24.867  26.563  1.00  0.00     0.029 A 
ATOM     41  N   UNL A   1      43.352  26.886  27.506  1.00  0.00    -0.354 N 
ATOM     42  C   UNL A   1      39.957  28.673  29.554  1.00  0.00     0.074 A 
ATOM     43  C   UNL A   1      38.905  27.695  29.726  1.00  0.00     0.031 C 
ATOM     44  C   UNL A   1      44.440  25.281  26.388  1.00  0.00     0.029 A 
ATOM     45  C   UNL A   1      44.563  26.636  26.906  1.00  0.00     0.049 A 
ATOM     46  H   UNL A   1      43.163  27.700  28.025  1.00  0.00     0.167 HD
ATOM     47  C   UNL A   1      39.930  29.932  30.052  1.00  0.00     0.037 A 
ATOM     48  C   UNL A   1      45.629  27.436  26.731  1.00  0.00     0.037 A 
ATOM     49  C   UNL A   1      41.014  30.867  29.904  1.00  0.00     0.049 A 
ATOM     50  C   UNL A   1      45.554  28.847  27.237  1.00  0.00     0.074 A 
ATOM     51  C   UNL A   1      41.102  32.170  30.360  1.00  0.00     0.029 A 
ATOM     52  N   UNL A   1      42.212  30.586  29.261  1.00  0.00    -0.354 N 
ATOM     53  N   UNL A   1      44.579  29.441  27.883  1.00  0.00    -0.248 NA
ATOM     54  C   UNL A   1      46.713  29.706  26.971  1.00  0.00     0.031 C 
ATOM     55  C   UNL A   1      42.338  32.690  29.958  1.00  0.00     0.029 A 
ATOM     56  C   UNL A   1      43.040  31.694  29.296  1.00  0.00     0.049 A 
ATOM     57  H   UNL A   1      42.438  29.725  28.840  1.00  0.00     0.167 HD
ATOM     58  C   UNL A   1      45.013  30.738  28.118  1.00  0.00     0.074 A 
ATOM     59  C   UNL A   1      46.346  30.836  27.557  1.00  0.00     0.031 C 
ATOM     60  C   UNL A   1      44.369  31.756  28.738  1.00  0.00     0.037 A 
BRANCH  47  61
ATOM     61  C   UNL A   1      38.675  30.377  30.746  1.00  0.00     0.057 A 
ATOM     62  C   UNL A   1      38.478  30.214  32.123  1.00  0.00     0.134 A 
ATOM     63  C   UNL A   1      37.644  30.983  30.016  1.00  0.00     0.134 A 
ATOM     64  F   UNL A   1      39.416  29.624  32.879  1.00  0.00    -0.206 F 
ATOM     65  C   UNL A   1      37.290  30.611  32.744  1.00  0.00     0.040 A 
ATOM     66  C   UNL A   1      36.464  31.410  30.629  1.00  0.00     0.040 A 
ATOM     67  F   UNL A   1      37.765  31.172  28.693  1.00  0.00    -0.206 F 
ATOM     68  C   UNL A   1      36.281  31.216  31.996  1.00  0.00     0.006 A 
ENDBRANCH  47  61
BRANCH  48  69
ATOM     69  C   UNL A   1      46.820  26.938  25.998  1.00  0.00     0.057 A 
ATOM     70  C   UNL A   1      46.975  27.175  24.628  1.00  0.00     0.134 A 
ATOM     71  C   UNL A   1      47.839  26.231  26.649  1.00  0.00     0.134 A 
ATOM     72  F   UNL A   1      46.026  27.830  23.944  1.00  0.00    -0.206 F 
ATOM     73  C   UNL A   1      48.097  26.723  23.931  1.00  0.00     0.040 A 
ATOM     74  C   UNL A   1      48.980  25.798  25.972  1.00  0.00     0.040 A 
ATOM     75  F   UNL A   1      47.754  25.974  27.964  1.00  0.00    -0.206 F 
ATOM     76  C   UNL A   1      49.107  26.039  24.606  1.00  0.00     0.006 A 
ENDBRANCH  48  69
BRANCH  60  77
ATOM     77  C   UNL A   1      45.122  33.043  28.881  1.00  0.00     0.057 A 
ATOM     78  C   UNL A   1      45.971  33.288  29.968  1.00  0.00     0.134 A 
ATOM     79  C   UNL A   1      45.016  34.038  27.901  1.00  0.00     0.134 A 
ATOM     80  F   UNL A   1      46.101  32.380  30.947  1.00  0.00    -0.206 F 
ATOM     81  C   UNL A   1      46.672  34.489  30.085  1.00  0.00     0.040 A 
ATOM     82  C   UNL A   1      45.733  35.231  27.994  1.00  0.00     0.040 A 
ATOM     83  F   UNL A   1      44.224  33.860  26.833  1.00  0.00    -0.206 F 
ATOM     84  C   UNL A   1      46.559  35.461  29.093  1.00  0.00     0.006 A 
ENDBRANCH  60  77
ENDBRANCH  34  35
ENDBRANCH  27  29
ENDBRANCH  26  27
ENDBRANCH  25  26
ENDBRANCH   1  25
TORSDOF 15
ENDMDL
