MODEL 1
REMARK VINA RESULT:     -10.3      0.000      0.000
REMARK SMILES CC[NH2+][C@@]1(C(=O)OCCOC(=O)c2ccc(-c3c4nc(c(-c5c(F)cccc5F)c5ccc([nH]5)c(-c5c(F)cccc5F)c5nc(c(-c6c(F)cccc6F)c6ccc3[nH]6)C=C5)C=C4)cc2)CCC[C@H]1CCSc1cnn(C)c1
REMARK SMILES IDX 8 1 7 2 5 3 6 4 4 5 67 6 70 7 68 8 69 9 3 10 2 13 1 14 71 15
REMARK SMILES IDX 72 16 73 17 74 18 75 19 79 20 76 21 77 22 78 23 9 24 10 25
REMARK SMILES IDX 11 26 12 27 13 28 14 29 66 30 15 31 65 32 16 33 17 34 18 35
REMARK SMILES IDX 59 36 19 37 64 38 58 39 60 40 20 41 63 42 57 43 56 44 21 46
REMARK SMILES IDX 47 47 30 48 46 49 31 50 34 51 45 52 61 53 32 54 33 55 44 57
REMARK SMILES IDX 62 58 35 59 22 60 23 61 28 62 24 63 25 64 27 65 29 66 26 67
REMARK SMILES IDX 48 68 49 69 54 70 50 71 51 72 53 73 55 74 52 75 36 76 37 77
REMARK SMILES IDX 42 78 38 79 39 80 41 81 43 82 40 83
REMARK H PARENT 3 11 3 12 60 45 34 56
REMARK Flexibility Score: inf
ROOT
ATOM      1  C   UNL A   1      32.064  31.147  26.881  1.00  0.00     0.274 C 
ENDROOT
BRANCH   1   2
ATOM      2  O   UNL A   1      32.512  30.392  25.736  1.00  0.00    -0.457 OA
BRANCH   2   3
ATOM      3  C   UNL A   1      33.090  29.189  25.978  1.00  0.00     0.368 C 
ATOM      4  O   UNL A   1      34.080  29.061  26.698  1.00  0.00    -0.245 OA
BRANCH   3   5
ATOM      5  C   UNL A   1      32.381  27.970  25.253  1.00  0.00     0.197 C 
ATOM      6  C   UNL A   1      33.402  27.393  24.250  1.00  0.00     0.081 C 
ATOM      7  C   UNL A   1      31.192  28.397  24.296  1.00  0.00     0.063 C 
ATOM      8  C   UNL A   1      33.359  28.374  23.093  1.00  0.00     0.008 C 
ATOM      9  C   UNL A   1      31.890  28.740  22.953  1.00  0.00     0.011 C 
BRANCH   5  10
ATOM     10  N   UNL A   1      31.991  26.909  26.236  1.00  0.00    -0.332 N 
ATOM     11  H   UNL A   1      32.131  27.284  27.174  1.00  0.00     0.347 HD
ATOM     12  H   UNL A   1      31.020  26.677  26.025  1.00  0.00     0.347 HD
BRANCH  10  13
ATOM     13  C   UNL A   1      32.735  25.646  26.139  1.00  0.00     0.257 C 
ATOM     14  C   UNL A   1      31.792  24.462  25.958  1.00  0.00     0.071 C 
ENDBRANCH  10  13
ENDBRANCH   5  10
BRANCH   7  15
ATOM     15  C   UNL A   1      30.069  27.349  24.032  1.00  0.00     0.022 C 
BRANCH  15  16
ATOM     16  C   UNL A   1      29.160  27.654  22.831  1.00  0.00     0.075 C 
BRANCH  16  17
ATOM     17  S   UNL A   1      27.657  28.603  23.255  1.00  0.00    -0.123 SA
BRANCH  17  18
ATOM     18  C   UNL A   1      28.089  30.231  22.822  1.00  0.00     0.045 A 
ATOM     19  C   UNL A   1      28.347  30.702  21.522  1.00  0.00     0.150 A 
ATOM     20  C   UNL A   1      28.207  31.339  23.629  1.00  0.00     0.123 A 
ATOM     21  N   UNL A   1      28.640  32.006  21.497  1.00  0.00    -0.181 NA
ATOM     22  N   UNL A   1      28.604  32.354  22.799  1.00  0.00    -0.275 N 
ATOM     23  C   UNL A   1      29.018  33.683  23.183  1.00  0.00     0.173 C 
ENDBRANCH  17  18
ENDBRANCH  16  17
ENDBRANCH  15  16
ENDBRANCH   7  15
ENDBRANCH   3   5
ENDBRANCH   2   3
ENDBRANCH   1   2
BRANCH   1  24
ATOM     24  C   UNL A   1      32.878  32.443  27.057  1.00  0.00     0.275 C 
BRANCH  24  25
ATOM     25  O   UNL A   1      32.138  33.533  27.666  1.00  0.00    -0.458 OA
BRANCH  25  26
ATOM     26  C   UNL A   1      32.911  34.300  28.463  1.00  0.00     0.338 C 
ATOM     27  O   UNL A   1      32.593  35.391  28.906  1.00  0.00    -0.246 OA
BRANCH  26  28
ATOM     28  C   UNL A   1      34.248  33.775  28.791  1.00  0.00     0.060 A 
ATOM     29  C   UNL A   1      34.247  32.731  29.717  1.00  0.00     0.016 A 
ATOM     30  C   UNL A   1      35.456  34.360  28.415  1.00  0.00     0.016 A 
ATOM     31  C   UNL A   1      35.407  32.295  30.322  1.00  0.00     0.010 A 
ATOM     32  C   UNL A   1      36.649  33.896  29.001  1.00  0.00     0.010 A 
ATOM     33  C   UNL A   1      36.621  32.871  29.965  1.00  0.00    -0.014 A 
BRANCH  33  34
ATOM     34  C   UNL A   1      37.818  32.257  30.569  1.00  0.00     0.031 A 
ATOM     35  C   UNL A   1      38.202  32.541  31.987  1.00  0.00     0.074 A 
ATOM     36  C   UNL A   1      38.399  31.253  29.891  1.00  0.00     0.049 A 
ATOM     37  N   UNL A   1      39.110  31.957  32.725  1.00  0.00    -0.248 NA
ATOM     38  C   UNL A   1      37.452  33.602  32.674  1.00  0.00     0.031 C 
ATOM     39  C   UNL A   1      37.997  30.808  28.553  1.00  0.00     0.029 A 
ATOM     40  N   UNL A   1      39.402  30.394  30.245  1.00  0.00    -0.354 N 
ATOM     41  C   UNL A   1      39.040  32.570  33.967  1.00  0.00     0.074 A 
ATOM     42  C   UNL A   1      38.006  33.581  33.881  1.00  0.00     0.031 C 
ATOM     43  C   UNL A   1      38.743  29.751  28.204  1.00  0.00     0.029 A 
ATOM     44  C   UNL A   1      39.691  29.467  29.277  1.00  0.00     0.049 A 
ATOM     45  H   UNL A   1      39.870  30.437  31.110  1.00  0.00     0.167 HD
ATOM     46  C   UNL A   1      39.778  32.310  35.074  1.00  0.00     0.037 A 
ATOM     47  C   UNL A   1      40.626  28.503  29.250  1.00  0.00     0.037 A 
ATOM     48  C   UNL A   1      40.817  31.313  35.142  1.00  0.00     0.049 A 
ATOM     49  C   UNL A   1      41.492  28.297  30.455  1.00  0.00     0.074 A 
ATOM     50  C   UNL A   1      41.655  31.007  36.200  1.00  0.00     0.029 A 
ATOM     51  N   UNL A   1      41.162  30.460  34.102  1.00  0.00    -0.354 N 
ATOM     52  N   UNL A   1      41.448  28.911  31.613  1.00  0.00    -0.248 NA
ATOM     53  C   UNL A   1      42.533  27.267  30.354  1.00  0.00     0.031 C 
ATOM     54  C   UNL A   1      42.535  29.997  35.786  1.00  0.00     0.029 A 
ATOM     55  C   UNL A   1      42.217  29.647  34.483  1.00  0.00     0.049 A 
ATOM     56  H   UNL A   1      40.720  30.435  33.223  1.00  0.00     0.167 HD
ATOM     57  C   UNL A   1      42.453  28.343  32.382  1.00  0.00     0.074 A 
ATOM     58  C   UNL A   1      43.072  27.317  31.565  1.00  0.00     0.031 C 
ATOM     59  C   UNL A   1      42.832  28.645  33.648  1.00  0.00     0.037 A 
BRANCH  46  60
ATOM     60  C   UNL A   1      39.524  33.165  36.279  1.00  0.00     0.057 A 
ATOM     61  C   UNL A   1      38.526  32.857  37.211  1.00  0.00     0.134 A 
ATOM     62  C   UNL A   1      40.296  34.311  36.511  1.00  0.00     0.134 A 
ATOM     63  F   UNL A   1      37.744  31.781  37.039  1.00  0.00    -0.206 F 
ATOM     64  C   UNL A   1      38.290  33.672  38.321  1.00  0.00     0.040 A 
ATOM     65  C   UNL A   1      40.081  35.123  37.625  1.00  0.00     0.040 A 
ATOM     66  F   UNL A   1      41.269  34.660  35.655  1.00  0.00    -0.206 F 
ATOM     67  C   UNL A   1      39.071  34.808  38.531  1.00  0.00     0.006 A 
ENDBRANCH  46  60
BRANCH  47  68
ATOM     68  C   UNL A   1      40.797  27.698  28.018  1.00  0.00     0.057 A 
ATOM     69  C   UNL A   1      41.634  28.113  26.979  1.00  0.00     0.134 A 
ATOM     70  C   UNL A   1      40.154  26.461  27.879  1.00  0.00     0.134 A 
ATOM     71  F   UNL A   1      42.266  29.294  27.050  1.00  0.00    -0.206 F 
ATOM     72  C   UNL A   1      41.826  27.326  25.842  1.00  0.00     0.040 A 
ATOM     73  C   UNL A   1      40.354  25.654  26.761  1.00  0.00     0.040 A 
ATOM     74  F   UNL A   1      39.345  26.007  28.848  1.00  0.00    -0.206 F 
ATOM     75  C   UNL A   1      41.191  26.089  25.736  1.00  0.00     0.006 A 
ENDBRANCH  47  68
BRANCH  59  76
ATOM     76  C   UNL A   1      43.974  27.857  34.212  1.00  0.00     0.057 A 
ATOM     77  C   UNL A   1      43.771  26.618  34.834  1.00  0.00     0.134 A 
ATOM     78  C   UNL A   1      45.287  28.334  34.127  1.00  0.00     0.134 A 
ATOM     79  F   UNL A   1      42.534  26.116  34.961  1.00  0.00    -0.206 F 
ATOM     80  C   UNL A   1      44.834  25.891  35.372  1.00  0.00     0.040 A 
ATOM     81  C   UNL A   1      46.360  27.607  34.643  1.00  0.00     0.040 A 
ATOM     82  F   UNL A   1      45.547  29.512  33.541  1.00  0.00    -0.206 F 
ATOM     83  C   UNL A   1      46.134  26.384  35.273  1.00  0.00     0.006 A 
ENDBRANCH  59  76
ENDBRANCH  33  34
ENDBRANCH  26  28
ENDBRANCH  25  26
ENDBRANCH  24  25
ENDBRANCH   1  24
TORSDOF 17
ENDMDL
MODEL 2
REMARK VINA RESULT:     -10.3      4.843      9.290
REMARK SMILES CC[NH2+][C@@]1(C(=O)OCCOC(=O)c2ccc(-c3c4nc(c(-c5c(F)cccc5F)c5ccc([nH]5)c(-c5c(F)cccc5F)c5nc(c(-c6c(F)cccc6F)c6ccc3[nH]6)C=C5)C=C4)cc2)CCC[C@H]1CCSc1cnn(C)c1
REMARK SMILES IDX 8 1 7 2 5 3 6 4 4 5 67 6 70 7 68 8 69 9 3 10 2 13 1 14 71 15
REMARK SMILES IDX 72 16 73 17 74 18 75 19 79 20 76 21 77 22 78 23 9 24 10 25
REMARK SMILES IDX 11 26 12 27 13 28 14 29 66 30 15 31 65 32 16 33 17 34 18 35
REMARK SMILES IDX 59 36 19 37 64 38 58 39 60 40 20 41 63 42 57 43 56 44 21 46
REMARK SMILES IDX 47 47 30 48 46 49 31 50 34 51 45 52 61 53 32 54 33 55 44 57
REMARK SMILES IDX 62 58 35 59 22 60 23 61 28 62 24 63 25 64 27 65 29 66 26 67
REMARK SMILES IDX 48 68 49 69 54 70 50 71 51 72 53 73 55 74 52 75 36 76 37 77
REMARK SMILES IDX 42 78 38 79 39 80 41 81 43 82 40 83
REMARK H PARENT 3 11 3 12 60 45 34 56
REMARK Flexibility Score: inf
ROOT
ATOM      1  C   UNL A   1      34.890  20.308  25.312  1.00  0.00     0.274 C 
ENDROOT
BRANCH   1   2
ATOM      2  O   UNL A   1      33.849  21.252  24.984  1.00  0.00    -0.457 OA
BRANCH   2   3
ATOM      3  C   UNL A   1      33.574  22.212  25.903  1.00  0.00     0.368 C 
ATOM      4  O   UNL A   1      33.913  22.118  27.083  1.00  0.00    -0.245 OA
BRANCH   3   5
ATOM      5  C   UNL A   1      32.781  23.457  25.325  1.00  0.00     0.197 C 
ATOM      6  C   UNL A   1      33.426  23.805  23.967  1.00  0.00     0.081 C 
ATOM      7  C   UNL A   1      33.007  24.796  26.143  1.00  0.00     0.063 C 
ATOM      8  C   UNL A   1      34.700  24.532  24.352  1.00  0.00     0.008 C 
ATOM      9  C   UNL A   1      34.306  25.394  25.542  1.00  0.00     0.011 C 
BRANCH   5  10
ATOM     10  N   UNL A   1      31.334  23.130  25.123  1.00  0.00    -0.332 N 
ATOM     11  H   UNL A   1      30.810  24.005  25.133  1.00  0.00     0.347 HD
ATOM     12  H   UNL A   1      31.282  22.628  24.236  1.00  0.00     0.347 HD
BRANCH  10  13
ATOM     13  C   UNL A   1      30.737  22.235  26.124  1.00  0.00     0.257 C 
ATOM     14  C   UNL A   1      29.659  22.950  26.931  1.00  0.00     0.071 C 
ENDBRANCH  10  13
ENDBRANCH   5  10
BRANCH   7  15
ATOM     15  C   UNL A   1      31.880  25.872  26.087  1.00  0.00     0.022 C 
BRANCH  15  16
ATOM     16  C   UNL A   1      32.369  27.326  25.994  1.00  0.00     0.075 C 
BRANCH  16  17
ATOM     17  S   UNL A   1      31.637  28.273  24.614  1.00  0.00    -0.123 SA
BRANCH  17  18
ATOM     18  C   UNL A   1      32.318  27.505  23.209  1.00  0.00     0.045 A 
ATOM     19  C   UNL A   1      33.621  27.690  22.714  1.00  0.00     0.150 A 
ATOM     20  C   UNL A   1      31.752  26.570  22.374  1.00  0.00     0.123 A 
ATOM     21  N   UNL A   1      33.866  26.953  21.626  1.00  0.00    -0.181 NA
ATOM     22  N   UNL A   1      32.692  26.326  21.409  1.00  0.00    -0.275 N 
ATOM     23  C   UNL A   1      32.528  25.538  20.211  1.00  0.00     0.173 C 
ENDBRANCH  17  18
ENDBRANCH  16  17
ENDBRANCH  15  16
ENDBRANCH   7  15
ENDBRANCH   3   5
ENDBRANCH   2   3
ENDBRANCH   1   2
BRANCH   1  24
ATOM     24  C   UNL A   1      36.260  20.771  24.783  1.00  0.00     0.275 C 
BRANCH  24  25
ATOM     25  O   UNL A   1      36.924  21.751  25.623  1.00  0.00    -0.458 OA
BRANCH  25  26
ATOM     26  C   UNL A   1      38.242  21.498  25.768  1.00  0.00     0.338 C 
ATOM     27  O   UNL A   1      38.808  20.492  25.376  1.00  0.00    -0.246 OA
BRANCH  26  28
ATOM     28  C   UNL A   1      39.036  22.516  26.477  1.00  0.00     0.060 A 
ATOM     29  C   UNL A   1      38.731  23.833  26.129  1.00  0.00     0.016 A 
ATOM     30  C   UNL A   1      40.150  22.256  27.273  1.00  0.00     0.016 A 
ATOM     31  C   UNL A   1      39.537  24.888  26.500  1.00  0.00     0.010 A 
ATOM     32  C   UNL A   1      40.958  23.331  27.687  1.00  0.00     0.010 A 
ATOM     33  C   UNL A   1      40.658  24.647  27.288  1.00  0.00    -0.014 A 
BRANCH  33  34
ATOM     34  C   UNL A   1      41.387  25.846  27.739  1.00  0.00     0.031 A 
ATOM     35  C   UNL A   1      42.770  26.142  27.249  1.00  0.00     0.074 A 
ATOM     36  C   UNL A   1      40.681  26.780  28.399  1.00  0.00     0.049 A 
ATOM     37  N   UNL A   1      43.481  27.229  27.402  1.00  0.00    -0.248 NA
ATOM     38  C   UNL A   1      43.430  25.091  26.463  1.00  0.00     0.031 C 
ATOM     39  C   UNL A   1      39.277  26.637  28.796  1.00  0.00     0.029 A 
ATOM     40  N   UNL A   1      41.019  28.043  28.801  1.00  0.00    -0.354 N 
ATOM     41  C   UNL A   1      44.671  27.001  26.727  1.00  0.00     0.074 A 
ATOM     42  C   UNL A   1      44.591  25.666  26.171  1.00  0.00     0.031 C 
ATOM     43  C   UNL A   1      38.872  27.774  29.378  1.00  0.00     0.029 A 
ATOM     44  C   UNL A   1      39.993  28.708  29.422  1.00  0.00     0.049 A 
ATOM     45  H   UNL A   1      41.911  28.435  28.658  1.00  0.00     0.167 HD
ATOM     46  C   UNL A   1      45.731  27.835  26.592  1.00  0.00     0.037 A 
ATOM     47  C   UNL A   1      39.963  29.931  29.977  1.00  0.00     0.037 A 
ATOM     48  C   UNL A   1      45.806  29.155  27.165  1.00  0.00     0.049 A 
ATOM     49  C   UNL A   1      41.182  30.798  29.892  1.00  0.00     0.074 A 
ATOM     50  C   UNL A   1      46.855  30.058  27.126  1.00  0.00     0.029 A 
ATOM     51  N   UNL A   1      44.786  29.761  27.885  1.00  0.00    -0.354 N 
ATOM     52  N   UNL A   1      42.321  30.558  29.288  1.00  0.00    -0.248 NA
ATOM     53  C   UNL A   1      41.114  32.103  30.561  1.00  0.00     0.031 C 
ATOM     54  C   UNL A   1      46.484  31.193  27.860  1.00  0.00     0.029 A 
ATOM     55  C   UNL A   1      45.188  31.013  28.321  1.00  0.00     0.049 A 
ATOM     56  H   UNL A   1      43.904  29.361  28.060  1.00  0.00     0.167 HD
ATOM     57  C   UNL A   1      43.107  31.680  29.502  1.00  0.00     0.074 A 
ATOM     58  C   UNL A   1      42.303  32.611  30.269  1.00  0.00     0.031 C 
ATOM     59  C   UNL A   1      44.381  31.917  29.101  1.00  0.00     0.037 A 
BRANCH  46  60
ATOM     60  C   UNL A   1      46.919  27.309  25.844  1.00  0.00     0.057 A 
ATOM     61  C   UNL A   1      47.088  27.526  24.471  1.00  0.00     0.134 A 
ATOM     62  C   UNL A   1      47.912  26.581  26.510  1.00  0.00     0.134 A 
ATOM     63  F   UNL A   1      46.165  28.204  23.771  1.00  0.00    -0.206 F 
ATOM     64  C   UNL A   1      48.192  27.016  23.783  1.00  0.00     0.040 A 
ATOM     65  C   UNL A   1      49.028  26.081  25.838  1.00  0.00     0.040 A 
ATOM     66  F   UNL A   1      47.810  26.340  27.827  1.00  0.00    -0.206 F 
ATOM     67  C   UNL A   1      49.168  26.294  24.469  1.00  0.00     0.006 A 
ENDBRANCH  46  60
BRANCH  47  68
ATOM     68  C   UNL A   1      38.739  30.371  30.686  1.00  0.00     0.057 A 
ATOM     69  C   UNL A   1      38.516  30.059  32.030  1.00  0.00     0.134 A 
ATOM     70  C   UNL A   1      37.782  31.161  30.035  1.00  0.00     0.134 A 
ATOM     71  F   UNL A   1      39.391  29.295  32.701  1.00  0.00    -0.206 F 
ATOM     72  C   UNL A   1      37.382  30.517  32.703  1.00  0.00     0.040 A 
ATOM     73  C   UNL A   1      36.658  31.645  30.701  1.00  0.00     0.040 A 
ATOM     74  F   UNL A   1      37.946  31.499  28.748  1.00  0.00    -0.206 F 
ATOM     75  C   UNL A   1      36.455  31.320  32.040  1.00  0.00     0.006 A 
ENDBRANCH  47  68
BRANCH  59  76
ATOM     76  C   UNL A   1      44.974  33.233  29.499  1.00  0.00     0.057 A 
ATOM     77  C   UNL A   1      45.691  33.381  30.694  1.00  0.00     0.134 A 
ATOM     78  C   UNL A   1      44.838  34.360  28.680  1.00  0.00     0.134 A 
ATOM     79  F   UNL A   1      45.841  32.342  31.529  1.00  0.00    -0.206 F 
ATOM     80  C   UNL A   1      46.231  34.611  31.072  1.00  0.00     0.040 A 
ATOM     81  C   UNL A   1      45.391  35.590  29.037  1.00  0.00     0.040 A 
ATOM     82  F   UNL A   1      44.166  34.283  27.521  1.00  0.00    -0.206 F 
ATOM     83  C   UNL A   1      46.085  35.720  30.238  1.00  0.00     0.006 A 
ENDBRANCH  59  76
ENDBRANCH  33  34
ENDBRANCH  26  28
ENDBRANCH  25  26
ENDBRANCH  24  25
ENDBRANCH   1  24
TORSDOF 17
ENDMDL
MODEL 3
REMARK VINA RESULT:     -10.2      1.770      3.803
REMARK SMILES CC[NH2+][C@@]1(C(=O)OCCOC(=O)c2ccc(-c3c4nc(c(-c5c(F)cccc5F)c5ccc([nH]5)c(-c5c(F)cccc5F)c5nc(c(-c6c(F)cccc6F)c6ccc3[nH]6)C=C5)C=C4)cc2)CCC[C@H]1CCSc1cnn(C)c1
REMARK SMILES IDX 8 1 7 2 5 3 6 4 4 5 67 6 70 7 68 8 69 9 3 10 2 13 1 14 71 15
REMARK SMILES IDX 72 16 73 17 74 18 75 19 79 20 76 21 77 22 78 23 9 24 10 25
REMARK SMILES IDX 11 26 12 27 13 28 14 29 66 30 15 31 65 32 16 33 17 34 18 35
REMARK SMILES IDX 59 36 19 37 64 38 58 39 60 40 20 41 63 42 57 43 56 44 21 46
REMARK SMILES IDX 47 47 30 48 46 49 31 50 34 51 45 52 61 53 32 54 33 55 44 57
REMARK SMILES IDX 62 58 35 59 22 60 23 61 28 62 24 63 25 64 27 65 29 66 26 67
REMARK SMILES IDX 48 68 49 69 54 70 50 71 51 72 53 73 55 74 52 75 36 76 37 77
REMARK SMILES IDX 42 78 38 79 39 80 41 81 43 82 40 83
REMARK H PARENT 3 11 3 12 60 45 34 56
REMARK Flexibility Score: inf
ROOT
ATOM      1  C   UNL A   1      31.759  30.708  26.870  1.00  0.00     0.274 C 
ENDROOT
BRANCH   1   2
ATOM      2  O   UNL A   1      31.580  30.104  25.572  1.00  0.00    -0.457 OA
BRANCH   2   3
ATOM      3  C   UNL A   1      32.609  29.362  25.090  1.00  0.00     0.368 C 
ATOM      4  O   UNL A   1      33.787  29.630  25.322  1.00  0.00    -0.245 OA
BRANCH   3   5
ATOM      5  C   UNL A   1      32.159  28.126  24.204  1.00  0.00     0.197 C 
ATOM      6  C   UNL A   1      31.082  27.369  25.009  1.00  0.00     0.081 C 
ATOM      7  C   UNL A   1      33.279  27.016  24.038  1.00  0.00     0.063 C 
ATOM      8  C   UNL A   1      31.883  26.601  26.044  1.00  0.00     0.008 C 
ATOM      9  C   UNL A   1      33.119  26.124  25.297  1.00  0.00     0.011 C 
BRANCH   5  10
ATOM     10  N   UNL A   1      31.583  28.577  22.898  1.00  0.00    -0.332 N 
ATOM     11  H   UNL A   1      31.671  29.592  22.850  1.00  0.00     0.347 HD
ATOM     12  H   UNL A   1      32.107  28.083  22.175  1.00  0.00     0.347 HD
BRANCH  10  13
ATOM     13  C   UNL A   1      30.171  28.236  22.672  1.00  0.00     0.257 C 
ATOM     14  C   UNL A   1      29.319  29.489  22.508  1.00  0.00     0.071 C 
ENDBRANCH  10  13
ENDBRANCH   5  10
BRANCH   7  15
ATOM     15  C   UNL A   1      33.217  26.116  22.766  1.00  0.00     0.022 C 
BRANCH  15  16
ATOM     16  C   UNL A   1      32.447  24.797  22.937  1.00  0.00     0.075 C 
BRANCH  16  17
ATOM     17  S   UNL A   1      33.416  23.307  22.516  1.00  0.00    -0.123 SA
BRANCH  17  18
ATOM     18  C   UNL A   1      34.036  22.796  24.058  1.00  0.00     0.045 A 
ATOM     19  C   UNL A   1      35.394  22.693  24.413  1.00  0.00     0.150 A 
ATOM     20  C   UNL A   1      33.347  22.455  25.199  1.00  0.00     0.123 A 
ATOM     21  N   UNL A   1      35.565  22.288  25.675  1.00  0.00    -0.181 NA
ATOM     22  N   UNL A   1      34.304  22.095  26.110  1.00  0.00    -0.275 N 
ATOM     23  C   UNL A   1      34.092  21.506  27.411  1.00  0.00     0.173 C 
ENDBRANCH  17  18
ENDBRANCH  16  17
ENDBRANCH  15  16
ENDBRANCH   7  15
ENDBRANCH   3   5
ENDBRANCH   2   3
ENDBRANCH   1   2
BRANCH   1  24
ATOM     24  C   UNL A   1      31.419  32.210  26.845  1.00  0.00     0.275 C 
BRANCH  24  25
ATOM     25  O   UNL A   1      32.567  33.078  26.656  1.00  0.00    -0.458 OA
BRANCH  25  26
ATOM     26  C   UNL A   1      33.040  33.569  27.821  1.00  0.00     0.338 C 
ATOM     27  O   UNL A   1      32.447  34.354  28.541  1.00  0.00    -0.246 OA
BRANCH  26  28
ATOM     28  C   UNL A   1      34.386  33.130  28.226  1.00  0.00     0.060 A 
ATOM     29  C   UNL A   1      34.406  31.981  29.020  1.00  0.00     0.016 A 
ATOM     30  C   UNL A   1      35.558  33.863  28.050  1.00  0.00     0.016 A 
ATOM     31  C   UNL A   1      35.542  31.580  29.690  1.00  0.00     0.010 A 
ATOM     32  C   UNL A   1      36.732  33.439  28.701  1.00  0.00     0.010 A 
ATOM     33  C   UNL A   1      36.719  32.304  29.533  1.00  0.00    -0.014 A 
BRANCH  33  34
ATOM     34  C   UNL A   1      37.910  31.730  30.185  1.00  0.00     0.031 A 
ATOM     35  C   UNL A   1      38.196  31.979  31.632  1.00  0.00     0.074 A 
ATOM     36  C   UNL A   1      38.582  30.783  29.507  1.00  0.00     0.049 A 
ATOM     37  N   UNL A   1      39.091  31.415  32.402  1.00  0.00    -0.248 NA
ATOM     38  C   UNL A   1      37.352  32.973  32.310  1.00  0.00     0.031 C 
ATOM     39  C   UNL A   1      38.282  30.369  28.134  1.00  0.00     0.029 A 
ATOM     40  N   UNL A   1      39.608  29.964  29.891  1.00  0.00    -0.354 N 
ATOM     41  C   UNL A   1      38.917  31.976  33.658  1.00  0.00     0.074 A 
ATOM     42  C   UNL A   1      37.836  32.935  33.546  1.00  0.00     0.031 C 
ATOM     43  C   UNL A   1      39.103  29.366  27.793  1.00  0.00     0.029 A 
ATOM     44  C   UNL A   1      40.001  29.090  28.909  1.00  0.00     0.049 A 
ATOM     45  H   UNL A   1      40.023  29.998  30.783  1.00  0.00     0.167 HD
ATOM     46  C   UNL A   1      39.603  31.713  34.797  1.00  0.00     0.037 A 
ATOM     47  C   UNL A   1      40.987  28.177  28.905  1.00  0.00     0.037 A 
ATOM     48  C   UNL A   1      40.688  30.769  34.892  1.00  0.00     0.049 A 
ATOM     49  C   UNL A   1      41.792  27.970  30.152  1.00  0.00     0.074 A 
ATOM     50  C   UNL A   1      41.479  30.466  35.987  1.00  0.00     0.029 A 
ATOM     51  N   UNL A   1      41.137  29.974  33.845  1.00  0.00    -0.354 N 
ATOM     52  N   UNL A   1      41.649  28.537  31.325  1.00  0.00    -0.248 NA
ATOM     53  C   UNL A   1      42.890  27.000  30.077  1.00  0.00     0.031 C 
ATOM     54  C   UNL A   1      42.434  29.519  35.591  1.00  0.00     0.029 A 
ATOM     55  C   UNL A   1      42.211  29.202  34.259  1.00  0.00     0.049 A 
ATOM     56  H   UNL A   1      40.748  29.960  32.941  1.00  0.00     0.167 HD
ATOM     57  C   UNL A   1      42.637  27.993  32.132  1.00  0.00     0.074 A 
ATOM     58  C   UNL A   1      43.355  27.032  31.318  1.00  0.00     0.031 C 
ATOM     59  C   UNL A   1      42.925  28.266  33.428  1.00  0.00     0.037 A 
BRANCH  46  60
ATOM     60  C   UNL A   1      39.235  32.508  36.014  1.00  0.00     0.057 A 
ATOM     61  C   UNL A   1      39.785  33.769  36.271  1.00  0.00     0.134 A 
ATOM     62  C   UNL A   1      38.311  32.004  36.937  1.00  0.00     0.134 A 
ATOM     63  F   UNL A   1      40.687  34.302  35.432  1.00  0.00    -0.206 F 
ATOM     64  C   UNL A   1      39.445  34.492  37.417  1.00  0.00     0.040 A 
ATOM     65  C   UNL A   1      37.950  32.724  38.076  1.00  0.00     0.040 A 
ATOM     66  F   UNL A   1      37.747  30.801  36.747  1.00  0.00    -0.206 F 
ATOM     67  C   UNL A   1      38.522  33.970  38.322  1.00  0.00     0.006 A 
ENDBRANCH  46  60
BRANCH  47  68
ATOM     68  C   UNL A   1      41.271  27.429  27.658  1.00  0.00     0.057 A 
ATOM     69  C   UNL A   1      42.114  27.942  26.669  1.00  0.00     0.134 A 
ATOM     70  C   UNL A   1      40.733  26.152  27.455  1.00  0.00     0.134 A 
ATOM     71  F   UNL A   1      42.648  29.165  26.803  1.00  0.00    -0.206 F 
ATOM     72  C   UNL A   1      42.414  27.211  25.519  1.00  0.00     0.040 A 
ATOM     73  C   UNL A   1      41.042  25.400  26.323  1.00  0.00     0.040 A 
ATOM     74  F   UNL A   1      39.923  25.604  28.373  1.00  0.00    -0.206 F 
ATOM     75  C   UNL A   1      41.884  25.932  25.349  1.00  0.00     0.006 A 
ENDBRANCH  47  68
BRANCH  59  76
ATOM     76  C   UNL A   1      44.073  27.517  34.032  1.00  0.00     0.057 A 
ATOM     77  C   UNL A   1      43.893  26.269  34.642  1.00  0.00     0.134 A 
ATOM     78  C   UNL A   1      45.371  28.040  33.995  1.00  0.00     0.134 A 
ATOM     79  F   UNL A   1      42.670  25.723  34.723  1.00  0.00    -0.206 F 
ATOM     80  C   UNL A   1      44.961  25.578  35.217  1.00  0.00     0.040 A 
ATOM     81  C   UNL A   1      46.450  27.350  34.548  1.00  0.00     0.040 A 
ATOM     82  F   UNL A   1      45.610  29.230  33.422  1.00  0.00    -0.206 F 
ATOM     83  C   UNL A   1      46.245  26.118  35.167  1.00  0.00     0.006 A 
ENDBRANCH  59  76
ENDBRANCH  33  34
ENDBRANCH  26  28
ENDBRANCH  25  26
ENDBRANCH  24  25
ENDBRANCH   1  24
TORSDOF 17
ENDMDL
