MODEL 1
REMARK VINA RESULT:     -11.9      0.000      0.000
REMARK SMILES C/C(=C\C(=O)c1c(O)n(C)c2ccccc2c1=O)Nc1ccc(C(=O)OCCOC(=O)c2ccc(-c3c4nc(c(-c5c(F)cccc5F)c5ccc([nH]5)c(-c5c(F)cccc5F)c5nc(c(-c6c(F)cccc6F)c6ccc3[nH]6)C=C5)C=C4)cc2)cc1
REMARK SMILES IDX 26 1 24 2 25 3 23 4 20 5 21 6 87 7 22 8 86 9 19 10 2 12 1 13
REMARK SMILES IDX 3 14 4 15 5 16 6 17 7 18 17 19 9 20 16 21 18 22 10 23 11 24
REMARK SMILES IDX 15 25 12 26 14 27 13 28 8 29 27 31 28 32 29 33 30 34 31 35
REMARK SMILES IDX 32 36 33 37 85 38 34 39 84 40 35 41 36 42 37 43 78 44 38 45
REMARK SMILES IDX 83 46 77 47 79 48 39 49 82 50 76 51 75 52 40 54 66 55 49 56
REMARK SMILES IDX 65 57 50 58 53 59 64 60 80 61 51 62 52 63 63 65 81 66 54 67
REMARK SMILES IDX 41 68 42 69 47 70 43 71 44 72 46 73 48 74 45 75 67 76 68 77
REMARK SMILES IDX 73 78 69 79 70 80 72 81 74 82 71 83 55 84 56 85 61 86 57 87
REMARK SMILES IDX 58 88 60 89 62 90 59 91
REMARK H PARENT 19 11 8 30 79 53 53 64
REMARK Flexibility Score: inf
ROOT
ATOM      1  O   UNL A   1      42.276  21.333  26.845  1.00  0.00    -0.458 OA
ENDROOT
BRANCH   1   2
ATOM      2  C   UNL A   1      41.269  20.471  27.120  1.00  0.00     0.338 C 
ATOM      3  O   UNL A   1      41.325  19.521  27.889  1.00  0.00    -0.246 OA
BRANCH   2   4
ATOM      4  C   UNL A   1      40.007  20.890  26.453  1.00  0.00     0.060 A 
ATOM      5  C   UNL A   1      37.831  21.888  24.961  1.00  0.00     0.038 A 
ATOM      6  C   UNL A   1      38.564  22.729  25.804  1.00  0.00     0.027 A 
ATOM      7  C   UNL A   1      38.148  20.523  24.941  1.00  0.00     0.027 A 
ATOM      8  C   UNL A   1      39.641  22.239  26.545  1.00  0.00     0.018 A 
ATOM      9  C   UNL A   1      39.230  20.023  25.678  1.00  0.00     0.018 A 
BRANCH   5  10
ATOM     10  N   UNL A   1      36.870  22.393  24.066  1.00  0.00    -0.359 N 
ATOM     11  H   UNL A   1      37.181  22.604  23.156  1.00  0.00     0.166 HD
BRANCH  10  12
ATOM     12  C   UNL A   1      35.513  22.625  24.336  1.00  0.00     0.016 C 
ATOM     13  C   UNL A   1      34.961  22.116  25.653  1.00  0.00     0.064 C 
ATOM     14  C   UNL A   1      34.773  23.320  23.443  1.00  0.00     0.074 C 
BRANCH  14  15
ATOM     15  C   UNL A   1      33.385  23.888  23.487  1.00  0.00     0.196 C 
ATOM     16  O   UNL A   1      32.461  23.219  23.027  1.00  0.00    -0.289 OA
BRANCH  15  17
ATOM     17  C   UNL A   1      33.166  25.289  23.903  1.00  0.00     0.130 A 
ATOM     18  C   UNL A   1      33.426  26.321  23.075  1.00  0.00     0.206 A 
ATOM     19  C   UNL A   1      32.718  25.589  25.284  1.00  0.00     0.204 A 
ATOM     20  N   UNL A   1      33.416  27.650  23.481  1.00  0.00    -0.315 N 
ATOM     21  C   UNL A   1      32.483  27.006  25.639  1.00  0.00     0.047 A 
ATOM     22  O   UNL A   1      32.567  24.703  26.120  1.00  0.00    -0.288 OA
ATOM     23  C   UNL A   1      34.072  28.705  22.701  1.00  0.00     0.153 C 
ATOM     24  C   UNL A   1      32.863  28.011  24.730  1.00  0.00     0.055 A 
ATOM     25  C   UNL A   1      31.920  27.314  26.888  1.00  0.00     0.014 A 
ATOM     26  C   UNL A   1      32.647  29.342  25.122  1.00  0.00     0.027 A 
ATOM     27  C   UNL A   1      31.720  28.644  27.246  1.00  0.00     0.001 A 
ATOM     28  C   UNL A   1      32.081  29.655  26.362  1.00  0.00     0.002 A 
BRANCH  18  29
ATOM     29  O   UNL A   1      33.758  26.127  21.745  1.00  0.00    -0.494 OA
ATOM     30  H   UNL A   1      34.474  26.600  21.367  1.00  0.00     0.295 HD
ENDBRANCH  18  29
ENDBRANCH  15  17
ENDBRANCH  14  15
ENDBRANCH  10  12
ENDBRANCH   5  10
ENDBRANCH   2   4
ENDBRANCH   1   2
BRANCH   1  31
ATOM     31  C   UNL A   1      43.170  20.949  25.784  1.00  0.00     0.275 C 
BRANCH  31  32
ATOM     32  C   UNL A   1      43.476  22.138  24.869  1.00  0.00     0.275 C 
BRANCH  32  33
ATOM     33  O   UNL A   1      42.817  23.341  25.312  1.00  0.00    -0.458 OA
BRANCH  33  34
ATOM     34  C   UNL A   1      43.603  24.442  25.392  1.00  0.00     0.338 C 
ATOM     35  O   UNL A   1      44.520  24.750  24.650  1.00  0.00    -0.246 OA
BRANCH  34  36
ATOM     36  C   UNL A   1      43.124  25.314  26.482  1.00  0.00     0.060 A 
ATOM     37  C   UNL A   1      42.224  24.851  27.445  1.00  0.00     0.016 A 
ATOM     38  C   UNL A   1      43.638  26.612  26.563  1.00  0.00     0.016 A 
ATOM     39  C   UNL A   1      41.820  25.707  28.477  1.00  0.00     0.010 A 
ATOM     40  C   UNL A   1      43.236  27.462  27.594  1.00  0.00     0.010 A 
ATOM     41  C   UNL A   1      42.316  27.022  28.557  1.00  0.00    -0.014 A 
BRANCH  41  42
ATOM     42  C   UNL A   1      41.889  27.922  29.659  1.00  0.00     0.031 A 
ATOM     43  C   UNL A   1      40.663  28.781  29.524  1.00  0.00     0.074 A 
ATOM     44  C   UNL A   1      42.621  27.981  30.788  1.00  0.00     0.049 A 
ATOM     45  N   UNL A   1      40.094  29.557  30.414  1.00  0.00    -0.248 NA
ATOM     46  C   UNL A   1      39.999  28.787  28.212  1.00  0.00     0.031 C 
ATOM     47  C   UNL A   1      43.873  27.260  31.022  1.00  0.00     0.029 A 
ATOM     48  N   UNL A   1      42.412  28.676  31.953  1.00  0.00    -0.354 N 
ATOM     49  C   UNL A   1      39.007  30.139  29.774  1.00  0.00     0.074 A 
ATOM     50  C   UNL A   1      39.027  29.667  28.405  1.00  0.00     0.031 C 
ATOM     51  C   UNL A   1      44.300  27.520  32.270  1.00  0.00     0.029 A 
ATOM     52  C   UNL A   1      43.359  28.431  32.916  1.00  0.00     0.049 A 
ATOM     53  H   UNL A   1      41.656  29.292  32.084  1.00  0.00     0.167 HD
ATOM     54  C   UNL A   1      38.065  30.971  30.284  1.00  0.00     0.037 A 
ATOM     55  C   UNL A   1      43.444  28.870  34.185  1.00  0.00     0.037 A 
ATOM     56  C   UNL A   1      38.041  31.442  31.646  1.00  0.00     0.049 A 
ATOM     57  C   UNL A   1      42.374  29.769  34.736  1.00  0.00     0.074 A 
ATOM     58  C   UNL A   1      37.098  32.244  32.268  1.00  0.00     0.029 A 
ATOM     59  N   UNL A   1      39.012  31.162  32.594  1.00  0.00    -0.354 N 
ATOM     60  N   UNL A   1      41.303  30.238  34.147  1.00  0.00    -0.248 NA
ATOM     61  C   UNL A   1      42.525  30.188  36.137  1.00  0.00     0.031 C 
ATOM     62  C   UNL A   1      37.515  32.473  33.585  1.00  0.00     0.029 A 
ATOM     63  C   UNL A   1      38.697  31.782  33.794  1.00  0.00     0.049 A 
ATOM     64  H   UNL A   1      39.808  30.604  32.439  1.00  0.00     0.167 HD
ATOM     65  C   UNL A   1      40.638  30.987  35.110  1.00  0.00     0.074 A 
ATOM     66  C   UNL A   1      41.420  30.894  36.326  1.00  0.00     0.031 C 
ATOM     67  C   UNL A   1      39.483  31.687  34.997  1.00  0.00     0.037 A 
BRANCH  54  68
ATOM     68  C   UNL A   1      36.968  31.415  29.359  1.00  0.00     0.057 A 
ATOM     69  C   UNL A   1      36.953  32.711  28.827  1.00  0.00     0.134 A 
ATOM     70  C   UNL A   1      35.907  30.565  29.018  1.00  0.00     0.134 A 
ATOM     71  F   UNL A   1      37.930  33.580  29.120  1.00  0.00    -0.206 F 
ATOM     72  C   UNL A   1      35.925  33.142  27.985  1.00  0.00     0.040 A 
ATOM     73  C   UNL A   1      34.888  30.976  28.157  1.00  0.00     0.040 A 
ATOM     74  F   UNL A   1      35.864  29.309  29.489  1.00  0.00    -0.206 F 
ATOM     75  C   UNL A   1      34.893  32.270  27.642  1.00  0.00     0.006 A 
ENDBRANCH  54  68
BRANCH  55  76
ATOM     76  C   UNL A   1      44.560  28.424  35.052  1.00  0.00     0.057 A 
ATOM     77  C   UNL A   1      45.742  29.164  35.154  1.00  0.00     0.134 A 
ATOM     78  C   UNL A   1      44.454  27.260  35.822  1.00  0.00     0.134 A 
ATOM     79  F   UNL A   1      45.890  30.296  34.455  1.00  0.00    -0.206 F 
ATOM     80  C   UNL A   1      46.789  28.755  35.981  1.00  0.00     0.040 A 
ATOM     81  C   UNL A   1      45.483  26.851  36.671  1.00  0.00     0.040 A 
ATOM     82  F   UNL A   1      43.331  26.528  35.788  1.00  0.00    -0.206 F 
ATOM     83  C   UNL A   1      46.658  27.597  36.747  1.00  0.00     0.006 A 
ENDBRANCH  55  76
BRANCH  67  84
ATOM     84  C   UNL A   1      38.987  32.379  36.233  1.00  0.00     0.057 A 
ATOM     85  C   UNL A   1      38.144  31.715  37.132  1.00  0.00     0.134 A 
ATOM     86  C   UNL A   1      39.346  33.699  36.536  1.00  0.00     0.134 A 
ATOM     87  F   UNL A   1      37.759  30.451  36.899  1.00  0.00    -0.206 F 
ATOM     88  C   UNL A   1      37.683  32.335  38.294  1.00  0.00     0.040 A 
ATOM     89  C   UNL A   1      38.911  34.322  37.706  1.00  0.00     0.040 A 
ATOM     90  F   UNL A   1      40.166  34.384  35.724  1.00  0.00    -0.206 F 
ATOM     91  C   UNL A   1      38.074  33.640  38.588  1.00  0.00     0.006 A 
ENDBRANCH  67  84
ENDBRANCH  41  42
ENDBRANCH  34  36
ENDBRANCH  33  34
ENDBRANCH  32  33
ENDBRANCH  31  32
ENDBRANCH   1  31
TORSDOF 16
ENDMDL
MODEL 2
REMARK VINA RESULT:     -11.9      1.358      6.183
REMARK SMILES C/C(=C\C(=O)c1c(O)n(C)c2ccccc2c1=O)Nc1ccc(C(=O)OCCOC(=O)c2ccc(-c3c4nc(c(-c5c(F)cccc5F)c5ccc([nH]5)c(-c5c(F)cccc5F)c5nc(c(-c6c(F)cccc6F)c6ccc3[nH]6)C=C5)C=C4)cc2)cc1
REMARK SMILES IDX 26 1 24 2 25 3 23 4 20 5 21 6 87 7 22 8 86 9 19 10 2 12 1 13
REMARK SMILES IDX 3 14 4 15 5 16 6 17 7 18 17 19 9 20 16 21 18 22 10 23 11 24
REMARK SMILES IDX 15 25 12 26 14 27 13 28 8 29 27 31 28 32 29 33 30 34 31 35
REMARK SMILES IDX 32 36 33 37 85 38 34 39 84 40 35 41 36 42 37 43 78 44 38 45
REMARK SMILES IDX 83 46 77 47 79 48 39 49 82 50 76 51 75 52 40 54 66 55 49 56
REMARK SMILES IDX 65 57 50 58 53 59 64 60 80 61 51 62 52 63 63 65 81 66 54 67
REMARK SMILES IDX 41 68 42 69 47 70 43 71 44 72 46 73 48 74 45 75 67 76 68 77
REMARK SMILES IDX 73 78 69 79 70 80 72 81 74 82 71 83 55 84 56 85 61 86 57 87
REMARK SMILES IDX 58 88 60 89 62 90 59 91
REMARK H PARENT 19 11 8 30 79 53 53 64
REMARK Flexibility Score: inf
ROOT
ATOM      1  O   UNL A   1      41.668  21.106  25.608  1.00  0.00    -0.458 OA
ENDROOT
BRANCH   1   2
ATOM      2  C   UNL A   1      40.724  21.051  26.578  1.00  0.00     0.338 C 
ATOM      3  O   UNL A   1      40.815  20.443  27.635  1.00  0.00    -0.246 OA
BRANCH   2   4
ATOM      4  C   UNL A   1      39.574  21.936  26.256  1.00  0.00     0.060 A 
ATOM      5  C   UNL A   1      37.193  23.400  25.876  1.00  0.00     0.038 A 
ATOM      6  C   UNL A   1      37.321  22.104  25.371  1.00  0.00     0.027 A 
ATOM      7  C   UNL A   1      38.303  23.987  26.499  1.00  0.00     0.027 A 
ATOM      8  C   UNL A   1      38.498  21.376  25.556  1.00  0.00     0.018 A 
ATOM      9  C   UNL A   1      39.486  23.262  26.694  1.00  0.00     0.018 A 
BRANCH   5  10
ATOM     10  N   UNL A   1      35.959  24.078  25.870  1.00  0.00    -0.359 N 
ATOM     11  H   UNL A   1      35.883  24.863  26.460  1.00  0.00     0.166 HD
BRANCH  10  12
ATOM     12  C   UNL A   1      34.828  23.752  25.107  1.00  0.00     0.016 C 
ATOM     13  C   UNL A   1      33.750  22.917  25.769  1.00  0.00     0.064 C 
ATOM     14  C   UNL A   1      34.726  24.225  23.844  1.00  0.00     0.074 C 
BRANCH  14  15
ATOM     15  C   UNL A   1      33.613  24.224  22.838  1.00  0.00     0.196 C 
ATOM     16  O   UNL A   1      33.655  23.411  21.916  1.00  0.00    -0.289 OA
BRANCH  15  17
ATOM     17  C   UNL A   1      32.593  25.293  22.856  1.00  0.00     0.130 A 
ATOM     18  C   UNL A   1      32.854  26.526  22.376  1.00  0.00     0.206 A 
ATOM     19  C   UNL A   1      31.269  25.043  23.475  1.00  0.00     0.204 A 
ATOM     20  N   UNL A   1      31.998  27.609  22.541  1.00  0.00    -0.315 N 
ATOM     21  C   UNL A   1      30.274  26.137  23.436  1.00  0.00     0.047 A 
ATOM     22  O   UNL A   1      31.005  23.978  24.024  1.00  0.00    -0.288 OA
ATOM     23  C   UNL A   1      32.456  28.993  22.375  1.00  0.00     0.153 C 
ATOM     24  C   UNL A   1      30.673  27.410  22.988  1.00  0.00     0.055 A 
ATOM     25  C   UNL A   1      28.966  25.888  23.880  1.00  0.00     0.014 A 
ATOM     26  C   UNL A   1      29.701  28.424  22.996  1.00  0.00     0.027 A 
ATOM     27  C   UNL A   1      28.026  26.914  23.876  1.00  0.00     0.001 A 
ATOM     28  C   UNL A   1      28.395  28.180  23.432  1.00  0.00     0.002 A 
BRANCH  18  29
ATOM     29  O   UNL A   1      34.028  26.816  21.701  1.00  0.00    -0.494 OA
ATOM     30  H   UNL A   1      34.825  26.386  21.942  1.00  0.00     0.295 HD
ENDBRANCH  18  29
ENDBRANCH  15  17
ENDBRANCH  14  15
ENDBRANCH  10  12
ENDBRANCH   5  10
ENDBRANCH   2   4
ENDBRANCH   1   2
BRANCH   1  31
ATOM     31  C   UNL A   1      43.032  21.221  26.054  1.00  0.00     0.275 C 
BRANCH  31  32
ATOM     32  C   UNL A   1      43.845  22.108  25.106  1.00  0.00     0.275 C 
BRANCH  32  33
ATOM     33  O   UNL A   1      43.244  23.407  24.938  1.00  0.00    -0.458 OA
BRANCH  33  34
ATOM     34  C   UNL A   1      44.043  24.462  25.228  1.00  0.00     0.338 C 
ATOM     35  O   UNL A   1      45.039  24.822  24.626  1.00  0.00    -0.246 OA
BRANCH  34  36
ATOM     36  C   UNL A   1      43.472  25.219  26.360  1.00  0.00     0.060 A 
ATOM     37  C   UNL A   1      42.575  24.629  27.254  1.00  0.00     0.016 A 
ATOM     38  C   UNL A   1      43.895  26.538  26.552  1.00  0.00     0.016 A 
ATOM     39  C   UNL A   1      42.082  25.379  28.329  1.00  0.00     0.010 A 
ATOM     40  C   UNL A   1      43.404  27.282  27.627  1.00  0.00     0.010 A 
ATOM     41  C   UNL A   1      42.486  26.713  28.521  1.00  0.00    -0.014 A 
BRANCH  41  42
ATOM     42  C   UNL A   1      41.965  27.499  29.669  1.00  0.00     0.031 A 
ATOM     43  C   UNL A   1      42.643  27.449  31.010  1.00  0.00     0.074 A 
ATOM     44  C   UNL A   1      40.859  28.251  29.511  1.00  0.00     0.049 A 
ATOM     45  N   UNL A   1      42.380  28.135  32.096  1.00  0.00    -0.248 NA
ATOM     46  C   UNL A   1      43.748  26.491  31.159  1.00  0.00     0.031 C 
ATOM     47  C   UNL A   1      40.059  28.331  28.288  1.00  0.00     0.029 A 
ATOM     48  N   UNL A   1      40.222  29.098  30.383  1.00  0.00    -0.354 N 
ATOM     49  C   UNL A   1      43.286  27.696  33.053  1.00  0.00     0.074 A 
ATOM     50  C   UNL A   1      44.071  26.647  32.435  1.00  0.00     0.031 C 
ATOM     51  C   UNL A   1      39.061  29.211  28.476  1.00  0.00     0.029 A 
ATOM     52  C   UNL A   1      39.146  29.747  29.832  1.00  0.00     0.049 A 
ATOM     53  H   UNL A   1      40.510  29.227  31.315  1.00  0.00     0.167 HD
ATOM     54  C   UNL A   1      43.465  28.139  34.323  1.00  0.00     0.037 A 
ATOM     55  C   UNL A   1      38.335  30.687  30.352  1.00  0.00     0.037 A 
ATOM     56  C   UNL A   1      42.687  29.183  34.941  1.00  0.00     0.049 A 
ATOM     57  C   UNL A   1      38.569  31.181  31.751  1.00  0.00     0.074 A 
ATOM     58  C   UNL A   1      42.829  29.737  36.202  1.00  0.00     0.029 A 
ATOM     59  N   UNL A   1      41.612  29.823  34.345  1.00  0.00    -0.354 N 
ATOM     60  N   UNL A   1      39.487  30.822  32.613  1.00  0.00    -0.248 NA
ATOM     61  C   UNL A   1      37.656  32.225  32.240  1.00  0.00     0.031 C 
ATOM     62  C   UNL A   1      41.821  30.692  36.381  1.00  0.00     0.029 A 
ATOM     63  C   UNL A   1      41.075  30.760  35.215  1.00  0.00     0.049 A 
ATOM     64  H   UNL A   1      41.278  29.641  33.436  1.00  0.00     0.167 HD
ATOM     65  C   UNL A   1      39.280  31.611  33.737  1.00  0.00     0.074 A 
ATOM     66  C   UNL A   1      38.159  32.479  33.439  1.00  0.00     0.031 C 
ATOM     67  C   UNL A   1      39.958  31.616  34.911  1.00  0.00     0.037 A 
BRANCH  54  68
ATOM     68  C   UNL A   1      44.562  27.500  35.125  1.00  0.00     0.057 A 
ATOM     69  C   UNL A   1      44.308  26.385  35.934  1.00  0.00     0.134 A 
ATOM     70  C   UNL A   1      45.868  28.010  35.120  1.00  0.00     0.134 A 
ATOM     71  F   UNL A   1      43.080  25.852  35.996  1.00  0.00    -0.206 F 
ATOM     72  C   UNL A   1      45.315  25.797  36.702  1.00  0.00     0.040 A 
ATOM     73  C   UNL A   1      46.888  27.415  35.863  1.00  0.00     0.040 A 
ATOM     74  F   UNL A   1      46.179  29.072  34.362  1.00  0.00    -0.206 F 
ATOM     75  C   UNL A   1      46.611  26.307  36.662  1.00  0.00     0.006 A 
ENDBRANCH  54  68
BRANCH  55  76
ATOM     76  C   UNL A   1      37.250  31.269  29.529  1.00  0.00     0.057 A 
ATOM     77  C   UNL A   1      37.379  32.532  28.943  1.00  0.00     0.134 A 
ATOM     78  C   UNL A   1      36.068  30.559  29.286  1.00  0.00     0.134 A 
ATOM     79  F   UNL A   1      38.495  33.249  29.126  1.00  0.00    -0.206 F 
ATOM     80  C   UNL A   1      36.365  33.078  28.155  1.00  0.00     0.040 A 
ATOM     81  C   UNL A   1      35.056  31.081  28.480  1.00  0.00     0.040 A 
ATOM     82  F   UNL A   1      35.903  29.330  29.796  1.00  0.00    -0.206 F 
ATOM     83  C   UNL A   1      35.201  32.348  27.917  1.00  0.00     0.006 A 
ENDBRANCH  55  76
BRANCH  67  84
ATOM     84  C   UNL A   1      39.519  32.614  35.942  1.00  0.00     0.057 A 
ATOM     85  C   UNL A   1      40.128  33.873  36.019  1.00  0.00     0.134 A 
ATOM     86  C   UNL A   1      38.493  32.334  36.854  1.00  0.00     0.134 A 
ATOM     87  F   UNL A   1      41.119  34.204  35.179  1.00  0.00    -0.206 F 
ATOM     88  C   UNL A   1      39.726  34.821  36.962  1.00  0.00     0.040 A 
ATOM     89  C   UNL A   1      38.066  33.282  37.785  1.00  0.00     0.040 A 
ATOM     90  F   UNL A   1      37.858  31.152  36.820  1.00  0.00    -0.206 F 
ATOM     91  C   UNL A   1      38.686  34.529  37.842  1.00  0.00     0.006 A 
ENDBRANCH  67  84
ENDBRANCH  41  42
ENDBRANCH  34  36
ENDBRANCH  33  34
ENDBRANCH  32  33
ENDBRANCH  31  32
ENDBRANCH   1  31
TORSDOF 16
ENDMDL
MODEL 3
REMARK VINA RESULT:     -11.9      4.439     10.175
REMARK SMILES C/C(=C\C(=O)c1c(O)n(C)c2ccccc2c1=O)Nc1ccc(C(=O)OCCOC(=O)c2ccc(-c3c4nc(c(-c5c(F)cccc5F)c5ccc([nH]5)c(-c5c(F)cccc5F)c5nc(c(-c6c(F)cccc6F)c6ccc3[nH]6)C=C5)C=C4)cc2)cc1
REMARK SMILES IDX 26 1 24 2 25 3 23 4 20 5 21 6 87 7 22 8 86 9 19 10 2 12 1 13
REMARK SMILES IDX 3 14 4 15 5 16 6 17 7 18 17 19 9 20 16 21 18 22 10 23 11 24
REMARK SMILES IDX 15 25 12 26 14 27 13 28 8 29 27 31 28 32 29 33 30 34 31 35
REMARK SMILES IDX 32 36 33 37 85 38 34 39 84 40 35 41 36 42 37 43 78 44 38 45
REMARK SMILES IDX 83 46 77 47 79 48 39 49 82 50 76 51 75 52 40 54 66 55 49 56
REMARK SMILES IDX 65 57 50 58 53 59 64 60 80 61 51 62 52 63 63 65 81 66 54 67
REMARK SMILES IDX 41 68 42 69 47 70 43 71 44 72 46 73 48 74 45 75 67 76 68 77
REMARK SMILES IDX 73 78 69 79 70 80 72 81 74 82 71 83 55 84 56 85 61 86 57 87
REMARK SMILES IDX 58 88 60 89 62 90 59 91
REMARK H PARENT 19 11 8 30 79 53 53 64
REMARK Flexibility Score: inf
ROOT
ATOM      1  O   UNL A   1      34.436  33.224  28.920  1.00  0.00    -0.458 OA
ENDROOT
BRANCH   1   2
ATOM      2  C   UNL A   1      33.276  33.358  28.235  1.00  0.00     0.338 C 
ATOM      3  O   UNL A   1      32.621  34.385  28.124  1.00  0.00    -0.246 OA
BRANCH   2   4
ATOM      4  C   UNL A   1      32.935  32.107  27.507  1.00  0.00     0.060 A 
ATOM      5  C   UNL A   1      32.300  29.939  25.818  1.00  0.00     0.038 A 
ATOM      6  C   UNL A   1      31.381  30.971  26.031  1.00  0.00     0.027 A 
ATOM      7  C   UNL A   1      33.507  29.963  26.529  1.00  0.00     0.027 A 
ATOM      8  C   UNL A   1      31.691  32.045  26.867  1.00  0.00     0.018 A 
ATOM      9  C   UNL A   1      33.829  31.039  27.366  1.00  0.00     0.018 A 
BRANCH   5  10
ATOM     10  N   UNL A   1      32.088  28.950  24.839  1.00  0.00    -0.359 N 
ATOM     11  H   UNL A   1      32.054  29.255  23.903  1.00  0.00     0.166 HD
BRANCH  10  12
ATOM     12  C   UNL A   1      31.923  27.575  25.058  1.00  0.00     0.016 C 
ATOM     13  C   UNL A   1      31.529  27.128  26.452  1.00  0.00     0.064 C 
ATOM     14  C   UNL A   1      32.078  26.719  24.022  1.00  0.00     0.074 C 
BRANCH  14  15
ATOM     15  C   UNL A   1      31.811  25.251  23.860  1.00  0.00     0.196 C 
ATOM     16  O   UNL A   1      30.724  24.898  23.407  1.00  0.00    -0.289 OA
BRANCH  15  17
ATOM     17  C   UNL A   1      32.760  24.258  24.404  1.00  0.00     0.130 A 
ATOM     18  C   UNL A   1      32.501  23.583  25.543  1.00  0.00     0.206 A 
ATOM     19  C   UNL A   1      34.064  24.036  23.734  1.00  0.00     0.204 A 
ATOM     20  N   UNL A   1      33.437  22.785  26.191  1.00  0.00    -0.315 N 
ATOM     21  C   UNL A   1      34.963  23.006  24.302  1.00  0.00     0.047 A 
ATOM     22  O   UNL A   1      34.407  24.693  22.757  1.00  0.00    -0.288 OA
ATOM     23  C   UNL A   1      33.282  22.390  27.594  1.00  0.00     0.153 C 
ATOM     24  C   UNL A   1      34.635  22.418  25.538  1.00  0.00     0.055 A 
ATOM     25  C   UNL A   1      36.137  22.667  23.612  1.00  0.00     0.014 A 
ATOM     26  C   UNL A   1      35.532  21.467  26.052  1.00  0.00     0.027 A 
ATOM     27  C   UNL A   1      37.006  21.721  24.147  1.00  0.00     0.001 A 
ATOM     28  C   UNL A   1      36.701  21.121  25.365  1.00  0.00     0.002 A 
BRANCH  18  29
ATOM     29  O   UNL A   1      31.273  23.663  26.178  1.00  0.00    -0.494 OA
ATOM     30  H   UNL A   1      31.122  23.180  26.967  1.00  0.00     0.295 HD
ENDBRANCH  18  29
ENDBRANCH  15  17
ENDBRANCH  14  15
ENDBRANCH  10  12
ENDBRANCH   5  10
ENDBRANCH   2   4
ENDBRANCH   1   2
BRANCH   1  31
ATOM     31  C   UNL A   1      34.641  34.142  30.010  1.00  0.00     0.275 C 
BRANCH  31  32
ATOM     32  C   UNL A   1      34.469  33.438  31.359  1.00  0.00     0.275 C 
BRANCH  32  33
ATOM     33  O   UNL A   1      35.015  32.104  31.343  1.00  0.00    -0.458 OA
BRANCH  33  34
ATOM     34  C   UNL A   1      35.996  31.865  32.245  1.00  0.00     0.338 C 
ATOM     35  O   UNL A   1      35.924  31.958  33.458  1.00  0.00    -0.246 OA
BRANCH  34  36
ATOM     36  C   UNL A   1      37.194  31.354  31.550  1.00  0.00     0.060 A 
ATOM     37  C   UNL A   1      37.358  31.506  30.171  1.00  0.00     0.016 A 
ATOM     38  C   UNL A   1      38.198  30.756  32.318  1.00  0.00     0.016 A 
ATOM     39  C   UNL A   1      38.525  31.030  29.560  1.00  0.00     0.010 A 
ATOM     40  C   UNL A   1      39.361  30.285  31.707  1.00  0.00     0.010 A 
ATOM     41  C   UNL A   1      39.533  30.409  30.320  1.00  0.00    -0.014 A 
BRANCH  41  42
ATOM     42  C   UNL A   1      40.772  29.914  29.666  1.00  0.00     0.031 A 
ATOM     43  C   UNL A   1      40.861  28.506  29.146  1.00  0.00     0.074 A 
ATOM     44  C   UNL A   1      41.835  30.733  29.555  1.00  0.00     0.049 A 
ATOM     45  N   UNL A   1      41.828  27.933  28.471  1.00  0.00    -0.248 NA
ATOM     46  C   UNL A   1      39.726  27.619  29.438  1.00  0.00     0.031 C 
ATOM     47  C   UNL A   1      41.912  32.096  30.083  1.00  0.00     0.029 A 
ATOM     48  N   UNL A   1      43.053  30.538  28.952  1.00  0.00    -0.354 N 
ATOM     49  C   UNL A   1      41.418  26.624  28.255  1.00  0.00     0.074 A 
ATOM     50  C   UNL A   1      40.139  26.472  28.916  1.00  0.00     0.031 C 
ATOM     51  C   UNL A   1      43.099  32.628  29.746  1.00  0.00     0.029 A 
ATOM     52  C   UNL A   1      43.867  31.643  28.990  1.00  0.00     0.049 A 
ATOM     53  H   UNL A   1      43.317  29.688  28.534  1.00  0.00     0.167 HD
ATOM     54  C   UNL A   1      42.038  25.643  27.552  1.00  0.00     0.037 A 
ATOM     55  C   UNL A   1      45.085  31.846  28.453  1.00  0.00     0.037 A 
ATOM     56  C   UNL A   1      43.311  25.790  26.891  1.00  0.00     0.049 A 
ATOM     57  C   UNL A   1      45.739  30.755  27.656  1.00  0.00     0.074 A 
ATOM     58  C   UNL A   1      43.993  24.872  26.111  1.00  0.00     0.029 A 
ATOM     59  N   UNL A   1      44.100  26.929  26.945  1.00  0.00    -0.354 N 
ATOM     60  N   UNL A   1      45.300  29.552  27.383  1.00  0.00    -0.248 NA
ATOM     61  C   UNL A   1      47.058  31.061  27.082  1.00  0.00     0.031 C 
ATOM     62  C   UNL A   1      45.208  25.444  25.716  1.00  0.00     0.029 A 
ATOM     63  C   UNL A   1      45.265  26.734  26.218  1.00  0.00     0.049 A 
ATOM     64  H   UNL A   1      43.866  27.756  27.426  1.00  0.00     0.167 HD
ATOM     65  C   UNL A   1      46.275  28.965  26.586  1.00  0.00     0.074 A 
ATOM     66  C   UNL A   1      47.319  29.952  26.406  1.00  0.00     0.031 C 
ATOM     67  C   UNL A   1      46.300  27.721  26.050  1.00  0.00     0.037 A 
BRANCH  54  68
ATOM     68  C   UNL A   1      41.333  24.321  27.450  1.00  0.00     0.057 A 
ATOM     69  C   UNL A   1      41.772  23.211  28.182  1.00  0.00     0.134 A 
ATOM     70  C   UNL A   1      40.234  24.139  26.599  1.00  0.00     0.134 A 
ATOM     71  F   UNL A   1      42.825  23.310  29.006  1.00  0.00    -0.206 F 
ATOM     72  C   UNL A   1      41.139  21.971  28.077  1.00  0.00     0.040 A 
ATOM     73  C   UNL A   1      39.577  22.912  26.505  1.00  0.00     0.040 A 
ATOM     74  F   UNL A   1      39.760  25.164  25.874  1.00  0.00    -0.206 F 
ATOM     75  C   UNL A   1      40.033  21.821  27.243  1.00  0.00     0.006 A 
ENDBRANCH  54  68
BRANCH  55  76
ATOM     76  C   UNL A   1      45.752  33.161  28.603  1.00  0.00     0.057 A 
ATOM     77  C   UNL A   1      45.588  34.172  27.651  1.00  0.00     0.134 A 
ATOM     78  C   UNL A   1      46.546  33.443  29.721  1.00  0.00     0.134 A 
ATOM     79  F   UNL A   1      44.824  33.964  26.571  1.00  0.00    -0.206 F 
ATOM     80  C   UNL A   1      46.203  35.417  27.797  1.00  0.00     0.040 A 
ATOM     81  C   UNL A   1      47.146  34.691  29.892  1.00  0.00     0.040 A 
ATOM     82  F   UNL A   1      46.711  32.522  30.681  1.00  0.00    -0.206 F 
ATOM     83  C   UNL A   1      46.980  35.680  28.923  1.00  0.00     0.006 A 
ENDBRANCH  55  76
BRANCH  67  84
ATOM     84  C   UNL A   1      47.484  27.375  25.195  1.00  0.00     0.057 A 
ATOM     85  C   UNL A   1      47.475  27.645  23.821  1.00  0.00     0.134 A 
ATOM     86  C   UNL A   1      48.635  26.782  25.730  1.00  0.00     0.134 A 
ATOM     87  F   UNL A   1      46.403  28.208  23.244  1.00  0.00    -0.206 F 
ATOM     88  C   UNL A   1      48.571  27.345  23.010  1.00  0.00     0.040 A 
ATOM     89  C   UNL A   1      49.747  26.499  24.935  1.00  0.00     0.040 A 
ATOM     90  F   UNL A   1      48.714  26.515  27.043  1.00  0.00    -0.206 F 
ATOM     91  C   UNL A   1      49.715  26.779  23.570  1.00  0.00     0.006 A 
ENDBRANCH  67  84
ENDBRANCH  41  42
ENDBRANCH  34  36
ENDBRANCH  33  34
ENDBRANCH  32  33
ENDBRANCH  31  32
ENDBRANCH   1  31
TORSDOF 16
ENDMDL
