MODEL 1
REMARK VINA RESULT:      -9.5      0.000      0.000
REMARK SMILES C#CC[N@H+](CC(=O)OCCOC(=O)c1ccc(-c2c3nc(c(-c4c(F)cccc4F)c4ccc([nH]4)c(-c4c(F)cccc4F)c4nc(c(-c5c(F)cccc5F)c5ccc2[nH]5)C=C4)C=C3)cc1)[C@H](C)C(=O)NCCC
REMARK SMILES IDX 8 1 6 2 7 3 5 4 4 5 3 7 2 8 1 9 68 10 69 11 70 12 71 13
REMARK SMILES IDX 72 14 73 16 74 17 75 18 9 19 10 20 11 21 12 22 13 23 14 24
REMARK SMILES IDX 15 25 67 26 16 27 66 28 17 29 18 30 19 31 60 32 20 33 65 34
REMARK SMILES IDX 59 35 61 36 21 37 64 38 58 39 57 40 22 42 48 43 31 44 47 45
REMARK SMILES IDX 32 46 35 47 46 48 62 49 33 50 34 51 45 53 63 54 36 55 23 56
REMARK SMILES IDX 24 57 29 58 25 59 26 60 28 61 30 62 27 63 49 64 50 65 55 66
REMARK SMILES IDX 51 67 52 68 54 69 56 70 53 71 37 72 38 73 43 74 39 75 40 76
REMARK SMILES IDX 42 77 44 78 41 79
REMARK H PARENT 4 6 72 15 61 41 35 52
REMARK Flexibility Score: inf
ROOT
ATOM      1  O   UNL A   1      31.991  30.704  27.183  1.00  0.00    -0.458 OA
ENDROOT
BRANCH   1   2
ATOM      2  C   UNL A   1      32.483  29.979  26.143  1.00  0.00     0.361 C 
ATOM      3  O   UNL A   1      33.673  29.757  25.956  1.00  0.00    -0.245 OA
BRANCH   2   4
ATOM      4  C   UNL A   1      31.384  29.545  25.172  1.00  0.00     0.387 C 
BRANCH   4   5
ATOM      5  N   UNL A   1      31.269  28.084  24.875  1.00  0.00    -0.306 N 
ATOM      6  H   UNL A   1      32.074  27.750  24.347  1.00  0.00     0.350 HD
BRANCH   5   7
ATOM      7  C   UNL A   1      31.399  27.263  26.085  1.00  0.00     0.355 C 
BRANCH   7   8
ATOM      8  C   UNL A   1      32.339  26.131  26.072  1.00  0.00    -0.047 C 
ATOM      9  C   UNL A   1      33.014  25.142  26.094  1.00  0.00     0.010 C 
ENDBRANCH   7   8
ENDBRANCH   5   7
BRANCH   5  10
ATOM     10  C   UNL A   1      30.145  27.819  23.913  1.00  0.00     0.272 C 
ATOM     11  C   UNL A   1      29.269  26.563  24.107  1.00  0.00     0.086 C 
BRANCH  10  12
ATOM     12  C   UNL A   1      30.408  28.017  22.408  1.00  0.00     0.278 C 
ATOM     13  O   UNL A   1      29.820  28.896  21.767  1.00  0.00    -0.268 OA
ATOM     14  N   UNL A   1      31.222  27.169  21.707  1.00  0.00    -0.351 N 
ATOM     15  H   UNL A   1      31.131  27.211  20.728  1.00  0.00     0.163 HD
BRANCH  14  16
ATOM     16  C   UNL A   1      32.197  26.217  22.199  1.00  0.00     0.116 C 
BRANCH  16  17
ATOM     17  C   UNL A   1      33.632  26.677  22.009  1.00  0.00     0.018 C 
ATOM     18  C   UNL A   1      33.855  28.081  22.553  1.00  0.00     0.006 C 
ENDBRANCH  16  17
ENDBRANCH  14  16
ENDBRANCH  10  12
ENDBRANCH   5  10
ENDBRANCH   4   5
ENDBRANCH   2   4
ENDBRANCH   1   2
BRANCH   1  19
ATOM     19  C   UNL A   1      31.388  31.971  26.862  1.00  0.00     0.274 C 
BRANCH  19  20
ATOM     20  C   UNL A   1      32.410  33.112  26.916  1.00  0.00     0.275 C 
BRANCH  20  21
ATOM     21  O   UNL A   1      32.205  33.921  28.091  1.00  0.00    -0.458 OA
BRANCH  21  22
ATOM     22  C   UNL A   1      33.258  34.677  28.478  1.00  0.00     0.338 C 
ATOM     23  O   UNL A   1      33.312  35.891  28.556  1.00  0.00    -0.246 OA
BRANCH  22  24
ATOM     24  C   UNL A   1      34.385  33.810  28.846  1.00  0.00     0.060 A 
ATOM     25  C   UNL A   1      34.139  32.626  29.546  1.00  0.00     0.016 A 
ATOM     26  C   UNL A   1      35.691  34.242  28.617  1.00  0.00     0.016 A 
ATOM     27  C   UNL A   1      35.203  31.876  30.040  1.00  0.00     0.010 A 
ATOM     28  C   UNL A   1      36.758  33.481  29.099  1.00  0.00     0.010 A 
ATOM     29  C   UNL A   1      36.522  32.305  29.836  1.00  0.00    -0.014 A 
BRANCH  29  30
ATOM     30  C   UNL A   1      37.645  31.564  30.459  1.00  0.00     0.031 A 
ATOM     31  C   UNL A   1      37.999  31.812  31.900  1.00  0.00     0.074 A 
ATOM     32  C   UNL A   1      38.333  30.657  29.741  1.00  0.00     0.049 A 
ATOM     33  N   UNL A   1      38.979  31.316  32.611  1.00  0.00    -0.248 NA
ATOM     34  C   UNL A   1      37.140  32.752  32.636  1.00  0.00     0.031 C 
ATOM     35  C   UNL A   1      38.064  30.307  28.346  1.00  0.00     0.029 A 
ATOM     36  N   UNL A   1      39.399  29.865  30.086  1.00  0.00    -0.354 N 
ATOM     37  C   UNL A   1      38.867  31.896  33.869  1.00  0.00     0.074 A 
ATOM     38  C   UNL A   1      37.745  32.809  33.812  1.00  0.00     0.031 C 
ATOM     39  C   UNL A   1      38.934  29.362  27.956  1.00  0.00     0.029 A 
ATOM     40  C   UNL A   1      39.854  29.080  29.055  1.00  0.00     0.049 A 
ATOM     41  H   UNL A   1      39.799  29.860  30.985  1.00  0.00     0.167 HD
ATOM     42  C   UNL A   1      39.623  31.678  34.973  1.00  0.00     0.037 A 
ATOM     43  C   UNL A   1      40.909  28.247  28.995  1.00  0.00     0.037 A 
ATOM     44  C   UNL A   1      40.732  30.759  35.022  1.00  0.00     0.049 A 
ATOM     45  C   UNL A   1      41.771  28.069  30.216  1.00  0.00     0.074 A 
ATOM     46  C   UNL A   1      41.550  30.450  36.095  1.00  0.00     0.029 A 
ATOM     47  N   UNL A   1      41.180  30.001  33.948  1.00  0.00    -0.354 N 
ATOM     48  N   UNL A   1      41.648  28.611  31.404  1.00  0.00    -0.248 NA
ATOM     49  C   UNL A   1      42.916  27.158  30.089  1.00  0.00     0.031 C 
ATOM     50  C   UNL A   1      42.532  29.556  35.654  1.00  0.00     0.029 A 
ATOM     51  C   UNL A   1      42.281  29.249  34.326  1.00  0.00     0.049 A 
ATOM     52  H   UNL A   1      40.776  30.000  33.050  1.00  0.00     0.167 HD
ATOM     53  C   UNL A   1      42.677  28.082  32.173  1.00  0.00     0.074 A 
ATOM     54  C   UNL A   1      43.402  27.163  31.321  1.00  0.00     0.031 C 
ATOM     55  C   UNL A   1      42.992  28.333  33.468  1.00  0.00     0.037 A 
BRANCH  42  56
ATOM     56  C   UNL A   1      39.296  32.470  36.208  1.00  0.00     0.057 A 
ATOM     57  C   UNL A   1      39.865  33.724  36.464  1.00  0.00     0.134 A 
ATOM     58  C   UNL A   1      38.374  31.981  37.144  1.00  0.00     0.134 A 
ATOM     59  F   UNL A   1      40.762  34.251  35.615  1.00  0.00    -0.206 F 
ATOM     60  C   UNL A   1      39.555  34.448  37.618  1.00  0.00     0.040 A 
ATOM     61  C   UNL A   1      38.030  32.710  38.284  1.00  0.00     0.040 A 
ATOM     62  F   UNL A   1      37.782  30.791  36.961  1.00  0.00    -0.206 F 
ATOM     63  C   UNL A   1      38.629  33.943  38.528  1.00  0.00     0.006 A 
ENDBRANCH  42  56
BRANCH  43  64
ATOM     64  C   UNL A   1      41.221  27.525  27.734  1.00  0.00     0.057 A 
ATOM     65  C   UNL A   1      42.014  28.109  26.738  1.00  0.00     0.134 A 
ATOM     66  C   UNL A   1      40.718  26.241  27.484  1.00  0.00     0.134 A 
ATOM     67  F   UNL A   1      42.508  29.344  26.907  1.00  0.00    -0.206 F 
ATOM     68  C   UNL A   1      42.273  27.456  25.532  1.00  0.00     0.040 A 
ATOM     69  C   UNL A   1      40.998  25.563  26.298  1.00  0.00     0.040 A 
ATOM     70  F   UNL A   1      39.956  25.623  28.398  1.00  0.00    -0.206 F 
ATOM     71  C   UNL A   1      41.768  26.175  25.312  1.00  0.00     0.006 A 
ENDBRANCH  43  64
BRANCH  55  72
ATOM     72  C   UNL A   1      44.140  27.561  34.056  1.00  0.00     0.057 A 
ATOM     73  C   UNL A   1      43.974  26.296  34.635  1.00  0.00     0.134 A 
ATOM     74  C   UNL A   1      45.438  28.089  34.028  1.00  0.00     0.134 A 
ATOM     75  F   UNL A   1      42.756  25.735  34.707  1.00  0.00    -0.206 F 
ATOM     76  C   UNL A   1      45.047  25.603  35.200  1.00  0.00     0.040 A 
ATOM     77  C   UNL A   1      46.525  27.390  34.555  1.00  0.00     0.040 A 
ATOM     78  F   UNL A   1      45.674  29.290  33.477  1.00  0.00    -0.206 F 
ATOM     79  C   UNL A   1      46.328  26.148  35.154  1.00  0.00     0.006 A 
ENDBRANCH  55  72
ENDBRANCH  29  30
ENDBRANCH  22  24
ENDBRANCH  21  22
ENDBRANCH  20  21
ENDBRANCH  19  20
ENDBRANCH   1  19
TORSDOF 18
ENDMDL
MODEL 2
REMARK VINA RESULT:      -8.9      4.957      9.531
REMARK SMILES C#CC[N@H+](CC(=O)OCCOC(=O)c1ccc(-c2c3nc(c(-c4c(F)cccc4F)c4ccc([nH]4)c(-c4c(F)cccc4F)c4nc(c(-c5c(F)cccc5F)c5ccc2[nH]5)C=C4)C=C3)cc1)[C@H](C)C(=O)NCCC
REMARK SMILES IDX 8 1 6 2 7 3 5 4 4 5 3 7 2 8 1 9 68 10 69 11 70 12 71 13
REMARK SMILES IDX 72 14 73 16 74 17 75 18 9 19 10 20 11 21 12 22 13 23 14 24
REMARK SMILES IDX 15 25 67 26 16 27 66 28 17 29 18 30 19 31 60 32 20 33 65 34
REMARK SMILES IDX 59 35 61 36 21 37 64 38 58 39 57 40 22 42 48 43 31 44 47 45
REMARK SMILES IDX 32 46 35 47 46 48 62 49 33 50 34 51 45 53 63 54 36 55 23 56
REMARK SMILES IDX 24 57 29 58 25 59 26 60 28 61 30 62 27 63 49 64 50 65 55 66
REMARK SMILES IDX 51 67 52 68 54 69 56 70 53 71 37 72 38 73 43 74 39 75 40 76
REMARK SMILES IDX 42 77 44 78 41 79
REMARK H PARENT 4 6 72 15 61 41 35 52
REMARK Flexibility Score: inf
ROOT
ATOM      1  O   UNL A   1      36.883  21.104  25.807  1.00  0.00    -0.458 OA
ENDROOT
BRANCH   1   2
ATOM      2  C   UNL A   1      35.845  20.412  25.265  1.00  0.00     0.361 C 
ATOM      3  O   UNL A   1      35.952  19.324  24.714  1.00  0.00    -0.245 OA
BRANCH   2   4
ATOM      4  C   UNL A   1      34.532  21.193  25.339  1.00  0.00     0.387 C 
BRANCH   4   5
ATOM      5  N   UNL A   1      33.729  21.304  24.082  1.00  0.00    -0.306 N 
ATOM      6  H   UNL A   1      34.172  20.799  23.315  1.00  0.00     0.350 HD
BRANCH   5   7
ATOM      7  C   UNL A   1      32.460  20.572  24.171  1.00  0.00     0.355 C 
BRANCH   7   8
ATOM      8  C   UNL A   1      32.500  19.111  24.349  1.00  0.00    -0.047 C 
ATOM      9  C   UNL A   1      32.415  17.927  24.504  1.00  0.00     0.010 C 
ENDBRANCH   7   8
ENDBRANCH   5   7
BRANCH   5  10
ATOM     10  C   UNL A   1      33.740  22.714  23.562  1.00  0.00     0.272 C 
ATOM     11  C   UNL A   1      33.080  23.019  22.200  1.00  0.00     0.086 C 
BRANCH  10  12
ATOM     12  C   UNL A   1      35.043  23.528  23.677  1.00  0.00     0.278 C 
ATOM     13  O   UNL A   1      36.006  23.302  22.934  1.00  0.00    -0.268 OA
ATOM     14  N   UNL A   1      35.219  24.459  24.665  1.00  0.00    -0.351 N 
ATOM     15  H   UNL A   1      36.150  24.738  24.819  1.00  0.00     0.163 HD
BRANCH  14  16
ATOM     16  C   UNL A   1      34.233  25.092  25.515  1.00  0.00     0.116 C 
BRANCH  16  17
ATOM     17  C   UNL A   1      33.883  26.504  25.079  1.00  0.00     0.018 C 
ATOM     18  C   UNL A   1      32.837  26.515  23.973  1.00  0.00     0.006 C 
ENDBRANCH  16  17
ENDBRANCH  14  16
ENDBRANCH  10  12
ENDBRANCH   5  10
ENDBRANCH   4   5
ENDBRANCH   2   4
ENDBRANCH   1   2
BRANCH   1  19
ATOM     19  C   UNL A   1      38.089  21.181  25.025  1.00  0.00     0.274 C 
BRANCH  19  20
ATOM     20  C   UNL A   1      38.844  19.846  25.019  1.00  0.00     0.275 C 
BRANCH  20  21
ATOM     21  O   UNL A   1      39.621  19.699  26.224  1.00  0.00    -0.458 OA
BRANCH  21  22
ATOM     22  C   UNL A   1      40.964  19.703  26.064  1.00  0.00     0.338 C 
ATOM     23  O   UNL A   1      41.652  18.845  25.543  1.00  0.00    -0.246 OA
BRANCH  22  24
ATOM     24  C   UNL A   1      41.524  20.953  26.594  1.00  0.00     0.060 A 
ATOM     25  C   UNL A   1      41.432  21.219  27.963  1.00  0.00     0.016 A 
ATOM     26  C   UNL A   1      42.013  21.918  25.714  1.00  0.00     0.016 A 
ATOM     27  C   UNL A   1      41.813  22.464  28.456  1.00  0.00     0.010 A 
ATOM     28  C   UNL A   1      42.409  23.161  26.212  1.00  0.00     0.010 A 
ATOM     29  C   UNL A   1      42.288  23.453  27.583  1.00  0.00    -0.014 A 
BRANCH  29  30
ATOM     30  C   UNL A   1      42.586  24.812  28.097  1.00  0.00     0.031 A 
ATOM     31  C   UNL A   1      43.997  25.181  28.465  1.00  0.00     0.074 A 
ATOM     32  C   UNL A   1      41.598  25.718  28.214  1.00  0.00     0.049 A 
ATOM     33  N   UNL A   1      44.455  26.290  28.988  1.00  0.00    -0.248 NA
ATOM     34  C   UNL A   1      45.029  24.162  28.222  1.00  0.00     0.031 C 
ATOM     35  C   UNL A   1      40.197  25.488  27.859  1.00  0.00     0.029 A 
ATOM     36  N   UNL A   1      41.621  27.013  28.664  1.00  0.00    -0.354 N 
ATOM     37  C   UNL A   1      45.822  26.096  29.153  1.00  0.00     0.074 A 
ATOM     38  C   UNL A   1      46.111  24.749  28.710  1.00  0.00     0.031 C 
ATOM     39  C   UNL A   1      39.496  26.608  28.095  1.00  0.00     0.029 A 
ATOM     40  C   UNL A   1      40.387  27.615  28.665  1.00  0.00     0.049 A 
ATOM     41  H   UNL A   1      42.444  27.468  28.957  1.00  0.00     0.167 HD
ATOM     42  C   UNL A   1      46.750  26.965  29.621  1.00  0.00     0.037 A 
ATOM     43  C   UNL A   1      40.011  28.832  29.102  1.00  0.00     0.037 A 
ATOM     44  C   UNL A   1      46.452  28.308  30.052  1.00  0.00     0.049 A 
ATOM     45  C   UNL A   1      41.051  29.756  29.675  1.00  0.00     0.074 A 
ATOM     46  C   UNL A   1      47.322  29.276  30.524  1.00  0.00     0.029 A 
ATOM     47  N   UNL A   1      45.184  28.873  30.064  1.00  0.00    -0.354 N 
ATOM     48  N   UNL A   1      42.342  29.568  29.814  1.00  0.00    -0.248 NA
ATOM     49  C   UNL A   1      40.582  31.065  30.148  1.00  0.00     0.031 C 
ATOM     50  C   UNL A   1      46.573  30.401  30.883  1.00  0.00     0.029 A 
ATOM     51  C   UNL A   1      45.245  30.164  30.564  1.00  0.00     0.049 A 
ATOM     52  H   UNL A   1      44.362  28.422  29.763  1.00  0.00     0.167 HD
ATOM     53  C   UNL A   1      42.842  30.745  30.358  1.00  0.00     0.074 A 
ATOM     54  C   UNL A   1      41.718  31.645  30.505  1.00  0.00     0.031 C 
ATOM     55  C   UNL A   1      44.118  31.053  30.701  1.00  0.00     0.037 A 
BRANCH  42  56
ATOM     56  C   UNL A   1      48.169  26.480  29.722  1.00  0.00     0.057 A 
ATOM     57  C   UNL A   1      48.650  25.808  30.853  1.00  0.00     0.134 A 
ATOM     58  C   UNL A   1      49.062  26.664  28.658  1.00  0.00     0.134 A 
ATOM     59  F   UNL A   1      47.853  25.603  31.914  1.00  0.00    -0.206 F 
ATOM     60  C   UNL A   1      49.973  25.366  30.935  1.00  0.00     0.040 A 
ATOM     61  C   UNL A   1      50.376  26.198  28.714  1.00  0.00     0.040 A 
ATOM     62  F   UNL A   1      48.669  27.293  27.539  1.00  0.00    -0.206 F 
ATOM     63  C   UNL A   1      50.838  25.554  29.859  1.00  0.00     0.006 A 
ENDBRANCH  42  56
BRANCH  43  64
ATOM     64  C   UNL A   1      38.585  29.245  29.027  1.00  0.00     0.057 A 
ATOM     65  C   UNL A   1      37.753  29.193  30.152  1.00  0.00     0.134 A 
ATOM     66  C   UNL A   1      38.015  29.685  27.825  1.00  0.00     0.134 A 
ATOM     67  F   UNL A   1      38.233  28.762  31.327  1.00  0.00    -0.206 F 
ATOM     68  C   UNL A   1      36.402  29.537  30.079  1.00  0.00     0.040 A 
ATOM     69  C   UNL A   1      36.675  30.063  27.746  1.00  0.00     0.040 A 
ATOM     70  F   UNL A   1      38.758  29.763  26.712  1.00  0.00    -0.206 F 
ATOM     71  C   UNL A   1      35.861  29.979  28.873  1.00  0.00     0.006 A 
ENDBRANCH  43  64
BRANCH  55  72
ATOM     72  C   UNL A   1      44.371  32.441  31.221  1.00  0.00     0.057 A 
ATOM     73  C   UNL A   1      44.667  33.516  30.373  1.00  0.00     0.134 A 
ATOM     74  C   UNL A   1      44.302  32.707  32.595  1.00  0.00     0.134 A 
ATOM     75  F   UNL A   1      44.761  33.330  29.046  1.00  0.00    -0.206 F 
ATOM     76  C   UNL A   1      44.926  34.793  30.873  1.00  0.00     0.040 A 
ATOM     77  C   UNL A   1      44.521  33.987  33.105  1.00  0.00     0.040 A 
ATOM     78  F   UNL A   1      44.011  31.728  33.466  1.00  0.00    -0.206 F 
ATOM     79  C   UNL A   1      44.846  35.032  32.244  1.00  0.00     0.006 A 
ENDBRANCH  55  72
ENDBRANCH  29  30
ENDBRANCH  22  24
ENDBRANCH  21  22
ENDBRANCH  20  21
ENDBRANCH  19  20
ENDBRANCH   1  19
TORSDOF 18
ENDMDL
MODEL 3
REMARK VINA RESULT:      -8.9      4.744      9.494
REMARK SMILES C#CC[N@H+](CC(=O)OCCOC(=O)c1ccc(-c2c3nc(c(-c4c(F)cccc4F)c4ccc([nH]4)c(-c4c(F)cccc4F)c4nc(c(-c5c(F)cccc5F)c5ccc2[nH]5)C=C4)C=C3)cc1)[C@H](C)C(=O)NCCC
REMARK SMILES IDX 8 1 6 2 7 3 5 4 4 5 3 7 2 8 1 9 68 10 69 11 70 12 71 13
REMARK SMILES IDX 72 14 73 16 74 17 75 18 9 19 10 20 11 21 12 22 13 23 14 24
REMARK SMILES IDX 15 25 67 26 16 27 66 28 17 29 18 30 19 31 60 32 20 33 65 34
REMARK SMILES IDX 59 35 61 36 21 37 64 38 58 39 57 40 22 42 48 43 31 44 47 45
REMARK SMILES IDX 32 46 35 47 46 48 62 49 33 50 34 51 45 53 63 54 36 55 23 56
REMARK SMILES IDX 24 57 29 58 25 59 26 60 28 61 30 62 27 63 49 64 50 65 55 66
REMARK SMILES IDX 51 67 52 68 54 69 56 70 53 71 37 72 38 73 43 74 39 75 40 76
REMARK SMILES IDX 42 77 44 78 41 79
REMARK H PARENT 4 6 72 15 61 41 35 52
REMARK Flexibility Score: inf
ROOT
ATOM      1  O   UNL A   1      36.092  22.266  24.987  1.00  0.00    -0.458 OA
ENDROOT
BRANCH   1   2
ATOM      2  C   UNL A   1      35.629  22.946  23.903  1.00  0.00     0.361 C 
ATOM      3  O   UNL A   1      36.175  22.953  22.806  1.00  0.00    -0.245 OA
BRANCH   2   4
ATOM      4  C   UNL A   1      34.392  23.783  24.232  1.00  0.00     0.387 C 
BRANCH   4   5
ATOM      5  N   UNL A   1      33.066  23.248  23.796  1.00  0.00    -0.306 N 
ATOM      6  H   UNL A   1      33.148  22.727  22.923  1.00  0.00     0.350 HD
BRANCH   5   7
ATOM      7  C   UNL A   1      32.580  22.185  24.683  1.00  0.00     0.355 C 
BRANCH   7   8
ATOM      8  C   UNL A   1      32.517  20.809  24.167  1.00  0.00    -0.047 C 
ATOM      9  C   UNL A   1      32.528  19.656  23.841  1.00  0.00     0.010 C 
ENDBRANCH   7   8
ENDBRANCH   5   7
BRANCH   5  10
ATOM     10  C   UNL A   1      32.143  24.365  23.395  1.00  0.00     0.272 C 
ATOM     11  C   UNL A   1      30.656  24.051  23.126  1.00  0.00     0.086 C 
BRANCH  10  12
ATOM     12  C   UNL A   1      32.635  25.383  22.349  1.00  0.00     0.278 C 
ATOM     13  O   UNL A   1      33.244  25.016  21.338  1.00  0.00    -0.268 OA
ATOM     14  N   UNL A   1      32.503  26.731  22.546  1.00  0.00    -0.351 N 
ATOM     15  H   UNL A   1      33.061  27.298  21.967  1.00  0.00     0.163 HD
BRANCH  14  16
ATOM     16  C   UNL A   1      31.662  27.443  23.486  1.00  0.00     0.116 C 
BRANCH  16  17
ATOM     17  C   UNL A   1      30.337  27.886  22.889  1.00  0.00     0.018 C 
ATOM     18  C   UNL A   1      30.396  29.317  22.373  1.00  0.00     0.006 C 
ENDBRANCH  16  17
ENDBRANCH  14  16
ENDBRANCH  10  12
ENDBRANCH   5  10
ENDBRANCH   4   5
ENDBRANCH   2   4
ENDBRANCH   1   2
BRANCH   1  19
ATOM     19  C   UNL A   1      36.010  20.830  24.933  1.00  0.00     0.274 C 
BRANCH  19  20
ATOM     20  C   UNL A   1      37.398  20.184  25.009  1.00  0.00     0.275 C 
BRANCH  20  21
ATOM     21  O   UNL A   1      38.421  21.192  25.123  1.00  0.00    -0.458 OA
BRANCH  21  22
ATOM     22  C   UNL A   1      39.313  21.017  26.125  1.00  0.00     0.338 C 
ATOM     23  O   UNL A   1      39.752  19.965  26.553  1.00  0.00    -0.246 OA
BRANCH  22  24
ATOM     24  C   UNL A   1      39.740  22.323  26.645  1.00  0.00     0.060 A 
ATOM     25  C   UNL A   1      39.174  23.488  26.120  1.00  0.00     0.016 A 
ATOM     26  C   UNL A   1      40.798  22.392  27.551  1.00  0.00     0.016 A 
ATOM     27  C   UNL A   1      39.680  24.732  26.486  1.00  0.00     0.010 A 
ATOM     28  C   UNL A   1      41.294  23.641  27.930  1.00  0.00     0.010 A 
ATOM     29  C   UNL A   1      40.755  24.820  27.381  1.00  0.00    -0.014 A 
BRANCH  29  30
ATOM     30  C   UNL A   1      41.362  26.140  27.681  1.00  0.00     0.031 A 
ATOM     31  C   UNL A   1      42.761  26.444  27.219  1.00  0.00     0.074 A 
ATOM     32  C   UNL A   1      40.653  27.070  28.348  1.00  0.00     0.049 A 
ATOM     33  N   UNL A   1      43.492  27.508  27.432  1.00  0.00    -0.248 NA
ATOM     34  C   UNL A   1      43.430  25.406  26.420  1.00  0.00     0.031 C 
ATOM     35  C   UNL A   1      39.278  26.904  28.820  1.00  0.00     0.029 A 
ATOM     36  N   UNL A   1      40.993  28.338  28.744  1.00  0.00    -0.354 N 
ATOM     37  C   UNL A   1      44.711  27.262  26.810  1.00  0.00     0.074 A 
ATOM     38  C   UNL A   1      44.633  25.932  26.245  1.00  0.00     0.031 C 
ATOM     39  C   UNL A   1      38.886  28.032  29.432  1.00  0.00     0.029 A 
ATOM     40  C   UNL A   1      39.999  28.978  29.443  1.00  0.00     0.049 A 
ATOM     41  H   UNL A   1      41.865  28.750  28.547  1.00  0.00     0.167 HD
ATOM     42  C   UNL A   1      45.790  28.076  26.711  1.00  0.00     0.037 A 
ATOM     43  C   UNL A   1      39.993  30.182  30.046  1.00  0.00     0.037 A 
ATOM     44  C   UNL A   1      45.854  29.403  27.269  1.00  0.00     0.049 A 
ATOM     45  C   UNL A   1      41.227  31.041  29.975  1.00  0.00     0.074 A 
ATOM     46  C   UNL A   1      46.893  30.316  27.208  1.00  0.00     0.029 A 
ATOM     47  N   UNL A   1      44.835  30.006  27.994  1.00  0.00    -0.354 N 
ATOM     48  N   UNL A   1      42.369  30.804  29.373  1.00  0.00    -0.248 NA
ATOM     49  C   UNL A   1      41.169  32.337  30.662  1.00  0.00     0.031 C 
ATOM     50  C   UNL A   1      46.529  31.444  27.951  1.00  0.00     0.029 A 
ATOM     51  C   UNL A   1      45.234  31.267  28.411  1.00  0.00     0.049 A 
ATOM     52  H   UNL A   1      43.960  29.598  28.185  1.00  0.00     0.167 HD
ATOM     53  C   UNL A   1      43.150  31.934  29.581  1.00  0.00     0.074 A 
ATOM     54  C   UNL A   1      42.344  32.861  30.348  1.00  0.00     0.031 C 
ATOM     55  C   UNL A   1      44.419  32.183  29.171  1.00  0.00     0.037 A 
BRANCH  42  56
ATOM     56  C   UNL A   1      47.001  27.540  25.999  1.00  0.00     0.057 A 
ATOM     57  C   UNL A   1      48.058  26.923  26.681  1.00  0.00     0.134 A 
ATOM     58  C   UNL A   1      47.099  27.619  24.603  1.00  0.00     0.134 A 
ATOM     59  F   UNL A   1      48.035  26.820  28.020  1.00  0.00    -0.206 F 
ATOM     60  C   UNL A   1      49.178  26.434  26.007  1.00  0.00     0.040 A 
ATOM     61  C   UNL A   1      48.199  27.104  23.915  1.00  0.00     0.040 A 
ATOM     62  F   UNL A   1      46.122  28.190  23.882  1.00  0.00    -0.206 F 
ATOM     63  C   UNL A   1      49.248  26.518  24.618  1.00  0.00     0.006 A 
ENDBRANCH  42  56
BRANCH  43  64
ATOM     64  C   UNL A   1      38.787  30.644  30.782  1.00  0.00     0.057 A 
ATOM     65  C   UNL A   1      38.582  30.309  32.126  1.00  0.00     0.134 A 
ATOM     66  C   UNL A   1      37.801  31.416  30.154  1.00  0.00     0.134 A 
ATOM     67  F   UNL A   1      39.480  29.555  32.778  1.00  0.00    -0.206 F 
ATOM     68  C   UNL A   1      37.431  30.701  32.810  1.00  0.00     0.040 A 
ATOM     69  C   UNL A   1      36.662  31.843  30.835  1.00  0.00     0.040 A 
ATOM     70  F   UNL A   1      37.938  31.776  28.869  1.00  0.00    -0.206 F 
ATOM     71  C   UNL A   1      36.468  31.476  32.165  1.00  0.00     0.006 A 
ENDBRANCH  43  64
BRANCH  55  72
ATOM     72  C   UNL A   1      44.993  33.532  29.502  1.00  0.00     0.057 A 
ATOM     73  C   UNL A   1      45.729  33.767  30.670  1.00  0.00     0.134 A 
ATOM     74  C   UNL A   1      44.817  34.611  28.625  1.00  0.00     0.134 A 
ATOM     75  F   UNL A   1      45.926  32.782  31.560  1.00  0.00    -0.206 F 
ATOM     76  C   UNL A   1      46.234  35.034  30.975  1.00  0.00     0.040 A 
ATOM     77  C   UNL A   1      45.348  35.873  28.900  1.00  0.00     0.040 A 
ATOM     78  F   UNL A   1      44.134  34.456  27.481  1.00  0.00    -0.206 F 
ATOM     79  C   UNL A   1      46.049  36.089  30.084  1.00  0.00     0.006 A 
ENDBRANCH  55  72
ENDBRANCH  29  30
ENDBRANCH  22  24
ENDBRANCH  21  22
ENDBRANCH  20  21
ENDBRANCH  19  20
ENDBRANCH   1  19
TORSDOF 18
ENDMDL
