MODEL 1
REMARK VINA RESULT:     -12.0      0.000      0.000
REMARK SMILES Cc1ncccc1NC(=O)Nc1ccc(C(=O)OCCOC(=O)c2ccc(-c3c4nc(c(-c5c(F)cccc5F)c5ccc([nH]5)c(-c5c(F)cccc5F)c5nc(c(-c6c(F)cccc6F)c6ccc3[nH]6)C=C5)C=C4)cc2)c(O)c1
REMARK SMILES IDX 19 1 18 2 16 3 17 4 15 5 12 6 13 7 80 8 14 9 78 10 11 11
REMARK SMILES IDX 8 12 9 13 10 15 7 17 1 18 2 19 3 20 4 21 6 22 5 23 79 24
REMARK SMILES IDX 20 26 21 27 22 28 23 29 24 30 25 31 77 32 26 33 76 34 27 35
REMARK SMILES IDX 28 36 29 37 70 38 30 39 75 40 69 41 71 42 31 43 74 44 68 45
REMARK SMILES IDX 67 46 32 48 58 49 41 50 57 51 42 52 45 53 56 54 72 55 43 56
REMARK SMILES IDX 44 57 55 59 73 60 46 61 33 62 34 63 39 64 35 65 36 66 38 67
REMARK SMILES IDX 40 68 37 69 59 70 60 71 65 72 61 73 62 74 64 75 66 76 63 77
REMARK SMILES IDX 47 78 48 79 53 80 49 81 50 82 52 83 54 84 51 85
REMARK H PARENT 8 14 11 16 79 25 71 47 45 58
REMARK Flexibility Score: inf
ROOT
ATOM      1  C   UNL A   1      34.645  21.326  24.630  1.00  0.00     0.275 C 
ENDROOT
BRANCH   1   2
ATOM      2  O   UNL A   1      34.813  22.760  24.679  1.00  0.00    -0.458 OA
BRANCH   2   3
ATOM      3  C   UNL A   1      35.114  23.360  23.496  1.00  0.00     0.342 C 
ATOM      4  O   UNL A   1      35.970  23.008  22.704  1.00  0.00    -0.246 OA
BRANCH   3   5
ATOM      5  C   UNL A   1      34.148  24.453  23.220  1.00  0.00     0.101 A 
ATOM      6  C   UNL A   1      32.628  26.726  22.610  1.00  0.00     0.046 A 
ATOM      7  C   UNL A   1      33.554  26.771  23.650  1.00  0.00     0.027 A 
ATOM      8  C   UNL A   1      32.370  25.515  21.959  1.00  0.00     0.073 A 
ATOM      9  C   UNL A   1      34.278  25.625  23.982  1.00  0.00     0.022 A 
ATOM     10  C   UNL A   1      33.171  24.403  22.219  1.00  0.00     0.132 A 
BRANCH   6  11
ATOM     11  N   UNL A   1      31.967  27.872  22.142  1.00  0.00    -0.308 N 
ATOM     12  N   UNL A   1      30.265  28.317  23.751  1.00  0.00    -0.306 N 
ATOM     13  C   UNL A   1      30.759  28.377  22.486  1.00  0.00     0.323 C 
ATOM     14  H   UNL A   1      29.283  28.353  23.787  1.00  0.00     0.171 HD
ATOM     15  O   UNL A   1      30.090  28.956  21.626  1.00  0.00    -0.248 OA
ATOM     16  H   UNL A   1      32.457  28.386  21.460  1.00  0.00     0.171 HD
BRANCH  12  17
ATOM     17  C   UNL A   1      30.870  28.213  25.031  1.00  0.00     0.064 A 
ATOM     18  C   UNL A   1      29.920  25.859  25.367  1.00  0.00     0.069 C 
ATOM     19  C   UNL A   1      30.757  27.033  25.790  1.00  0.00     0.061 A 
ATOM     20  N   UNL A   1      31.400  26.849  26.980  1.00  0.00    -0.259 NA
ATOM     21  C   UNL A   1      32.126  27.872  27.470  1.00  0.00     0.111 A 
ATOM     22  C   UNL A   1      31.547  29.272  25.640  1.00  0.00     0.030 A 
ATOM     23  C   UNL A   1      32.212  29.099  26.851  1.00  0.00     0.022 A 
ENDBRANCH  12  17
ENDBRANCH   6  11
BRANCH  10  24
ATOM     24  O   UNL A   1      32.959  23.320  21.412  1.00  0.00    -0.507 OA
ATOM     25  H   UNL A   1      32.155  22.842  21.469  1.00  0.00     0.293 HD
ENDBRANCH  10  24
ENDBRANCH   3   5
ENDBRANCH   2   3
ENDBRANCH   1   2
BRANCH   1  26
ATOM     26  C   UNL A   1      35.943  20.619  25.022  1.00  0.00     0.275 C 
BRANCH  26  27
ATOM     27  O   UNL A   1      36.776  21.522  25.770  1.00  0.00    -0.458 OA
BRANCH  27  28
ATOM     28  C   UNL A   1      38.103  21.259  25.751  1.00  0.00     0.338 C 
ATOM     29  O   UNL A   1      38.660  20.253  25.352  1.00  0.00    -0.246 OA
BRANCH  28  30
ATOM     30  C   UNL A   1      38.826  22.424  26.289  1.00  0.00     0.060 A 
ATOM     31  C   UNL A   1      38.339  23.705  26.031  1.00  0.00     0.016 A 
ATOM     32  C   UNL A   1      40.037  22.252  26.957  1.00  0.00     0.016 A 
ATOM     33  C   UNL A   1      39.070  24.826  26.420  1.00  0.00     0.010 A 
ATOM     34  C   UNL A   1      40.749  23.377  27.390  1.00  0.00     0.010 A 
ATOM     35  C   UNL A   1      40.281  24.674  27.109  1.00  0.00    -0.014 A 
BRANCH  35  36
ATOM     36  C   UNL A   1      41.074  25.867  27.507  1.00  0.00     0.031 A 
ATOM     37  C   UNL A   1      40.452  26.944  28.351  1.00  0.00     0.074 A 
ATOM     38  C   UNL A   1      42.357  25.991  27.117  1.00  0.00     0.049 A 
ATOM     39  N   UNL A   1      40.932  28.117  28.683  1.00  0.00    -0.248 NA
ATOM     40  C   UNL A   1      39.110  26.670  28.887  1.00  0.00     0.031 C 
ATOM     41  C   UNL A   1      43.102  25.008  26.329  1.00  0.00     0.029 A 
ATOM     42  N   UNL A   1      43.262  27.002  27.330  1.00  0.00    -0.354 N 
ATOM     43  C   UNL A   1      39.938  28.736  29.430  1.00  0.00     0.074 A 
ATOM     44  C   UNL A   1      38.827  27.811  29.501  1.00  0.00     0.031 C 
ATOM     45  C   UNL A   1      44.353  25.456  26.139  1.00  0.00     0.029 A 
ATOM     46  C   UNL A   1      44.482  26.782  26.738  1.00  0.00     0.049 A 
ATOM     47  H   UNL A   1      43.057  27.808  27.855  1.00  0.00     0.167 HD
ATOM     48  C   UNL A   1      39.953  29.962  30.006  1.00  0.00     0.037 A 
ATOM     49  C   UNL A   1      45.572  27.569  26.655  1.00  0.00     0.037 A 
ATOM     50  C   UNL A   1      41.071  30.869  29.976  1.00  0.00     0.049 A 
ATOM     51  C   UNL A   1      45.551  28.937  27.274  1.00  0.00     0.074 A 
ATOM     52  C   UNL A   1      41.180  32.122  30.556  1.00  0.00     0.029 A 
ATOM     53  N   UNL A   1      42.277  30.618  29.341  1.00  0.00    -0.354 N 
ATOM     54  N   UNL A   1      44.594  29.524  27.949  1.00  0.00    -0.248 NA
ATOM     55  C   UNL A   1      46.759  29.759  27.104  1.00  0.00     0.031 C 
ATOM     56  C   UNL A   1      42.443  32.641  30.248  1.00  0.00     0.029 A 
ATOM     57  C   UNL A   1      43.131  31.697  29.505  1.00  0.00     0.049 A 
ATOM     58  H   UNL A   1      42.494  29.795  28.847  1.00  0.00     0.167 HD
ATOM     59  C   UNL A   1      45.083  30.777  28.291  1.00  0.00     0.074 A 
ATOM     60  C   UNL A   1      46.431  30.861  27.766  1.00  0.00     0.031 C 
ATOM     61  C   UNL A   1      44.468  31.771  28.976  1.00  0.00     0.037 A 
BRANCH  48  62
ATOM     62  C   UNL A   1      38.704  30.411  30.704  1.00  0.00     0.057 A 
ATOM     63  C   UNL A   1      37.694  31.115  30.038  1.00  0.00     0.134 A 
ATOM     64  C   UNL A   1      38.492  30.090  32.052  1.00  0.00     0.134 A 
ATOM     65  F   UNL A   1      37.842  31.460  28.751  1.00  0.00    -0.206 F 
ATOM     66  C   UNL A   1      36.521  31.497  30.692  1.00  0.00     0.040 A 
ATOM     67  C   UNL A   1      37.316  30.449  32.711  1.00  0.00     0.040 A 
ATOM     68  F   UNL A   1      39.419  29.411  32.744  1.00  0.00    -0.206 F 
ATOM     69  C   UNL A   1      36.327  31.159  32.031  1.00  0.00     0.006 A 
ENDBRANCH  48  62
BRANCH  49  70
ATOM     70  C   UNL A   1      46.772  27.090  25.928  1.00  0.00     0.057 A 
ATOM     71  C   UNL A   1      46.954  27.372  24.570  1.00  0.00     0.134 A 
ATOM     72  C   UNL A   1      47.762  26.339  26.573  1.00  0.00     0.134 A 
ATOM     73  F   UNL A   1      46.027  28.065  23.894  1.00  0.00    -0.206 F 
ATOM     74  C   UNL A   1      48.078  26.922  23.877  1.00  0.00     0.040 A 
ATOM     75  C   UNL A   1      48.901  25.900  25.897  1.00  0.00     0.040 A 
ATOM     76  F   UNL A   1      47.642  26.033  27.873  1.00  0.00    -0.206 F 
ATOM     77  C   UNL A   1      49.060  26.189  24.543  1.00  0.00     0.006 A 
ENDBRANCH  49  70
BRANCH  61  78
ATOM     78  C   UNL A   1      45.254  33.025  29.214  1.00  0.00     0.057 A 
ATOM     79  C   UNL A   1      46.091  33.166  30.327  1.00  0.00     0.134 A 
ATOM     80  C   UNL A   1      45.189  34.092  28.310  1.00  0.00     0.134 A 
ATOM     81  F   UNL A   1      46.184  32.186  31.237  1.00  0.00    -0.206 F 
ATOM     82  C   UNL A   1      46.826  34.334  30.541  1.00  0.00     0.040 A 
ATOM     83  C   UNL A   1      45.933  35.257  28.503  1.00  0.00     0.040 A 
ATOM     84  F   UNL A   1      44.409  34.016  27.222  1.00  0.00    -0.206 F 
ATOM     85  C   UNL A   1      46.752  35.382  29.625  1.00  0.00     0.006 A 
ENDBRANCH  61  78
ENDBRANCH  35  36
ENDBRANCH  28  30
ENDBRANCH  27  28
ENDBRANCH  26  27
ENDBRANCH   1  26
TORSDOF 14
ENDMDL
MODEL 2
REMARK VINA RESULT:     -12.0      2.365      3.472
REMARK SMILES Cc1ncccc1NC(=O)Nc1ccc(C(=O)OCCOC(=O)c2ccc(-c3c4nc(c(-c5c(F)cccc5F)c5ccc([nH]5)c(-c5c(F)cccc5F)c5nc(c(-c6c(F)cccc6F)c6ccc3[nH]6)C=C5)C=C4)cc2)c(O)c1
REMARK SMILES IDX 19 1 18 2 16 3 17 4 15 5 12 6 13 7 80 8 14 9 78 10 11 11
REMARK SMILES IDX 8 12 9 13 10 15 7 17 1 18 2 19 3 20 4 21 6 22 5 23 79 24
REMARK SMILES IDX 20 26 21 27 22 28 23 29 24 30 25 31 77 32 26 33 76 34 27 35
REMARK SMILES IDX 28 36 29 37 70 38 30 39 75 40 69 41 71 42 31 43 74 44 68 45
REMARK SMILES IDX 67 46 32 48 58 49 41 50 57 51 42 52 45 53 56 54 72 55 43 56
REMARK SMILES IDX 44 57 55 59 73 60 46 61 33 62 34 63 39 64 35 65 36 66 38 67
REMARK SMILES IDX 40 68 37 69 59 70 60 71 65 72 61 73 62 74 64 75 66 76 63 77
REMARK SMILES IDX 47 78 48 79 53 80 49 81 50 82 52 83 54 84 51 85
REMARK H PARENT 8 14 11 16 79 25 71 47 45 58
REMARK Flexibility Score: inf
ROOT
ATOM      1  C   UNL A   1      38.284  20.952  25.327  1.00  0.00     0.275 C 
ENDROOT
BRANCH   1   2
ATOM      2  O   UNL A   1      36.945  20.748  24.824  1.00  0.00    -0.458 OA
BRANCH   2   3
ATOM      3  C   UNL A   1      36.355  21.836  24.259  1.00  0.00     0.342 C 
ATOM      4  O   UNL A   1      36.885  22.640  23.512  1.00  0.00    -0.246 OA
BRANCH   3   5
ATOM      5  C   UNL A   1      34.903  21.845  24.568  1.00  0.00     0.101 A 
ATOM      6  C   UNL A   1      32.257  22.055  25.464  1.00  0.00     0.046 A 
ATOM      7  C   UNL A   1      33.198  21.375  26.236  1.00  0.00     0.027 A 
ATOM      8  C   UNL A   1      32.605  22.518  24.191  1.00  0.00     0.073 A 
ATOM      9  C   UNL A   1      34.505  21.232  25.767  1.00  0.00     0.022 A 
ATOM     10  C   UNL A   1      33.936  22.471  23.775  1.00  0.00     0.132 A 
BRANCH   6  11
ATOM     11  N   UNL A   1      30.969  22.347  25.935  1.00  0.00    -0.308 N 
ATOM     12  N   UNL A   1      31.145  24.492  26.961  1.00  0.00    -0.306 N 
ATOM     13  C   UNL A   1      30.565  23.268  26.842  1.00  0.00     0.323 C 
ATOM     14  H   UNL A   1      31.039  24.887  27.855  1.00  0.00     0.171 HD
ATOM     15  O   UNL A   1      29.601  23.008  27.566  1.00  0.00    -0.248 OA
ATOM     16  H   UNL A   1      30.249  21.797  25.548  1.00  0.00     0.171 HD
BRANCH  12  17
ATOM     17  C   UNL A   1      31.871  25.319  26.064  1.00  0.00     0.064 A 
ATOM     18  C   UNL A   1      29.739  25.922  24.781  1.00  0.00     0.069 C 
ATOM     19  C   UNL A   1      31.211  26.044  25.054  1.00  0.00     0.061 A 
ATOM     20  N   UNL A   1      31.851  26.927  24.232  1.00  0.00    -0.259 NA
ATOM     21  C   UNL A   1      33.185  27.058  24.362  1.00  0.00     0.111 A 
ATOM     22  C   UNL A   1      33.264  25.416  26.078  1.00  0.00     0.030 A 
ATOM     23  C   UNL A   1      33.931  26.315  25.250  1.00  0.00     0.022 A 
ENDBRANCH  12  17
ENDBRANCH   6  11
BRANCH  10  24
ATOM     24  O   UNL A   1      34.209  23.105  22.594  1.00  0.00    -0.507 OA
ATOM     25  H   UNL A   1      34.283  22.610  21.802  1.00  0.00     0.293 HD
ENDBRANCH  10  24
ENDBRANCH   3   5
ENDBRANCH   2   3
ENDBRANCH   1   2
BRANCH   1  26
ATOM     26  C   UNL A   1      39.088  19.653  25.256  1.00  0.00     0.275 C 
BRANCH  26  27
ATOM     27  O   UNL A   1      40.046  19.621  26.328  1.00  0.00    -0.458 OA
BRANCH  27  28
ATOM     28  C   UNL A   1      41.341  19.782  25.972  1.00  0.00     0.338 C 
ATOM     29  O   UNL A   1      42.028  19.040  25.292  1.00  0.00    -0.246 OA
BRANCH  28  30
ATOM     30  C   UNL A   1      41.833  21.054  26.529  1.00  0.00     0.060 A 
ATOM     31  C   UNL A   1      41.893  21.211  27.912  1.00  0.00     0.016 A 
ATOM     32  C   UNL A   1      42.136  22.120  25.684  1.00  0.00     0.016 A 
ATOM     33  C   UNL A   1      42.235  22.445  28.464  1.00  0.00     0.010 A 
ATOM     34  C   UNL A   1      42.525  23.346  26.237  1.00  0.00     0.010 A 
ATOM     35  C   UNL A   1      42.560  23.525  27.632  1.00  0.00    -0.014 A 
BRANCH  35  36
ATOM     36  C   UNL A   1      42.904  24.848  28.216  1.00  0.00     0.031 A 
ATOM     37  C   UNL A   1      41.827  25.863  28.482  1.00  0.00     0.074 A 
ATOM     38  C   UNL A   1      44.183  25.147  28.515  1.00  0.00     0.049 A 
ATOM     39  N   UNL A   1      41.942  27.113  28.854  1.00  0.00    -0.248 NA
ATOM     40  C   UNL A   1      40.439  25.415  28.298  1.00  0.00     0.031 C 
ATOM     41  C   UNL A   1      45.325  24.247  28.347  1.00  0.00     0.029 A 
ATOM     42  N   UNL A   1      44.737  26.298  29.021  1.00  0.00    -0.354 N 
ATOM     43  C   UNL A   1      40.647  27.612  28.909  1.00  0.00     0.074 A 
ATOM     44  C   UNL A   1      39.762  26.531  28.530  1.00  0.00     0.031 C 
ATOM     45  C   UNL A   1      46.439  24.873  28.758  1.00  0.00     0.029 A 
ATOM     46  C   UNL A   1      46.102  26.235  29.161  1.00  0.00     0.049 A 
ATOM     47  H   UNL A   1      44.207  27.091  29.261  1.00  0.00     0.167 HD
ATOM     48  C   UNL A   1      40.235  28.857  29.248  1.00  0.00     0.037 A 
ATOM     49  C   UNL A   1      46.988  27.177  29.538  1.00  0.00     0.037 A 
ATOM     50  C   UNL A   1      41.106  29.924  29.669  1.00  0.00     0.049 A 
ATOM     51  C   UNL A   1      46.509  28.559  29.877  1.00  0.00     0.074 A 
ATOM     52  C   UNL A   1      40.769  31.211  30.056  1.00  0.00     0.029 A 
ATOM     53  N   UNL A   1      42.484  29.827  29.769  1.00  0.00    -0.354 N 
ATOM     54  N   UNL A   1      45.286  29.027  29.893  1.00  0.00    -0.248 NA
ATOM     55  C   UNL A   1      47.537  29.547  30.234  1.00  0.00     0.031 C 
ATOM     56  C   UNL A   1      41.947  31.901  30.362  1.00  0.00     0.029 A 
ATOM     57  C   UNL A   1      43.014  31.034  30.199  1.00  0.00     0.049 A 
ATOM     58  H   UNL A   1      43.010  29.021  29.564  1.00  0.00     0.167 HD
ATOM     59  C   UNL A   1      45.395  30.359  30.269  1.00  0.00     0.074 A 
ATOM     60  C   UNL A   1      46.802  30.621  30.490  1.00  0.00     0.031 C 
ATOM     61  C   UNL A   1      44.415  31.284  30.413  1.00  0.00     0.037 A 
BRANCH  48  62
ATOM     62  C   UNL A   1      38.766  29.147  29.155  1.00  0.00     0.057 A 
ATOM     63  C   UNL A   1      37.923  29.069  30.271  1.00  0.00     0.134 A 
ATOM     64  C   UNL A   1      38.200  29.557  27.940  1.00  0.00     0.134 A 
ATOM     65  F   UNL A   1      38.403  28.673  31.458  1.00  0.00    -0.206 F 
ATOM     66  C   UNL A   1      36.564  29.374  30.177  1.00  0.00     0.040 A 
ATOM     67  C   UNL A   1      36.847  29.884  27.840  1.00  0.00     0.040 A 
ATOM     68  F   UNL A   1      38.957  29.659  26.837  1.00  0.00    -0.206 F 
ATOM     69  C   UNL A   1      36.024  29.789  28.960  1.00  0.00     0.006 A 
ENDBRANCH  48  62
BRANCH  49  70
ATOM     70  C   UNL A   1      48.434  26.848  29.586  1.00  0.00     0.057 A 
ATOM     71  C   UNL A   1      49.275  27.134  28.505  1.00  0.00     0.134 A 
ATOM     72  C   UNL A   1      49.006  26.242  30.710  1.00  0.00     0.134 A 
ATOM     73  F   UNL A   1      48.779  27.690  27.391  1.00  0.00    -0.206 F 
ATOM     74  C   UNL A   1      50.635  26.824  28.539  1.00  0.00     0.040 A 
ATOM     75  C   UNL A   1      50.368  25.947  30.767  1.00  0.00     0.040 A 
ATOM     76  F   UNL A   1      48.250  25.941  31.777  1.00  0.00    -0.206 F 
ATOM     77  C   UNL A   1      51.187  26.235  29.677  1.00  0.00     0.006 A 
ENDBRANCH  49  70
BRANCH  61  78
ATOM     78  C   UNL A   1      44.829  32.657  30.849  1.00  0.00     0.057 A 
ATOM     79  C   UNL A   1      44.949  32.992  32.203  1.00  0.00     0.134 A 
ATOM     80  C   UNL A   1      45.133  33.646  29.906  1.00  0.00     0.134 A 
ATOM     81  F   UNL A   1      44.658  32.093  33.155  1.00  0.00    -0.206 F 
ATOM     82  C   UNL A   1      45.341  34.270  32.604  1.00  0.00     0.040 A 
ATOM     83  C   UNL A   1      45.544  34.922  30.295  1.00  0.00     0.040 A 
ATOM     84  F   UNL A   1      45.042  33.386  28.593  1.00  0.00    -0.206 F 
ATOM     85  C   UNL A   1      45.645  35.238  31.648  1.00  0.00     0.006 A 
ENDBRANCH  61  78
ENDBRANCH  35  36
ENDBRANCH  28  30
ENDBRANCH  27  28
ENDBRANCH  26  27
ENDBRANCH   1  26
TORSDOF 14
ENDMDL
MODEL 3
REMARK VINA RESULT:     -11.9      1.363      2.397
REMARK SMILES Cc1ncccc1NC(=O)Nc1ccc(C(=O)OCCOC(=O)c2ccc(-c3c4nc(c(-c5c(F)cccc5F)c5ccc([nH]5)c(-c5c(F)cccc5F)c5nc(c(-c6c(F)cccc6F)c6ccc3[nH]6)C=C5)C=C4)cc2)c(O)c1
REMARK SMILES IDX 19 1 18 2 16 3 17 4 15 5 12 6 13 7 80 8 14 9 78 10 11 11
REMARK SMILES IDX 8 12 9 13 10 15 7 17 1 18 2 19 3 20 4 21 6 22 5 23 79 24
REMARK SMILES IDX 20 26 21 27 22 28 23 29 24 30 25 31 77 32 26 33 76 34 27 35
REMARK SMILES IDX 28 36 29 37 70 38 30 39 75 40 69 41 71 42 31 43 74 44 68 45
REMARK SMILES IDX 67 46 32 48 58 49 41 50 57 51 42 52 45 53 56 54 72 55 43 56
REMARK SMILES IDX 44 57 55 59 73 60 46 61 33 62 34 63 39 64 35 65 36 66 38 67
REMARK SMILES IDX 40 68 37 69 59 70 60 71 65 72 61 73 62 74 64 75 66 76 63 77
REMARK SMILES IDX 47 78 48 79 53 80 49 81 50 82 52 83 54 84 51 85
REMARK H PARENT 8 14 11 16 79 25 71 47 45 58
REMARK Flexibility Score: inf
ROOT
ATOM      1  C   UNL A   1      34.621  21.951  24.392  1.00  0.00     0.275 C 
ENDROOT
BRANCH   1   2
ATOM      2  O   UNL A   1      33.462  21.305  23.821  1.00  0.00    -0.458 OA
BRANCH   2   3
ATOM      3  C   UNL A   1      32.461  21.011  24.693  1.00  0.00     0.342 C 
ATOM      4  O   UNL A   1      32.175  19.906  25.121  1.00  0.00    -0.246 OA
BRANCH   3   5
ATOM      5  C   UNL A   1      31.824  22.262  25.178  1.00  0.00     0.101 A 
ATOM      6  C   UNL A   1      30.971  24.723  26.210  1.00  0.00     0.046 A 
ATOM      7  C   UNL A   1      31.530  23.771  27.061  1.00  0.00     0.027 A 
ATOM      8  C   UNL A   1      30.723  24.400  24.872  1.00  0.00     0.073 A 
ATOM      9  C   UNL A   1      31.912  22.528  26.554  1.00  0.00     0.022 A 
ATOM     10  C   UNL A   1      31.206  23.201  24.346  1.00  0.00     0.132 A 
BRANCH   6  11
ATOM     11  N   UNL A   1      30.689  26.031  26.629  1.00  0.00    -0.308 N 
ATOM     12  N   UNL A   1      32.595  27.317  25.999  1.00  0.00    -0.306 N 
ATOM     13  C   UNL A   1      31.521  27.086  26.800  1.00  0.00     0.323 C 
ATOM     14  H   UNL A   1      33.301  27.844  26.437  1.00  0.00     0.171 HD
ATOM     15  O   UNL A   1      31.276  27.898  27.695  1.00  0.00    -0.248 OA
ATOM     16  H   UNL A   1      29.741  26.210  26.829  1.00  0.00     0.171 HD
BRANCH  12  17
ATOM     17  C   UNL A   1      32.910  26.960  24.662  1.00  0.00     0.064 A 
ATOM     18  C   UNL A   1      34.579  25.187  25.456  1.00  0.00     0.069 C 
ATOM     19  C   UNL A   1      33.814  25.916  24.387  1.00  0.00     0.061 A 
ATOM     20  N   UNL A   1      34.075  25.470  23.124  1.00  0.00    -0.259 NA
ATOM     21  C   UNL A   1      33.481  26.104  22.095  1.00  0.00     0.111 A 
ATOM     22  C   UNL A   1      32.410  27.645  23.553  1.00  0.00     0.030 A 
ATOM     23  C   UNL A   1      32.663  27.200  22.258  1.00  0.00     0.022 A 
ENDBRANCH  12  17
ENDBRANCH   6  11
BRANCH  10  24
ATOM     24  O   UNL A   1      31.071  23.052  22.993  1.00  0.00    -0.507 OA
ATOM     25  H   UNL A   1      30.627  22.304  22.646  1.00  0.00     0.293 HD
ENDBRANCH  10  24
ENDBRANCH   3   5
ENDBRANCH   2   3
ENDBRANCH   1   2
BRANCH   1  26
ATOM     26  C   UNL A   1      35.579  20.915  24.980  1.00  0.00     0.275 C 
BRANCH  26  27
ATOM     27  O   UNL A   1      36.489  21.562  25.887  1.00  0.00    -0.458 OA
BRANCH  27  28
ATOM     28  C   UNL A   1      37.806  21.357  25.652  1.00  0.00     0.338 C 
ATOM     29  O   UNL A   1      38.324  20.432  25.052  1.00  0.00    -0.246 OA
BRANCH  28  30
ATOM     30  C   UNL A   1      38.572  22.473  26.234  1.00  0.00     0.060 A 
ATOM     31  C   UNL A   1      38.099  23.775  26.078  1.00  0.00     0.016 A 
ATOM     32  C   UNL A   1      39.804  22.238  26.840  1.00  0.00     0.016 A 
ATOM     33  C   UNL A   1      38.867  24.856  26.508  1.00  0.00     0.010 A 
ATOM     34  C   UNL A   1      40.554  23.320  27.315  1.00  0.00     0.010 A 
ATOM     35  C   UNL A   1      40.101  24.640  27.137  1.00  0.00    -0.014 A 
BRANCH  35  36
ATOM     36  C   UNL A   1      40.931  25.791  27.578  1.00  0.00     0.031 A 
ATOM     37  C   UNL A   1      40.342  26.859  28.457  1.00  0.00     0.074 A 
ATOM     38  C   UNL A   1      42.219  25.886  27.196  1.00  0.00     0.049 A 
ATOM     39  N   UNL A   1      40.859  28.003  28.831  1.00  0.00    -0.248 NA
ATOM     40  C   UNL A   1      38.990  26.612  28.980  1.00  0.00     0.031 C 
ATOM     41  C   UNL A   1      42.934  24.907  26.377  1.00  0.00     0.029 A 
ATOM     42  N   UNL A   1      43.157  26.859  27.446  1.00  0.00    -0.354 N 
ATOM     43  C   UNL A   1      39.884  28.628  29.596  1.00  0.00     0.074 A 
ATOM     44  C   UNL A   1      38.742  27.739  29.632  1.00  0.00     0.031 C 
ATOM     45  C   UNL A   1      44.200  25.319  26.206  1.00  0.00     0.029 A 
ATOM     46  C   UNL A   1      44.371  26.618  26.851  1.00  0.00     0.049 A 
ATOM     47  H   UNL A   1      42.976  27.653  27.999  1.00  0.00     0.167 HD
ATOM     48  C   UNL A   1      39.937  29.833  30.214  1.00  0.00     0.037 A 
ATOM     49  C   UNL A   1      45.486  27.371  26.798  1.00  0.00     0.037 A 
ATOM     50  C   UNL A   1      41.085  30.703  30.219  1.00  0.00     0.049 A 
ATOM     51  C   UNL A   1      45.508  28.717  27.464  1.00  0.00     0.074 A 
ATOM     52  C   UNL A   1      41.233  31.931  30.842  1.00  0.00     0.029 A 
ATOM     53  N   UNL A   1      42.284  30.434  29.579  1.00  0.00    -0.354 N 
ATOM     54  N   UNL A   1      44.568  29.312  28.156  1.00  0.00    -0.248 NA
ATOM     55  C   UNL A   1      46.743  29.504  27.326  1.00  0.00     0.031 C 
ATOM     56  C   UNL A   1      42.513  32.418  30.555  1.00  0.00     0.029 A 
ATOM     57  C   UNL A   1      43.173  31.477  29.783  1.00  0.00     0.049 A 
ATOM     58  H   UNL A   1      42.476  29.622  29.057  1.00  0.00     0.167 HD
ATOM     59  C   UNL A   1      45.098  30.535  28.543  1.00  0.00     0.074 A 
ATOM     60  C   UNL A   1      46.449  30.592  28.025  1.00  0.00     0.031 C 
ATOM     61  C   UNL A   1      44.514  31.525  29.260  1.00  0.00     0.037 A 
BRANCH  48  62
ATOM     62  C   UNL A   1      38.701  30.299  30.924  1.00  0.00     0.057 A 
ATOM     63  C   UNL A   1      38.450  29.977  32.263  1.00  0.00     0.134 A 
ATOM     64  C   UNL A   1      37.775  31.122  30.269  1.00  0.00     0.134 A 
ATOM     65  F   UNL A   1      39.292  29.185  32.942  1.00  0.00    -0.206 F 
ATOM     66  C   UNL A   1      37.312  30.447  32.922  1.00  0.00     0.040 A 
ATOM     67  C   UNL A   1      36.645  31.614  30.923  1.00  0.00     0.040 A 
ATOM     68  F   UNL A   1      37.963  31.473  28.987  1.00  0.00    -0.206 F 
ATOM     69  C   UNL A   1      36.409  31.272  32.254  1.00  0.00     0.006 A 
ENDBRANCH  48  62
BRANCH  49  70
ATOM     70  C   UNL A   1      46.673  26.877  26.058  1.00  0.00     0.057 A 
ATOM     71  C   UNL A   1      46.882  27.221  24.718  1.00  0.00     0.134 A 
ATOM     72  C   UNL A   1      47.622  26.052  26.672  1.00  0.00     0.134 A 
ATOM     73  F   UNL A   1      45.993  27.988  24.071  1.00  0.00    -0.206 F 
ATOM     74  C   UNL A   1      47.993  26.758  24.013  1.00  0.00     0.040 A 
ATOM     75  C   UNL A   1      48.749  25.599  25.985  1.00  0.00     0.040 A 
ATOM     76  F   UNL A   1      47.474  25.686  27.954  1.00  0.00    -0.206 F 
ATOM     77  C   UNL A   1      48.935  25.949  24.649  1.00  0.00     0.006 A 
ENDBRANCH  49  70
BRANCH  61  78
ATOM     78  C   UNL A   1      45.340  32.743  29.543  1.00  0.00     0.057 A 
ATOM     79  C   UNL A   1      46.173  32.820  30.666  1.00  0.00     0.134 A 
ATOM     80  C   UNL A   1      45.318  33.840  28.674  1.00  0.00     0.134 A 
ATOM     81  F   UNL A   1      46.226  31.808  31.544  1.00  0.00    -0.206 F 
ATOM     82  C   UNL A   1      46.945  33.955  30.922  1.00  0.00     0.040 A 
ATOM     83  C   UNL A   1      46.099  34.972  28.910  1.00  0.00     0.040 A 
ATOM     84  F   UNL A   1      44.544  33.826  27.579  1.00  0.00    -0.206 F 
ATOM     85  C   UNL A   1      46.913  35.033  30.040  1.00  0.00     0.006 A 
ENDBRANCH  61  78
ENDBRANCH  35  36
ENDBRANCH  28  30
ENDBRANCH  27  28
ENDBRANCH  26  27
ENDBRANCH   1  26
TORSDOF 14
ENDMDL
