MODEL 1
REMARK VINA RESULT:      -9.7      0.000      0.000
REMARK SMILES CC(C)[C@H](NC(=O)CC[NH3+])C(=O)OCCOC(=O)c1ccc(-c2c3nc(c(-c4c(F)cccc4F)c4ccc([nH]4)c(-c4c(F)cccc4F)c4nc(c(-c5c(F)cccc5F)c5ccc2[nH]5)C=C4)C=C3)cc1
REMARK SMILES IDX 14 1 13 2 11 3 12 4 4 5 2 6 1 7 3 8 5 9 6 10 7 12 8 13 9 14
REMARK SMILES IDX 10 15 15 19 16 20 17 21 18 22 19 23 20 24 72 25 21 26 71 27
REMARK SMILES IDX 22 28 23 29 24 30 65 31 25 32 70 33 64 34 66 35 26 36 69 37
REMARK SMILES IDX 63 38 62 39 27 41 53 42 36 43 52 44 37 45 40 46 51 47 67 48
REMARK SMILES IDX 38 49 39 50 50 52 68 53 41 54 28 55 29 56 34 57 30 58 31 59
REMARK SMILES IDX 33 60 35 61 32 62 54 63 55 64 60 65 56 66 57 67 59 68 61 69
REMARK SMILES IDX 58 70 42 71 43 72 48 73 44 74 45 75 47 76 49 77 46 78
REMARK H PARENT 5 11 10 16 10 17 10 18 66 40 40 51
REMARK Flexibility Score: inf
ROOT
ATOM      1  C   UNL A   1      33.796  34.019  28.117  1.00  0.00     0.274 C 
ENDROOT
BRANCH   1   2
ATOM      2  O   UNL A   1      34.146  35.419  28.269  1.00  0.00    -0.461 OA
BRANCH   2   3
ATOM      3  C   UNL A   1      33.476  36.137  29.202  1.00  0.00     0.329 C 
ATOM      4  O   UNL A   1      32.804  37.131  28.935  1.00  0.00    -0.250 OA
BRANCH   3   5
ATOM      5  C   UNL A   1      33.708  35.681  30.671  1.00  0.00     0.194 C 
BRANCH   5   6
ATOM      6  C   UNL A   1      32.897  36.608  31.624  1.00  0.00     0.017 C 
ATOM      7  C   UNL A   1      31.773  35.871  32.363  1.00  0.00     0.010 C 
ATOM      8  C   UNL A   1      33.782  37.355  32.621  1.00  0.00     0.010 C 
ENDBRANCH   5   6
BRANCH   5   9
ATOM      9  N   UNL A   1      34.958  35.210  31.307  1.00  0.00    -0.342 N 
ATOM     10  C   UNL A   1      35.496  34.020  31.667  1.00  0.00     0.226 C 
ATOM     11  H   UNL A   1      35.557  35.960  31.527  1.00  0.00     0.164 HD
ATOM     12  O   UNL A   1      36.725  33.916  31.664  1.00  0.00    -0.275 OA
BRANCH  10  13
ATOM     13  C   UNL A   1      34.637  32.915  32.204  1.00  0.00     0.161 C 
BRANCH  13  14
ATOM     14  C   UNL A   1      33.981  33.323  33.529  1.00  0.00     0.268 C 
BRANCH  14  15
ATOM     15  N   UNL A   1      34.875  33.947  34.501  1.00  0.00    -0.357 N 
ATOM     16  H   UNL A   1      34.637  34.935  34.597  1.00  0.00     0.344 HD
ATOM     17  H   UNL A   1      35.840  33.859  34.181  1.00  0.00     0.344 HD
ATOM     18  H   UNL A   1      34.773  33.484  35.404  1.00  0.00     0.344 HD
ENDBRANCH  14  15
ENDBRANCH  13  14
ENDBRANCH  10  13
ENDBRANCH   5   9
ENDBRANCH   3   5
ENDBRANCH   2   3
ENDBRANCH   1   2
BRANCH   1  19
ATOM     19  C   UNL A   1      35.059  33.164  28.185  1.00  0.00     0.275 C 
BRANCH  19  20
ATOM     20  O   UNL A   1      34.729  31.979  28.920  1.00  0.00    -0.458 OA
BRANCH  20  21
ATOM     21  C   UNL A   1      34.689  30.823  28.222  1.00  0.00     0.338 C 
ATOM     22  O   UNL A   1      33.765  30.401  27.548  1.00  0.00    -0.246 OA
BRANCH  21  23
ATOM     23  C   UNL A   1      35.993  30.149  28.386  1.00  0.00     0.060 A 
ATOM     24  C   UNL A   1      36.913  30.079  27.328  1.00  0.00     0.016 A 
ATOM     25  C   UNL A   1      36.306  29.600  29.626  1.00  0.00     0.016 A 
ATOM     26  C   UNL A   1      38.174  29.526  27.528  1.00  0.00     0.010 A 
ATOM     27  C   UNL A   1      37.588  29.105  29.843  1.00  0.00     0.010 A 
ATOM     28  C   UNL A   1      38.541  29.105  28.808  1.00  0.00    -0.014 A 
BRANCH  28  29
ATOM     29  C   UNL A   1      39.945  28.773  29.143  1.00  0.00     0.031 A 
ATOM     30  C   UNL A   1      40.872  29.855  29.597  1.00  0.00     0.074 A 
ATOM     31  C   UNL A   1      40.400  27.536  28.866  1.00  0.00     0.049 A 
ATOM     32  N   UNL A   1      42.179  29.872  29.605  1.00  0.00    -0.248 NA
ATOM     33  C   UNL A   1      40.241  31.094  30.075  1.00  0.00     0.031 C 
ATOM     34  C   UNL A   1      39.577  26.402  28.434  1.00  0.00     0.029 A 
ATOM     35  N   UNL A   1      41.679  27.040  28.851  1.00  0.00    -0.354 N 
ATOM     36  C   UNL A   1      42.531  31.138  30.050  1.00  0.00     0.074 A 
ATOM     37  C   UNL A   1      41.300  31.864  30.288  1.00  0.00     0.031 C 
ATOM     38  C   UNL A   1      40.371  25.355  28.173  1.00  0.00     0.029 A 
ATOM     39  C   UNL A   1      41.758  25.765  28.342  1.00  0.00     0.049 A 
ATOM     40  H   UNL A   1      42.460  27.545  29.173  1.00  0.00     0.167 HD
ATOM     41  C   UNL A   1      43.774  31.642  30.234  1.00  0.00     0.037 A 
ATOM     42  C   UNL A   1      42.830  25.032  27.988  1.00  0.00     0.037 A 
ATOM     43  C   UNL A   1      44.981  30.894  29.990  1.00  0.00     0.049 A 
ATOM     44  C   UNL A   1      44.197  25.636  28.139  1.00  0.00     0.074 A 
ATOM     45  C   UNL A   1      46.294  31.288  30.177  1.00  0.00     0.029 A 
ATOM     46  N   UNL A   1      45.020  29.597  29.496  1.00  0.00    -0.354 N 
ATOM     47  N   UNL A   1      44.530  26.827  28.575  1.00  0.00    -0.248 NA
ATOM     48  C   UNL A   1      45.335  24.800  27.737  1.00  0.00     0.031 C 
ATOM     49  C   UNL A   1      47.126  30.250  29.744  1.00  0.00     0.029 A 
ATOM     50  C   UNL A   1      46.333  29.187  29.343  1.00  0.00     0.049 A 
ATOM     51  H   UNL A   1      44.228  29.049  29.286  1.00  0.00     0.167 HD
ATOM     52  C   UNL A   1      45.915  26.877  28.523  1.00  0.00     0.074 A 
ATOM     53  C   UNL A   1      46.360  25.588  28.031  1.00  0.00     0.031 C 
ATOM     54  C   UNL A   1      46.748  27.896  28.848  1.00  0.00     0.037 A 
BRANCH  41  55
ATOM     55  C   UNL A   1      43.887  33.069  30.686  1.00  0.00     0.057 A 
ATOM     56  C   UNL A   1      43.942  34.136  29.781  1.00  0.00     0.134 A 
ATOM     57  C   UNL A   1      43.919  33.383  32.052  1.00  0.00     0.134 A 
ATOM     58  F   UNL A   1      43.929  33.908  28.459  1.00  0.00    -0.206 F 
ATOM     59  C   UNL A   1      44.052  35.459  30.215  1.00  0.00     0.040 A 
ATOM     60  C   UNL A   1      43.998  34.703  32.499  1.00  0.00     0.040 A 
ATOM     61  F   UNL A   1      43.867  32.412  32.976  1.00  0.00    -0.206 F 
ATOM     62  C   UNL A   1      44.072  35.746  31.578  1.00  0.00     0.006 A 
ENDBRANCH  41  55
BRANCH  42  63
ATOM     63  C   UNL A   1      42.649  23.667  27.430  1.00  0.00     0.057 A 
ATOM     64  C   UNL A   1      42.651  23.453  26.047  1.00  0.00     0.134 A 
ATOM     65  C   UNL A   1      42.477  22.547  28.254  1.00  0.00     0.134 A 
ATOM     66  F   UNL A   1      42.792  24.487  25.206  1.00  0.00    -0.206 F 
ATOM     67  C   UNL A   1      42.474  22.180  25.503  1.00  0.00     0.040 A 
ATOM     68  C   UNL A   1      42.328  21.264  27.724  1.00  0.00     0.040 A 
ATOM     69  F   UNL A   1      42.473  22.681  29.589  1.00  0.00    -0.206 F 
ATOM     70  C   UNL A   1      42.318  21.079  26.343  1.00  0.00     0.006 A 
ENDBRANCH  42  63
BRANCH  54  71
ATOM     71  C   UNL A   1      48.219  27.642  28.708  1.00  0.00     0.057 A 
ATOM     72  C   UNL A   1      48.975  27.079  29.745  1.00  0.00     0.134 A 
ATOM     73  C   UNL A   1      48.882  27.932  27.509  1.00  0.00     0.134 A 
ATOM     74  F   UNL A   1      48.404  26.795  30.925  1.00  0.00    -0.206 F 
ATOM     75  C   UNL A   1      50.341  26.837  29.601  1.00  0.00     0.040 A 
ATOM     76  C   UNL A   1      50.241  27.665  27.342  1.00  0.00     0.040 A 
ATOM     77  F   UNL A   1      48.215  28.466  26.474  1.00  0.00    -0.206 F 
ATOM     78  C   UNL A   1      50.976  27.122  28.394  1.00  0.00     0.006 A 
ENDBRANCH  54  71
ENDBRANCH  28  29
ENDBRANCH  21  23
ENDBRANCH  20  21
ENDBRANCH  19  20
ENDBRANCH   1  19
TORSDOF 16
ENDMDL
MODEL 2
REMARK VINA RESULT:      -9.4      5.155      9.687
REMARK SMILES CC(C)[C@H](NC(=O)CC[NH3+])C(=O)OCCOC(=O)c1ccc(-c2c3nc(c(-c4c(F)cccc4F)c4ccc([nH]4)c(-c4c(F)cccc4F)c4nc(c(-c5c(F)cccc5F)c5ccc2[nH]5)C=C4)C=C3)cc1
REMARK SMILES IDX 14 1 13 2 11 3 12 4 4 5 2 6 1 7 3 8 5 9 6 10 7 12 8 13 9 14
REMARK SMILES IDX 10 15 15 19 16 20 17 21 18 22 19 23 20 24 72 25 21 26 71 27
REMARK SMILES IDX 22 28 23 29 24 30 65 31 25 32 70 33 64 34 66 35 26 36 69 37
REMARK SMILES IDX 63 38 62 39 27 41 53 42 36 43 52 44 37 45 40 46 51 47 67 48
REMARK SMILES IDX 38 49 39 50 50 52 68 53 41 54 28 55 29 56 34 57 30 58 31 59
REMARK SMILES IDX 33 60 35 61 32 62 54 63 55 64 60 65 56 66 57 67 59 68 61 69
REMARK SMILES IDX 58 70 42 71 43 72 48 73 44 74 45 75 47 76 49 77 46 78
REMARK H PARENT 5 11 10 16 10 17 10 18 66 40 40 51
REMARK Flexibility Score: inf
ROOT
ATOM      1  C   UNL A   1      32.065  30.572  26.370  1.00  0.00     0.274 C 
ENDROOT
BRANCH   1   2
ATOM      2  O   UNL A   1      31.047  30.322  25.367  1.00  0.00    -0.461 OA
BRANCH   2   3
ATOM      3  C   UNL A   1      31.302  29.376  24.433  1.00  0.00     0.329 C 
ATOM      4  O   UNL A   1      32.416  29.184  23.952  1.00  0.00    -0.250 OA
BRANCH   3   5
ATOM      5  C   UNL A   1      30.050  28.609  23.917  1.00  0.00     0.194 C 
BRANCH   5   6
ATOM      6  C   UNL A   1      30.252  27.085  24.166  1.00  0.00     0.017 C 
ATOM      7  C   UNL A   1      30.906  26.781  25.519  1.00  0.00     0.010 C 
ATOM      8  C   UNL A   1      28.960  26.283  24.012  1.00  0.00     0.010 C 
ENDBRANCH   5   6
BRANCH   5   9
ATOM      9  N   UNL A   1      29.248  28.859  22.699  1.00  0.00    -0.342 N 
ATOM     10  C   UNL A   1      28.526  29.883  22.185  1.00  0.00     0.226 C 
ATOM     11  H   UNL A   1      29.237  28.073  22.106  1.00  0.00     0.164 HD
ATOM     12  O   UNL A   1      28.444  29.974  20.957  1.00  0.00    -0.275 OA
BRANCH  10  13
ATOM     13  C   UNL A   1      27.721  30.783  23.073  1.00  0.00     0.161 C 
BRANCH  13  14
ATOM     14  C   UNL A   1      28.523  32.032  23.463  1.00  0.00     0.268 C 
BRANCH  14  15
ATOM     15  N   UNL A   1      29.378  32.577  22.411  1.00  0.00    -0.357 N 
ATOM     16  H   UNL A   1      30.252  32.050  22.375  1.00  0.00     0.344 HD
ATOM     17  H   UNL A   1      29.581  33.557  22.612  1.00  0.00     0.344 HD
ATOM     18  H   UNL A   1      28.900  32.506  21.514  1.00  0.00     0.344 HD
ENDBRANCH  14  15
ENDBRANCH  13  14
ENDBRANCH  10  13
ENDBRANCH   5   9
ENDBRANCH   3   5
ENDBRANCH   2   3
ENDBRANCH   1   2
BRANCH   1  19
ATOM     19  C   UNL A   1      31.898  31.981  26.932  1.00  0.00     0.275 C 
BRANCH  19  20
ATOM     20  O   UNL A   1      33.198  32.434  27.334  1.00  0.00    -0.458 OA
BRANCH  20  21
ATOM     21  C   UNL A   1      33.240  33.506  28.153  1.00  0.00     0.338 C 
ATOM     22  O   UNL A   1      32.434  34.420  28.213  1.00  0.00    -0.246 OA
BRANCH  21  23
ATOM     23  C   UNL A   1      34.435  33.376  29.011  1.00  0.00     0.060 A 
ATOM     24  C   UNL A   1      34.422  32.570  30.159  1.00  0.00     0.016 A 
ATOM     25  C   UNL A   1      35.594  34.054  28.643  1.00  0.00     0.016 A 
ATOM     26  C   UNL A   1      35.583  32.382  30.901  1.00  0.00     0.010 A 
ATOM     27  C   UNL A   1      36.770  33.816  29.347  1.00  0.00     0.010 A 
ATOM     28  C   UNL A   1      36.780  32.946  30.453  1.00  0.00    -0.014 A 
BRANCH  28  29
ATOM     29  C   UNL A   1      38.086  32.557  31.032  1.00  0.00     0.031 A 
ATOM     30  C   UNL A   1      38.824  31.384  30.471  1.00  0.00     0.074 A 
ATOM     31  C   UNL A   1      38.498  33.163  32.162  1.00  0.00     0.049 A 
ATOM     32  N   UNL A   1      39.771  30.667  31.015  1.00  0.00    -0.248 NA
ATOM     33  C   UNL A   1      38.417  30.942  29.128  1.00  0.00     0.031 C 
ATOM     34  C   UNL A   1      37.860  34.327  32.786  1.00  0.00     0.029 A 
ATOM     35  N   UNL A   1      39.519  32.846  33.022  1.00  0.00    -0.354 N 
ATOM     36  C   UNL A   1      40.048  29.661  30.101  1.00  0.00     0.074 A 
ATOM     37  C   UNL A   1      39.158  29.853  28.974  1.00  0.00     0.031 C 
ATOM     38  C   UNL A   1      38.487  34.610  33.937  1.00  0.00     0.029 A 
ATOM     39  C   UNL A   1      39.514  33.604  34.170  1.00  0.00     0.049 A 
ATOM     40  H   UNL A   1      40.187  32.148  32.836  1.00  0.00     0.167 HD
ATOM     41  C   UNL A   1      40.960  28.666  30.207  1.00  0.00     0.037 A 
ATOM     42  C   UNL A   1      40.213  33.463  35.311  1.00  0.00     0.037 A 
ATOM     43  C   UNL A   1      41.832  28.502  31.341  1.00  0.00     0.049 A 
ATOM     44  C   UNL A   1      41.172  32.314  35.431  1.00  0.00     0.074 A 
ATOM     45  C   UNL A   1      42.821  27.555  31.540  1.00  0.00     0.029 A 
ATOM     46  N   UNL A   1      41.813  29.304  32.474  1.00  0.00    -0.354 N 
ATOM     47  N   UNL A   1      41.445  31.372  34.560  1.00  0.00    -0.248 NA
ATOM     48  C   UNL A   1      41.910  32.199  36.695  1.00  0.00     0.031 C 
ATOM     49  C   UNL A   1      43.361  27.750  32.816  1.00  0.00     0.029 A 
ATOM     50  C   UNL A   1      42.751  28.855  33.389  1.00  0.00     0.049 A 
ATOM     51  H   UNL A   1      41.220  30.079  32.608  1.00  0.00     0.167 HD
ATOM     52  C   UNL A   1      42.403  30.566  35.159  1.00  0.00     0.074 A 
ATOM     53  C   UNL A   1      42.676  31.143  36.460  1.00  0.00     0.031 C 
ATOM     54  C   UNL A   1      43.001  29.448  34.681  1.00  0.00     0.037 A 
BRANCH  41  55
ATOM     55  C   UNL A   1      41.035  27.669  29.087  1.00  0.00     0.057 A 
ATOM     56  C   UNL A   1      42.032  27.724  28.105  1.00  0.00     0.134 A 
ATOM     57  C   UNL A   1      40.108  26.620  29.004  1.00  0.00     0.134 A 
ATOM     58  F   UNL A   1      42.944  28.707  28.116  1.00  0.00    -0.206 F 
ATOM     59  C   UNL A   1      42.088  26.792  27.067  1.00  0.00     0.040 A 
ATOM     60  C   UNL A   1      40.171  25.665  27.988  1.00  0.00     0.040 A 
ATOM     61  F   UNL A   1      39.128  26.503  29.912  1.00  0.00    -0.206 F 
ATOM     62  C   UNL A   1      41.160  25.754  27.010  1.00  0.00     0.006 A 
ENDBRANCH  41  55
BRANCH  42  63
ATOM     63  C   UNL A   1      40.007  34.413  36.435  1.00  0.00     0.057 A 
ATOM     64  C   UNL A   1      39.128  34.107  37.479  1.00  0.00     0.134 A 
ATOM     65  C   UNL A   1      40.681  35.640  36.500  1.00  0.00     0.134 A 
ATOM     66  F   UNL A   1      38.440  32.957  37.464  1.00  0.00    -0.206 F 
ATOM     67  C   UNL A   1      38.914  34.990  38.538  1.00  0.00     0.040 A 
ATOM     68  C   UNL A   1      40.498  36.520  37.568  1.00  0.00     0.040 A 
ATOM     69  F   UNL A   1      41.544  35.993  35.535  1.00  0.00    -0.206 F 
ATOM     70  C   UNL A   1      39.605  36.198  38.589  1.00  0.00     0.006 A 
ENDBRANCH  42  63
BRANCH  54  71
ATOM     71  C   UNL A   1      44.028  28.798  35.560  1.00  0.00     0.057 A 
ATOM     72  C   UNL A   1      45.382  29.153  35.502  1.00  0.00     0.134 A 
ATOM     73  C   UNL A   1      43.652  27.830  36.500  1.00  0.00     0.134 A 
ATOM     74  F   UNL A   1      45.810  30.060  34.611  1.00  0.00    -0.206 F 
ATOM     75  C   UNL A   1      46.328  28.550  36.332  1.00  0.00     0.040 A 
ATOM     76  C   UNL A   1      44.583  27.244  37.356  1.00  0.00     0.040 A 
ATOM     77  F   UNL A   1      42.370  27.451  36.611  1.00  0.00    -0.206 F 
ATOM     78  C   UNL A   1      45.927  27.598  37.268  1.00  0.00     0.006 A 
ENDBRANCH  54  71
ENDBRANCH  28  29
ENDBRANCH  21  23
ENDBRANCH  20  21
ENDBRANCH  19  20
ENDBRANCH   1  19
TORSDOF 16
ENDMDL
MODEL 3
REMARK VINA RESULT:      -9.3      4.931      8.916
REMARK SMILES CC(C)[C@H](NC(=O)CC[NH3+])C(=O)OCCOC(=O)c1ccc(-c2c3nc(c(-c4c(F)cccc4F)c4ccc([nH]4)c(-c4c(F)cccc4F)c4nc(c(-c5c(F)cccc5F)c5ccc2[nH]5)C=C4)C=C3)cc1
REMARK SMILES IDX 14 1 13 2 11 3 12 4 4 5 2 6 1 7 3 8 5 9 6 10 7 12 8 13 9 14
REMARK SMILES IDX 10 15 15 19 16 20 17 21 18 22 19 23 20 24 72 25 21 26 71 27
REMARK SMILES IDX 22 28 23 29 24 30 65 31 25 32 70 33 64 34 66 35 26 36 69 37
REMARK SMILES IDX 63 38 62 39 27 41 53 42 36 43 52 44 37 45 40 46 51 47 67 48
REMARK SMILES IDX 38 49 39 50 50 52 68 53 41 54 28 55 29 56 34 57 30 58 31 59
REMARK SMILES IDX 33 60 35 61 32 62 54 63 55 64 60 65 56 66 57 67 59 68 61 69
REMARK SMILES IDX 58 70 42 71 43 72 48 73 44 74 45 75 47 76 49 77 46 78
REMARK H PARENT 5 11 10 16 10 17 10 18 66 40 40 51
REMARK Flexibility Score: inf
ROOT
ATOM      1  C   UNL A   1      36.407  23.257  23.339  1.00  0.00     0.274 C 
ENDROOT
BRANCH   1   2
ATOM      2  O   UNL A   1      35.544  23.811  24.366  1.00  0.00    -0.461 OA
BRANCH   2   3
ATOM      3  C   UNL A   1      34.219  23.542  24.287  1.00  0.00     0.329 C 
ATOM      4  O   UNL A   1      33.438  24.193  23.596  1.00  0.00    -0.250 OA
BRANCH   3   5
ATOM      5  C   UNL A   1      33.723  22.407  25.229  1.00  0.00     0.194 C 
BRANCH   5   6
ATOM      6  C   UNL A   1      33.390  23.015  26.623  1.00  0.00     0.017 C 
ATOM      7  C   UNL A   1      31.895  23.307  26.807  1.00  0.00     0.010 C 
ATOM      8  C   UNL A   1      33.907  22.163  27.781  1.00  0.00     0.010 C 
ENDBRANCH   5   6
BRANCH   5   9
ATOM      9  N   UNL A   1      34.220  21.019  25.347  1.00  0.00    -0.342 N 
ATOM     10  C   UNL A   1      33.959  19.823  24.766  1.00  0.00     0.226 C 
ATOM     11  H   UNL A   1      34.928  20.945  26.027  1.00  0.00     0.164 HD
ATOM     12  O   UNL A   1      34.879  19.005  24.687  1.00  0.00    -0.275 OA
BRANCH  10  13
ATOM     13  C   UNL A   1      32.562  19.442  24.378  1.00  0.00     0.161 C 
BRANCH  13  14
ATOM     14  C   UNL A   1      32.539  18.076  23.680  1.00  0.00     0.268 C 
BRANCH  14  15
ATOM     15  N   UNL A   1      31.985  18.077  22.328  1.00  0.00    -0.357 N 
ATOM     16  H   UNL A   1      32.744  18.148  21.649  1.00  0.00     0.344 HD
ATOM     17  H   UNL A   1      31.356  18.873  22.219  1.00  0.00     0.344 HD
ATOM     18  H   UNL A   1      31.468  17.212  22.172  1.00  0.00     0.344 HD
ENDBRANCH  14  15
ENDBRANCH  13  14
ENDBRANCH  10  13
ENDBRANCH   5   9
ENDBRANCH   3   5
ENDBRANCH   2   3
ENDBRANCH   1   2
BRANCH   1  19
ATOM     19  C   UNL A   1      37.066  21.981  23.854  1.00  0.00     0.275 C 
BRANCH  19  20
ATOM     20  O   UNL A   1      37.314  22.167  25.254  1.00  0.00    -0.458 OA
BRANCH  20  21
ATOM     21  C   UNL A   1      38.480  21.681  25.733  1.00  0.00     0.338 C 
ATOM     22  O   UNL A   1      38.958  20.578  25.528  1.00  0.00    -0.246 OA
BRANCH  21  23
ATOM     23  C   UNL A   1      39.114  22.741  26.542  1.00  0.00     0.060 A 
ATOM     24  C   UNL A   1      40.208  22.463  27.376  1.00  0.00     0.016 A 
ATOM     25  C   UNL A   1      38.619  24.038  26.444  1.00  0.00     0.016 A 
ATOM     26  C   UNL A   1      40.855  23.490  28.056  1.00  0.00     0.010 A 
ATOM     27  C   UNL A   1      39.303  25.074  27.073  1.00  0.00     0.010 A 
ATOM     28  C   UNL A   1      40.449  24.810  27.846  1.00  0.00    -0.014 A 
BRANCH  28  29
ATOM     29  C   UNL A   1      41.262  25.956  28.313  1.00  0.00     0.031 A 
ATOM     30  C   UNL A   1      40.601  27.086  29.035  1.00  0.00     0.074 A 
ATOM     31  C   UNL A   1      42.549  26.036  27.925  1.00  0.00     0.049 A 
ATOM     32  N   UNL A   1      41.024  28.308  29.219  1.00  0.00    -0.248 NA
ATOM     33  C   UNL A   1      39.271  26.807  29.599  1.00  0.00     0.031 C 
ATOM     34  C   UNL A   1      43.297  24.983  27.229  1.00  0.00     0.029 A 
ATOM     35  N   UNL A   1      43.442  27.074  28.008  1.00  0.00    -0.354 N 
ATOM     36  C   UNL A   1      39.996  28.961  29.884  1.00  0.00     0.074 A 
ATOM     37  C   UNL A   1      38.924  28.003  30.057  1.00  0.00     0.031 C 
ATOM     38  C   UNL A   1      44.521  25.436  26.928  1.00  0.00     0.029 A 
ATOM     39  C   UNL A   1      44.618  26.831  27.337  1.00  0.00     0.049 A 
ATOM     40  H   UNL A   1      43.260  27.908  28.499  1.00  0.00     0.167 HD
ATOM     41  C   UNL A   1      39.958  30.249  30.300  1.00  0.00     0.037 A 
ATOM     42  C   UNL A   1      45.632  27.659  27.026  1.00  0.00     0.037 A 
ATOM     43  C   UNL A   1      41.042  31.179  30.113  1.00  0.00     0.049 A 
ATOM     44  C   UNL A   1      45.539  29.099  27.441  1.00  0.00     0.074 A 
ATOM     45  C   UNL A   1      41.130  32.497  30.527  1.00  0.00     0.029 A 
ATOM     46  N   UNL A   1      42.226  30.889  29.448  1.00  0.00    -0.354 N 
ATOM     47  N   UNL A   1      44.574  29.712  28.084  1.00  0.00    -0.248 NA
ATOM     48  C   UNL A   1      46.667  29.965  27.078  1.00  0.00     0.031 C 
ATOM     49  C   UNL A   1      42.343  33.018  30.064  1.00  0.00     0.029 A 
ATOM     50  C   UNL A   1      43.037  32.011  29.413  1.00  0.00     0.049 A 
ATOM     51  H   UNL A   1      42.455  30.014  29.059  1.00  0.00     0.167 HD
ATOM     52  C   UNL A   1      44.987  31.030  28.223  1.00  0.00     0.074 A 
ATOM     53  C   UNL A   1      46.299  31.120  27.614  1.00  0.00     0.031 C 
ATOM     54  C   UNL A   1      44.341  32.074  28.798  1.00  0.00     0.037 A 
BRANCH  41  55
ATOM     55  C   UNL A   1      38.700  30.729  30.963  1.00  0.00     0.057 A 
ATOM     56  C   UNL A   1      37.658  31.326  30.242  1.00  0.00     0.134 A 
ATOM     57  C   UNL A   1      38.517  30.571  32.344  1.00  0.00     0.134 A 
ATOM     58  F   UNL A   1      37.770  31.520  28.919  1.00  0.00    -0.206 F 
ATOM     59  C   UNL A   1      36.494  31.772  30.872  1.00  0.00     0.040 A 
ATOM     60  C   UNL A   1      37.346  30.986  32.981  1.00  0.00     0.040 A 
ATOM     61  F   UNL A   1      39.472  30.005  33.098  1.00  0.00    -0.206 F 
ATOM     62  C   UNL A   1      36.333  31.596  32.244  1.00  0.00     0.006 A 
ENDBRANCH  41  55
BRANCH  42  63
ATOM     63  C   UNL A   1      46.800  27.154  26.259  1.00  0.00     0.057 A 
ATOM     64  C   UNL A   1      46.830  27.237  24.863  1.00  0.00     0.134 A 
ATOM     65  C   UNL A   1      47.912  26.584  26.893  1.00  0.00     0.134 A 
ATOM     66  F   UNL A   1      45.788  27.755  24.197  1.00  0.00    -0.206 F 
ATOM     67  C   UNL A   1      47.914  26.760  24.124  1.00  0.00     0.040 A 
ATOM     68  C   UNL A   1      49.015  26.129  26.169  1.00  0.00     0.040 A 
ATOM     69  F   UNL A   1      47.951  26.480  28.230  1.00  0.00    -0.206 F 
ATOM     70  C   UNL A   1      49.014  26.210  24.777  1.00  0.00     0.006 A 
ENDBRANCH  42  63
BRANCH  54  71
ATOM     71  C   UNL A   1      45.060  33.389  28.819  1.00  0.00     0.057 A 
ATOM     72  C   UNL A   1      45.969  33.719  29.832  1.00  0.00     0.134 A 
ATOM     73  C   UNL A   1      44.866  34.324  27.794  1.00  0.00     0.134 A 
ATOM     74  F   UNL A   1      46.186  32.876  30.853  1.00  0.00    -0.206 F 
ATOM     75  C   UNL A   1      46.641  34.942  29.837  1.00  0.00     0.040 A 
ATOM     76  C   UNL A   1      45.556  35.536  27.771  1.00  0.00     0.040 A 
ATOM     77  F   UNL A   1      44.015  34.067  26.789  1.00  0.00    -0.206 F 
ATOM     78  C   UNL A   1      46.442  35.850  28.799  1.00  0.00     0.006 A 
ENDBRANCH  54  71
ENDBRANCH  28  29
ENDBRANCH  21  23
ENDBRANCH  20  21
ENDBRANCH  19  20
ENDBRANCH   1  19
TORSDOF 16
ENDMDL
