MODEL 1
REMARK VINA RESULT:     -11.5      0.000      0.000
REMARK SMILES Cc1cccc(C)c1OCC(=O)N1CCC[C@@H](C(=O)OCCOC(=O)c2ccc(-c3c4nc(c(-c5c(F)cccc5F)c5ccc([nH]5)c(-c5c(F)cccc5F)c5nc(c(-c6c(F)cccc6F)c6ccc3[nH]6)C=C5)C=C4)cc2)C1
REMARK SMILES IDX 21 1 20 2 18 3 19 4 17 5 13 6 14 7 80 8 15 9 16 10 11 11
REMARK SMILES IDX 12 12 10 13 9 14 8 15 1 16 2 17 3 18 4 19 6 20 5 21 7 22
REMARK SMILES IDX 22 23 23 24 24 25 25 26 26 27 27 28 79 29 28 30 78 31 29 32
REMARK SMILES IDX 30 33 31 34 72 35 32 36 77 37 71 38 73 39 33 40 76 41 70 42
REMARK SMILES IDX 69 43 34 45 60 46 43 47 59 48 44 49 47 50 58 51 74 52 45 53
REMARK SMILES IDX 46 54 57 56 75 57 48 58 35 59 36 60 41 61 37 62 38 63 40 64
REMARK SMILES IDX 42 65 39 66 61 67 62 68 67 69 63 70 64 71 66 72 68 73 65 74
REMARK SMILES IDX 49 75 50 76 55 77 51 78 52 79 54 80 56 81 53 82
REMARK H PARENT 73 44 47 55
REMARK Flexibility Score: inf
ROOT
ATOM      1  C   UNL A   1      35.199  20.653  25.051  1.00  0.00     0.274 C 
ENDROOT
BRANCH   1   2
ATOM      2  O   UNL A   1      34.336  19.551  24.707  1.00  0.00    -0.462 OA
BRANCH   2   3
ATOM      3  C   UNL A   1      33.016  19.862  24.593  1.00  0.00     0.310 C 
ATOM      4  O   UNL A   1      32.105  19.042  24.585  1.00  0.00    -0.252 OA
BRANCH   3   5
ATOM      5  C   UNL A   1      32.803  21.357  24.458  1.00  0.00     0.119 C 
ATOM      6  N   UNL A   1      32.071  23.068  22.850  1.00  0.00    -0.339 N 
ATOM      7  C   UNL A   1      31.003  23.564  23.711  1.00  0.00     0.119 C 
ATOM      8  C   UNL A   1      32.355  21.650  23.017  1.00  0.00     0.134 C 
ATOM      9  C   UNL A   1      31.386  23.357  25.175  1.00  0.00     0.022 C 
ATOM     10  C   UNL A   1      31.778  21.904  25.468  1.00  0.00     0.019 C 
BRANCH   6  11
ATOM     11  C   UNL A   1      32.769  23.950  22.042  1.00  0.00     0.260 C 
ATOM     12  O   UNL A   1      33.660  23.556  21.281  1.00  0.00    -0.271 OA
BRANCH  11  13
ATOM     13  C   UNL A   1      32.490  25.466  22.130  1.00  0.00     0.329 C 
BRANCH  13  14
ATOM     14  O   UNL A   1      33.214  26.363  22.934  1.00  0.00    -0.483 OA
BRANCH  14  15
ATOM     15  C   UNL A   1      32.745  26.997  24.044  1.00  0.00     0.125 A 
ATOM     16  C   UNL A   1      31.099  28.707  23.003  1.00  0.00     0.048 C 
ATOM     17  C   UNL A   1      31.796  28.028  24.145  1.00  0.00    -0.009 A 
ATOM     18  C   UNL A   1      31.427  28.478  25.434  1.00  0.00     0.007 A 
ATOM     19  C   UNL A   1      32.002  27.960  26.590  1.00  0.00     0.001 A 
ATOM     20  C   UNL A   1      33.347  26.490  25.228  1.00  0.00    -0.009 A 
ATOM     21  C   UNL A   1      32.966  26.972  26.488  1.00  0.00     0.007 A 
ATOM     22  C   UNL A   1      34.403  25.412  25.160  1.00  0.00     0.048 C 
ENDBRANCH  14  15
ENDBRANCH  13  14
ENDBRANCH  11  13
ENDBRANCH   6  11
ENDBRANCH   3   5
ENDBRANCH   2   3
ENDBRANCH   1   2
BRANCH   1  23
ATOM     23  C   UNL A   1      36.667  20.236  25.001  1.00  0.00     0.275 C 
BRANCH  23  24
ATOM     24  O   UNL A   1      37.511  21.374  25.255  1.00  0.00    -0.458 OA
BRANCH  24  25
ATOM     25  C   UNL A   1      38.724  21.095  25.781  1.00  0.00     0.338 C 
ATOM     26  O   UNL A   1      39.314  20.028  25.772  1.00  0.00    -0.246 OA
BRANCH  25  27
ATOM     27  C   UNL A   1      39.289  22.305  26.401  1.00  0.00     0.060 A 
ATOM     28  C   UNL A   1      38.745  23.555  26.111  1.00  0.00     0.016 A 
ATOM     29  C   UNL A   1      40.454  22.204  27.160  1.00  0.00     0.016 A 
ATOM     30  C   UNL A   1      39.409  24.716  26.503  1.00  0.00     0.010 A 
ATOM     31  C   UNL A   1      41.076  23.366  27.623  1.00  0.00     0.010 A 
ATOM     32  C   UNL A   1      40.583  24.634  27.265  1.00  0.00    -0.014 A 
BRANCH  32  33
ATOM     33  C   UNL A   1      41.327  25.864  27.639  1.00  0.00     0.031 A 
ATOM     34  C   UNL A   1      40.661  26.914  28.487  1.00  0.00     0.074 A 
ATOM     35  C   UNL A   1      42.599  26.041  27.237  1.00  0.00     0.049 A 
ATOM     36  N   UNL A   1      41.068  28.124  28.778  1.00  0.00    -0.248 NA
ATOM     37  C   UNL A   1      39.362  26.559  29.079  1.00  0.00     0.031 C 
ATOM     38  C   UNL A   1      43.385  25.085  26.456  1.00  0.00     0.029 A 
ATOM     39  N   UNL A   1      43.457  27.095  27.433  1.00  0.00    -0.354 N 
ATOM     40  C   UNL A   1      40.056  28.690  29.542  1.00  0.00     0.074 A 
ATOM     41  C   UNL A   1      39.017  27.692  29.676  1.00  0.00     0.031 C 
ATOM     42  C   UNL A   1      44.617  25.582  26.265  1.00  0.00     0.029 A 
ATOM     43  C   UNL A   1      44.685  26.919  26.845  1.00  0.00     0.049 A 
ATOM     44  H   UNL A   1      43.215  27.899  27.947  1.00  0.00     0.167 HD
ATOM     45  C   UNL A   1      39.997  29.931  30.079  1.00  0.00     0.037 A 
ATOM     46  C   UNL A   1      45.736  27.755  26.750  1.00  0.00     0.037 A 
ATOM     47  C   UNL A   1      41.049  30.909  29.989  1.00  0.00     0.049 A 
ATOM     48  C   UNL A   1      45.640  29.134  27.335  1.00  0.00     0.074 A 
ATOM     49  C   UNL A   1      41.079  32.196  30.499  1.00  0.00     0.029 A 
ATOM     50  N   UNL A   1      42.267  30.697  29.363  1.00  0.00    -0.354 N 
ATOM     51  N   UNL A   1      44.647  29.685  27.990  1.00  0.00    -0.248 NA
ATOM     52  C   UNL A   1      46.800  30.016  27.145  1.00  0.00     0.031 C 
ATOM     53  C   UNL A   1      42.311  32.770  30.165  1.00  0.00     0.029 A 
ATOM     54  C   UNL A   1      43.055  31.831  29.470  1.00  0.00     0.049 A 
ATOM     55  H   UNL A   1      42.532  29.865  28.910  1.00  0.00     0.167 HD
ATOM     56  C   UNL A   1      45.061  30.974  28.292  1.00  0.00     0.074 A 
ATOM     57  C   UNL A   1      46.403  31.119  27.766  1.00  0.00     0.031 C 
ATOM     58  C   UNL A   1      44.386  31.955  28.938  1.00  0.00     0.037 A 
BRANCH  45  59
ATOM     59  C   UNL A   1      38.733  30.315  30.787  1.00  0.00     0.057 A 
ATOM     60  C   UNL A   1      37.670  30.935  30.120  1.00  0.00     0.134 A 
ATOM     61  C   UNL A   1      38.572  30.033  32.149  1.00  0.00     0.134 A 
ATOM     62  F   UNL A   1      37.772  31.246  28.820  1.00  0.00    -0.206 F 
ATOM     63  C   UNL A   1      36.493  31.275  30.790  1.00  0.00     0.040 A 
ATOM     64  C   UNL A   1      37.393  30.352  32.825  1.00  0.00     0.040 A 
ATOM     65  F   UNL A   1      39.554  29.440  32.843  1.00  0.00    -0.206 F 
ATOM     66  C   UNL A   1      36.350  30.979  32.144  1.00  0.00     0.006 A 
ENDBRANCH  45  59
BRANCH  46  67
ATOM     67  C   UNL A   1      46.960  27.319  26.037  1.00  0.00     0.057 A 
ATOM     68  C   UNL A   1      47.060  27.423  24.646  1.00  0.00     0.134 A 
ATOM     69  C   UNL A   1      48.059  26.798  26.730  1.00  0.00     0.134 A 
ATOM     70  F   UNL A   1      46.029  27.893  23.929  1.00  0.00    -0.206 F 
ATOM     71  C   UNL A   1      48.210  27.021  23.966  1.00  0.00     0.040 A 
ATOM     72  C   UNL A   1      49.223  26.412  26.066  1.00  0.00     0.040 A 
ATOM     73  F   UNL A   1      48.022  26.674  28.065  1.00  0.00    -0.206 F 
ATOM     74  C   UNL A   1      49.300  26.520  24.678  1.00  0.00     0.006 A 
ENDBRANCH  46  67
BRANCH  58  75
ATOM     75  C   UNL A   1      45.096  33.260  29.119  1.00  0.00     0.057 A 
ATOM     76  C   UNL A   1      45.922  33.494  30.224  1.00  0.00     0.134 A 
ATOM     77  C   UNL A   1      44.974  34.279  28.167  1.00  0.00     0.134 A 
ATOM     78  F   UNL A   1      46.066  32.560  31.175  1.00  0.00    -0.206 F 
ATOM     79  C   UNL A   1      46.594  34.707  30.384  1.00  0.00     0.040 A 
ATOM     80  C   UNL A   1      45.652  35.490  28.309  1.00  0.00     0.040 A 
ATOM     81  F   UNL A   1      44.199  34.111  27.086  1.00  0.00    -0.206 F 
ATOM     82  C   UNL A   1      46.463  35.706  29.422  1.00  0.00     0.006 A 
ENDBRANCH  58  75
ENDBRANCH  32  33
ENDBRANCH  25  27
ENDBRANCH  24  25
ENDBRANCH  23  24
ENDBRANCH   1  23
TORSDOF 15
ENDMDL
MODEL 2
REMARK VINA RESULT:     -11.4      2.951      8.003
REMARK SMILES Cc1cccc(C)c1OCC(=O)N1CCC[C@@H](C(=O)OCCOC(=O)c2ccc(-c3c4nc(c(-c5c(F)cccc5F)c5ccc([nH]5)c(-c5c(F)cccc5F)c5nc(c(-c6c(F)cccc6F)c6ccc3[nH]6)C=C5)C=C4)cc2)C1
REMARK SMILES IDX 21 1 20 2 18 3 19 4 17 5 13 6 14 7 80 8 15 9 16 10 11 11
REMARK SMILES IDX 12 12 10 13 9 14 8 15 1 16 2 17 3 18 4 19 6 20 5 21 7 22
REMARK SMILES IDX 22 23 23 24 24 25 25 26 26 27 27 28 79 29 28 30 78 31 29 32
REMARK SMILES IDX 30 33 31 34 72 35 32 36 77 37 71 38 73 39 33 40 76 41 70 42
REMARK SMILES IDX 69 43 34 45 60 46 43 47 59 48 44 49 47 50 58 51 74 52 45 53
REMARK SMILES IDX 46 54 57 56 75 57 48 58 35 59 36 60 41 61 37 62 38 63 40 64
REMARK SMILES IDX 42 65 39 66 61 67 62 68 67 69 63 70 64 71 66 72 68 73 65 74
REMARK SMILES IDX 49 75 50 76 55 77 51 78 52 79 54 80 56 81 53 82
REMARK H PARENT 73 44 47 55
REMARK Flexibility Score: inf
ROOT
ATOM      1  C   UNL A   1      33.670  34.308  29.077  1.00  0.00     0.274 C 
ENDROOT
BRANCH   1   2
ATOM      2  O   UNL A   1      33.982  33.259  28.140  1.00  0.00    -0.462 OA
BRANCH   2   3
ATOM      3  C   UNL A   1      32.906  32.600  27.628  1.00  0.00     0.310 C 
ATOM      4  O   UNL A   1      31.872  33.140  27.252  1.00  0.00    -0.252 OA
BRANCH   3   5
ATOM      5  C   UNL A   1      33.133  31.101  27.594  1.00  0.00     0.119 C 
ATOM      6  N   UNL A   1      32.647  29.102  26.246  1.00  0.00    -0.339 N 
ATOM      7  C   UNL A   1      34.053  28.751  26.077  1.00  0.00     0.119 C 
ATOM      8  C   UNL A   1      32.405  30.533  26.365  1.00  0.00     0.134 C 
ATOM      9  C   UNL A   1      34.852  29.238  27.285  1.00  0.00     0.022 C 
ATOM     10  C   UNL A   1      34.627  30.729  27.562  1.00  0.00     0.019 C 
BRANCH   6  11
ATOM     11  C   UNL A   1      31.698  28.101  26.369  1.00  0.00     0.260 C 
ATOM     12  O   UNL A   1      31.398  27.633  27.472  1.00  0.00    -0.271 OA
BRANCH  11  13
ATOM     13  C   UNL A   1      31.042  27.499  25.107  1.00  0.00     0.329 C 
BRANCH  13  14
ATOM     14  O   UNL A   1      31.396  26.265  24.538  1.00  0.00    -0.483 OA
BRANCH  14  15
ATOM     15  C   UNL A   1      32.408  25.454  24.955  1.00  0.00     0.125 A 
ATOM     16  C   UNL A   1      31.260  24.141  26.872  1.00  0.00     0.048 C 
ATOM     17  C   UNL A   1      32.409  24.481  25.968  1.00  0.00    -0.009 A 
ATOM     18  C   UNL A   1      33.582  23.718  26.167  1.00  0.00     0.007 A 
ATOM     19  C   UNL A   1      34.738  23.931  25.420  1.00  0.00     0.001 A 
ATOM     20  C   UNL A   1      33.600  25.685  24.213  1.00  0.00    -0.009 A 
ATOM     21  C   UNL A   1      34.749  24.919  24.450  1.00  0.00     0.007 A 
ATOM     22  C   UNL A   1      33.654  26.752  23.146  1.00  0.00     0.048 C 
ENDBRANCH  14  15
ENDBRANCH  13  14
ENDBRANCH  11  13
ENDBRANCH   6  11
ENDBRANCH   3   5
ENDBRANCH   2   3
ENDBRANCH   1   2
BRANCH   1  23
ATOM     23  C   UNL A   1      34.326  34.045  30.431  1.00  0.00     0.275 C 
BRANCH  23  24
ATOM     24  O   UNL A   1      34.480  32.630  30.637  1.00  0.00    -0.458 OA
BRANCH  24  25
ATOM     25  C   UNL A   1      35.328  32.273  31.627  1.00  0.00     0.338 C 
ATOM     26  O   UNL A   1      35.228  32.516  32.818  1.00  0.00    -0.246 OA
BRANCH  25  27
ATOM     27  C   UNL A   1      36.453  31.504  31.070  1.00  0.00     0.060 A 
ATOM     28  C   UNL A   1      37.256  30.736  31.912  1.00  0.00     0.016 A 
ATOM     29  C   UNL A   1      36.793  31.664  29.728  1.00  0.00     0.016 A 
ATOM     30  C   UNL A   1      38.450  30.195  31.439  1.00  0.00     0.010 A 
ATOM     31  C   UNL A   1      37.948  31.054  29.233  1.00  0.00     0.010 A 
ATOM     32  C   UNL A   1      38.809  30.348  30.093  1.00  0.00    -0.014 A 
BRANCH  32  33
ATOM     33  C   UNL A   1      40.106  29.823  29.593  1.00  0.00     0.031 A 
ATOM     34  C   UNL A   1      41.306  30.729  29.530  1.00  0.00     0.074 A 
ATOM     35  C   UNL A   1      40.220  28.538  29.209  1.00  0.00     0.049 A 
ATOM     36  N   UNL A   1      42.471  30.520  28.971  1.00  0.00    -0.248 NA
ATOM     37  C   UNL A   1      41.176  32.045  30.173  1.00  0.00     0.031 C 
ATOM     38  C   UNL A   1      39.155  27.536  29.266  1.00  0.00     0.029 A 
ATOM     39  N   UNL A   1      41.293  27.854  28.694  1.00  0.00    -0.354 N 
ATOM     40  C   UNL A   1      43.192  31.694  29.150  1.00  0.00     0.074 A 
ATOM     41  C   UNL A   1      42.337  32.610  29.874  1.00  0.00     0.031 C 
ATOM     42  C   UNL A   1      39.635  26.361  28.831  1.00  0.00     0.029 A 
ATOM     43  C   UNL A   1      41.017  26.543  28.398  1.00  0.00     0.049 A 
ATOM     44  H   UNL A   1      42.177  28.265  28.550  1.00  0.00     0.167 HD
ATOM     45  C   UNL A   1      44.451  31.983  28.744  1.00  0.00     0.037 A 
ATOM     46  C   UNL A   1      41.777  25.601  27.810  1.00  0.00     0.037 A 
ATOM     47  C   UNL A   1      45.321  31.058  28.067  1.00  0.00     0.049 A 
ATOM     48  C   UNL A   1      43.163  25.950  27.349  1.00  0.00     0.074 A 
ATOM     49  C   UNL A   1      46.613  31.261  27.613  1.00  0.00     0.029 A 
ATOM     50  N   UNL A   1      44.992  29.746  27.766  1.00  0.00    -0.354 N 
ATOM     51  N   UNL A   1      43.806  27.087  27.456  1.00  0.00    -0.248 NA
ATOM     52  C   UNL A   1      43.918  24.892  26.662  1.00  0.00     0.031 C 
ATOM     53  C   UNL A   1      47.060  30.074  27.020  1.00  0.00     0.029 A 
ATOM     54  C   UNL A   1      46.054  29.127  27.128  1.00  0.00     0.049 A 
ATOM     55  H   UNL A   1      44.131  29.318  27.975  1.00  0.00     0.167 HD
ATOM     56  C   UNL A   1      45.039  26.883  26.853  1.00  0.00     0.074 A 
ATOM     57  C   UNL A   1      45.063  25.507  26.400  1.00  0.00     0.031 C 
ATOM     58  C   UNL A   1      46.057  27.760  26.683  1.00  0.00     0.037 A 
BRANCH  45  59
ATOM     59  C   UNL A   1      44.952  33.373  28.993  1.00  0.00     0.057 A 
ATOM     60  C   UNL A   1      44.697  34.423  28.103  1.00  0.00     0.134 A 
ATOM     61  C   UNL A   1      45.677  33.666  30.155  1.00  0.00     0.134 A 
ATOM     62  F   UNL A   1      44.023  34.200  26.965  1.00  0.00    -0.206 F 
ATOM     63  C   UNL A   1      45.159  35.716  28.354  1.00  0.00     0.040 A 
ATOM     64  C   UNL A   1      46.129  34.959  30.426  1.00  0.00     0.040 A 
ATOM     65  F   UNL A   1      45.953  32.703  31.047  1.00  0.00    -0.206 F 
ATOM     66  C   UNL A   1      45.872  35.987  29.521  1.00  0.00     0.006 A 
ENDBRANCH  45  59
BRANCH  46  67
ATOM     67  C   UNL A   1      41.227  24.242  27.590  1.00  0.00     0.057 A 
ATOM     68  C   UNL A   1      40.269  24.004  26.600  1.00  0.00     0.134 A 
ATOM     69  C   UNL A   1      41.652  23.151  28.358  1.00  0.00     0.134 A 
ATOM     70  F   UNL A   1      39.808  25.016  25.850  1.00  0.00    -0.206 F 
ATOM     71  C   UNL A   1      39.748  22.728  26.381  1.00  0.00     0.040 A 
ATOM     72  C   UNL A   1      41.156  21.867  28.136  1.00  0.00     0.040 A 
ATOM     73  F   UNL A   1      42.568  23.317  29.322  1.00  0.00    -0.206 F 
ATOM     74  C   UNL A   1      40.197  21.653  27.146  1.00  0.00     0.006 A 
ENDBRANCH  46  67
BRANCH  58  75
ATOM     75  C   UNL A   1      47.280  27.251  25.987  1.00  0.00     0.057 A 
ATOM     76  C   UNL A   1      47.432  27.369  24.599  1.00  0.00     0.134 A 
ATOM     77  C   UNL A   1      48.325  26.664  26.710  1.00  0.00     0.134 A 
ATOM     78  F   UNL A   1      46.459  27.910  23.853  1.00  0.00    -0.206 F 
ATOM     79  C   UNL A   1      48.579  26.907  23.953  1.00  0.00     0.040 A 
ATOM     80  C   UNL A   1      49.482  26.211  26.077  1.00  0.00     0.040 A 
ATOM     81  F   UNL A   1      48.237  26.526  28.041  1.00  0.00    -0.206 F 
ATOM     82  C   UNL A   1      49.610  26.330  24.693  1.00  0.00     0.006 A 
ENDBRANCH  58  75
ENDBRANCH  32  33
ENDBRANCH  25  27
ENDBRANCH  24  25
ENDBRANCH  23  24
ENDBRANCH   1  23
TORSDOF 15
ENDMDL
MODEL 3
REMARK VINA RESULT:     -11.3      1.130      2.294
REMARK SMILES Cc1cccc(C)c1OCC(=O)N1CCC[C@@H](C(=O)OCCOC(=O)c2ccc(-c3c4nc(c(-c5c(F)cccc5F)c5ccc([nH]5)c(-c5c(F)cccc5F)c5nc(c(-c6c(F)cccc6F)c6ccc3[nH]6)C=C5)C=C4)cc2)C1
REMARK SMILES IDX 21 1 20 2 18 3 19 4 17 5 13 6 14 7 80 8 15 9 16 10 11 11
REMARK SMILES IDX 12 12 10 13 9 14 8 15 1 16 2 17 3 18 4 19 6 20 5 21 7 22
REMARK SMILES IDX 22 23 23 24 24 25 25 26 26 27 27 28 79 29 28 30 78 31 29 32
REMARK SMILES IDX 30 33 31 34 72 35 32 36 77 37 71 38 73 39 33 40 76 41 70 42
REMARK SMILES IDX 69 43 34 45 60 46 43 47 59 48 44 49 47 50 58 51 74 52 45 53
REMARK SMILES IDX 46 54 57 56 75 57 48 58 35 59 36 60 41 61 37 62 38 63 40 64
REMARK SMILES IDX 42 65 39 66 61 67 62 68 67 69 63 70 64 71 66 72 68 73 65 74
REMARK SMILES IDX 49 75 50 76 55 77 51 78 52 79 54 80 56 81 53 82
REMARK H PARENT 73 44 47 55
REMARK Flexibility Score: inf
ROOT
ATOM      1  C   UNL A   1      35.232  21.593  25.490  1.00  0.00     0.274 C 
ENDROOT
BRANCH   1   2
ATOM      2  O   UNL A   1      34.300  21.924  24.442  1.00  0.00    -0.462 OA
BRANCH   2   3
ATOM      3  C   UNL A   1      34.619  23.028  23.711  1.00  0.00     0.310 C 
ATOM      4  O   UNL A   1      35.426  23.043  22.789  1.00  0.00    -0.252 OA
BRANCH   3   5
ATOM      5  C   UNL A   1      33.862  24.251  24.189  1.00  0.00     0.119 C 
ATOM      6  N   UNL A   1      31.848  24.916  25.433  1.00  0.00    -0.339 N 
ATOM      7  C   UNL A   1      32.592  25.684  26.425  1.00  0.00     0.119 C 
ATOM      8  C   UNL A   1      32.581  23.779  24.894  1.00  0.00     0.134 C 
ATOM      9  C   UNL A   1      33.868  26.238  25.794  1.00  0.00     0.022 C 
ATOM     10  C   UNL A   1      34.703  25.140  25.124  1.00  0.00     0.019 C 
BRANCH   6  11
ATOM     11  C   UNL A   1      30.598  25.349  25.024  1.00  0.00     0.260 C 
ATOM     12  O   UNL A   1      29.717  25.632  25.844  1.00  0.00    -0.271 OA
BRANCH  11  13
ATOM     13  C   UNL A   1      30.258  25.421  23.520  1.00  0.00     0.329 C 
BRANCH  13  14
ATOM     14  O   UNL A   1      30.586  26.498  22.681  1.00  0.00    -0.483 OA
BRANCH  14  15
ATOM     15  C   UNL A   1      31.667  27.316  22.818  1.00  0.00     0.125 A 
ATOM     16  C   UNL A   1      30.764  29.087  24.480  1.00  0.00     0.048 C 
ATOM     17  C   UNL A   1      31.817  28.466  23.611  1.00  0.00    -0.009 A 
ATOM     18  C   UNL A   1      33.076  29.110  23.629  1.00  0.00     0.007 A 
ATOM     19  C   UNL A   1      34.146  28.664  22.859  1.00  0.00     0.001 A 
ATOM     20  C   UNL A   1      32.757  26.880  22.014  1.00  0.00    -0.009 A 
ATOM     21  C   UNL A   1      33.984  27.555  22.046  1.00  0.00     0.007 A 
ATOM     22  C   UNL A   1      32.622  25.675  21.114  1.00  0.00     0.048 C 
ENDBRANCH  14  15
ENDBRANCH  13  14
ENDBRANCH  11  13
ENDBRANCH   6  11
ENDBRANCH   3   5
ENDBRANCH   2   3
ENDBRANCH   1   2
BRANCH   1  23
ATOM     23  C   UNL A   1      36.309  20.635  24.983  1.00  0.00     0.275 C 
BRANCH  23  24
ATOM     24  O   UNL A   1      37.539  21.349  24.764  1.00  0.00    -0.458 OA
BRANCH  24  25
ATOM     25  C   UNL A   1      38.584  20.956  25.525  1.00  0.00     0.338 C 
ATOM     26  O   UNL A   1      39.012  19.825  25.680  1.00  0.00    -0.246 OA
BRANCH  25  27
ATOM     27  C   UNL A   1      39.191  22.126  26.182  1.00  0.00     0.060 A 
ATOM     28  C   UNL A   1      38.599  23.382  26.053  1.00  0.00     0.016 A 
ATOM     29  C   UNL A   1      40.429  21.994  26.808  1.00  0.00     0.016 A 
ATOM     30  C   UNL A   1      39.280  24.523  26.470  1.00  0.00     0.010 A 
ATOM     31  C   UNL A   1      41.076  23.130  27.300  1.00  0.00     0.010 A 
ATOM     32  C   UNL A   1      40.527  24.410  27.099  1.00  0.00    -0.014 A 
BRANCH  32  33
ATOM     33  C   UNL A   1      41.285  25.624  27.496  1.00  0.00     0.031 A 
ATOM     34  C   UNL A   1      40.639  26.655  28.382  1.00  0.00     0.074 A 
ATOM     35  C   UNL A   1      42.553  25.804  27.081  1.00  0.00     0.049 A 
ATOM     36  N   UNL A   1      41.059  27.853  28.700  1.00  0.00    -0.248 NA
ATOM     37  C   UNL A   1      39.346  26.293  28.983  1.00  0.00     0.031 C 
ATOM     38  C   UNL A   1      43.321  24.864  26.264  1.00  0.00     0.029 A 
ATOM     39  N   UNL A   1      43.421  26.846  27.294  1.00  0.00    -0.354 N 
ATOM     40  C   UNL A   1      40.061  28.405  29.494  1.00  0.00     0.074 A 
ATOM     41  C   UNL A   1      39.017  27.411  29.615  1.00  0.00     0.031 C 
ATOM     42  C   UNL A   1      44.553  25.358  26.068  1.00  0.00     0.029 A 
ATOM     43  C   UNL A   1      44.639  26.678  26.683  1.00  0.00     0.049 A 
ATOM     44  H   UNL A   1      43.192  27.638  27.833  1.00  0.00     0.167 HD
ATOM     45  C   UNL A   1      40.019  29.632  30.066  1.00  0.00     0.037 A 
ATOM     46  C   UNL A   1      45.694  27.509  26.597  1.00  0.00     0.037 A 
ATOM     47  C   UNL A   1      41.077  30.605  29.987  1.00  0.00     0.049 A 
ATOM     48  C   UNL A   1      45.616  28.872  27.220  1.00  0.00     0.074 A 
ATOM     49  C   UNL A   1      41.123  31.876  30.532  1.00  0.00     0.029 A 
ATOM     50  N   UNL A   1      42.284  30.402  29.339  1.00  0.00    -0.354 N 
ATOM     51  N   UNL A   1      44.637  29.411  27.905  1.00  0.00    -0.248 NA
ATOM     52  C   UNL A   1      46.781  29.751  27.038  1.00  0.00     0.031 C 
ATOM     53  C   UNL A   1      42.355  32.451  30.197  1.00  0.00     0.029 A 
ATOM     54  C   UNL A   1      43.082  31.526  29.465  1.00  0.00     0.049 A 
ATOM     55  H   UNL A   1      42.537  29.581  28.859  1.00  0.00     0.167 HD
ATOM     56  C   UNL A   1      45.065  30.689  28.235  1.00  0.00     0.074 A 
ATOM     57  C   UNL A   1      46.400  30.839  27.695  1.00  0.00     0.031 C 
ATOM     58  C   UNL A   1      44.406  31.656  28.918  1.00  0.00     0.037 A 
BRANCH  45  59
ATOM     59  C   UNL A   1      38.768  30.004  30.802  1.00  0.00     0.057 A 
ATOM     60  C   UNL A   1      38.604  29.737  32.166  1.00  0.00     0.134 A 
ATOM     61  C   UNL A   1      37.726  30.665  30.138  1.00  0.00     0.134 A 
ATOM     62  F   UNL A   1      39.559  29.092  32.851  1.00  0.00    -0.206 F 
ATOM     63  C   UNL A   1      37.438  30.102  32.842  1.00  0.00     0.040 A 
ATOM     64  C   UNL A   1      36.564  31.050  30.807  1.00  0.00     0.040 A 
ATOM     65  F   UNL A   1      37.825  30.950  28.831  1.00  0.00    -0.206 F 
ATOM     66  C   UNL A   1      36.417  30.765  32.163  1.00  0.00     0.006 A 
ENDBRANCH  45  59
BRANCH  46  67
ATOM     67  C   UNL A   1      46.905  27.085  25.855  1.00  0.00     0.057 A 
ATOM     68  C   UNL A   1      47.916  26.351  26.483  1.00  0.00     0.134 A 
ATOM     69  C   UNL A   1      47.076  27.396  24.500  1.00  0.00     0.134 A 
ATOM     70  F   UNL A   1      47.817  26.045  27.785  1.00  0.00    -0.206 F 
ATOM     71  C   UNL A   1      49.057  25.942  25.792  1.00  0.00     0.040 A 
ATOM     72  C   UNL A   1      48.201  26.976  23.792  1.00  0.00     0.040 A 
ATOM     73  F   UNL A   1      46.141  28.098  23.844  1.00  0.00    -0.206 F 
ATOM     74  C   UNL A   1      49.199  26.249  24.440  1.00  0.00     0.006 A 
ENDBRANCH  46  67
BRANCH  58  75
ATOM     75  C   UNL A   1      45.127  32.951  29.124  1.00  0.00     0.057 A 
ATOM     76  C   UNL A   1      45.984  33.143  30.215  1.00  0.00     0.134 A 
ATOM     77  C   UNL A   1      44.986  34.003  28.212  1.00  0.00     0.134 A 
ATOM     78  F   UNL A   1      46.149  32.176  31.129  1.00  0.00    -0.206 F 
ATOM     79  C   UNL A   1      46.667  34.347  30.398  1.00  0.00     0.040 A 
ATOM     80  C   UNL A   1      45.674  35.205  28.376  1.00  0.00     0.040 A 
ATOM     81  F   UNL A   1      44.182  33.876  27.147  1.00  0.00    -0.206 F 
ATOM     82  C   UNL A   1      46.516  35.379  29.474  1.00  0.00     0.006 A 
ENDBRANCH  58  75
ENDBRANCH  32  33
ENDBRANCH  25  27
ENDBRANCH  24  25
ENDBRANCH  23  24
ENDBRANCH   1  23
TORSDOF 15
ENDMDL
