MODEL 1
REMARK VINA RESULT:     -10.4      0.000      0.000
REMARK SMILES CC[C@@H](C)CN(CC)S(=O)(=O)c1cc(C(=O)OCCOC(=O)c2ccc(-c3c4nc(c(-c5c(F)cccc5F)c5ccc([nH]5)c(-c5c(F)cccc5F)c5nc(c(-c6c(F)cccc6F)c6ccc3[nH]6)C=C5)C=C4)cc2)n(C)c1
REMARK SMILES IDX 17 1 15 2 16 3 14 4 12 5 13 6 79 7 77 8 78 9 9 10 10 11
REMARK SMILES IDX 11 12 6 13 5 14 3 15 4 16 2 17 1 18 7 19 8 20 18 21 19 22
REMARK SMILES IDX 20 23 21 24 22 25 23 26 24 27 76 28 25 29 75 30 26 31 27 32
REMARK SMILES IDX 28 33 69 34 29 35 74 36 68 37 70 38 30 39 73 40 67 41 66 42
REMARK SMILES IDX 31 44 57 45 40 46 56 47 41 48 44 49 55 50 71 51 42 52 43 53
REMARK SMILES IDX 54 55 72 56 45 57 32 58 33 59 38 60 34 61 35 62 37 63 39 64
REMARK SMILES IDX 36 65 58 66 59 67 64 68 60 69 61 70 63 71 65 72 62 73 46 74
REMARK SMILES IDX 47 75 52 76 48 77 49 78 51 79 53 80 50 81
REMARK H PARENT 70 43 44 54
REMARK Flexibility Score: inf
ROOT
ATOM      1  O   UNL A   1      34.191  20.860  24.551  1.00  0.00    -0.457 OA
ENDROOT
BRANCH   1   2
ATOM      2  C   UNL A   1      32.967  20.792  25.135  1.00  0.00     0.355 C 
ATOM      3  O   UNL A   1      32.374  19.744  25.381  1.00  0.00    -0.244 OA
BRANCH   2   4
ATOM      4  C   UNL A   1      32.504  22.103  25.555  1.00  0.00     0.128 A 
ATOM      5  C   UNL A   1      31.576  24.197  25.484  1.00  0.00     0.101 A 
ATOM      6  C   UNL A   1      32.007  23.097  24.707  1.00  0.00     0.057 A 
ATOM      7  C   UNL A   1      31.872  23.880  26.795  1.00  0.00     0.107 A 
ATOM      8  N   UNL A   1      32.502  22.657  26.823  1.00  0.00    -0.344 N 
ATOM      9  C   UNL A   1      33.206  22.192  28.001  1.00  0.00     0.150 C 
BRANCH   5  10
ATOM     10  S   UNL A   1      30.967  25.727  24.916  1.00  0.00     0.244 S 
ATOM     11  O   UNL A   1      29.932  26.060  25.881  1.00  0.00    -0.207 OA
ATOM     12  O   UNL A   1      30.619  25.427  23.554  1.00  0.00    -0.207 OA
BRANCH  10  13
ATOM     13  N   UNL A   1      32.172  26.971  24.959  1.00  0.00    -0.198 NA
BRANCH  13  14
ATOM     14  C   UNL A   1      33.111  26.936  26.147  1.00  0.00     0.105 C 
BRANCH  14  15
ATOM     15  C   UNL A   1      33.022  28.099  27.160  1.00  0.00     0.001 C 
ATOM     16  C   UNL A   1      31.775  28.930  26.807  1.00  0.00     0.009 C 
BRANCH  15  17
ATOM     17  C   UNL A   1      34.298  28.954  27.156  1.00  0.00     0.001 C 
ATOM     18  C   UNL A   1      34.148  30.464  27.224  1.00  0.00     0.004 C 
ENDBRANCH  15  17
ENDBRANCH  14  15
ENDBRANCH  13  14
BRANCH  13  19
ATOM     19  C   UNL A   1      32.985  27.091  23.699  1.00  0.00     0.099 C 
ATOM     20  C   UNL A   1      33.653  28.454  23.523  1.00  0.00     0.022 C 
ENDBRANCH  13  19
ENDBRANCH  10  13
ENDBRANCH   5  10
ENDBRANCH   2   4
ENDBRANCH   1   2
BRANCH   1  21
ATOM     21  C   UNL A   1      35.310  21.166  25.407  1.00  0.00     0.275 C 
BRANCH  21  22
ATOM     22  C   UNL A   1      36.542  20.357  25.000  1.00  0.00     0.275 C 
BRANCH  22  23
ATOM     23  O   UNL A   1      37.696  21.212  24.900  1.00  0.00    -0.458 OA
BRANCH  23  24
ATOM     24  C   UNL A   1      38.739  20.863  25.685  1.00  0.00     0.338 C 
ATOM     25  O   UNL A   1      39.293  19.779  25.752  1.00  0.00    -0.246 OA
BRANCH  24  26
ATOM     26  C   UNL A   1      39.227  22.041  26.415  1.00  0.00     0.060 A 
ATOM     27  C   UNL A   1      38.650  23.264  26.113  1.00  0.00     0.016 A 
ATOM     28  C   UNL A   1      40.351  21.984  27.237  1.00  0.00     0.016 A 
ATOM     29  C   UNL A   1      39.258  24.440  26.536  1.00  0.00     0.010 A 
ATOM     30  C   UNL A   1      40.919  23.179  27.718  1.00  0.00     0.010 A 
ATOM     31  C   UNL A   1      40.423  24.432  27.315  1.00  0.00    -0.014 A 
BRANCH  31  32
ATOM     32  C   UNL A   1      41.154  25.717  27.582  1.00  0.00     0.031 A 
ATOM     33  C   UNL A   1      40.527  26.789  28.452  1.00  0.00     0.074 A 
ATOM     34  C   UNL A   1      42.417  25.916  27.146  1.00  0.00     0.049 A 
ATOM     35  N   UNL A   1      40.942  28.010  28.697  1.00  0.00    -0.248 NA
ATOM     36  C   UNL A   1      39.265  26.449  29.126  1.00  0.00     0.031 C 
ATOM     37  C   UNL A   1      43.202  24.968  26.353  1.00  0.00     0.029 A 
ATOM     38  N   UNL A   1      43.281  26.970  27.339  1.00  0.00    -0.354 N 
ATOM     39  C   UNL A   1      39.955  28.602  29.479  1.00  0.00     0.074 A 
ATOM     40  C   UNL A   1      38.923  27.608  29.671  1.00  0.00     0.031 C 
ATOM     41  C   UNL A   1      44.446  25.443  26.199  1.00  0.00     0.029 A 
ATOM     42  C   UNL A   1      44.518  26.784  26.769  1.00  0.00     0.049 A 
ATOM     43  H   UNL A   1      43.034  27.783  27.837  1.00  0.00     0.167 HD
ATOM     44  C   UNL A   1      39.907  29.857  29.993  1.00  0.00     0.037 A 
ATOM     45  C   UNL A   1      45.583  27.606  26.666  1.00  0.00     0.037 A 
ATOM     46  C   UNL A   1      40.964  30.830  29.877  1.00  0.00     0.049 A 
ATOM     47  C   UNL A   1      45.497  29.003  27.216  1.00  0.00     0.074 A 
ATOM     48  C   UNL A   1      41.004  32.123  30.374  1.00  0.00     0.029 A 
ATOM     49  N   UNL A   1      42.175  30.614  29.240  1.00  0.00    -0.354 N 
ATOM     50  N   UNL A   1      44.522  29.573  27.880  1.00  0.00    -0.248 NA
ATOM     51  C   UNL A   1      46.653  29.880  26.975  1.00  0.00     0.031 C 
ATOM     52  C   UNL A   1      42.220  32.704  30.000  1.00  0.00     0.029 A 
ATOM     53  C   UNL A   1      42.963  31.752  29.320  1.00  0.00     0.049 A 
ATOM     54  H   UNL A   1      42.438  29.776  28.794  1.00  0.00     0.167 HD
ATOM     55  C   UNL A   1      44.952  30.868  28.148  1.00  0.00     0.074 A 
ATOM     56  C   UNL A   1      46.286  30.989  27.600  1.00  0.00     0.031 C 
ATOM     57  C   UNL A   1      44.294  31.869  28.782  1.00  0.00     0.037 A 
BRANCH  44  58
ATOM     58  C   UNL A   1      38.645  30.276  30.697  1.00  0.00     0.057 A 
ATOM     59  C   UNL A   1      37.562  30.855  30.025  1.00  0.00     0.134 A 
ATOM     60  C   UNL A   1      38.501  30.055  32.075  1.00  0.00     0.134 A 
ATOM     61  F   UNL A   1      37.634  31.104  28.709  1.00  0.00    -0.206 F 
ATOM     62  C   UNL A   1      36.396  31.225  30.700  1.00  0.00     0.040 A 
ATOM     63  C   UNL A   1      37.330  30.392  32.754  1.00  0.00     0.040 A 
ATOM     64  F   UNL A   1      39.494  29.493  32.781  1.00  0.00    -0.206 F 
ATOM     65  C   UNL A   1      36.275  30.986  32.068  1.00  0.00     0.006 A 
ENDBRANCH  44  58
BRANCH  45  66
ATOM     66  C   UNL A   1      46.810  27.156  25.956  1.00  0.00     0.057 A 
ATOM     67  C   UNL A   1      47.851  26.510  26.635  1.00  0.00     0.134 A 
ATOM     68  C   UNL A   1      46.984  27.382  24.584  1.00  0.00     0.134 A 
ATOM     69  F   UNL A   1      47.762  26.293  27.956  1.00  0.00    -0.206 F 
ATOM     70  C   UNL A   1      49.021  26.120  25.982  1.00  0.00     0.040 A 
ATOM     71  C   UNL A   1      48.133  26.965  23.911  1.00  0.00     0.040 A 
ATOM     72  F   UNL A   1      46.029  28.001  23.873  1.00  0.00    -0.206 F 
ATOM     73  C   UNL A   1      49.160  26.339  24.612  1.00  0.00     0.006 A 
ENDBRANCH  45  66
BRANCH  57  74
ATOM     74  C   UNL A   1      45.027  33.167  28.963  1.00  0.00     0.057 A 
ATOM     75  C   UNL A   1      44.926  34.214  28.037  1.00  0.00     0.134 A 
ATOM     76  C   UNL A   1      45.838  33.376  30.087  1.00  0.00     0.134 A 
ATOM     77  F   UNL A   1      44.178  34.075  26.932  1.00  0.00    -0.206 F 
ATOM     78  C   UNL A   1      45.632  35.408  28.205  1.00  0.00     0.040 A 
ATOM     79  C   UNL A   1      46.524  34.577  30.280  1.00  0.00     0.040 A 
ATOM     80  F   UNL A   1      45.971  32.420  31.018  1.00  0.00    -0.206 F 
ATOM     81  C   UNL A   1      46.430  35.593  29.333  1.00  0.00     0.006 A 
ENDBRANCH  57  74
ENDBRANCH  31  32
ENDBRANCH  24  26
ENDBRANCH  23  24
ENDBRANCH  22  23
ENDBRANCH  21  22
ENDBRANCH   1  21
TORSDOF 17
ENDMDL
MODEL 2
REMARK VINA RESULT:     -10.2      3.737      8.904
REMARK SMILES CC[C@@H](C)CN(CC)S(=O)(=O)c1cc(C(=O)OCCOC(=O)c2ccc(-c3c4nc(c(-c5c(F)cccc5F)c5ccc([nH]5)c(-c5c(F)cccc5F)c5nc(c(-c6c(F)cccc6F)c6ccc3[nH]6)C=C5)C=C4)cc2)n(C)c1
REMARK SMILES IDX 17 1 15 2 16 3 14 4 12 5 13 6 79 7 77 8 78 9 9 10 10 11
REMARK SMILES IDX 11 12 6 13 5 14 3 15 4 16 2 17 1 18 7 19 8 20 18 21 19 22
REMARK SMILES IDX 20 23 21 24 22 25 23 26 24 27 76 28 25 29 75 30 26 31 27 32
REMARK SMILES IDX 28 33 69 34 29 35 74 36 68 37 70 38 30 39 73 40 67 41 66 42
REMARK SMILES IDX 31 44 57 45 40 46 56 47 41 48 44 49 55 50 71 51 42 52 43 53
REMARK SMILES IDX 54 55 72 56 45 57 32 58 33 59 38 60 34 61 35 62 37 63 39 64
REMARK SMILES IDX 36 65 58 66 59 67 64 68 60 69 61 70 63 71 65 72 62 73 46 74
REMARK SMILES IDX 47 75 52 76 48 77 49 78 51 79 53 80 50 81
REMARK H PARENT 70 43 44 54
REMARK Flexibility Score: inf
ROOT
ATOM      1  O   UNL A   1      32.215  28.068  25.568  1.00  0.00    -0.457 OA
ENDROOT
BRANCH   1   2
ATOM      2  C   UNL A   1      31.626  26.953  26.072  1.00  0.00     0.355 C 
ATOM      3  O   UNL A   1      31.077  26.896  27.170  1.00  0.00    -0.244 OA
BRANCH   2   4
ATOM      4  C   UNL A   1      31.608  25.875  25.099  1.00  0.00     0.128 A 
ATOM      5  C   UNL A   1      32.265  24.056  23.872  1.00  0.00     0.101 A 
ATOM      6  C   UNL A   1      32.685  25.036  24.800  1.00  0.00     0.057 A 
ATOM      7  C   UNL A   1      30.949  24.349  23.572  1.00  0.00     0.107 A 
ATOM      8  N   UNL A   1      30.585  25.489  24.251  1.00  0.00    -0.344 N 
ATOM      9  C   UNL A   1      29.382  26.222  23.914  1.00  0.00     0.150 C 
BRANCH   5  10
ATOM     10  S   UNL A   1      33.239  22.832  23.103  1.00  0.00     0.244 S 
ATOM     11  O   UNL A   1      34.243  23.600  22.385  1.00  0.00    -0.207 OA
ATOM     12  O   UNL A   1      32.255  22.072  22.382  1.00  0.00    -0.207 OA
BRANCH  10  13
ATOM     13  N   UNL A   1      34.047  21.818  24.251  1.00  0.00    -0.198 NA
BRANCH  13  14
ATOM     14  C   UNL A   1      35.004  22.522  25.191  1.00  0.00     0.105 C 
BRANCH  14  15
ATOM     15  C   UNL A   1      36.509  22.470  24.845  1.00  0.00     0.001 C 
ATOM     16  C   UNL A   1      36.968  21.006  24.977  1.00  0.00     0.009 C 
BRANCH  15  17
ATOM     17  C   UNL A   1      37.331  23.409  25.740  1.00  0.00     0.001 C 
ATOM     18  C   UNL A   1      38.709  22.950  26.185  1.00  0.00     0.004 C 
ENDBRANCH  15  17
ENDBRANCH  14  15
ENDBRANCH  13  14
BRANCH  13  19
ATOM     19  C   UNL A   1      33.130  20.941  25.058  1.00  0.00     0.099 C 
ATOM     20  C   UNL A   1      33.013  19.513  24.525  1.00  0.00     0.022 C 
ENDBRANCH  13  19
ENDBRANCH  10  13
ENDBRANCH   5  10
ENDBRANCH   2   4
ENDBRANCH   1   2
BRANCH   1  21
ATOM     21  C   UNL A   1      31.355  29.034  24.931  1.00  0.00     0.275 C 
BRANCH  21  22
ATOM     22  C   UNL A   1      31.658  30.446  25.432  1.00  0.00     0.275 C 
BRANCH  22  23
ATOM     23  O   UNL A   1      32.236  30.398  26.751  1.00  0.00    -0.458 OA
BRANCH  23  24
ATOM     24  C   UNL A   1      32.842  31.537  27.154  1.00  0.00     0.338 C 
ATOM     25  O   UNL A   1      32.344  32.641  27.288  1.00  0.00    -0.246 OA
BRANCH  24  26
ATOM     26  C   UNL A   1      34.232  31.250  27.536  1.00  0.00     0.060 A 
ATOM     27  C   UNL A   1      34.591  29.920  27.690  1.00  0.00     0.016 A 
ATOM     28  C   UNL A   1      35.112  32.259  27.921  1.00  0.00     0.016 A 
ATOM     29  C   UNL A   1      35.780  29.593  28.331  1.00  0.00     0.010 A 
ATOM     30  C   UNL A   1      36.346  31.917  28.506  1.00  0.00     0.010 A 
ATOM     31  C   UNL A   1      36.669  30.576  28.787  1.00  0.00    -0.014 A 
BRANCH  31  32
ATOM     32  C   UNL A   1      37.839  30.187  29.645  1.00  0.00     0.031 A 
ATOM     33  C   UNL A   1      38.970  29.357  29.069  1.00  0.00     0.074 A 
ATOM     34  C   UNL A   1      37.970  30.642  30.910  1.00  0.00     0.049 A 
ATOM     35  N   UNL A   1      39.999  28.818  29.677  1.00  0.00    -0.248 NA
ATOM     36  C   UNL A   1      38.933  29.090  27.623  1.00  0.00     0.031 C 
ATOM     37  C   UNL A   1      37.015  31.505  31.607  1.00  0.00     0.029 A 
ATOM     38  N   UNL A   1      38.981  30.471  31.828  1.00  0.00    -0.354 N 
ATOM     39  C   UNL A   1      40.679  28.085  28.708  1.00  0.00     0.074 A 
ATOM     40  C   UNL A   1      39.947  28.251  27.472  1.00  0.00     0.031 C 
ATOM     41  C   UNL A   1      37.519  31.852  32.800  1.00  0.00     0.029 A 
ATOM     42  C   UNL A   1      38.773  31.139  33.013  1.00  0.00     0.049 A 
ATOM     43  H   UNL A   1      39.779  29.920  31.654  1.00  0.00     0.167 HD
ATOM     44  C   UNL A   1      41.807  27.341  28.831  1.00  0.00     0.037 A 
ATOM     45  C   UNL A   1      39.477  31.148  34.164  1.00  0.00     0.037 A 
ATOM     46  C   UNL A   1      42.589  27.232  30.037  1.00  0.00     0.049 A 
ATOM     47  C   UNL A   1      40.708  30.292  34.288  1.00  0.00     0.074 A 
ATOM     48  C   UNL A   1      43.752  26.508  30.249  1.00  0.00     0.029 A 
ATOM     49  N   UNL A   1      42.305  27.881  31.228  1.00  0.00    -0.354 N 
ATOM     50  N   UNL A   1      41.288  29.540  33.386  1.00  0.00    -0.248 NA
ATOM     51  C   UNL A   1      41.364  30.267  35.603  1.00  0.00     0.031 C 
ATOM     52  C   UNL A   1      44.146  26.683  31.579  1.00  0.00     0.029 A 
ATOM     53  C   UNL A   1      43.262  27.565  32.180  1.00  0.00     0.049 A 
ATOM     54  H   UNL A   1      41.537  28.479  31.377  1.00  0.00     0.167 HD
ATOM     55  C   UNL A   1      42.383  28.965  34.019  1.00  0.00     0.074 A 
ATOM     56  C   UNL A   1      42.403  29.477  35.372  1.00  0.00     0.031 C 
ATOM     57  C   UNL A   1      43.286  28.083  33.524  1.00  0.00     0.037 A 
BRANCH  44  58
ATOM     58  C   UNL A   1      42.249  26.540  27.636  1.00  0.00     0.057 A 
ATOM     59  C   UNL A   1      43.134  27.044  26.676  1.00  0.00     0.134 A 
ATOM     60  C   UNL A   1      41.804  25.220  27.471  1.00  0.00     0.134 A 
ATOM     61  F   UNL A   1      43.591  28.301  26.766  1.00  0.00    -0.206 F 
ATOM     62  C   UNL A   1      43.537  26.276  25.580  1.00  0.00     0.040 A 
ATOM     63  C   UNL A   1      42.224  24.433  26.398  1.00  0.00     0.040 A 
ATOM     64  F   UNL A   1      40.963  24.669  28.359  1.00  0.00    -0.206 F 
ATOM     65  C   UNL A   1      43.088  24.963  25.444  1.00  0.00     0.006 A 
ENDBRANCH  44  58
BRANCH  45  66
ATOM     66  C   UNL A   1      39.002  31.948  35.324  1.00  0.00     0.057 A 
ATOM     67  C   UNL A   1      39.332  33.302  35.460  1.00  0.00     0.134 A 
ATOM     68  C   UNL A   1      38.226  31.373  36.340  1.00  0.00     0.134 A 
ATOM     69  F   UNL A   1      40.099  33.906  34.541  1.00  0.00    -0.206 F 
ATOM     70  C   UNL A   1      38.921  34.049  36.567  1.00  0.00     0.040 A 
ATOM     71  C   UNL A   1      37.779  32.115  37.432  1.00  0.00     0.040 A 
ATOM     72  F   UNL A   1      37.880  30.078  36.275  1.00  0.00    -0.206 F 
ATOM     73  C   UNL A   1      38.134  33.456  37.553  1.00  0.00     0.006 A 
ENDBRANCH  45  66
BRANCH  57  74
ATOM     74  C   UNL A   1      44.399  27.653  34.436  1.00  0.00     0.057 A 
ATOM     75  C   UNL A   1      45.603  28.364  34.527  1.00  0.00     0.134 A 
ATOM     76  C   UNL A   1      44.259  26.516  35.243  1.00  0.00     0.134 A 
ATOM     77  F   UNL A   1      45.808  29.454  33.772  1.00  0.00    -0.206 F 
ATOM     78  C   UNL A   1      46.641  27.940  35.362  1.00  0.00     0.040 A 
ATOM     79  C   UNL A   1      45.277  26.100  36.103  1.00  0.00     0.040 A 
ATOM     80  F   UNL A   1      43.129  25.794  35.214  1.00  0.00    -0.206 F 
ATOM     81  C   UNL A   1      46.476  26.807  36.156  1.00  0.00     0.006 A 
ENDBRANCH  57  74
ENDBRANCH  31  32
ENDBRANCH  24  26
ENDBRANCH  23  24
ENDBRANCH  22  23
ENDBRANCH  21  22
ENDBRANCH   1  21
TORSDOF 17
ENDMDL
MODEL 3
REMARK VINA RESULT:     -10.2      1.158      6.502
REMARK SMILES CC[C@@H](C)CN(CC)S(=O)(=O)c1cc(C(=O)OCCOC(=O)c2ccc(-c3c4nc(c(-c5c(F)cccc5F)c5ccc([nH]5)c(-c5c(F)cccc5F)c5nc(c(-c6c(F)cccc6F)c6ccc3[nH]6)C=C5)C=C4)cc2)n(C)c1
REMARK SMILES IDX 17 1 15 2 16 3 14 4 12 5 13 6 79 7 77 8 78 9 9 10 10 11
REMARK SMILES IDX 11 12 6 13 5 14 3 15 4 16 2 17 1 18 7 19 8 20 18 21 19 22
REMARK SMILES IDX 20 23 21 24 22 25 23 26 24 27 76 28 25 29 75 30 26 31 27 32
REMARK SMILES IDX 28 33 69 34 29 35 74 36 68 37 70 38 30 39 73 40 67 41 66 42
REMARK SMILES IDX 31 44 57 45 40 46 56 47 41 48 44 49 55 50 71 51 42 52 43 53
REMARK SMILES IDX 54 55 72 56 45 57 32 58 33 59 38 60 34 61 35 62 37 63 39 64
REMARK SMILES IDX 36 65 58 66 59 67 64 68 60 69 61 70 63 71 65 72 62 73 46 74
REMARK SMILES IDX 47 75 52 76 48 77 49 78 51 79 53 80 50 81
REMARK H PARENT 70 43 44 54
REMARK Flexibility Score: inf
ROOT
ATOM      1  O   UNL A   1      35.511  22.474  24.945  1.00  0.00    -0.457 OA
ENDROOT
BRANCH   1   2
ATOM      2  C   UNL A   1      35.110  23.234  23.894  1.00  0.00     0.355 C 
ATOM      3  O   UNL A   1      35.752  23.375  22.856  1.00  0.00    -0.244 OA
BRANCH   2   4
ATOM      4  C   UNL A   1      33.767  23.750  24.093  1.00  0.00     0.128 A 
ATOM      5  C   UNL A   1      32.044  25.089  24.792  1.00  0.00     0.101 A 
ATOM      6  C   UNL A   1      33.426  24.823  24.923  1.00  0.00     0.057 A 
ATOM      7  C   UNL A   1      31.549  24.134  23.926  1.00  0.00     0.107 A 
ATOM      8  N   UNL A   1      32.572  23.285  23.573  1.00  0.00    -0.344 N 
ATOM      9  C   UNL A   1      32.316  22.013  22.930  1.00  0.00     0.150 C 
BRANCH   5  10
ATOM     10  S   UNL A   1      31.097  26.257  25.674  1.00  0.00     0.244 S 
ATOM     11  O   UNL A   1      31.494  26.039  27.056  1.00  0.00    -0.207 OA
ATOM     12  O   UNL A   1      29.761  25.947  25.246  1.00  0.00    -0.207 OA
BRANCH  10  13
ATOM     13  N   UNL A   1      31.495  27.887  25.243  1.00  0.00    -0.198 NA
BRANCH  13  14
ATOM     14  C   UNL A   1      32.938  28.291  25.463  1.00  0.00     0.105 C 
BRANCH  14  15
ATOM     15  C   UNL A   1      33.283  29.010  26.786  1.00  0.00     0.001 C 
ATOM     16  C   UNL A   1      32.404  30.271  26.874  1.00  0.00     0.009 C 
BRANCH  15  17
ATOM     17  C   UNL A   1      34.778  29.347  26.877  1.00  0.00     0.001 C 
ATOM     18  C   UNL A   1      35.367  29.623  28.250  1.00  0.00     0.004 C 
ENDBRANCH  15  17
ENDBRANCH  14  15
ENDBRANCH  13  14
BRANCH  13  19
ATOM     19  C   UNL A   1      31.087  28.276  23.849  1.00  0.00     0.099 C 
ATOM     20  C   UNL A   1      32.249  28.332  22.857  1.00  0.00     0.022 C 
ENDBRANCH  13  19
ENDBRANCH  10  13
ENDBRANCH   5  10
ENDBRANCH   2   4
ENDBRANCH   1   2
BRANCH   1  21
ATOM     21  C   UNL A   1      35.440  21.043  24.787  1.00  0.00     0.275 C 
BRANCH  21  22
ATOM     22  C   UNL A   1      36.791  20.395  25.089  1.00  0.00     0.275 C 
BRANCH  22  23
ATOM     23  O   UNL A   1      37.848  21.370  25.000  1.00  0.00    -0.458 OA
BRANCH  23  24
ATOM     24  C   UNL A   1      38.942  21.101  25.747  1.00  0.00     0.338 C 
ATOM     25  O   UNL A   1      39.597  20.073  25.769  1.00  0.00    -0.246 OA
BRANCH  24  26
ATOM     26  C   UNL A   1      39.337  22.301  26.497  1.00  0.00     0.060 A 
ATOM     27  C   UNL A   1      38.754  23.504  26.132  1.00  0.00     0.016 A 
ATOM     28  C   UNL A   1      40.393  22.286  27.406  1.00  0.00     0.016 A 
ATOM     29  C   UNL A   1      39.294  24.701  26.585  1.00  0.00     0.010 A 
ATOM     30  C   UNL A   1      40.888  23.501  27.914  1.00  0.00     0.010 A 
ATOM     31  C   UNL A   1      40.392  24.735  27.455  1.00  0.00    -0.014 A 
BRANCH  31  32
ATOM     32  C   UNL A   1      41.065  26.043  27.761  1.00  0.00     0.031 A 
ATOM     33  C   UNL A   1      42.448  26.341  27.215  1.00  0.00     0.074 A 
ATOM     34  C   UNL A   1      40.429  27.023  28.439  1.00  0.00     0.049 A 
ATOM     35  N   UNL A   1      43.243  27.353  27.468  1.00  0.00    -0.248 NA
ATOM     36  C   UNL A   1      43.016  25.368  26.269  1.00  0.00     0.031 C 
ATOM     37  C   UNL A   1      39.072  26.940  28.981  1.00  0.00     0.029 A 
ATOM     38  N   UNL A   1      40.828  28.302  28.758  1.00  0.00    -0.354 N 
ATOM     39  C   UNL A   1      44.426  27.096  26.782  1.00  0.00     0.074 A 
ATOM     40  C   UNL A   1      44.245  25.834  26.100  1.00  0.00     0.031 C 
ATOM     41  C   UNL A   1      38.723  28.132  29.488  1.00  0.00     0.029 A 
ATOM     42  C   UNL A   1      39.870  29.030  29.425  1.00  0.00     0.049 A 
ATOM     43  H   UNL A   1      41.715  28.661  28.531  1.00  0.00     0.167 HD
ATOM     44  C   UNL A   1      45.561  27.837  26.723  1.00  0.00     0.037 A 
ATOM     45  C   UNL A   1      39.912  30.263  29.972  1.00  0.00     0.037 A 
ATOM     46  C   UNL A   1      45.725  29.133  27.332  1.00  0.00     0.049 A 
ATOM     47  C   UNL A   1      41.189  31.055  29.921  1.00  0.00     0.074 A 
ATOM     48  C   UNL A   1      46.838  29.960  27.314  1.00  0.00     0.029 A 
ATOM     49  N   UNL A   1      44.746  29.803  28.047  1.00  0.00    -0.354 N 
ATOM     50  N   UNL A   1      42.325  30.758  29.339  1.00  0.00    -0.248 NA
ATOM     51  C   UNL A   1      41.196  32.343  30.629  1.00  0.00     0.031 C 
ATOM     52  C   UNL A   1      46.547  31.109  28.056  1.00  0.00     0.029 A 
ATOM     53  C   UNL A   1      45.232  31.026  28.486  1.00  0.00     0.049 A 
ATOM     54  H   UNL A   1      43.838  29.463  28.219  1.00  0.00     0.167 HD
ATOM     55  C   UNL A   1      43.175  31.827  29.599  1.00  0.00     0.074 A 
ATOM     56  C   UNL A   1      42.415  32.791  30.365  1.00  0.00     0.031 C 
ATOM     57  C   UNL A   1      44.472  31.989  29.241  1.00  0.00     0.037 A 
BRANCH  44  58
ATOM     58  C   UNL A   1      46.744  27.246  26.006  1.00  0.00     0.057 A 
ATOM     59  C   UNL A   1      47.695  26.446  26.650  1.00  0.00     0.134 A 
ATOM     60  C   UNL A   1      46.908  27.454  24.628  1.00  0.00     0.134 A 
ATOM     61  F   UNL A   1      47.606  26.214  27.968  1.00  0.00    -0.206 F 
ATOM     62  C   UNL A   1      48.780  25.900  25.960  1.00  0.00     0.040 A 
ATOM     63  C   UNL A   1      47.970  26.888  23.921  1.00  0.00     0.040 A 
ATOM     64  F   UNL A   1      46.028  28.201  23.944  1.00  0.00    -0.206 F 
ATOM     65  C   UNL A   1      48.914  26.114  24.589  1.00  0.00     0.006 A 
ENDBRANCH  44  58
BRANCH  45  66
ATOM     66  C   UNL A   1      38.721  30.808  30.679  1.00  0.00     0.057 A 
ATOM     67  C   UNL A   1      37.815  31.657  30.032  1.00  0.00     0.134 A 
ATOM     68  C   UNL A   1      38.473  30.514  32.026  1.00  0.00     0.134 A 
ATOM     69  F   UNL A   1      38.012  32.005  28.751  1.00  0.00    -0.206 F 
ATOM     70  C   UNL A   1      36.717  32.203  30.700  1.00  0.00     0.040 A 
ATOM     71  C   UNL A   1      37.361  31.023  32.696  1.00  0.00     0.040 A 
ATOM     72  F   UNL A   1      39.306  29.712  32.708  1.00  0.00    -0.206 F 
ATOM     73  C   UNL A   1      36.483  31.877  32.035  1.00  0.00     0.006 A 
ENDBRANCH  45  66
BRANCH  57  74
ATOM     74  C   UNL A   1      45.138  33.277  29.633  1.00  0.00     0.057 A 
ATOM     75  C   UNL A   1      45.848  33.413  30.832  1.00  0.00     0.134 A 
ATOM     76  C   UNL A   1      45.076  34.394  28.789  1.00  0.00     0.134 A 
ATOM     77  F   UNL A   1      45.936  32.386  31.691  1.00  0.00    -0.206 F 
ATOM     78  C   UNL A   1      46.443  34.624  31.196  1.00  0.00     0.040 A 
ATOM     79  C   UNL A   1      45.692  35.601  29.128  1.00  0.00     0.040 A 
ATOM     80  F   UNL A   1      44.421  34.331  27.620  1.00  0.00    -0.206 F 
ATOM     81  C   UNL A   1      46.369  35.721  30.338  1.00  0.00     0.006 A 
ENDBRANCH  57  74
ENDBRANCH  31  32
ENDBRANCH  24  26
ENDBRANCH  23  24
ENDBRANCH  22  23
ENDBRANCH  21  22
ENDBRANCH   1  21
TORSDOF 17
ENDMDL
