MODEL 1
REMARK VINA RESULT:     -10.6      0.000      0.000
REMARK SMILES C[C@]([NH2+]Cc1noc(C2CC2)n1)(C(=O)OCCOC(=O)c1ccc(-c2c3nc(c(-c4c(F)cccc4F)c4ccc([nH]4)c(-c4c(F)cccc4F)c4nc(c(-c5c(F)cccc5F)c5ccc2[nH]5)C=C4)C=C3)cc1)C(F)(F)F
REMARK SMILES IDX 16 1 15 2 13 3 14 4 2 5 1 6 75 7 76 8 77 9 78 10 3 11 4 14
REMARK SMILES IDX 5 15 6 16 12 17 7 18 8 19 9 20 10 21 11 22 17 23 18 24 19 25
REMARK SMILES IDX 20 26 21 27 22 28 74 29 23 30 73 31 24 32 25 33 26 34 67 35
REMARK SMILES IDX 27 36 72 37 66 38 68 39 28 40 71 41 65 42 64 43 29 45 55 46
REMARK SMILES IDX 38 47 54 48 39 49 42 50 53 51 69 52 40 53 41 54 52 56 70 57
REMARK SMILES IDX 43 58 30 59 31 60 36 61 32 62 33 63 35 64 37 65 34 66 56 67
REMARK SMILES IDX 57 68 62 69 58 70 59 71 61 72 63 73 60 74 44 75 45 76 50 77
REMARK SMILES IDX 46 78 47 79 49 80 51 81 48 82
REMARK H PARENT 3 12 3 13 68 44 42 55
REMARK Flexibility Score: inf
ROOT
ATOM      1  C   UNL A   1      35.683  20.324  25.069  1.00  0.00     0.274 C 
ENDROOT
BRANCH   1   2
ATOM      2  O   UNL A   1      35.527  21.752  24.926  1.00  0.00    -0.457 OA
BRANCH   2   3
ATOM      3  C   UNL A   1      34.760  22.387  25.870  1.00  0.00     0.377 C 
ATOM      4  O   UNL A   1      34.750  22.070  27.053  1.00  0.00    -0.244 OA
BRANCH   3   5
ATOM      5  C   UNL A   1      33.822  23.432  25.235  1.00  0.00     0.287 C 
ATOM      6  C   UNL A   1      32.656  23.594  26.226  1.00  0.00     0.103 C 
BRANCH   5   7
ATOM      7  C   UNL A   1      34.614  24.762  25.166  1.00  0.00     0.455 C 
ATOM      8  F   UNL A   1      34.126  25.688  26.020  1.00  0.00    -0.164 F 
ATOM      9  F   UNL A   1      35.909  24.553  25.538  1.00  0.00    -0.164 F 
ATOM     10  F   UNL A   1      34.668  25.311  23.937  1.00  0.00    -0.164 F 
ENDBRANCH   5   7
BRANCH   5  11
ATOM     11  N   UNL A   1      33.321  22.905  23.916  1.00  0.00    -0.318 N 
ATOM     12  H   UNL A   1      34.006  22.238  23.558  1.00  0.00     0.347 HD
ATOM     13  H   UNL A   1      33.197  23.715  23.308  1.00  0.00     0.347 HD
BRANCH  11  14
ATOM     14  C   UNL A   1      32.017  22.231  23.983  1.00  0.00     0.344 C 
BRANCH  14  15
ATOM     15  C   UNL A   1      32.181  20.764  24.237  1.00  0.00     0.226 A 
ATOM     16  N   UNL A   1      31.913  20.194  25.422  1.00  0.00    -0.056 NA
ATOM     17  N   UNL A   1      32.536  19.888  23.242  1.00  0.00    -0.190 NA
ATOM     18  O   UNL A   1      32.152  18.839  25.180  1.00  0.00    -0.339 OA
ATOM     19  C   UNL A   1      32.509  18.729  23.863  1.00  0.00     0.229 A 
BRANCH  19  20
ATOM     20  C   UNL A   1      32.813  17.395  23.199  1.00  0.00     0.079 C 
ATOM     21  C   UNL A   1      34.265  16.990  23.034  1.00  0.00     0.014 C 
ATOM     22  C   UNL A   1      33.416  16.282  24.032  1.00  0.00     0.014 C 
ENDBRANCH  19  20
ENDBRANCH  14  15
ENDBRANCH  11  14
ENDBRANCH   5  11
ENDBRANCH   3   5
ENDBRANCH   2   3
ENDBRANCH   1   2
BRANCH   1  23
ATOM     23  C   UNL A   1      37.152  19.931  24.938  1.00  0.00     0.275 C 
BRANCH  23  24
ATOM     24  O   UNL A   1      37.963  21.070  25.262  1.00  0.00    -0.458 OA
BRANCH  24  25
ATOM     25  C   UNL A   1      39.128  20.810  25.891  1.00  0.00     0.338 C 
ATOM     26  O   UNL A   1      39.675  19.721  26.016  1.00  0.00    -0.246 OA
BRANCH  25  27
ATOM     27  C   UNL A   1      39.676  22.062  26.444  1.00  0.00     0.060 A 
ATOM     28  C   UNL A   1      39.108  23.291  26.111  1.00  0.00     0.016 A 
ATOM     29  C   UNL A   1      40.822  22.022  27.237  1.00  0.00     0.016 A 
ATOM     30  C   UNL A   1      39.728  24.481  26.490  1.00  0.00     0.010 A 
ATOM     31  C   UNL A   1      41.390  23.215  27.696  1.00  0.00     0.010 A 
ATOM     32  C   UNL A   1      40.871  24.460  27.296  1.00  0.00    -0.014 A 
BRANCH  32  33
ATOM     33  C   UNL A   1      41.564  25.723  27.672  1.00  0.00     0.031 A 
ATOM     34  C   UNL A   1      40.851  26.740  28.522  1.00  0.00     0.074 A 
ATOM     35  C   UNL A   1      42.827  25.967  27.269  1.00  0.00     0.049 A 
ATOM     36  N   UNL A   1      41.178  27.983  28.779  1.00  0.00    -0.248 NA
ATOM     37  C   UNL A   1      39.594  26.309  29.153  1.00  0.00     0.031 C 
ATOM     38  C   UNL A   1      43.665  25.053  26.494  1.00  0.00     0.029 A 
ATOM     39  N   UNL A   1      43.627  27.066  27.466  1.00  0.00    -0.354 N 
ATOM     40  C   UNL A   1      40.136  28.498  29.540  1.00  0.00     0.074 A 
ATOM     41  C   UNL A   1      39.170  27.434  29.710  1.00  0.00     0.031 C 
ATOM     42  C   UNL A   1      44.872  25.611  26.313  1.00  0.00     0.029 A 
ATOM     43  C   UNL A   1      44.866  26.954  26.883  1.00  0.00     0.049 A 
ATOM     44  H   UNL A   1      43.341  27.859  27.975  1.00  0.00     0.167 HD
ATOM     45  C   UNL A   1      39.996  29.746  30.046  1.00  0.00     0.037 A 
ATOM     46  C   UNL A   1      45.871  27.844  26.780  1.00  0.00     0.037 A 
ATOM     47  C   UNL A   1      40.990  30.782  29.939  1.00  0.00     0.049 A 
ATOM     48  C   UNL A   1      45.692  29.226  27.339  1.00  0.00     0.074 A 
ATOM     49  C   UNL A   1      40.947  32.076  30.429  1.00  0.00     0.029 A 
ATOM     50  N   UNL A   1      42.220  30.630  29.318  1.00  0.00    -0.354 N 
ATOM     51  N   UNL A   1      44.667  29.730  27.981  1.00  0.00    -0.248 NA
ATOM     52  C   UNL A   1      46.799  30.171  27.134  1.00  0.00     0.031 C 
ATOM     53  C   UNL A   1      42.143  32.715  30.085  1.00  0.00     0.029 A 
ATOM     54  C   UNL A   1      42.943  31.809  29.408  1.00  0.00     0.049 A 
ATOM     55  H   UNL A   1      42.534  29.807  28.878  1.00  0.00     0.167 HD
ATOM     56  C   UNL A   1      45.002  31.048  28.257  1.00  0.00     0.074 A 
ATOM     57  C   UNL A   1      46.337  31.260  27.733  1.00  0.00     0.031 C 
ATOM     58  C   UNL A   1      44.267  32.001  28.879  1.00  0.00     0.037 A 
BRANCH  45  59
ATOM     59  C   UNL A   1      38.704  30.072  30.733  1.00  0.00     0.057 A 
ATOM     60  C   UNL A   1      38.511  29.860  32.102  1.00  0.00     0.134 A 
ATOM     61  C   UNL A   1      37.642  30.628  30.007  1.00  0.00     0.134 A 
ATOM     62  F   UNL A   1      39.481  29.314  32.849  1.00  0.00    -0.206 F 
ATOM     63  C   UNL A   1      37.299  30.170  32.723  1.00  0.00     0.040 A 
ATOM     64  C   UNL A   1      36.434  30.964  30.621  1.00  0.00     0.040 A 
ATOM     65  F   UNL A   1      37.764  30.860  28.691  1.00  0.00    -0.206 F 
ATOM     66  C   UNL A   1      36.258  30.730  31.983  1.00  0.00     0.006 A 
ENDBRANCH  45  59
BRANCH  46  67
ATOM     67  C   UNL A   1      47.124  27.464  26.082  1.00  0.00     0.057 A 
ATOM     68  C   UNL A   1      48.212  26.940  26.787  1.00  0.00     0.134 A 
ATOM     69  C   UNL A   1      47.257  27.601  24.694  1.00  0.00     0.134 A 
ATOM     70  F   UNL A   1      48.152  26.810  28.121  1.00  0.00    -0.206 F 
ATOM     71  C   UNL A   1      49.389  26.566  26.139  1.00  0.00     0.040 A 
ATOM     72  C   UNL A   1      48.419  27.209  24.031  1.00  0.00     0.040 A 
ATOM     73  F   UNL A   1      46.248  28.098  23.964  1.00  0.00    -0.206 F 
ATOM     74  C   UNL A   1      49.491  26.693  24.755  1.00  0.00     0.006 A 
ENDBRANCH  46  67
BRANCH  58  75
ATOM     75  C   UNL A   1      44.899  33.350  29.038  1.00  0.00     0.057 A 
ATOM     76  C   UNL A   1      45.709  33.654  30.139  1.00  0.00     0.134 A 
ATOM     77  C   UNL A   1      44.716  34.344  28.070  1.00  0.00     0.134 A 
ATOM     78  F   UNL A   1      45.909  32.746  31.107  1.00  0.00    -0.206 F 
ATOM     79  C   UNL A   1      46.304  34.908  30.278  1.00  0.00     0.040 A 
ATOM     80  C   UNL A   1      45.321  35.595  28.189  1.00  0.00     0.040 A 
ATOM     81  F   UNL A   1      43.954  34.111  26.990  1.00  0.00    -0.206 F 
ATOM     82  C   UNL A   1      46.114  35.881  29.299  1.00  0.00     0.006 A 
ENDBRANCH  58  75
ENDBRANCH  32  33
ENDBRANCH  25  27
ENDBRANCH  24  25
ENDBRANCH  23  24
ENDBRANCH   1  23
TORSDOF 16
ENDMDL
MODEL 2
REMARK VINA RESULT:     -10.6      4.964      9.458
REMARK SMILES C[C@]([NH2+]Cc1noc(C2CC2)n1)(C(=O)OCCOC(=O)c1ccc(-c2c3nc(c(-c4c(F)cccc4F)c4ccc([nH]4)c(-c4c(F)cccc4F)c4nc(c(-c5c(F)cccc5F)c5ccc2[nH]5)C=C4)C=C3)cc1)C(F)(F)F
REMARK SMILES IDX 16 1 15 2 13 3 14 4 2 5 1 6 75 7 76 8 77 9 78 10 3 11 4 14
REMARK SMILES IDX 5 15 6 16 12 17 7 18 8 19 9 20 10 21 11 22 17 23 18 24 19 25
REMARK SMILES IDX 20 26 21 27 22 28 74 29 23 30 73 31 24 32 25 33 26 34 67 35
REMARK SMILES IDX 27 36 72 37 66 38 68 39 28 40 71 41 65 42 64 43 29 45 55 46
REMARK SMILES IDX 38 47 54 48 39 49 42 50 53 51 69 52 40 53 41 54 52 56 70 57
REMARK SMILES IDX 43 58 30 59 31 60 36 61 32 62 33 63 35 64 37 65 34 66 56 67
REMARK SMILES IDX 57 68 62 69 58 70 59 71 61 72 63 73 60 74 44 75 45 76 50 77
REMARK SMILES IDX 46 78 47 79 49 80 51 81 48 82
REMARK H PARENT 3 12 3 13 68 44 42 55
REMARK Flexibility Score: inf
ROOT
ATOM      1  C   UNL A   1      32.887  29.047  24.246  1.00  0.00     0.274 C 
ENDROOT
BRANCH   1   2
ATOM      2  O   UNL A   1      33.113  27.756  24.849  1.00  0.00    -0.457 OA
BRANCH   2   3
ATOM      3  C   UNL A   1      32.752  26.657  24.111  1.00  0.00     0.377 C 
ATOM      4  O   UNL A   1      33.187  26.429  22.989  1.00  0.00    -0.244 OA
BRANCH   3   5
ATOM      5  C   UNL A   1      31.641  25.844  24.802  1.00  0.00     0.287 C 
ATOM      6  C   UNL A   1      31.378  24.640  23.880  1.00  0.00     0.103 C 
BRANCH   5   7
ATOM      7  C   UNL A   1      32.226  25.335  26.143  1.00  0.00     0.455 C 
ATOM      8  F   UNL A   1      33.536  25.020  26.038  1.00  0.00    -0.164 F 
ATOM      9  F   UNL A   1      32.148  26.314  27.088  1.00  0.00    -0.164 F 
ATOM     10  F   UNL A   1      31.580  24.271  26.661  1.00  0.00    -0.164 F 
ENDBRANCH   5   7
BRANCH   5  11
ATOM     11  N   UNL A   1      30.406  26.698  24.915  1.00  0.00    -0.318 N 
ATOM     12  H   UNL A   1      30.698  27.672  25.005  1.00  0.00     0.347 HD
ATOM     13  H   UNL A   1      29.891  26.359  25.728  1.00  0.00     0.347 HD
BRANCH  11  14
ATOM     14  C   UNL A   1      29.488  26.599  23.771  1.00  0.00     0.344 C 
BRANCH  14  15
ATOM     15  C   UNL A   1      29.413  27.897  23.027  1.00  0.00     0.226 A 
ATOM     16  N   UNL A   1      30.275  28.230  22.054  1.00  0.00    -0.056 NA
ATOM     17  N   UNL A   1      28.398  28.797  23.233  1.00  0.00    -0.190 NA
ATOM     18  O   UNL A   1      29.797  29.470  21.622  1.00  0.00    -0.339 OA
ATOM     19  C   UNL A   1      28.675  29.740  22.359  1.00  0.00     0.229 A 
BRANCH  19  20
ATOM     20  C   UNL A   1      27.835  30.991  22.155  1.00  0.00     0.079 C 
ATOM     21  C   UNL A   1      28.403  32.320  22.616  1.00  0.00     0.014 C 
ATOM     22  C   UNL A   1      28.301  32.033  21.158  1.00  0.00     0.014 C 
ENDBRANCH  19  20
ENDBRANCH  14  15
ENDBRANCH  11  14
ENDBRANCH   5  11
ENDBRANCH   3   5
ENDBRANCH   2   3
ENDBRANCH   1   2
BRANCH   1  23
ATOM     23  C   UNL A   1      31.832  29.827  25.027  1.00  0.00     0.275 C 
BRANCH  23  24
ATOM     24  O   UNL A   1      32.207  29.842  26.413  1.00  0.00    -0.458 OA
BRANCH  24  25
ATOM     25  C   UNL A   1      32.675  31.015  26.888  1.00  0.00     0.338 C 
ATOM     26  O   UNL A   1      32.115  32.104  26.855  1.00  0.00    -0.246 OA
BRANCH  25  27
ATOM     27  C   UNL A   1      34.014  30.808  27.469  1.00  0.00     0.060 A 
ATOM     28  C   UNL A   1      34.523  29.521  27.637  1.00  0.00     0.016 A 
ATOM     29  C   UNL A   1      34.742  31.905  27.932  1.00  0.00     0.016 A 
ATOM     30  C   UNL A   1      35.707  29.315  28.342  1.00  0.00     0.010 A 
ATOM     31  C   UNL A   1      35.977  31.703  28.555  1.00  0.00     0.010 A 
ATOM     32  C   UNL A   1      36.456  30.404  28.802  1.00  0.00    -0.014 A 
BRANCH  32  33
ATOM     33  C   UNL A   1      37.701  30.195  29.591  1.00  0.00     0.031 A 
ATOM     34  C   UNL A   1      38.843  29.418  28.992  1.00  0.00     0.074 A 
ATOM     35  C   UNL A   1      37.827  30.700  30.834  1.00  0.00     0.049 A 
ATOM     36  N   UNL A   1      39.914  28.936  29.573  1.00  0.00    -0.248 NA
ATOM     37  C   UNL A   1      38.761  29.128  27.552  1.00  0.00     0.031 C 
ATOM     38  C   UNL A   1      36.834  31.524  31.524  1.00  0.00     0.029 A 
ATOM     39  N   UNL A   1      38.856  30.595  31.738  1.00  0.00    -0.354 N 
ATOM     40  C   UNL A   1      40.593  28.230  28.588  1.00  0.00     0.074 A 
ATOM     41  C   UNL A   1      39.819  28.352  27.371  1.00  0.00     0.031 C 
ATOM     42  C   UNL A   1      37.315  31.880  32.724  1.00  0.00     0.029 A 
ATOM     43  C   UNL A   1      38.611  31.242  32.925  1.00  0.00     0.049 A 
ATOM     44  H   UNL A   1      39.688  30.103  31.554  1.00  0.00     0.167 HD
ATOM     45  C   UNL A   1      41.753  27.539  28.690  1.00  0.00     0.037 A 
ATOM     46  C   UNL A   1      39.327  31.284  34.065  1.00  0.00     0.037 A 
ATOM     47  C   UNL A   1      42.559  27.479  29.881  1.00  0.00     0.049 A 
ATOM     48  C   UNL A   1      40.606  30.503  34.161  1.00  0.00     0.074 A 
ATOM     49  C   UNL A   1      43.758  26.816  30.081  1.00  0.00     0.029 A 
ATOM     50  N   UNL A   1      42.259  28.130  31.068  1.00  0.00    -0.354 N 
ATOM     51  N   UNL A   1      41.195  29.768  33.251  1.00  0.00    -0.248 NA
ATOM     52  C   UNL A   1      41.304  30.535  35.454  1.00  0.00     0.031 C 
ATOM     53  C   UNL A   1      44.173  27.048  31.397  1.00  0.00     0.029 A 
ATOM     54  C   UNL A   1      43.248  27.880  32.006  1.00  0.00     0.049 A 
ATOM     55  H   UNL A   1      41.462  28.687  31.221  1.00  0.00     0.167 HD
ATOM     56  C   UNL A   1      42.331  29.250  33.857  1.00  0.00     0.074 A 
ATOM     57  C   UNL A   1      42.362  29.775  35.208  1.00  0.00     0.031 C 
ATOM     58  C   UNL A   1      43.260  28.408  33.344  1.00  0.00     0.037 A 
BRANCH  45  59
ATOM     59  C   UNL A   1      42.202  26.762  27.489  1.00  0.00     0.057 A 
ATOM     60  C   UNL A   1      43.008  27.326  26.493  1.00  0.00     0.134 A 
ATOM     61  C   UNL A   1      41.836  25.417  27.343  1.00  0.00     0.134 A 
ATOM     62  F   UNL A   1      43.378  28.612  26.565  1.00  0.00    -0.206 F 
ATOM     63  C   UNL A   1      43.416  26.584  25.382  1.00  0.00     0.040 A 
ATOM     64  C   UNL A   1      42.257  24.660  26.249  1.00  0.00     0.040 A 
ATOM     65  F   UNL A   1      41.069  24.817  28.265  1.00  0.00    -0.206 F 
ATOM     66  C   UNL A   1      43.045  25.246  25.261  1.00  0.00     0.006 A 
ENDBRANCH  45  59
BRANCH  46  67
ATOM     67  C   UNL A   1      38.825  32.065  35.222  1.00  0.00     0.057 A 
ATOM     68  C   UNL A   1      38.990  33.452  35.282  1.00  0.00     0.134 A 
ATOM     69  C   UNL A   1      38.157  31.446  36.286  1.00  0.00     0.134 A 
ATOM     70  F   UNL A   1      39.646  34.097  34.304  1.00  0.00    -0.206 F 
ATOM     71  C   UNL A   1      38.510  34.199  36.358  1.00  0.00     0.040 A 
ATOM     72  C   UNL A   1      37.650  32.183  37.357  1.00  0.00     0.040 A 
ATOM     73  F   UNL A   1      37.968  30.119  36.287  1.00  0.00    -0.206 F 
ATOM     74  C   UNL A   1      37.830  33.564  37.396  1.00  0.00     0.006 A 
ENDBRANCH  46  67
BRANCH  58  75
ATOM     75  C   UNL A   1      44.392  28.017  34.244  1.00  0.00     0.057 A 
ATOM     76  C   UNL A   1      45.524  28.828  34.391  1.00  0.00     0.134 A 
ATOM     77  C   UNL A   1      44.337  26.833  34.989  1.00  0.00     0.134 A 
ATOM     78  F   UNL A   1      45.639  29.967  33.692  1.00  0.00    -0.206 F 
ATOM     79  C   UNL A   1      46.572  28.465  35.238  1.00  0.00     0.040 A 
ATOM     80  C   UNL A   1      45.371  26.470  35.853  1.00  0.00     0.040 A 
ATOM     81  F   UNL A   1      43.276  26.017  34.894  1.00  0.00    -0.206 F 
ATOM     82  C   UNL A   1      46.494  27.285  35.976  1.00  0.00     0.006 A 
ENDBRANCH  58  75
ENDBRANCH  32  33
ENDBRANCH  25  27
ENDBRANCH  24  25
ENDBRANCH  23  24
ENDBRANCH   1  23
TORSDOF 16
ENDMDL
MODEL 3
REMARK VINA RESULT:     -10.4      1.066      2.083
REMARK SMILES C[C@]([NH2+]Cc1noc(C2CC2)n1)(C(=O)OCCOC(=O)c1ccc(-c2c3nc(c(-c4c(F)cccc4F)c4ccc([nH]4)c(-c4c(F)cccc4F)c4nc(c(-c5c(F)cccc5F)c5ccc2[nH]5)C=C4)C=C3)cc1)C(F)(F)F
REMARK SMILES IDX 16 1 15 2 13 3 14 4 2 5 1 6 75 7 76 8 77 9 78 10 3 11 4 14
REMARK SMILES IDX 5 15 6 16 12 17 7 18 8 19 9 20 10 21 11 22 17 23 18 24 19 25
REMARK SMILES IDX 20 26 21 27 22 28 74 29 23 30 73 31 24 32 25 33 26 34 67 35
REMARK SMILES IDX 27 36 72 37 66 38 68 39 28 40 71 41 65 42 64 43 29 45 55 46
REMARK SMILES IDX 38 47 54 48 39 49 42 50 53 51 69 52 40 53 41 54 52 56 70 57
REMARK SMILES IDX 43 58 30 59 31 60 36 61 32 62 33 63 35 64 37 65 34 66 56 67
REMARK SMILES IDX 57 68 62 69 58 70 59 71 61 72 63 73 60 74 44 75 45 76 50 77
REMARK SMILES IDX 46 78 47 79 49 80 51 81 48 82
REMARK H PARENT 3 12 3 13 68 44 42 55
REMARK Flexibility Score: inf
ROOT
ATOM      1  C   UNL A   1      36.778  22.602  23.478  1.00  0.00     0.274 C 
ENDROOT
BRANCH   1   2
ATOM      2  O   UNL A   1      35.804  23.454  24.118  1.00  0.00    -0.457 OA
BRANCH   2   3
ATOM      3  C   UNL A   1      34.572  23.540  23.522  1.00  0.00     0.377 C 
ATOM      4  O   UNL A   1      34.380  23.299  22.336  1.00  0.00    -0.244 OA
BRANCH   3   5
ATOM      5  C   UNL A   1      33.511  24.110  24.483  1.00  0.00     0.287 C 
ATOM      6  C   UNL A   1      34.272  24.465  25.772  1.00  0.00     0.103 C 
BRANCH   5   7
ATOM      7  C   UNL A   1      32.975  25.412  23.838  1.00  0.00     0.455 C 
ATOM      8  F   UNL A   1      32.085  25.162  22.852  1.00  0.00    -0.164 F 
ATOM      9  F   UNL A   1      32.308  26.153  24.768  1.00  0.00    -0.164 F 
ATOM     10  F   UNL A   1      33.933  26.220  23.342  1.00  0.00    -0.164 F 
ENDBRANCH   5   7
BRANCH   5  11
ATOM     11  N   UNL A   1      32.478  23.048  24.758  1.00  0.00    -0.318 N 
ATOM     12  H   UNL A   1      32.344  22.505  23.904  1.00  0.00     0.347 HD
ATOM     13  H   UNL A   1      31.634  23.535  25.058  1.00  0.00     0.347 HD
BRANCH  11  14
ATOM     14  C   UNL A   1      32.831  22.119  25.842  1.00  0.00     0.344 C 
BRANCH  14  15
ATOM     15  C   UNL A   1      32.877  20.707  25.347  1.00  0.00     0.226 A 
ATOM     16  N   UNL A   1      31.778  20.019  25.001  1.00  0.00    -0.056 NA
ATOM     17  N   UNL A   1      34.062  20.050  25.130  1.00  0.00    -0.190 NA
ATOM     18  O   UNL A   1      32.297  18.799  24.559  1.00  0.00    -0.339 OA
ATOM     19  C   UNL A   1      33.660  18.892  24.655  1.00  0.00     0.229 A 
BRANCH  19  20
ATOM     20  C   UNL A   1      34.595  17.771  24.226  1.00  0.00     0.079 C 
ATOM     21  C   UNL A   1      34.462  16.424  24.910  1.00  0.00     0.014 C 
ATOM     22  C   UNL A   1      34.019  16.575  23.496  1.00  0.00     0.014 C 
ENDBRANCH  19  20
ENDBRANCH  14  15
ENDBRANCH  11  14
ENDBRANCH   5  11
ENDBRANCH   3   5
ENDBRANCH   2   3
ENDBRANCH   1   2
BRANCH   1  23
ATOM     23  C   UNL A   1      37.016  21.343  24.306  1.00  0.00     0.275 C 
BRANCH  23  24
ATOM     24  O   UNL A   1      37.415  21.732  25.628  1.00  0.00    -0.458 OA
BRANCH  24  25
ATOM     25  C   UNL A   1      38.684  21.434  25.977  1.00  0.00     0.338 C 
ATOM     26  O   UNL A   1      39.237  20.343  25.898  1.00  0.00    -0.246 OA
BRANCH  25  27
ATOM     27  C   UNL A   1      39.345  22.643  26.502  1.00  0.00     0.060 A 
ATOM     28  C   UNL A   1      38.884  23.911  26.150  1.00  0.00     0.016 A 
ATOM     29  C   UNL A   1      40.490  22.517  27.289  1.00  0.00     0.016 A 
ATOM     30  C   UNL A   1      39.609  25.049  26.501  1.00  0.00     0.010 A 
ATOM     31  C   UNL A   1      41.163  23.663  27.721  1.00  0.00     0.010 A 
ATOM     32  C   UNL A   1      40.753  24.942  27.301  1.00  0.00    -0.014 A 
BRANCH  32  33
ATOM     33  C   UNL A   1      41.557  26.145  27.648  1.00  0.00     0.031 A 
ATOM     34  C   UNL A   1      40.953  27.225  28.505  1.00  0.00     0.074 A 
ATOM     35  C   UNL A   1      42.825  26.281  27.212  1.00  0.00     0.049 A 
ATOM     36  N   UNL A   1      41.388  28.438  28.742  1.00  0.00    -0.248 NA
ATOM     37  C   UNL A   1      39.680  26.904  29.170  1.00  0.00     0.031 C 
ATOM     38  C   UNL A   1      43.566  25.295  26.425  1.00  0.00     0.029 A 
ATOM     39  N   UNL A   1      43.719  27.311  27.379  1.00  0.00    -0.354 N 
ATOM     40  C   UNL A   1      40.412  29.044  29.523  1.00  0.00     0.074 A 
ATOM     41  C   UNL A   1      39.365  28.065  29.726  1.00  0.00     0.031 C 
ATOM     42  C   UNL A   1      44.810  25.749  26.210  1.00  0.00     0.029 A 
ATOM     43  C   UNL A   1      44.930  27.091  26.767  1.00  0.00     0.049 A 
ATOM     44  H   UNL A   1      43.512  28.128  27.887  1.00  0.00     0.167 HD
ATOM     45  C   UNL A   1      40.388  30.303  30.020  1.00  0.00     0.037 A 
ATOM     46  C   UNL A   1      46.002  27.894  26.631  1.00  0.00     0.037 A 
ATOM     47  C   UNL A   1      41.461  31.252  29.879  1.00  0.00     0.049 A 
ATOM     48  C   UNL A   1      45.952  29.291  27.182  1.00  0.00     0.074 A 
ATOM     49  C   UNL A   1      41.538  32.549  30.357  1.00  0.00     0.029 A 
ATOM     50  N   UNL A   1      42.659  30.994  29.230  1.00  0.00    -0.354 N 
ATOM     51  N   UNL A   1      44.988  29.883  27.843  1.00  0.00    -0.248 NA
ATOM     52  C   UNL A   1      47.128  30.138  26.940  1.00  0.00     0.031 C 
ATOM     53  C   UNL A   1      42.774  33.083  29.979  1.00  0.00     0.029 A 
ATOM     54  C   UNL A   1      43.479  32.109  29.291  1.00  0.00     0.049 A 
ATOM     55  H   UNL A   1      42.892  30.144  28.790  1.00  0.00     0.167 HD
ATOM     56  C   UNL A   1      45.439  31.171  28.098  1.00  0.00     0.074 A 
ATOM     57  C   UNL A   1      46.773  31.267  27.540  1.00  0.00     0.031 C 
ATOM     58  C   UNL A   1      44.801  32.186  28.729  1.00  0.00     0.037 A 
BRANCH  45  59
ATOM     59  C   UNL A   1      39.145  30.740  30.734  1.00  0.00     0.057 A 
ATOM     60  C   UNL A   1      38.076  31.352  30.069  1.00  0.00     0.134 A 
ATOM     61  C   UNL A   1      39.010  30.522  32.112  1.00  0.00     0.134 A 
ATOM     62  F   UNL A   1      38.149  31.605  28.754  1.00  0.00    -0.206 F 
ATOM     63  C   UNL A   1      36.925  31.751  30.753  1.00  0.00     0.040 A 
ATOM     64  C   UNL A   1      37.856  30.895  32.802  1.00  0.00     0.040 A 
ATOM     65  F   UNL A   1      39.996  29.936  32.808  1.00  0.00    -0.206 F 
ATOM     66  C   UNL A   1      36.811  31.517  32.122  1.00  0.00     0.006 A 
ENDBRANCH  45  59
BRANCH  46  67
ATOM     67  C   UNL A   1      47.201  27.406  25.907  1.00  0.00     0.057 A 
ATOM     68  C   UNL A   1      47.300  27.520  24.517  1.00  0.00     0.134 A 
ATOM     69  C   UNL A   1      48.281  26.830  26.588  1.00  0.00     0.134 A 
ATOM     70  F   UNL A   1      46.286  28.040  23.809  1.00  0.00    -0.206 F 
ATOM     71  C   UNL A   1      48.428  27.078  23.827  1.00  0.00     0.040 A 
ATOM     72  C   UNL A   1      49.426  26.405  25.913  1.00  0.00     0.040 A 
ATOM     73  F   UNL A   1      48.245  26.693  27.921  1.00  0.00    -0.206 F 
ATOM     74  C   UNL A   1      49.500  26.525  24.527  1.00  0.00     0.006 A 
ENDBRANCH  46  67
BRANCH  58  75
ATOM     75  C   UNL A   1      45.546  33.479  28.859  1.00  0.00     0.057 A 
ATOM     76  C   UNL A   1      45.425  34.494  27.903  1.00  0.00     0.134 A 
ATOM     77  C   UNL A   1      46.372  33.720  29.964  1.00  0.00     0.134 A 
ATOM     78  F   UNL A   1      44.660  34.315  26.815  1.00  0.00    -0.206 F 
ATOM     79  C   UNL A   1      46.113  35.701  28.033  1.00  0.00     0.040 A 
ATOM     80  C   UNL A   1      47.050  34.930  30.114  1.00  0.00     0.040 A 
ATOM     81  F   UNL A   1      46.524  32.787  30.917  1.00  0.00    -0.206 F 
ATOM     82  C   UNL A   1      46.925  35.922  29.145  1.00  0.00     0.006 A 
ENDBRANCH  58  75
ENDBRANCH  32  33
ENDBRANCH  25  27
ENDBRANCH  24  25
ENDBRANCH  23  24
ENDBRANCH   1  23
TORSDOF 16
ENDMDL
