MODEL 1
REMARK VINA RESULT:     -11.7      0.000      0.000
REMARK SMILES O=C(CN(Cc1ccccc1Cl)S(=O)(=O)c1ccc(Cl)cc1)OCCOC(=O)c1ccc(-c2c3nc(c(-c4c(F)cccc4F)c4ccc([nH]4)c(-c4c(F)cccc4F)c4nc(c(-c5c(F)cccc5F)c5ccc2[nH]5)C=C4)C=C3)cc1
REMARK SMILES IDX 24 1 23 2 2 3 1 4 3 5 4 6 5 7 6 8 7 9 11 10 8 11 10 12 12 13
REMARK SMILES IDX 9 14 13 15 14 16 15 17 16 18 17 19 22 20 18 21 21 22 19 23
REMARK SMILES IDX 20 24 25 25 26 26 27 27 28 28 29 29 30 30 82 31 31 32 81 33
REMARK SMILES IDX 32 34 33 35 34 36 75 37 35 38 80 39 74 40 76 41 36 42 79 43
REMARK SMILES IDX 73 44 72 45 37 47 63 48 46 49 62 50 47 51 50 52 61 53 77 54
REMARK SMILES IDX 48 55 49 56 60 58 78 59 51 60 38 61 39 62 44 63 40 64 41 65
REMARK SMILES IDX 43 66 45 67 42 68 64 69 65 70 70 71 66 72 67 73 69 74 71 75
REMARK SMILES IDX 68 76 52 77 53 78 58 79 54 80 55 81 57 82 59 83 56 84
REMARK H PARENT 76 46 50 57
REMARK Flexibility Score: inf
ROOT
ATOM      1  C   UNL A   1      31.316  28.103  25.378  1.00  0.00     0.274 C 
ENDROOT
BRANCH   1   2
ATOM      2  O   UNL A   1      30.682  27.339  24.332  1.00  0.00    -0.461 OA
BRANCH   2   3
ATOM      3  C   UNL A   1      30.315  26.039  24.446  1.00  0.00     0.321 C 
ATOM      4  O   UNL A   1      29.571  25.677  25.355  1.00  0.00    -0.251 OA
BRANCH   3   5
ATOM      5  C   UNL A   1      30.912  25.050  23.485  1.00  0.00     0.225 C 
BRANCH   5   6
ATOM      6  N   UNL A   1      32.110  24.227  23.923  1.00  0.00    -0.182 NA
BRANCH   6   7
ATOM      7  C   UNL A   1      31.763  22.792  23.985  1.00  0.00     0.140 C 
BRANCH   7   8
ATOM      8  C   UNL A   1      32.158  22.139  25.286  1.00  0.00    -0.014 A 
ATOM      9  C   UNL A   1      32.151  22.829  26.528  1.00  0.00     0.006 A 
ATOM     10  C   UNL A   1      32.898  20.989  25.197  1.00  0.00     0.045 A 
ATOM     11  C   UNL A   1      33.084  22.573  27.522  1.00  0.00     0.000 A 
ATOM     12  C   UNL A   1      33.886  20.835  26.130  1.00  0.00     0.021 A 
ATOM     13  Cl  UNL A   1      32.792  19.844  23.913  1.00  0.00    -0.084 Cl
ATOM     14  C   UNL A   1      34.028  21.619  27.275  1.00  0.00     0.002 A 
ENDBRANCH   7   8
ENDBRANCH   6   7
BRANCH   6  15
ATOM     15  S   UNL A   1      33.538  24.745  23.154  1.00  0.00     0.243 S 
ATOM     16  O   UNL A   1      33.549  24.253  21.794  1.00  0.00    -0.207 OA
ATOM     17  O   UNL A   1      33.592  26.170  23.410  1.00  0.00    -0.207 OA
BRANCH  15  18
ATOM     18  C   UNL A   1      34.986  24.021  23.948  1.00  0.00     0.082 A 
ATOM     19  C   UNL A   1      35.475  24.363  25.219  1.00  0.00     0.023 A 
ATOM     20  C   UNL A   1      35.580  22.944  23.288  1.00  0.00     0.023 A 
ATOM     21  C   UNL A   1      36.563  23.706  25.792  1.00  0.00     0.022 A 
ATOM     22  C   UNL A   1      36.653  22.261  23.874  1.00  0.00     0.022 A 
ATOM     23  C   UNL A   1      37.150  22.654  25.115  1.00  0.00     0.041 A 
ATOM     24  Cl  UNL A   1      38.473  21.827  25.830  1.00  0.00    -0.084 Cl
ENDBRANCH  15  18
ENDBRANCH   6  15
ENDBRANCH   5   6
ENDBRANCH   3   5
ENDBRANCH   2   3
ENDBRANCH   1   2
BRANCH   1  25
ATOM     25  C   UNL A   1      31.568  29.554  24.946  1.00  0.00     0.275 C 
BRANCH  25  26
ATOM     26  O   UNL A   1      32.810  30.083  25.471  1.00  0.00    -0.458 OA
BRANCH  26  27
ATOM     27  C   UNL A   1      32.709  30.961  26.508  1.00  0.00     0.338 C 
ATOM     28  O   UNL A   1      31.767  31.680  26.753  1.00  0.00    -0.246 OA
BRANCH  27  29
ATOM     29  C   UNL A   1      33.888  30.814  27.408  1.00  0.00     0.060 A 
ATOM     30  C   UNL A   1      34.381  29.529  27.662  1.00  0.00     0.016 A 
ATOM     31  C   UNL A   1      34.513  31.919  28.002  1.00  0.00     0.016 A 
ATOM     32  C   UNL A   1      35.538  29.360  28.446  1.00  0.00     0.010 A 
ATOM     33  C   UNL A   1      35.665  31.748  28.798  1.00  0.00     0.010 A 
ATOM     34  C   UNL A   1      36.226  30.472  28.989  1.00  0.00    -0.014 A 
BRANCH  34  35
ATOM     35  C   UNL A   1      37.459  30.264  29.822  1.00  0.00     0.031 A 
ATOM     36  C   UNL A   1      38.603  29.631  29.119  1.00  0.00     0.074 A 
ATOM     37  C   UNL A   1      37.612  30.548  31.140  1.00  0.00     0.049 A 
ATOM     38  N   UNL A   1      39.709  29.175  29.632  1.00  0.00    -0.248 NA
ATOM     39  C   UNL A   1      38.403  29.336  27.694  1.00  0.00     0.031 C 
ATOM     40  C   UNL A   1      36.554  30.888  32.066  1.00  0.00     0.029 A 
ATOM     41  N   UNL A   1      38.726  30.643  31.950  1.00  0.00    -0.354 N 
ATOM     42  C   UNL A   1      40.279  28.423  28.626  1.00  0.00     0.074 A 
ATOM     43  C   UNL A   1      39.415  28.519  27.469  1.00  0.00     0.031 C 
ATOM     44  C   UNL A   1      37.045  31.477  33.162  1.00  0.00     0.029 A 
ATOM     45  C   UNL A   1      38.471  31.220  33.185  1.00  0.00     0.049 A 
ATOM     46  H   UNL A   1      39.619  30.330  31.676  1.00  0.00     0.167 HD
ATOM     47  C   UNL A   1      41.392  27.663  28.703  1.00  0.00     0.037 A 
ATOM     48  C   UNL A   1      39.234  31.393  34.287  1.00  0.00     0.037 A 
ATOM     49  C   UNL A   1      42.210  27.568  29.880  1.00  0.00     0.049 A 
ATOM     50  C   UNL A   1      40.532  30.646  34.310  1.00  0.00     0.074 A 
ATOM     51  C   UNL A   1      43.378  26.852  30.054  1.00  0.00     0.029 A 
ATOM     52  N   UNL A   1      41.944  28.205  31.089  1.00  0.00    -0.354 N 
ATOM     53  N   UNL A   1      41.054  29.907  33.363  1.00  0.00    -0.248 NA
ATOM     54  C   UNL A   1      41.284  30.643  35.570  1.00  0.00     0.031 C 
ATOM     55  C   UNL A   1      43.803  27.030  31.375  1.00  0.00     0.029 A 
ATOM     56  C   UNL A   1      42.935  27.907  32.009  1.00  0.00     0.049 A 
ATOM     57  H   UNL A   1      41.165  28.781  31.264  1.00  0.00     0.167 HD
ATOM     58  C   UNL A   1      42.176  29.319  33.917  1.00  0.00     0.074 A 
ATOM     59  C   UNL A   1      42.281  29.819  35.276  1.00  0.00     0.031 C 
ATOM     60  C   UNL A   1      43.025  28.428  33.353  1.00  0.00     0.037 A 
BRANCH  47  61
ATOM     61  C   UNL A   1      41.682  26.822  27.499  1.00  0.00     0.057 A 
ATOM     62  C   UNL A   1      41.274  25.484  27.409  1.00  0.00     0.134 A 
ATOM     63  C   UNL A   1      42.493  27.324  26.474  1.00  0.00     0.134 A 
ATOM     64  F   UNL A   1      40.535  24.932  28.385  1.00  0.00    -0.206 F 
ATOM     65  C   UNL A   1      41.716  24.657  26.377  1.00  0.00     0.040 A 
ATOM     66  C   UNL A   1      42.904  26.517  25.413  1.00  0.00     0.040 A 
ATOM     67  F   UNL A   1      42.932  28.591  26.507  1.00  0.00    -0.206 F 
ATOM     68  C   UNL A   1      42.533  25.174  25.375  1.00  0.00     0.006 A 
ENDBRANCH  47  61
BRANCH  48  69
ATOM     69  C   UNL A   1      38.733  32.115  35.498  1.00  0.00     0.057 A 
ATOM     70  C   UNL A   1      38.153  31.420  36.569  1.00  0.00     0.134 A 
ATOM     71  C   UNL A   1      38.831  33.507  35.637  1.00  0.00     0.134 A 
ATOM     72  F   UNL A   1      37.966  30.094  36.490  1.00  0.00    -0.206 F 
ATOM     73  C   UNL A   1      37.730  32.071  37.735  1.00  0.00     0.040 A 
ATOM     74  C   UNL A   1      38.456  34.166  36.812  1.00  0.00     0.040 A 
ATOM     75  F   UNL A   1      39.332  34.254  34.643  1.00  0.00    -0.206 F 
ATOM     76  C   UNL A   1      37.905  33.447  37.868  1.00  0.00     0.006 A 
ENDBRANCH  48  69
BRANCH  60  77
ATOM     77  C   UNL A   1      44.197  28.008  34.180  1.00  0.00     0.057 A 
ATOM     78  C   UNL A   1      45.395  28.729  34.207  1.00  0.00     0.134 A 
ATOM     79  C   UNL A   1      44.095  26.875  34.996  1.00  0.00     0.134 A 
ATOM     80  F   UNL A   1      45.559  29.810  33.428  1.00  0.00    -0.206 F 
ATOM     81  C   UNL A   1      46.459  28.332  35.017  1.00  0.00     0.040 A 
ATOM     82  C   UNL A   1      45.140  26.483  35.828  1.00  0.00     0.040 A 
ATOM     83  F   UNL A   1      42.969  26.145  35.007  1.00  0.00    -0.206 F 
ATOM     84  C   UNL A   1      46.327  27.212  35.838  1.00  0.00     0.006 A 
ENDBRANCH  60  77
ENDBRANCH  34  35
ENDBRANCH  27  29
ENDBRANCH  26  27
ENDBRANCH  25  26
ENDBRANCH   1  25
TORSDOF 16
ENDMDL
MODEL 2
REMARK VINA RESULT:     -11.5      3.911      8.715
REMARK SMILES O=C(CN(Cc1ccccc1Cl)S(=O)(=O)c1ccc(Cl)cc1)OCCOC(=O)c1ccc(-c2c3nc(c(-c4c(F)cccc4F)c4ccc([nH]4)c(-c4c(F)cccc4F)c4nc(c(-c5c(F)cccc5F)c5ccc2[nH]5)C=C4)C=C3)cc1
REMARK SMILES IDX 24 1 23 2 2 3 1 4 3 5 4 6 5 7 6 8 7 9 11 10 8 11 10 12 12 13
REMARK SMILES IDX 9 14 13 15 14 16 15 17 16 18 17 19 22 20 18 21 21 22 19 23
REMARK SMILES IDX 20 24 25 25 26 26 27 27 28 28 29 29 30 30 82 31 31 32 81 33
REMARK SMILES IDX 32 34 33 35 34 36 75 37 35 38 80 39 74 40 76 41 36 42 79 43
REMARK SMILES IDX 73 44 72 45 37 47 63 48 46 49 62 50 47 51 50 52 61 53 77 54
REMARK SMILES IDX 48 55 49 56 60 58 78 59 51 60 38 61 39 62 44 63 40 64 41 65
REMARK SMILES IDX 43 66 45 67 42 68 64 69 65 70 70 71 66 72 67 73 69 74 71 75
REMARK SMILES IDX 68 76 52 77 53 78 58 79 54 80 55 81 57 82 59 83 56 84
REMARK H PARENT 76 46 50 57
REMARK Flexibility Score: inf
ROOT
ATOM      1  C   UNL A   1      34.156  21.130  25.184  1.00  0.00     0.274 C 
ENDROOT
BRANCH   1   2
ATOM      2  O   UNL A   1      33.458  21.259  23.928  1.00  0.00    -0.461 OA
BRANCH   2   3
ATOM      3  C   UNL A   1      32.955  22.422  23.446  1.00  0.00     0.321 C 
ATOM      4  O   UNL A   1      33.513  23.009  22.521  1.00  0.00    -0.251 OA
BRANCH   3   5
ATOM      5  C   UNL A   1      31.753  23.008  24.130  1.00  0.00     0.225 C 
BRANCH   5   6
ATOM      6  N   UNL A   1      31.700  24.506  24.372  1.00  0.00    -0.182 NA
BRANCH   6   7
ATOM      7  C   UNL A   1      30.821  25.163  23.382  1.00  0.00     0.140 C 
BRANCH   7   8
ATOM      8  C   UNL A   1      31.435  26.397  22.768  1.00  0.00    -0.014 A 
ATOM      9  C   UNL A   1      32.773  26.438  22.294  1.00  0.00     0.006 A 
ATOM     10  C   UNL A   1      30.812  27.590  23.031  1.00  0.00     0.045 A 
ATOM     11  C   UNL A   1      33.558  27.579  22.390  1.00  0.00     0.000 A 
ATOM     12  C   UNL A   1      31.632  28.665  23.234  1.00  0.00     0.021 A 
ATOM     13  Cl  UNL A   1      29.119  27.781  23.297  1.00  0.00    -0.084 Cl
ATOM     14  C   UNL A   1      32.999  28.686  22.959  1.00  0.00     0.002 A 
ENDBRANCH   7   8
ENDBRANCH   6   7
BRANCH   6  15
ATOM     15  S   UNL A   1      31.565  24.867  26.030  1.00  0.00     0.243 S 
ATOM     16  O   UNL A   1      30.166  24.954  26.384  1.00  0.00    -0.207 OA
ATOM     17  O   UNL A   1      32.418  23.894  26.683  1.00  0.00    -0.207 OA
BRANCH  15  18
ATOM     18  C   UNL A   1      32.263  26.490  26.387  1.00  0.00     0.082 A 
ATOM     19  C   UNL A   1      33.588  26.880  26.139  1.00  0.00     0.023 A 
ATOM     20  C   UNL A   1      31.366  27.467  26.823  1.00  0.00     0.023 A 
ATOM     21  C   UNL A   1      34.033  28.179  26.380  1.00  0.00     0.022 A 
ATOM     22  C   UNL A   1      31.801  28.781  27.037  1.00  0.00     0.022 A 
ATOM     23  C   UNL A   1      33.134  29.127  26.830  1.00  0.00     0.041 A 
ATOM     24  Cl  UNL A   1      33.674  30.734  27.103  1.00  0.00    -0.084 Cl
ENDBRANCH  15  18
ENDBRANCH   6  15
ENDBRANCH   5   6
ENDBRANCH   3   5
ENDBRANCH   2   3
ENDBRANCH   1   2
BRANCH   1  25
ATOM     25  C   UNL A   1      35.592  20.629  24.984  1.00  0.00     0.275 C 
BRANCH  25  26
ATOM     26  O   UNL A   1      36.538  21.284  25.864  1.00  0.00    -0.458 OA
BRANCH  26  27
ATOM     27  C   UNL A   1      37.860  21.078  25.601  1.00  0.00     0.338 C 
ATOM     28  O   UNL A   1      38.334  20.154  24.980  1.00  0.00    -0.246 OA
BRANCH  27  29
ATOM     29  C   UNL A   1      38.654  22.248  26.071  1.00  0.00     0.060 A 
ATOM     30  C   UNL A   1      39.939  22.026  26.579  1.00  0.00     0.016 A 
ATOM     31  C   UNL A   1      38.154  23.556  26.018  1.00  0.00     0.016 A 
ATOM     32  C   UNL A   1      40.745  23.115  26.960  1.00  0.00     0.010 A 
ATOM     33  C   UNL A   1      38.957  24.647  26.413  1.00  0.00     0.010 A 
ATOM     34  C   UNL A   1      40.283  24.448  26.839  1.00  0.00    -0.014 A 
BRANCH  34  35
ATOM     35  C   UNL A   1      41.163  25.593  27.253  1.00  0.00     0.031 A 
ATOM     36  C   UNL A   1      40.611  26.468  28.317  1.00  0.00     0.074 A 
ATOM     37  C   UNL A   1      42.368  25.928  26.728  1.00  0.00     0.049 A 
ATOM     38  N   UNL A   1      41.066  27.614  28.733  1.00  0.00    -0.248 NA
ATOM     39  C   UNL A   1      39.304  26.077  28.863  1.00  0.00     0.031 C 
ATOM     40  C   UNL A   1      42.944  25.398  25.512  1.00  0.00     0.029 A 
ATOM     41  N   UNL A   1      43.372  26.772  27.161  1.00  0.00    -0.354 N 
ATOM     42  C   UNL A   1      40.043  28.148  29.488  1.00  0.00     0.074 A 
ATOM     43  C   UNL A   1      38.965  27.182  29.501  1.00  0.00     0.031 C 
ATOM     44  C   UNL A   1      44.262  25.620  25.467  1.00  0.00     0.029 A 
ATOM     45  C   UNL A   1      44.562  26.628  26.464  1.00  0.00     0.049 A 
ATOM     46  H   UNL A   1      43.254  27.416  27.897  1.00  0.00     0.167 HD
ATOM     47  C   UNL A   1      39.995  29.372  30.053  1.00  0.00     0.037 A 
ATOM     48  C   UNL A   1      45.724  27.316  26.490  1.00  0.00     0.037 A 
ATOM     49  C   UNL A   1      41.075  30.318  29.995  1.00  0.00     0.049 A 
ATOM     50  C   UNL A   1      45.700  28.617  27.232  1.00  0.00     0.074 A 
ATOM     51  C   UNL A   1      41.143  31.575  30.562  1.00  0.00     0.029 A 
ATOM     52  N   UNL A   1      42.277  30.114  29.322  1.00  0.00    -0.354 N 
ATOM     53  N   UNL A   1      44.714  29.134  27.921  1.00  0.00    -0.248 NA
ATOM     54  C   UNL A   1      46.876  29.486  27.105  1.00  0.00     0.031 C 
ATOM     55  C   UNL A   1      42.370  32.145  30.210  1.00  0.00     0.029 A 
ATOM     56  C   UNL A   1      43.096  31.220  29.474  1.00  0.00     0.049 A 
ATOM     57  H   UNL A   1      42.508  29.304  28.813  1.00  0.00     0.167 HD
ATOM     58  C   UNL A   1      45.128  30.402  28.283  1.00  0.00     0.074 A 
ATOM     59  C   UNL A   1      46.476  30.563  27.768  1.00  0.00     0.031 C 
ATOM     60  C   UNL A   1      44.441  31.351  28.961  1.00  0.00     0.037 A 
BRANCH  47  61
ATOM     61  C   UNL A   1      38.685  29.743  30.676  1.00  0.00     0.057 A 
ATOM     62  C   UNL A   1      37.697  30.445  29.970  1.00  0.00     0.134 A 
ATOM     63  C   UNL A   1      38.466  29.507  32.038  1.00  0.00     0.134 A 
ATOM     64  F   UNL A   1      37.872  30.744  28.672  1.00  0.00    -0.206 F 
ATOM     65  C   UNL A   1      36.570  30.956  30.611  1.00  0.00     0.040 A 
ATOM     66  C   UNL A   1      37.319  29.975  32.680  1.00  0.00     0.040 A 
ATOM     67  F   UNL A   1      39.378  28.857  32.775  1.00  0.00    -0.206 F 
ATOM     68  C   UNL A   1      36.378  30.719  31.970  1.00  0.00     0.006 A 
ENDBRANCH  47  61
BRANCH  48  69
ATOM     69  C   UNL A   1      46.906  26.916  25.664  1.00  0.00     0.057 A 
ATOM     70  C   UNL A   1      47.081  27.407  24.363  1.00  0.00     0.134 A 
ATOM     71  C   UNL A   1      47.903  26.055  26.146  1.00  0.00     0.134 A 
ATOM     72  F   UNL A   1      46.143  28.186  23.804  1.00  0.00    -0.206 F 
ATOM     73  C   UNL A   1      48.209  27.090  23.595  1.00  0.00     0.040 A 
ATOM     74  C   UNL A   1      49.056  25.766  25.410  1.00  0.00     0.040 A 
ATOM     75  F   UNL A   1      47.794  25.505  27.364  1.00  0.00    -0.206 F 
ATOM     76  C   UNL A   1      49.214  26.286  24.129  1.00  0.00     0.006 A 
ENDBRANCH  48  69
BRANCH  60  77
ATOM     77  C   UNL A   1      45.174  32.618  29.264  1.00  0.00     0.057 A 
ATOM     78  C   UNL A   1      45.090  33.749  28.444  1.00  0.00     0.134 A 
ATOM     79  C   UNL A   1      45.945  32.709  30.428  1.00  0.00     0.134 A 
ATOM     80  F   UNL A   1      44.385  33.714  27.302  1.00  0.00    -0.206 F 
ATOM     81  C   UNL A   1      45.757  34.929  28.772  1.00  0.00     0.040 A 
ATOM     82  C   UNL A   1      46.594  33.888  30.779  1.00  0.00     0.040 A 
ATOM     83  F   UNL A   1      46.061  31.654  31.249  1.00  0.00    -0.206 F 
ATOM     84  C   UNL A   1      46.503  35.003  29.949  1.00  0.00     0.006 A 
ENDBRANCH  60  77
ENDBRANCH  34  35
ENDBRANCH  27  29
ENDBRANCH  26  27
ENDBRANCH  25  26
ENDBRANCH   1  25
TORSDOF 16
ENDMDL
MODEL 3
REMARK VINA RESULT:     -11.3      0.737      6.212
REMARK SMILES O=C(CN(Cc1ccccc1Cl)S(=O)(=O)c1ccc(Cl)cc1)OCCOC(=O)c1ccc(-c2c3nc(c(-c4c(F)cccc4F)c4ccc([nH]4)c(-c4c(F)cccc4F)c4nc(c(-c5c(F)cccc5F)c5ccc2[nH]5)C=C4)C=C3)cc1
REMARK SMILES IDX 24 1 23 2 2 3 1 4 3 5 4 6 5 7 6 8 7 9 11 10 8 11 10 12 12 13
REMARK SMILES IDX 9 14 13 15 14 16 15 17 16 18 17 19 22 20 18 21 21 22 19 23
REMARK SMILES IDX 20 24 25 25 26 26 27 27 28 28 29 29 30 30 82 31 31 32 81 33
REMARK SMILES IDX 32 34 33 35 34 36 75 37 35 38 80 39 74 40 76 41 36 42 79 43
REMARK SMILES IDX 73 44 72 45 37 47 63 48 46 49 62 50 47 51 50 52 61 53 77 54
REMARK SMILES IDX 48 55 49 56 60 58 78 59 51 60 38 61 39 62 44 63 40 64 41 65
REMARK SMILES IDX 43 66 45 67 42 68 64 69 65 70 70 71 66 72 67 73 69 74 71 75
REMARK SMILES IDX 68 76 52 77 53 78 58 79 54 80 55 81 57 82 59 83 56 84
REMARK H PARENT 76 46 50 57
REMARK Flexibility Score: inf
ROOT
ATOM      1  C   UNL A   1      31.187  28.838  24.821  1.00  0.00     0.274 C 
ENDROOT
BRANCH   1   2
ATOM      2  O   UNL A   1      31.381  27.742  25.739  1.00  0.00    -0.461 OA
BRANCH   2   3
ATOM      3  C   UNL A   1      30.868  26.500  25.569  1.00  0.00     0.321 C 
ATOM      4  O   UNL A   1      30.159  25.992  26.436  1.00  0.00    -0.251 OA
BRANCH   3   5
ATOM      5  C   UNL A   1      31.259  25.737  24.336  1.00  0.00     0.225 C 
BRANCH   5   6
ATOM      6  N   UNL A   1      32.271  24.611  24.455  1.00  0.00    -0.182 NA
BRANCH   6   7
ATOM      7  C   UNL A   1      31.593  23.298  24.455  1.00  0.00     0.140 C 
BRANCH   7   8
ATOM      8  C   UNL A   1      32.059  22.387  25.564  1.00  0.00    -0.014 A 
ATOM      9  C   UNL A   1      32.163  22.810  26.916  1.00  0.00     0.006 A 
ATOM     10  C   UNL A   1      32.752  21.266  25.189  1.00  0.00     0.045 A 
ATOM     11  C   UNL A   1      33.157  22.341  27.764  1.00  0.00     0.000 A 
ATOM     12  C   UNL A   1      33.798  20.908  25.993  1.00  0.00     0.021 A 
ATOM     13  Cl  UNL A   1      32.515  20.407  23.712  1.00  0.00    -0.084 Cl
ATOM     14  C   UNL A   1      34.048  21.440  27.257  1.00  0.00     0.002 A 
ENDBRANCH   7   8
ENDBRANCH   6   7
BRANCH   6  15
ATOM     15  S   UNL A   1      33.633  24.888  23.471  1.00  0.00     0.243 S 
ATOM     16  O   UNL A   1      33.412  24.284  22.176  1.00  0.00    -0.207 OA
ATOM     17  O   UNL A   1      33.871  26.313  23.575  1.00  0.00    -0.207 OA
BRANCH  15  18
ATOM     18  C   UNL A   1      35.087  24.068  24.152  1.00  0.00     0.082 A 
ATOM     19  C   UNL A   1      35.661  24.335  25.405  1.00  0.00     0.023 A 
ATOM     20  C   UNL A   1      35.590  22.992  23.419  1.00  0.00     0.023 A 
ATOM     21  C   UNL A   1      36.747  23.608  25.889  1.00  0.00     0.022 A 
ATOM     22  C   UNL A   1      36.661  22.238  23.916  1.00  0.00     0.022 A 
ATOM     23  C   UNL A   1      37.245  22.558  25.140  1.00  0.00     0.041 A 
ATOM     24  Cl  UNL A   1      38.565  21.644  25.746  1.00  0.00    -0.084 Cl
ENDBRANCH  15  18
ENDBRANCH   6  15
ENDBRANCH   5   6
ENDBRANCH   3   5
ENDBRANCH   2   3
ENDBRANCH   1   2
BRANCH   1  25
ATOM     25  C   UNL A   1      32.047  30.052  25.197  1.00  0.00     0.275 C 
BRANCH  25  26
ATOM     26  O   UNL A   1      32.005  30.346  26.615  1.00  0.00    -0.458 OA
BRANCH  26  27
ATOM     27  C   UNL A   1      32.746  31.408  27.039  1.00  0.00     0.338 C 
ATOM     28  O   UNL A   1      32.396  32.567  27.060  1.00  0.00    -0.246 OA
BRANCH  27  29
ATOM     29  C   UNL A   1      34.028  30.926  27.625  1.00  0.00     0.060 A 
ATOM     30  C   UNL A   1      34.941  31.870  28.111  1.00  0.00     0.016 A 
ATOM     31  C   UNL A   1      34.345  29.563  27.703  1.00  0.00     0.016 A 
ATOM     32  C   UNL A   1      36.127  31.445  28.739  1.00  0.00     0.010 A 
ATOM     33  C   UNL A   1      35.540  29.138  28.321  1.00  0.00     0.010 A 
ATOM     34  C   UNL A   1      36.424  30.070  28.895  1.00  0.00    -0.014 A 
BRANCH  34  35
ATOM     35  C   UNL A   1      37.697  29.644  29.569  1.00  0.00     0.031 A 
ATOM     36  C   UNL A   1      37.806  29.999  31.006  1.00  0.00     0.074 A 
ATOM     37  C   UNL A   1      38.756  29.021  28.995  1.00  0.00     0.049 A 
ATOM     38  N   UNL A   1      38.851  29.918  31.777  1.00  0.00    -0.248 NA
ATOM     39  C   UNL A   1      36.642  30.674  31.596  1.00  0.00     0.031 C 
ATOM     40  C   UNL A   1      38.977  28.850  27.576  1.00  0.00     0.029 A 
ATOM     41  N   UNL A   1      39.851  28.364  29.523  1.00  0.00    -0.354 N 
ATOM     42  C   UNL A   1      38.518  30.648  32.900  1.00  0.00     0.074 A 
ATOM     43  C   UNL A   1      37.165  31.128  32.719  1.00  0.00     0.031 C 
ATOM     44  C   UNL A   1      39.876  27.887  27.341  1.00  0.00     0.029 A 
ATOM     45  C   UNL A   1      40.568  27.632  28.589  1.00  0.00     0.049 A 
ATOM     46  H   UNL A   1      40.099  28.412  30.475  1.00  0.00     0.167 HD
ATOM     47  C   UNL A   1      39.314  30.945  33.949  1.00  0.00     0.037 A 
ATOM     48  C   UNL A   1      41.735  26.955  28.660  1.00  0.00     0.037 A 
ATOM     49  C   UNL A   1      40.665  30.475  34.080  1.00  0.00     0.049 A 
ATOM     50  C   UNL A   1      42.555  27.190  29.890  1.00  0.00     0.074 A 
ATOM     51  C   UNL A   1      41.548  30.689  35.120  1.00  0.00     0.029 A 
ATOM     52  N   UNL A   1      41.333  29.698  33.137  1.00  0.00    -0.354 N 
ATOM     53  N   UNL A   1      42.248  27.910  30.940  1.00  0.00    -0.248 NA
ATOM     54  C   UNL A   1      43.915  26.638  29.906  1.00  0.00     0.031 C 
ATOM     55  C   UNL A   1      42.760  30.070  34.795  1.00  0.00     0.029 A 
ATOM     56  C   UNL A   1      42.615  29.416  33.581  1.00  0.00     0.049 A 
ATOM     57  H   UNL A   1      40.952  29.397  32.281  1.00  0.00     0.167 HD
ATOM     58  C   UNL A   1      43.383  27.934  31.729  1.00  0.00     0.074 A 
ATOM     59  C   UNL A   1      44.377  27.121  31.053  1.00  0.00     0.031 C 
ATOM     60  C   UNL A   1      43.583  28.592  32.895  1.00  0.00     0.037 A 
BRANCH  47  61
ATOM     61  C   UNL A   1      38.734  31.898  34.947  1.00  0.00     0.057 A 
ATOM     62  C   UNL A   1      38.840  33.288  34.799  1.00  0.00     0.134 A 
ATOM     63  C   UNL A   1      38.177  31.412  36.136  1.00  0.00     0.134 A 
ATOM     64  F   UNL A   1      39.410  33.813  33.702  1.00  0.00    -0.206 F 
ATOM     65  C   UNL A   1      38.475  34.158  35.824  1.00  0.00     0.040 A 
ATOM     66  C   UNL A   1      37.766  32.276  37.150  1.00  0.00     0.040 A 
ATOM     67  F   UNL A   1      38.061  30.093  36.348  1.00  0.00    -0.206 F 
ATOM     68  C   UNL A   1      37.934  33.652  37.004  1.00  0.00     0.006 A 
ENDBRANCH  47  61
BRANCH  48  69
ATOM     69  C   UNL A   1      42.278  26.180  27.501  1.00  0.00     0.057 A 
ATOM     70  C   UNL A   1      41.976  24.821  27.333  1.00  0.00     0.134 A 
ATOM     71  C   UNL A   1      43.091  26.765  26.519  1.00  0.00     0.134 A 
ATOM     72  F   UNL A   1      41.256  24.170  28.259  1.00  0.00    -0.206 F 
ATOM     73  C   UNL A   1      42.427  24.092  26.225  1.00  0.00     0.040 A 
ATOM     74  C   UNL A   1      43.510  26.063  25.385  1.00  0.00     0.040 A 
ATOM     75  F   UNL A   1      43.463  28.049  26.624  1.00  0.00    -0.206 F 
ATOM     76  C   UNL A   1      43.177  24.721  25.233  1.00  0.00     0.006 A 
ENDBRANCH  48  69
BRANCH  60  77
ATOM     77  C   UNL A   1      44.905  28.381  33.560  1.00  0.00     0.057 A 
ATOM     78  C   UNL A   1      45.994  29.236  33.356  1.00  0.00     0.134 A 
ATOM     79  C   UNL A   1      45.065  27.319  34.458  1.00  0.00     0.134 A 
ATOM     80  F   UNL A   1      45.907  30.256  32.489  1.00  0.00    -0.206 F 
ATOM     81  C   UNL A   1      47.204  29.034  34.020  1.00  0.00     0.040 A 
ATOM     82  C   UNL A   1      46.259  27.123  35.145  1.00  0.00     0.040 A 
ATOM     83  F   UNL A   1      44.054  26.469  34.690  1.00  0.00    -0.206 F 
ATOM     84  C   UNL A   1      47.334  27.981  34.925  1.00  0.00     0.006 A 
ENDBRANCH  60  77
ENDBRANCH  34  35
ENDBRANCH  27  29
ENDBRANCH  26  27
ENDBRANCH  25  26
ENDBRANCH   1  25
TORSDOF 16
ENDMDL
