MODEL 1
REMARK VINA RESULT:     -12.9      0.000      0.000
REMARK SMILES O=C(OCCOC(=O)[C@@H]1CC=CC[C@H]1C(=O)N1CC[NH+](Cc2ccc3c(c2)OCO3)CC1)c1ccc(-c2c3nc(c(-c4c(F)cccc4F)c4ccc([nH]4)c(-c4c(F)cccc4F)c4nc(c(-c5c(F)cccc5F)c5ccc2[nH]5)C=C4)C=C3)cc1
REMARK SMILES IDX 5 1 4 2 3 3 2 4 1 5 33 6 34 7 86 8 35 9 85 10 36 11 37 12
REMARK SMILES IDX 38 13 79 14 39 15 84 16 78 17 80 18 40 19 83 20 77 21 76 22
REMARK SMILES IDX 41 24 67 25 50 26 66 27 51 28 54 29 65 30 81 31 52 32 53 33
REMARK SMILES IDX 64 35 82 36 55 37 42 38 43 39 48 40 44 41 45 42 47 43 49 44
REMARK SMILES IDX 46 45 68 46 69 47 74 48 70 49 71 50 73 51 75 52 72 53 56 54
REMARK SMILES IDX 57 55 62 56 58 57 59 58 61 59 63 60 60 61 6 62 7 63 8 64
REMARK SMILES IDX 9 65 10 66 14 67 11 68 13 69 12 70 15 71 16 72 17 73 18 74
REMARK SMILES IDX 32 75 19 76 31 77 20 78 21 80 22 81 23 82 27 83 24 84 26 85
REMARK SMILES IDX 25 86 28 87 30 88 29 89
REMARK H PARENT 80 23 54 34 20 79
REMARK Flexibility Score: inf
ROOT
ATOM      1  C   UNL A   1      46.930  24.438  25.601  1.00  0.00     0.274 C 
ENDROOT
BRANCH   1   2
ATOM      2  C   UNL A   1      47.636  25.216  24.482  1.00  0.00     0.275 C 
BRANCH   2   3
ATOM      3  O   UNL A   1      47.662  26.658  24.648  1.00  0.00    -0.458 OA
BRANCH   3   4
ATOM      4  C   UNL A   1      46.649  27.545  24.665  1.00  0.00     0.338 C 
ATOM      5  O   UNL A   1      46.579  28.433  23.822  1.00  0.00    -0.246 OA
BRANCH   4   6
ATOM      6  C   UNL A   1      45.669  27.569  25.765  1.00  0.00     0.060 A 
ATOM      7  C   UNL A   1      45.937  28.412  27.238  1.00  0.00     0.016 A 
ATOM      8  C   UNL A   1      44.195  26.766  25.417  1.00  0.00     0.016 A 
ATOM      9  C   UNL A   1      44.726  28.752  28.401  1.00  0.00     0.010 A 
ATOM     10  C   UNL A   1      42.887  26.940  26.572  1.00  0.00     0.010 A 
ATOM     11  C   UNL A   1      43.146  28.025  28.198  1.00  0.00    -0.014 A 
BRANCH  11  12
ATOM     12  C   UNL A   1      42.307  28.578  29.469  1.00  0.00     0.031 A 
ATOM     13  C   UNL A   1      41.017  29.383  29.356  1.00  0.00     0.074 A 
ATOM     14  C   UNL A   1      42.500  28.171  30.751  1.00  0.00     0.049 A 
ATOM     15  N   UNL A   1      40.452  30.179  30.240  1.00  0.00    -0.248 NA
ATOM     16  C   UNL A   1      40.204  29.180  28.154  1.00  0.00     0.031 C 
ATOM     17  C   UNL A   1      43.293  27.045  31.207  1.00  0.00     0.029 A 
ATOM     18  N   UNL A   1      42.139  28.784  31.942  1.00  0.00    -0.354 N 
ATOM     19  C   UNL A   1      39.237  30.578  29.697  1.00  0.00     0.074 A 
ATOM     20  C   UNL A   1      39.164  29.974  28.381  1.00  0.00     0.031 C 
ATOM     21  C   UNL A   1      43.644  27.224  32.487  1.00  0.00     0.029 A 
ATOM     22  C   UNL A   1      42.979  28.420  32.976  1.00  0.00     0.049 A 
ATOM     23  H   UNL A   1      41.379  29.404  32.037  1.00  0.00     0.167 HD
ATOM     24  C   UNL A   1      38.240  31.321  30.245  1.00  0.00     0.037 A 
ATOM     25  C   UNL A   1      43.239  28.995  34.164  1.00  0.00     0.037 A 
ATOM     26  C   UNL A   1      38.197  31.818  31.599  1.00  0.00     0.049 A 
ATOM     27  C   UNL A   1      42.319  30.032  34.708  1.00  0.00     0.074 A 
ATOM     28  C   UNL A   1      37.226  32.611  32.199  1.00  0.00     0.029 A 
ATOM     29  N   UNL A   1      39.119  31.520  32.585  1.00  0.00    -0.354 N 
ATOM     30  N   UNL A   1      41.297  30.594  34.122  1.00  0.00    -0.248 NA
ATOM     31  C   UNL A   1      42.510  30.427  36.112  1.00  0.00     0.031 C 
ATOM     32  C   UNL A   1      37.560  32.786  33.549  1.00  0.00     0.029 A 
ATOM     33  C   UNL A   1      38.735  32.098  33.788  1.00  0.00     0.049 A 
ATOM     34  H   UNL A   1      39.931  30.978  32.453  1.00  0.00     0.167 HD
ATOM     35  C   UNL A   1      40.654  31.318  35.112  1.00  0.00     0.074 A 
ATOM     36  C   UNL A   1      41.443  31.191  36.318  1.00  0.00     0.031 C 
ATOM     37  C   UNL A   1      39.471  31.966  35.017  1.00  0.00     0.037 A 
BRANCH  24  38
ATOM     38  C   UNL A   1      37.066  31.646  29.370  1.00  0.00     0.057 A 
ATOM     39  C   UNL A   1      36.008  30.749  29.189  1.00  0.00     0.134 A 
ATOM     40  C   UNL A   1      36.965  32.904  28.764  1.00  0.00     0.134 A 
ATOM     41  F   UNL A   1      36.050  29.527  29.740  1.00  0.00    -0.206 F 
ATOM     42  C   UNL A   1      34.891  31.090  28.422  1.00  0.00     0.040 A 
ATOM     43  C   UNL A   1      35.849  33.262  28.009  1.00  0.00     0.040 A 
ATOM     44  F   UNL A   1      37.942  33.812  28.915  1.00  0.00    -0.206 F 
ATOM     45  C   UNL A   1      34.807  32.352  27.835  1.00  0.00     0.006 A 
ENDBRANCH  24  38
BRANCH  25  46
ATOM     46  C   UNL A   1      44.458  28.610  34.909  1.00  0.00     0.057 A 
ATOM     47  C   UNL A   1      45.660  29.310  34.802  1.00  0.00     0.134 A 
ATOM     48  C   UNL A   1      44.424  27.494  35.756  1.00  0.00     0.134 A 
ATOM     49  F   UNL A   1      45.750  30.374  33.991  1.00  0.00    -0.206 F 
ATOM     50  C   UNL A   1      46.794  28.912  35.511  1.00  0.00     0.040 A 
ATOM     51  C   UNL A   1      45.548  27.087  36.472  1.00  0.00     0.040 A 
ATOM     52  F   UNL A   1      43.297  26.778  35.886  1.00  0.00    -0.206 F 
ATOM     53  C   UNL A   1      46.739  27.798  36.350  1.00  0.00     0.006 A 
ENDBRANCH  25  46
BRANCH  37  54
ATOM     54  C   UNL A   1      38.890  32.503  36.286  1.00  0.00     0.057 A 
ATOM     55  C   UNL A   1      39.150  33.803  36.731  1.00  0.00     0.134 A 
ATOM     56  C   UNL A   1      38.080  31.689  37.088  1.00  0.00     0.134 A 
ATOM     57  F   UNL A   1      39.939  34.620  36.018  1.00  0.00    -0.206 F 
ATOM     58  C   UNL A   1      38.635  34.272  37.942  1.00  0.00     0.040 A 
ATOM     59  C   UNL A   1      37.552  32.150  38.295  1.00  0.00     0.040 A 
ATOM     60  F   UNL A   1      37.803  30.429  36.721  1.00  0.00    -0.206 F 
ATOM     61  C   UNL A   1      37.833  33.444  38.727  1.00  0.00     0.006 A 
ENDBRANCH  37  54
ENDBRANCH  11  12
ENDBRANCH   4   6
ENDBRANCH   3   4
ENDBRANCH   2   3
ENDBRANCH   1   2
BRANCH   1  62
ATOM     62  O   UNL A   1      46.693  23.089  25.151  1.00  0.00    -0.462 OA
BRANCH  62  63
ATOM     63  C   UNL A   1      45.449  22.829  24.680  1.00  0.00     0.310 C 
ATOM     64  O   UNL A   1      45.163  23.167  23.531  1.00  0.00    -0.252 OA
BRANCH  63  65
ATOM     65  C   UNL A   1      44.507  21.763  25.530  1.00  0.00     0.115 C 
ATOM     66  C   UNL A   1      45.707  20.174  25.541  1.00  0.00     0.043 C 
ATOM     67  C   UNL A   1      42.389  21.163  25.818  1.00  0.00     0.097 C 
ATOM     68  C   UNL A   1      44.981  18.482  25.630  1.00  0.00    -0.030 C 
ATOM     69  C   UNL A   1      42.170  19.217  26.035  1.00  0.00     0.041 C 
ATOM     70  C   UNL A   1      43.605  18.120  25.812  1.00  0.00    -0.030 C 
BRANCH  67  71
ATOM     71  C   UNL A   1      41.039  21.764  26.702  1.00  0.00     0.227 C 
ATOM     72  O   UNL A   1      41.167  21.854  27.937  1.00  0.00    -0.275 OA
ATOM     73  N   UNL A   1      39.895  22.321  26.107  1.00  0.00    -0.331 N 
ATOM     74  C   UNL A   1      39.350  23.467  26.855  1.00  0.00     0.181 C 
ATOM     75  C   UNL A   1      38.803  21.437  25.679  1.00  0.00     0.181 C 
ATOM     76  C   UNL A   1      38.116  24.144  26.220  1.00  0.00     0.284 C 
ATOM     77  C   UNL A   1      37.651  22.148  24.956  1.00  0.00     0.284 C 
ATOM     78  N   UNL A   1      37.068  23.268  25.687  1.00  0.00    -0.328 N 
ATOM     79  H   UNL A   1      36.566  23.842  25.010  1.00  0.00     0.348 HD
BRANCH  78  80
ATOM     80  C   UNL A   1      35.934  22.947  26.560  1.00  0.00     0.299 C 
BRANCH  80  81
ATOM     81  C   UNL A   1      34.551  23.379  26.118  1.00  0.00     0.010 A 
ATOM     82  C   UNL A   1      34.361  24.024  24.877  1.00  0.00     0.013 A 
ATOM     83  C   UNL A   1      33.439  23.164  26.957  1.00  0.00     0.060 A 
ATOM     84  C   UNL A   1      33.101  24.504  24.497  1.00  0.00     0.051 A 
ATOM     85  C   UNL A   1      32.218  23.676  26.572  1.00  0.00     0.166 A 
ATOM     86  C   UNL A   1      32.056  24.337  25.379  1.00  0.00     0.165 A 
ATOM     87  O   UNL A   1      31.070  23.630  27.300  1.00  0.00    -0.454 OA
ATOM     88  O   UNL A   1      30.787  24.795  25.209  1.00  0.00    -0.454 OA
ATOM     89  C   UNL A   1      30.223  24.484  26.502  1.00  0.00     0.468 C 
ENDBRANCH  80  81
ENDBRANCH  78  80
ENDBRANCH  67  71
ENDBRANCH  63  65
ENDBRANCH  62  63
ENDBRANCH   1  62
TORSDOF 14
ENDMDL
MODEL 2
REMARK VINA RESULT:     -12.6      8.229     12.745
REMARK SMILES O=C(OCCOC(=O)[C@@H]1CC=CC[C@H]1C(=O)N1CC[NH+](Cc2ccc3c(c2)OCO3)CC1)c1ccc(-c2c3nc(c(-c4c(F)cccc4F)c4ccc([nH]4)c(-c4c(F)cccc4F)c4nc(c(-c5c(F)cccc5F)c5ccc2[nH]5)C=C4)C=C3)cc1
REMARK SMILES IDX 5 1 4 2 3 3 2 4 1 5 33 6 34 7 86 8 35 9 85 10 36 11 37 12
REMARK SMILES IDX 38 13 79 14 39 15 84 16 78 17 80 18 40 19 83 20 77 21 76 22
REMARK SMILES IDX 41 24 67 25 50 26 66 27 51 28 54 29 65 30 81 31 52 32 53 33
REMARK SMILES IDX 64 35 82 36 55 37 42 38 43 39 48 40 44 41 45 42 47 43 49 44
REMARK SMILES IDX 46 45 68 46 69 47 74 48 70 49 71 50 73 51 75 52 72 53 56 54
REMARK SMILES IDX 57 55 62 56 58 57 59 58 61 59 63 60 60 61 6 62 7 63 8 64
REMARK SMILES IDX 9 65 10 66 14 67 11 68 13 69 12 70 15 71 16 72 17 73 18 74
REMARK SMILES IDX 32 75 19 76 31 77 20 78 21 80 22 81 23 82 27 83 24 84 26 85
REMARK SMILES IDX 25 86 28 87 30 88 29 89
REMARK H PARENT 80 23 54 34 20 79
REMARK Flexibility Score: inf
ROOT
ATOM      1  C   UNL A   1      47.545  23.160  39.407  1.00  0.00     0.274 C 
ENDROOT
BRANCH   1   2
ATOM      2  C   UNL A   1      46.024  23.223  39.599  1.00  0.00     0.275 C 
BRANCH   2   3
ATOM      3  O   UNL A   1      45.292  23.906  38.548  1.00  0.00    -0.458 OA
BRANCH   3   4
ATOM      4  C   UNL A   1      45.016  23.513  37.290  1.00  0.00     0.338 C 
ATOM      5  O   UNL A   1      45.282  22.377  36.915  1.00  0.00    -0.246 OA
BRANCH   4   6
ATOM      6  C   UNL A   1      44.515  24.465  36.283  1.00  0.00     0.060 A 
ATOM      7  C   UNL A   1      42.850  24.614  35.883  1.00  0.00     0.016 A 
ATOM      8  C   UNL A   1      45.720  25.484  35.611  1.00  0.00     0.016 A 
ATOM      9  C   UNL A   1      42.176  25.906  34.983  1.00  0.00     0.010 A 
ATOM     10  C   UNL A   1      45.185  26.799  34.581  1.00  0.00     0.010 A 
ATOM     11  C   UNL A   1      43.261  27.058  34.233  1.00  0.00    -0.014 A 
BRANCH  11  12
ATOM     12  C   UNL A   1      42.261  28.097  33.496  1.00  0.00     0.031 A 
ATOM     13  C   UNL A   1      41.382  29.105  34.230  1.00  0.00     0.074 A 
ATOM     14  C   UNL A   1      42.287  28.374  32.165  1.00  0.00     0.049 A 
ATOM     15  N   UNL A   1      40.299  29.725  33.811  1.00  0.00    -0.248 NA
ATOM     16  C   UNL A   1      41.838  29.556  35.548  1.00  0.00     0.031 C 
ATOM     17  C   UNL A   1      43.310  27.999  31.208  1.00  0.00     0.029 A 
ATOM     18  N   UNL A   1      41.310  28.932  31.355  1.00  0.00    -0.354 N 
ATOM     19  C   UNL A   1      39.942  30.620  34.813  1.00  0.00     0.074 A 
ATOM     20  C   UNL A   1      40.897  30.430  35.886  1.00  0.00     0.031 C 
ATOM     21  C   UNL A   1      42.800  28.006  29.970  1.00  0.00     0.029 A 
ATOM     22  C   UNL A   1      41.445  28.524  30.042  1.00  0.00     0.049 A 
ATOM     23  H   UNL A   1      40.606  29.542  31.675  1.00  0.00     0.167 HD
ATOM     24  C   UNL A   1      38.959  31.558  34.832  1.00  0.00     0.037 A 
ATOM     25  C   UNL A   1      40.576  28.508  29.015  1.00  0.00     0.037 A 
ATOM     26  C   UNL A   1      38.079  31.890  33.737  1.00  0.00     0.049 A 
ATOM     27  C   UNL A   1      39.324  29.312  29.084  1.00  0.00     0.074 A 
ATOM     28  C   UNL A   1      37.037  32.808  33.713  1.00  0.00     0.029 A 
ATOM     29  N   UNL A   1      38.175  31.377  32.457  1.00  0.00    -0.354 N 
ATOM     30  N   UNL A   1      38.848  29.980  30.098  1.00  0.00    -0.248 NA
ATOM     31  C   UNL A   1      38.554  29.462  27.840  1.00  0.00     0.031 C 
ATOM     32  C   UNL A   1      36.508  32.854  32.415  1.00  0.00     0.029 A 
ATOM     33  C   UNL A   1      37.224  31.967  31.634  1.00  0.00     0.049 A 
ATOM     34  H   UNL A   1      38.822  30.692  32.171  1.00  0.00     0.167 HD
ATOM     35  C   UNL A   1      37.792  30.721  29.593  1.00  0.00     0.074 A 
ATOM     36  C   UNL A   1      37.646  30.360  28.199  1.00  0.00     0.031 C 
ATOM     37  C   UNL A   1      37.069  31.664  30.236  1.00  0.00     0.037 A 
BRANCH  24  38
ATOM     38  C   UNL A   1      38.775  32.333  36.103  1.00  0.00     0.057 A 
ATOM     39  C   UNL A   1      39.265  33.635  36.253  1.00  0.00     0.134 A 
ATOM     40  C   UNL A   1      38.032  31.790  37.158  1.00  0.00     0.134 A 
ATOM     41  F   UNL A   1      39.988  34.206  35.278  1.00  0.00    -0.206 F 
ATOM     42  C   UNL A   1      39.031  34.368  37.419  1.00  0.00     0.040 A 
ATOM     43  C   UNL A   1      37.779  32.518  38.321  1.00  0.00     0.040 A 
ATOM     44  F   UNL A   1      37.523  30.552  37.066  1.00  0.00    -0.206 F 
ATOM     45  C   UNL A   1      38.282  33.811  38.454  1.00  0.00     0.006 A 
ENDBRANCH  24  38
BRANCH  25  46
ATOM     46  C   UNL A   1      40.860  27.665  27.832  1.00  0.00     0.057 A 
ATOM     47  C   UNL A   1      41.577  28.130  26.729  1.00  0.00     0.134 A 
ATOM     48  C   UNL A   1      40.389  26.345  27.799  1.00  0.00     0.134 A 
ATOM     49  F   UNL A   1      42.032  29.390  26.705  1.00  0.00    -0.206 F 
ATOM     50  C   UNL A   1      41.816  27.311  25.625  1.00  0.00     0.040 A 
ATOM     51  C   UNL A   1      40.624  25.515  26.704  1.00  0.00     0.040 A 
ATOM     52  F   UNL A   1      39.684  25.852  28.828  1.00  0.00    -0.206 F 
ATOM     53  C   UNL A   1      41.340  25.999  25.612  1.00  0.00     0.006 A 
ENDBRANCH  25  46
BRANCH  37  54
ATOM     54  C   UNL A   1      36.115  32.466  29.410  1.00  0.00     0.057 A 
ATOM     55  C   UNL A   1      36.331  33.818  29.127  1.00  0.00     0.134 A 
ATOM     56  C   UNL A   1      34.945  31.876  28.915  1.00  0.00     0.134 A 
ATOM     57  F   UNL A   1      37.421  34.443  29.594  1.00  0.00    -0.206 F 
ATOM     58  C   UNL A   1      35.406  34.562  28.391  1.00  0.00     0.040 A 
ATOM     59  C   UNL A   1      34.017  32.607  28.170  1.00  0.00     0.040 A 
ATOM     60  F   UNL A   1      34.675  30.585  29.162  1.00  0.00    -0.206 F 
ATOM     61  C   UNL A   1      34.246  33.957  27.911  1.00  0.00     0.006 A 
ENDBRANCH  37  54
ENDBRANCH  11  12
ENDBRANCH   4   6
ENDBRANCH   3   4
ENDBRANCH   2   3
ENDBRANCH   1   2
BRANCH   1  62
ATOM     62  O   UNL A   1      48.039  21.942  39.999  1.00  0.00    -0.462 OA
BRANCH  62  63
ATOM     63  C   UNL A   1      48.711  21.107  39.170  1.00  0.00     0.310 C 
ATOM     64  O   UNL A   1      49.941  21.152  39.145  1.00  0.00    -0.252 OA
BRANCH  63  65
ATOM     65  C   UNL A   1      47.877  19.837  38.509  1.00  0.00     0.115 C 
ATOM     66  C   UNL A   1      48.018  20.299  36.577  1.00  0.00     0.043 C 
ATOM     67  C   UNL A   1      46.130  18.519  38.887  1.00  0.00     0.097 C 
ATOM     68  C   UNL A   1      46.701  19.754  35.409  1.00  0.00    -0.030 C 
ATOM     69  C   UNL A   1      45.128  18.091  37.245  1.00  0.00     0.041 C 
ATOM     70  C   UNL A   1      45.576  18.904  35.679  1.00  0.00    -0.030 C 
BRANCH  67  71
ATOM     71  C   UNL A   1      45.807  17.136  39.860  1.00  0.00     0.227 C 
ATOM     72  O   UNL A   1      46.776  16.411  40.151  1.00  0.00    -0.275 OA
ATOM     73  N   UNL A   1      44.575  16.886  40.486  1.00  0.00    -0.331 N 
ATOM     74  C   UNL A   1      44.714  16.289  41.826  1.00  0.00     0.181 C 
ATOM     75  C   UNL A   1      43.514  16.200  39.739  1.00  0.00     0.181 C 
ATOM     76  C   UNL A   1      43.388  16.033  42.576  1.00  0.00     0.284 C 
ATOM     77  C   UNL A   1      42.182  16.069  40.492  1.00  0.00     0.284 C 
ATOM     78  N   UNL A   1      42.283  15.451  41.810  1.00  0.00    -0.328 N 
ATOM     79  H   UNL A   1      41.443  15.704  42.328  1.00  0.00     0.348 HD
BRANCH  78  80
ATOM     80  C   UNL A   1      42.114  13.994  41.851  1.00  0.00     0.299 C 
BRANCH  80  81
ATOM     81  C   UNL A   1      42.648  13.249  43.057  1.00  0.00     0.010 A 
ATOM     82  C   UNL A   1      42.637  11.837  43.093  1.00  0.00     0.013 A 
ATOM     83  C   UNL A   1      43.140  13.960  44.169  1.00  0.00     0.060 A 
ATOM     84  C   UNL A   1      43.050  11.141  44.236  1.00  0.00     0.051 A 
ATOM     85  C   UNL A   1      43.508  13.249  45.292  1.00  0.00     0.166 A 
ATOM     86  C   UNL A   1      43.454  11.877  45.328  1.00  0.00     0.165 A 
ATOM     87  O   UNL A   1      43.922  13.783  46.473  1.00  0.00    -0.454 OA
ATOM     88  O   UNL A   1      43.822  11.376  46.538  1.00  0.00    -0.454 OA
ATOM     89  C   UNL A   1      43.955  12.598  47.296  1.00  0.00     0.468 C 
ENDBRANCH  80  81
ENDBRANCH  78  80
ENDBRANCH  67  71
ENDBRANCH  63  65
ENDBRANCH  62  63
ENDBRANCH   1  62
TORSDOF 14
ENDMDL
MODEL 3
REMARK VINA RESULT:     -12.6      3.399      8.211
REMARK SMILES O=C(OCCOC(=O)[C@@H]1CC=CC[C@H]1C(=O)N1CC[NH+](Cc2ccc3c(c2)OCO3)CC1)c1ccc(-c2c3nc(c(-c4c(F)cccc4F)c4ccc([nH]4)c(-c4c(F)cccc4F)c4nc(c(-c5c(F)cccc5F)c5ccc2[nH]5)C=C4)C=C3)cc1
REMARK SMILES IDX 5 1 4 2 3 3 2 4 1 5 33 6 34 7 86 8 35 9 85 10 36 11 37 12
REMARK SMILES IDX 38 13 79 14 39 15 84 16 78 17 80 18 40 19 83 20 77 21 76 22
REMARK SMILES IDX 41 24 67 25 50 26 66 27 51 28 54 29 65 30 81 31 52 32 53 33
REMARK SMILES IDX 64 35 82 36 55 37 42 38 43 39 48 40 44 41 45 42 47 43 49 44
REMARK SMILES IDX 46 45 68 46 69 47 74 48 70 49 71 50 73 51 75 52 72 53 56 54
REMARK SMILES IDX 57 55 62 56 58 57 59 58 61 59 63 60 60 61 6 62 7 63 8 64
REMARK SMILES IDX 9 65 10 66 14 67 11 68 13 69 12 70 15 71 16 72 17 73 18 74
REMARK SMILES IDX 32 75 19 76 31 77 20 78 21 80 22 81 23 82 27 83 24 84 26 85
REMARK SMILES IDX 25 86 28 87 30 88 29 89
REMARK H PARENT 80 23 54 34 20 79
REMARK Flexibility Score: inf
ROOT
ATOM      1  C   UNL A   1      38.925  22.392  25.947  1.00  0.00     0.274 C 
ENDROOT
BRANCH   1   2
ATOM      2  C   UNL A   1      39.855  21.406  26.666  1.00  0.00     0.275 C 
BRANCH   2   3
ATOM      3  O   UNL A   1      41.197  21.309  26.123  1.00  0.00    -0.458 OA
BRANCH   3   4
ATOM      4  C   UNL A   1      42.054  22.280  25.756  1.00  0.00     0.338 C 
ATOM      5  O   UNL A   1      42.866  22.093  24.855  1.00  0.00    -0.246 OA
BRANCH   4   6
ATOM      6  C   UNL A   1      42.145  23.546  26.504  1.00  0.00     0.060 A 
ATOM      7  C   UNL A   1      40.813  24.232  27.348  1.00  0.00     0.016 A 
ATOM      8  C   UNL A   1      43.716  24.232  26.548  1.00  0.00     0.016 A 
ATOM      9  C   UNL A   1      40.933  25.501  28.491  1.00  0.00     0.010 A 
ATOM     10  C   UNL A   1      43.968  25.609  27.604  1.00  0.00     0.010 A 
ATOM     11  C   UNL A   1      42.474  26.311  28.682  1.00  0.00    -0.014 A 
BRANCH  11  12
ATOM     12  C   UNL A   1      42.182  27.419  29.827  1.00  0.00     0.031 A 
ATOM     13  C   UNL A   1      42.877  27.449  31.184  1.00  0.00     0.074 A 
ATOM     14  C   UNL A   1      41.502  28.578  29.619  1.00  0.00     0.049 A 
ATOM     15  N   UNL A   1      42.496  28.031  32.302  1.00  0.00    -0.248 NA
ATOM     16  C   UNL A   1      44.213  26.852  31.266  1.00  0.00     0.031 C 
ATOM     17  C   UNL A   1      41.115  29.153  28.346  1.00  0.00     0.029 A 
ATOM     18  N   UNL A   1      40.877  29.416  30.529  1.00  0.00    -0.354 N 
ATOM     19  C   UNL A   1      43.532  27.858  33.213  1.00  0.00     0.074 A 
ATOM     20  C   UNL A   1      44.542  27.073  32.533  1.00  0.00     0.031 C 
ATOM     21  C   UNL A   1      40.087  29.994  28.520  1.00  0.00     0.029 A 
ATOM     22  C   UNL A   1      39.838  30.115  29.946  1.00  0.00     0.049 A 
ATOM     23  H   UNL A   1      41.140  29.502  31.474  1.00  0.00     0.167 HD
ATOM     24  C   UNL A   1      43.675  28.349  34.471  1.00  0.00     0.037 A 
ATOM     25  C   UNL A   1      38.770  30.740  30.474  1.00  0.00     0.037 A 
ATOM     26  C   UNL A   1      42.772  29.256  35.139  1.00  0.00     0.049 A 
ATOM     27  C   UNL A   1      38.742  31.069  31.927  1.00  0.00     0.074 A 
ATOM     28  C   UNL A   1      42.848  29.757  36.432  1.00  0.00     0.029 A 
ATOM     29  N   UNL A   1      41.672  29.854  34.554  1.00  0.00    -0.354 N 
ATOM     30  N   UNL A   1      39.593  30.719  32.852  1.00  0.00    -0.248 NA
ATOM     31  C   UNL A   1      37.679  31.976  32.388  1.00  0.00     0.031 C 
ATOM     32  C   UNL A   1      41.797  30.663  36.625  1.00  0.00     0.029 A 
ATOM     33  C   UNL A   1      41.071  30.728  35.451  1.00  0.00     0.049 A 
ATOM     34  H   UNL A   1      41.359  29.685  33.635  1.00  0.00     0.167 HD
ATOM     35  C   UNL A   1      39.242  31.449  33.975  1.00  0.00     0.074 A 
ATOM     36  C   UNL A   1      38.052  32.202  33.642  1.00  0.00     0.031 C 
ATOM     37  C   UNL A   1      39.910  31.522  35.148  1.00  0.00     0.037 A 
BRANCH  24  38
ATOM     38  C   UNL A   1      44.890  27.921  35.240  1.00  0.00     0.057 A 
ATOM     39  C   UNL A   1      44.947  26.695  35.912  1.00  0.00     0.134 A 
ATOM     40  C   UNL A   1      46.041  28.718  35.240  1.00  0.00     0.134 A 
ATOM     41  F   UNL A   1      43.874  25.891  35.952  1.00  0.00    -0.206 F 
ATOM     42  C   UNL A   1      46.108  26.281  36.570  1.00  0.00     0.040 A 
ATOM     43  C   UNL A   1      47.211  28.309  35.881  1.00  0.00     0.040 A 
ATOM     44  F   UNL A   1      46.053  29.897  34.599  1.00  0.00    -0.206 F 
ATOM     45  C   UNL A   1      47.245  27.087  36.551  1.00  0.00     0.006 A 
ENDBRANCH  24  38
BRANCH  25  46
ATOM     46  C   UNL A   1      37.616  31.070  29.609  1.00  0.00     0.057 A 
ATOM     47  C   UNL A   1      37.448  32.324  29.023  1.00  0.00     0.134 A 
ATOM     48  C   UNL A   1      36.637  30.096  29.366  1.00  0.00     0.134 A 
ATOM     49  F   UNL A   1      38.346  33.295  29.240  1.00  0.00    -0.206 F 
ATOM     50  C   UNL A   1      36.340  32.605  28.221  1.00  0.00     0.040 A 
ATOM     51  C   UNL A   1      35.528  30.362  28.565  1.00  0.00     0.040 A 
ATOM     52  F   UNL A   1      36.744  28.878  29.916  1.00  0.00    -0.206 F 
ATOM     53  C   UNL A   1      35.378  31.622  27.990  1.00  0.00     0.006 A 
ENDBRANCH  25  46
BRANCH  37  54
ATOM     54  C   UNL A   1      39.435  32.540  36.135  1.00  0.00     0.057 A 
ATOM     55  C   UNL A   1      38.393  32.278  37.029  1.00  0.00     0.134 A 
ATOM     56  C   UNL A   1      40.016  33.814  36.165  1.00  0.00     0.134 A 
ATOM     57  F   UNL A   1      37.782  31.085  37.030  1.00  0.00    -0.206 F 
ATOM     58  C   UNL A   1      37.932  33.257  37.914  1.00  0.00     0.040 A 
ATOM     59  C   UNL A   1      39.570  34.797  37.051  1.00  0.00     0.040 A 
ATOM     60  F   UNL A   1      41.012  34.130  35.324  1.00  0.00    -0.206 F 
ATOM     61  C   UNL A   1      38.522  34.520  37.926  1.00  0.00     0.006 A 
ENDBRANCH  37  54
ENDBRANCH  11  12
ENDBRANCH   4   6
ENDBRANCH   3   4
ENDBRANCH   2   3
ENDBRANCH   1   2
BRANCH   1  62
ATOM     62  O   UNL A   1      37.736  21.692  25.530  1.00  0.00    -0.462 OA
BRANCH  62  63
ATOM     63  C   UNL A   1      36.835  22.416  24.824  1.00  0.00     0.310 C 
ATOM     64  O   UNL A   1      37.236  23.156  23.925  1.00  0.00    -0.252 OA
BRANCH  63  65
ATOM     65  C   UNL A   1      35.235  22.005  24.958  1.00  0.00     0.115 C 
ATOM     66  C   UNL A   1      35.391  20.020  25.004  1.00  0.00     0.043 C 
ATOM     67  C   UNL A   1      33.216  22.629  24.275  1.00  0.00     0.097 C 
ATOM     68  C   UNL A   1      34.004  18.980  24.379  1.00  0.00    -0.030 C 
ATOM     69  C   UNL A   1      32.036  21.101  23.886  1.00  0.00     0.041 C 
ATOM     70  C   UNL A   1      32.708  19.409  23.937  1.00  0.00    -0.030 C 
BRANCH  67  71
ATOM     71  C   UNL A   1      32.078  23.842  24.718  1.00  0.00     0.227 C 
ATOM     72  O   UNL A   1      31.381  23.622  25.726  1.00  0.00    -0.275 OA
ATOM     73  N   UNL A   1      32.019  25.117  24.132  1.00  0.00    -0.331 N 
ATOM     74  C   UNL A   1      31.701  26.185  25.095  1.00  0.00     0.181 C 
ATOM     75  C   UNL A   1      31.247  25.308  22.898  1.00  0.00     0.181 C 
ATOM     76  C   UNL A   1      31.667  27.614  24.508  1.00  0.00     0.284 C 
ATOM     77  C   UNL A   1      31.337  26.718  22.298  1.00  0.00     0.284 C 
ATOM     78  N   UNL A   1      30.995  27.797  23.219  1.00  0.00    -0.328 N 
ATOM     79  H   UNL A   1      31.389  28.656  22.838  1.00  0.00     0.348 HD
BRANCH  78  80
ATOM     80  C   UNL A   1      29.587  28.209  23.232  1.00  0.00     0.299 C 
BRANCH  80  81
ATOM     81  C   UNL A   1      29.263  29.646  22.881  1.00  0.00     0.010 A 
ATOM     82  C   UNL A   1      29.290  30.653  23.871  1.00  0.00     0.013 A 
ATOM     83  C   UNL A   1      28.903  29.990  21.563  1.00  0.00     0.060 A 
ATOM     84  C   UNL A   1      28.909  31.967  23.575  1.00  0.00     0.051 A 
ATOM     85  C   UNL A   1      28.501  31.285  21.309  1.00  0.00     0.166 A 
ATOM     86  C   UNL A   1      28.494  32.244  22.291  1.00  0.00     0.165 A 
ATOM     87  O   UNL A   1      28.046  31.759  20.118  1.00  0.00    -0.454 OA
ATOM     88  O   UNL A   1      28.028  33.442  21.843  1.00  0.00    -0.454 OA
ATOM     89  C   UNL A   1      27.596  33.071  20.515  1.00  0.00     0.468 C 
ENDBRANCH  80  81
ENDBRANCH  78  80
ENDBRANCH  67  71
ENDBRANCH  63  65
ENDBRANCH  62  63
ENDBRANCH   1  62
TORSDOF 14
ENDMDL
