MODEL 1
REMARK VINA RESULT:     -12.1      0.000      0.000
REMARK SMILES Cc1cccc(C(=O)OCCOC(=O)c2ccc(-c3c4nc(c(-c5c(F)cccc5F)c5ccc([nH]5)c(-c5c(F)cccc5F)c5nc(c(-c6c(F)cccc6F)c6ccc3[nH]6)C=C5)C=C4)cc2)c1NC(=O)Cc1ccccc1
REMARK SMILES IDX 10 1 9 2 7 3 8 4 6 5 1 6 2 7 3 8 69 9 4 10 5 11 70 12 71 13
REMARK SMILES IDX 72 15 73 16 74 17 75 18 79 19 76 20 78 21 77 22 11 23 12 24
REMARK SMILES IDX 13 25 14 26 15 27 16 28 68 29 17 30 67 31 18 32 19 33 20 34
REMARK SMILES IDX 61 35 21 36 66 37 60 38 62 39 22 40 65 41 59 42 58 43 23 45
REMARK SMILES IDX 49 46 32 47 48 48 33 49 36 50 47 51 63 52 34 53 35 54 46 56
REMARK SMILES IDX 64 57 37 58 24 59 25 60 30 61 26 62 27 63 29 64 31 65 28 66
REMARK SMILES IDX 50 67 51 68 56 69 52 70 53 71 55 72 57 73 54 74 38 75 39 76
REMARK SMILES IDX 44 77 40 78 41 79 43 80 45 81 42 82
REMARK H PARENT 70 14 62 44 36 55
REMARK Flexibility Score: inf
ROOT
ATOM      1  C   UNL A   1      33.190  33.923  27.663  1.00  0.00     0.275 C 
ENDROOT
BRANCH   1   2
ATOM      2  O   UNL A   1      31.871  33.377  27.541  1.00  0.00    -0.458 OA
BRANCH   2   3
ATOM      3  C   UNL A   1      31.637  32.399  26.432  1.00  0.00     0.340 C 
ATOM      4  O   UNL A   1      30.776  33.052  25.789  1.00  0.00    -0.246 OA
BRANCH   3   5
ATOM      5  C   UNL A   1      32.645  30.501  26.184  1.00  0.00     0.083 A 
ATOM      6  C   UNL A   1      33.552  27.028  24.003  1.00  0.00     0.046 C 
ATOM      7  C   UNL A   1      33.302  28.081  25.076  1.00  0.00    -0.027 A 
ATOM      8  C   UNL A   1      34.086  27.746  26.198  1.00  0.00     0.005 A 
ATOM      9  C   UNL A   1      32.479  29.314  25.003  1.00  0.00     0.058 A 
ATOM     10  C   UNL A   1      34.307  28.638  27.195  1.00  0.00     0.001 A 
ATOM     11  C   UNL A   1      33.715  29.901  27.126  1.00  0.00     0.018 A 
BRANCH   9  12
ATOM     12  N   UNL A   1      31.607  29.246  23.683  1.00  0.00    -0.325 N 
ATOM     13  C   UNL A   1      30.513  28.724  22.944  1.00  0.00     0.228 C 
ATOM     14  H   UNL A   1      32.038  29.882  23.068  1.00  0.00     0.169 HD
ATOM     15  O   UNL A   1      30.246  29.402  21.936  1.00  0.00    -0.274 OA
BRANCH  13  16
ATOM     16  C   UNL A   1      29.738  27.383  23.119  1.00  0.00     0.135 C 
BRANCH  16  17
ATOM     17  C   UNL A   1      30.074  26.160  23.982  1.00  0.00    -0.039 A 
ATOM     18  C   UNL A   1      30.406  24.981  23.251  1.00  0.00     0.004 A 
ATOM     19  C   UNL A   1      30.085  26.046  25.363  1.00  0.00     0.004 A 
ATOM     20  C   UNL A   1      30.859  23.801  23.839  1.00  0.00     0.000 A 
ATOM     21  C   UNL A   1      30.481  24.829  25.969  1.00  0.00     0.000 A 
ATOM     22  C   UNL A   1      30.899  23.724  25.215  1.00  0.00     0.000 A 
ENDBRANCH  16  17
ENDBRANCH  13  16
ENDBRANCH   9  12
ENDBRANCH   3   5
ENDBRANCH   2   3
ENDBRANCH   1   2
BRANCH   1  23
ATOM     23  C   UNL A   1      33.885  33.176  28.805  1.00  0.00     0.275 C 
BRANCH  23  24
ATOM     24  O   UNL A   1      35.295  32.863  28.573  1.00  0.00    -0.458 OA
BRANCH  24  25
ATOM     25  C   UNL A   1      36.141  32.290  29.486  1.00  0.00     0.338 C 
ATOM     26  O   UNL A   1      36.781  32.925  30.306  1.00  0.00    -0.246 OA
BRANCH  25  27
ATOM     27  C   UNL A   1      36.445  30.858  29.251  1.00  0.00     0.060 A 
ATOM     28  C   UNL A   1      36.566  29.810  30.703  1.00  0.00     0.016 A 
ATOM     29  C   UNL A   1      37.561  30.597  27.888  1.00  0.00     0.016 A 
ATOM     30  C   UNL A   1      37.884  28.526  30.817  1.00  0.00     0.010 A 
ATOM     31  C   UNL A   1      38.923  29.315  28.019  1.00  0.00     0.010 A 
ATOM     32  C   UNL A   1      39.064  28.314  29.501  1.00  0.00    -0.014 A 
BRANCH  32  33
ATOM     33  C   UNL A   1      40.454  27.902  29.634  1.00  0.00     0.031 A 
ATOM     34  C   UNL A   1      40.822  26.635  28.992  1.00  0.00     0.074 A 
ATOM     35  C   UNL A   1      41.378  28.827  30.002  1.00  0.00     0.049 A 
ATOM     36  N   UNL A   1      41.943  26.053  29.186  1.00  0.00    -0.248 NA
ATOM     37  C   UNL A   1      39.936  25.866  28.120  1.00  0.00     0.031 C 
ATOM     38  C   UNL A   1      42.828  28.831  29.799  1.00  0.00     0.029 A 
ATOM     39  N   UNL A   1      41.171  29.956  30.789  1.00  0.00    -0.354 N 
ATOM     40  C   UNL A   1      42.041  25.000  28.307  1.00  0.00     0.074 A 
ATOM     41  C   UNL A   1      40.729  24.858  27.744  1.00  0.00     0.031 C 
ATOM     42  C   UNL A   1      43.397  29.697  30.659  1.00  0.00     0.029 A 
ATOM     43  C   UNL A   1      42.346  30.239  31.501  1.00  0.00     0.049 A 
ATOM     44  H   UNL A   1      40.334  30.474  30.838  1.00  0.00     0.167 HD
ATOM     45  C   UNL A   1      43.274  24.460  28.120  1.00  0.00     0.037 A 
ATOM     46  C   UNL A   1      42.317  30.178  32.866  1.00  0.00     0.037 A 
ATOM     47  C   UNL A   1      44.192  25.030  29.110  1.00  0.00     0.049 A 
ATOM     48  C   UNL A   1      42.985  28.913  33.353  1.00  0.00     0.074 A 
ATOM     49  C   UNL A   1      45.108  26.064  29.050  1.00  0.00     0.029 A 
ATOM     50  N   UNL A   1      43.915  24.825  30.461  1.00  0.00    -0.354 N 
ATOM     51  N   UNL A   1      43.225  27.883  32.582  1.00  0.00    -0.248 NA
ATOM     52  C   UNL A   1      43.516  28.730  34.701  1.00  0.00     0.031 C 
ATOM     53  C   UNL A   1      45.286  26.553  30.378  1.00  0.00     0.029 A 
ATOM     54  C   UNL A   1      44.527  25.782  31.247  1.00  0.00     0.049 A 
ATOM     55  H   UNL A   1      43.356  24.094  30.808  1.00  0.00     0.167 HD
ATOM     56  C   UNL A   1      43.940  26.943  33.268  1.00  0.00     0.074 A 
ATOM     57  C   UNL A   1      44.101  27.524  34.590  1.00  0.00     0.031 C 
ATOM     58  C   UNL A   1      44.359  25.771  32.701  1.00  0.00     0.037 A 
BRANCH  45  59
ATOM     59  C   UNL A   1      43.715  23.575  26.980  1.00  0.00     0.057 A 
ATOM     60  C   UNL A   1      44.424  24.140  25.901  1.00  0.00     0.134 A 
ATOM     61  C   UNL A   1      43.398  22.212  26.808  1.00  0.00     0.134 A 
ATOM     62  F   UNL A   1      44.802  25.427  25.913  1.00  0.00    -0.206 F 
ATOM     63  C   UNL A   1      44.763  23.422  24.746  1.00  0.00     0.040 A 
ATOM     64  C   UNL A   1      43.762  21.473  25.672  1.00  0.00     0.040 A 
ATOM     65  F   UNL A   1      42.682  21.520  27.698  1.00  0.00    -0.206 F 
ATOM     66  C   UNL A   1      44.436  22.081  24.628  1.00  0.00     0.006 A 
ENDBRANCH  45  59
BRANCH  46  67
ATOM     67  C   UNL A   1      41.096  30.860  33.395  1.00  0.00     0.057 A 
ATOM     68  C   UNL A   1      40.109  30.005  33.939  1.00  0.00     0.134 A 
ATOM     69  C   UNL A   1      41.116  32.174  33.869  1.00  0.00     0.134 A 
ATOM     70  F   UNL A   1      40.002  28.742  33.497  1.00  0.00    -0.206 F 
ATOM     71  C   UNL A   1      39.358  30.361  35.060  1.00  0.00     0.040 A 
ATOM     72  C   UNL A   1      40.304  32.563  34.947  1.00  0.00     0.040 A 
ATOM     73  F   UNL A   1      42.038  33.045  33.433  1.00  0.00    -0.206 F 
ATOM     74  C   UNL A   1      39.488  31.635  35.594  1.00  0.00     0.006 A 
ENDBRANCH  46  67
BRANCH  58  75
ATOM     75  C   UNL A   1      44.767  24.547  33.491  1.00  0.00     0.057 A 
ATOM     76  C   UNL A   1      46.098  24.137  33.668  1.00  0.00     0.134 A 
ATOM     77  C   UNL A   1      43.821  23.791  34.221  1.00  0.00     0.134 A 
ATOM     78  F   UNL A   1      47.131  24.862  33.220  1.00  0.00    -0.206 F 
ATOM     79  C   UNL A   1      46.444  22.982  34.379  1.00  0.00     0.040 A 
ATOM     80  C   UNL A   1      44.166  22.693  35.010  1.00  0.00     0.040 A 
ATOM     81  F   UNL A   1      42.515  24.092  34.232  1.00  0.00    -0.206 F 
ATOM     82  C   UNL A   1      45.477  22.256  35.055  1.00  0.00     0.006 A 
ENDBRANCH  58  75
ENDBRANCH  32  33
ENDBRANCH  25  27
ENDBRANCH  24  25
ENDBRANCH  23  24
ENDBRANCH   1  23
TORSDOF 14
ENDMDL
MODEL 2
REMARK VINA RESULT:     -12.0      4.146      9.351
REMARK SMILES Cc1cccc(C(=O)OCCOC(=O)c2ccc(-c3c4nc(c(-c5c(F)cccc5F)c5ccc([nH]5)c(-c5c(F)cccc5F)c5nc(c(-c6c(F)cccc6F)c6ccc3[nH]6)C=C5)C=C4)cc2)c1NC(=O)Cc1ccccc1
REMARK SMILES IDX 10 1 9 2 7 3 8 4 6 5 1 6 2 7 3 8 69 9 4 10 5 11 70 12 71 13
REMARK SMILES IDX 72 15 73 16 74 17 75 18 79 19 76 20 78 21 77 22 11 23 12 24
REMARK SMILES IDX 13 25 14 26 15 27 16 28 68 29 17 30 67 31 18 32 19 33 20 34
REMARK SMILES IDX 61 35 21 36 66 37 60 38 62 39 22 40 65 41 59 42 58 43 23 45
REMARK SMILES IDX 49 46 32 47 48 48 33 49 36 50 47 51 63 52 34 53 35 54 46 56
REMARK SMILES IDX 64 57 37 58 24 59 25 60 30 61 26 62 27 63 29 64 31 65 28 66
REMARK SMILES IDX 50 67 51 68 56 69 52 70 53 71 55 72 57 73 54 74 38 75 39 76
REMARK SMILES IDX 44 77 40 78 41 79 43 80 45 81 42 82
REMARK H PARENT 70 14 62 44 36 55
REMARK Flexibility Score: inf
ROOT
ATOM      1  C   UNL A   1      37.858  21.900  25.771  1.00  0.00     0.275 C 
ENDROOT
BRANCH   1   2
ATOM      2  O   UNL A   1      37.401  21.663  24.434  1.00  0.00    -0.458 OA
BRANCH   2   3
ATOM      3  C   UNL A   1      36.425  22.643  23.863  1.00  0.00     0.340 C 
ATOM      4  O   UNL A   1      36.985  22.837  22.754  1.00  0.00    -0.246 OA
BRANCH   3   5
ATOM      5  C   UNL A   1      34.615  23.334  24.826  1.00  0.00     0.083 A 
ATOM      6  C   UNL A   1      31.099  25.630  24.926  1.00  0.00     0.046 C 
ATOM      7  C   UNL A   1      32.352  24.824  25.246  1.00  0.00    -0.027 A 
ATOM      8  C   UNL A   1      32.189  24.268  26.531  1.00  0.00     0.005 A 
ATOM      9  C   UNL A   1      33.529  24.542  24.387  1.00  0.00     0.058 A 
ATOM     10  C   UNL A   1      32.992  23.270  26.975  1.00  0.00     0.001 A 
ATOM     11  C   UNL A   1      34.026  22.810  26.156  1.00  0.00     0.018 A 
BRANCH   9  12
ATOM     12  N   UNL A   1      33.445  25.484  23.116  1.00  0.00    -0.325 N 
ATOM     13  C   UNL A   1      33.552  26.763  22.510  1.00  0.00     0.228 C 
ATOM     14  H   UNL A   1      33.193  24.882  22.378  1.00  0.00     0.169 HD
ATOM     15  O   UNL A   1      33.611  26.704  21.268  1.00  0.00    -0.274 OA
BRANCH  13  16
ATOM     16  C   UNL A   1      33.444  28.182  23.146  1.00  0.00     0.135 C 
BRANCH  16  17
ATOM     17  C   UNL A   1      33.277  28.589  24.615  1.00  0.00    -0.039 A 
ATOM     18  C   UNL A   1      32.207  29.499  24.868  1.00  0.00     0.004 A 
ATOM     19  C   UNL A   1      34.025  28.205  25.716  1.00  0.00     0.004 A 
ATOM     20  C   UNL A   1      31.808  29.898  26.143  1.00  0.00     0.000 A 
ATOM     21  C   UNL A   1      33.666  28.659  27.008  1.00  0.00     0.000 A 
ATOM     22  C   UNL A   1      32.546  29.471  27.227  1.00  0.00     0.000 A 
ENDBRANCH  16  17
ENDBRANCH  13  16
ENDBRANCH   9  12
ENDBRANCH   3   5
ENDBRANCH   2   3
ENDBRANCH   1   2
BRANCH   1  23
ATOM     23  C   UNL A   1      39.359  21.600  25.797  1.00  0.00     0.275 C 
BRANCH  23  24
ATOM     24  O   UNL A   1      40.083  22.161  26.938  1.00  0.00    -0.458 OA
BRANCH  24  25
ATOM     25  C   UNL A   1      40.844  23.299  26.912  1.00  0.00     0.338 C 
ATOM     26  O   UNL A   1      42.024  23.330  27.219  1.00  0.00    -0.246 OA
BRANCH  25  27
ATOM     27  C   UNL A   1      40.086  24.562  26.743  1.00  0.00     0.060 A 
ATOM     28  C   UNL A   1      40.894  25.872  25.820  1.00  0.00     0.016 A 
ATOM     29  C   UNL A   1      39.095  24.975  28.164  1.00  0.00     0.016 A 
ATOM     30  C   UNL A   1      40.766  27.622  26.382  1.00  0.00     0.010 A 
ATOM     31  C   UNL A   1      38.993  26.752  28.755  1.00  0.00     0.010 A 
ATOM     32  C   UNL A   1      39.854  28.041  27.853  1.00  0.00    -0.014 A 
BRANCH  32  33
ATOM     33  C   UNL A   1      40.148  29.121  28.783  1.00  0.00     0.031 A 
ATOM     34  C   UNL A   1      39.065  30.076  29.038  1.00  0.00     0.074 A 
ATOM     35  C   UNL A   1      41.218  28.997  29.611  1.00  0.00     0.049 A 
ATOM     36  N   UNL A   1      39.234  31.174  29.670  1.00  0.00    -0.248 NA
ATOM     37  C   UNL A   1      37.697  29.921  28.545  1.00  0.00     0.031 C 
ATOM     38  C   UNL A   1      41.495  29.662  30.886  1.00  0.00     0.029 A 
ATOM     39  N   UNL A   1      42.389  28.283  29.373  1.00  0.00    -0.354 N 
ATOM     40  C   UNL A   1      38.000  31.740  29.891  1.00  0.00     0.074 A 
ATOM     41  C   UNL A   1      37.090  30.983  29.080  1.00  0.00     0.031 C 
ATOM     42  C   UNL A   1      42.812  29.577  31.157  1.00  0.00     0.029 A 
ATOM     43  C   UNL A   1      43.452  28.912  30.037  1.00  0.00     0.049 A 
ATOM     44  H   UNL A   1      42.460  27.466  28.825  1.00  0.00     0.167 HD
ATOM     45  C   UNL A   1      37.928  32.728  30.822  1.00  0.00     0.037 A 
ATOM     46  C   UNL A   1      44.478  29.426  29.296  1.00  0.00     0.037 A 
ATOM     47  C   UNL A   1      39.289  33.098  31.221  1.00  0.00     0.049 A 
ATOM     48  C   UNL A   1      44.368  30.931  29.212  1.00  0.00     0.074 A 
ATOM     49  C   UNL A   1      40.080  32.733  32.295  1.00  0.00     0.029 A 
ATOM     50  N   UNL A   1      40.151  33.593  30.244  1.00  0.00    -0.354 N 
ATOM     51  N   UNL A   1      43.274  31.589  29.498  1.00  0.00    -0.248 NA
ATOM     52  C   UNL A   1      45.482  31.820  28.894  1.00  0.00     0.031 C 
ATOM     53  C   UNL A   1      41.440  32.908  31.900  1.00  0.00     0.029 A 
ATOM     54  C   UNL A   1      41.472  33.432  30.615  1.00  0.00     0.049 A 
ATOM     55  H   UNL A   1      39.856  34.004  29.400  1.00  0.00     0.167 HD
ATOM     56  C   UNL A   1      43.511  32.933  29.445  1.00  0.00     0.074 A 
ATOM     57  C   UNL A   1      44.911  33.025  29.068  1.00  0.00     0.031 C 
ATOM     58  C   UNL A   1      42.553  33.867  29.730  1.00  0.00     0.037 A 
BRANCH  45  59
ATOM     59  C   UNL A   1      36.685  33.246  31.502  1.00  0.00     0.057 A 
ATOM     60  C   UNL A   1      36.402  32.843  32.823  1.00  0.00     0.134 A 
ATOM     61  C   UNL A   1      35.676  34.034  30.913  1.00  0.00     0.134 A 
ATOM     62  F   UNL A   1      37.264  32.091  33.523  1.00  0.00    -0.206 F 
ATOM     63  C   UNL A   1      35.212  33.173  33.487  1.00  0.00     0.040 A 
ATOM     64  C   UNL A   1      34.496  34.400  31.579  1.00  0.00     0.040 A 
ATOM     65  F   UNL A   1      35.739  34.462  29.650  1.00  0.00    -0.206 F 
ATOM     66  C   UNL A   1      34.253  33.959  32.867  1.00  0.00     0.006 A 
ENDBRANCH  45  59
BRANCH  46  67
ATOM     67  C   UNL A   1      44.899  28.453  28.240  1.00  0.00     0.057 A 
ATOM     68  C   UNL A   1      45.461  27.246  28.714  1.00  0.00     0.134 A 
ATOM     69  C   UNL A   1      44.305  28.414  26.976  1.00  0.00     0.134 A 
ATOM     70  F   UNL A   1      46.089  27.221  29.901  1.00  0.00    -0.206 F 
ATOM     71  C   UNL A   1      45.226  26.022  28.086  1.00  0.00     0.040 A 
ATOM     72  C   UNL A   1      44.136  27.196  26.298  1.00  0.00     0.040 A 
ATOM     73  F   UNL A   1      43.719  29.504  26.460  1.00  0.00    -0.206 F 
ATOM     74  C   UNL A   1      44.521  25.992  26.891  1.00  0.00     0.006 A 
ENDBRANCH  46  67
BRANCH  58  75
ATOM     75  C   UNL A   1      42.625  35.313  29.293  1.00  0.00     0.057 A 
ATOM     76  C   UNL A   1      41.825  35.866  28.281  1.00  0.00     0.134 A 
ATOM     77  C   UNL A   1      43.432  36.252  29.977  1.00  0.00     0.134 A 
ATOM     78  F   UNL A   1      40.858  35.164  27.676  1.00  0.00    -0.206 F 
ATOM     79  C   UNL A   1      41.934  37.201  27.876  1.00  0.00     0.040 A 
ATOM     80  C   UNL A   1      43.478  37.606  29.643  1.00  0.00     0.040 A 
ATOM     81  F   UNL A   1      44.198  35.913  31.024  1.00  0.00    -0.206 F 
ATOM     82  C   UNL A   1      42.762  38.077  28.559  1.00  0.00     0.006 A 
ENDBRANCH  58  75
ENDBRANCH  32  33
ENDBRANCH  25  27
ENDBRANCH  24  25
ENDBRANCH  23  24
ENDBRANCH   1  23
TORSDOF 14
ENDMDL
MODEL 3
REMARK VINA RESULT:     -11.9      1.874      2.911
REMARK SMILES Cc1cccc(C(=O)OCCOC(=O)c2ccc(-c3c4nc(c(-c5c(F)cccc5F)c5ccc([nH]5)c(-c5c(F)cccc5F)c5nc(c(-c6c(F)cccc6F)c6ccc3[nH]6)C=C5)C=C4)cc2)c1NC(=O)Cc1ccccc1
REMARK SMILES IDX 10 1 9 2 7 3 8 4 6 5 1 6 2 7 3 8 69 9 4 10 5 11 70 12 71 13
REMARK SMILES IDX 72 15 73 16 74 17 75 18 79 19 76 20 78 21 77 22 11 23 12 24
REMARK SMILES IDX 13 25 14 26 15 27 16 28 68 29 17 30 67 31 18 32 19 33 20 34
REMARK SMILES IDX 61 35 21 36 66 37 60 38 62 39 22 40 65 41 59 42 58 43 23 45
REMARK SMILES IDX 49 46 32 47 48 48 33 49 36 50 47 51 63 52 34 53 35 54 46 56
REMARK SMILES IDX 64 57 37 58 24 59 25 60 30 61 26 62 27 63 29 64 31 65 28 66
REMARK SMILES IDX 50 67 51 68 56 69 52 70 53 71 55 72 57 73 54 74 38 75 39 76
REMARK SMILES IDX 44 77 40 78 41 79 43 80 45 81 42 82
REMARK H PARENT 70 14 62 44 36 55
REMARK Flexibility Score: inf
ROOT
ATOM      1  C   UNL A   1      33.526  31.580  27.673  1.00  0.00     0.275 C 
ENDROOT
BRANCH   1   2
ATOM      2  O   UNL A   1      34.282  30.668  26.868  1.00  0.00    -0.458 OA
BRANCH   2   3
ATOM      3  C   UNL A   1      33.771  29.264  26.765  1.00  0.00     0.340 C 
ATOM      4  O   UNL A   1      33.628  29.030  27.992  1.00  0.00    -0.246 OA
BRANCH   3   5
ATOM      5  C   UNL A   1      33.412  28.179  24.929  1.00  0.00     0.083 A 
ATOM      6  C   UNL A   1      31.811  24.953  22.766  1.00  0.00     0.046 C 
ATOM      7  C   UNL A   1      32.625  26.136  23.278  1.00  0.00    -0.027 A 
ATOM      8  C   UNL A   1      33.211  26.769  22.164  1.00  0.00     0.005 A 
ATOM      9  C   UNL A   1      32.753  26.653  24.664  1.00  0.00     0.058 A 
ATOM     10  C   UNL A   1      33.747  28.011  22.261  1.00  0.00     0.001 A 
ATOM     11  C   UNL A   1      33.751  28.659  23.498  1.00  0.00     0.018 A 
BRANCH   9  12
ATOM     12  N   UNL A   1      32.127  25.582  25.649  1.00  0.00    -0.325 N 
ATOM     13  C   UNL A   1      32.245  24.419  26.454  1.00  0.00     0.228 C 
ATOM     14  H   UNL A   1      31.190  25.863  25.756  1.00  0.00     0.169 HD
ATOM     15  O   UNL A   1      31.298  24.288  27.251  1.00  0.00    -0.274 OA
BRANCH  13  16
ATOM     16  C   UNL A   1      33.265  23.244  26.368  1.00  0.00     0.135 C 
BRANCH  16  17
ATOM     17  C   UNL A   1      34.501  23.079  25.475  1.00  0.00    -0.039 A 
ATOM     18  C   UNL A   1      35.749  23.315  26.125  1.00  0.00     0.004 A 
ATOM     19  C   UNL A   1      34.566  22.747  24.131  1.00  0.00     0.004 A 
ATOM     20  C   UNL A   1      36.991  23.101  25.530  1.00  0.00     0.000 A 
ATOM     21  C   UNL A   1      35.824  22.592  23.501  1.00  0.00     0.000 A 
ATOM     22  C   UNL A   1      37.030  22.733  24.202  1.00  0.00     0.000 A 
ENDBRANCH  16  17
ENDBRANCH  13  16
ENDBRANCH   9  12
ENDBRANCH   3   5
ENDBRANCH   2   3
ENDBRANCH   1   2
BRANCH   1  23
ATOM     23  C   UNL A   1      34.497  32.656  28.170  1.00  0.00     0.275 C 
BRANCH  23  24
ATOM     24  O   UNL A   1      34.970  32.476  29.543  1.00  0.00    -0.458 OA
BRANCH  24  25
ATOM     25  C   UNL A   1      36.216  32.035  29.900  1.00  0.00     0.338 C 
ATOM     26  O   UNL A   1      37.121  32.775  30.248  1.00  0.00    -0.246 OA
BRANCH  25  27
ATOM     27  C   UNL A   1      36.497  30.613  29.587  1.00  0.00     0.060 A 
ATOM     28  C   UNL A   1      36.680  29.500  30.982  1.00  0.00     0.016 A 
ATOM     29  C   UNL A   1      37.543  30.408  28.160  1.00  0.00     0.016 A 
ATOM     30  C   UNL A   1      37.990  28.204  30.974  1.00  0.00     0.010 A 
ATOM     31  C   UNL A   1      38.899  29.113  28.166  1.00  0.00     0.010 A 
ATOM     32  C   UNL A   1      39.103  28.045  29.593  1.00  0.00    -0.014 A 
BRANCH  32  33
ATOM     33  C   UNL A   1      40.494  27.618  29.638  1.00  0.00     0.031 A 
ATOM     34  C   UNL A   1      40.804  26.336  28.997  1.00  0.00     0.074 A 
ATOM     35  C   UNL A   1      41.451  28.538  29.924  1.00  0.00     0.049 A 
ATOM     36  N   UNL A   1      41.930  25.743  29.126  1.00  0.00    -0.248 NA
ATOM     37  C   UNL A   1      39.853  25.561  28.203  1.00  0.00     0.031 C 
ATOM     38  C   UNL A   1      42.884  28.522  29.623  1.00  0.00     0.029 A 
ATOM     39  N   UNL A   1      41.311  29.685  30.702  1.00  0.00    -0.354 N 
ATOM     40  C   UNL A   1      41.956  24.673  28.263  1.00  0.00     0.074 A 
ATOM     41  C   UNL A   1      40.606  24.536  27.794  1.00  0.00     0.031 C 
ATOM     42  C   UNL A   1      43.520  29.396  30.426  1.00  0.00     0.029 A 
ATOM     43  C   UNL A   1      42.535  29.966  31.327  1.00  0.00     0.049 A 
ATOM     44  H   UNL A   1      40.485  30.213  30.798  1.00  0.00     0.167 HD
ATOM     45  C   UNL A   1      43.167  24.115  28.003  1.00  0.00     0.037 A 
ATOM     46  C   UNL A   1      42.599  29.931  32.691  1.00  0.00     0.037 A 
ATOM     47  C   UNL A   1      44.157  24.692  28.917  1.00  0.00     0.049 A 
ATOM     48  C   UNL A   1      43.285  28.667  33.156  1.00  0.00     0.074 A 
ATOM     49  C   UNL A   1      45.078  25.714  28.774  1.00  0.00     0.029 A 
ATOM     50  N   UNL A   1      43.971  24.516  30.287  1.00  0.00    -0.354 N 
ATOM     51  N   UNL A   1      43.461  27.621  32.391  1.00  0.00    -0.248 NA
ATOM     52  C   UNL A   1      43.905  28.504  34.468  1.00  0.00     0.031 C 
ATOM     53  C   UNL A   1      45.351  26.225  30.078  1.00  0.00     0.029 A 
ATOM     54  C   UNL A   1      44.645  25.480  31.012  1.00  0.00     0.049 A 
ATOM     55  H   UNL A   1      43.429  23.798  30.686  1.00  0.00     0.167 HD
ATOM     56  C   UNL A   1      44.210  26.685  33.045  1.00  0.00     0.074 A 
ATOM     57  C   UNL A   1      44.468  27.288  34.341  1.00  0.00     0.031 C 
ATOM     58  C   UNL A   1      44.577  25.498  32.473  1.00  0.00     0.037 A 
BRANCH  45  59
ATOM     59  C   UNL A   1      43.520  23.203  26.853  1.00  0.00     0.057 A 
ATOM     60  C   UNL A   1      43.030  21.881  26.845  1.00  0.00     0.134 A 
ATOM     61  C   UNL A   1      44.403  23.496  25.795  1.00  0.00     0.134 A 
ATOM     62  F   UNL A   1      42.177  21.448  27.784  1.00  0.00    -0.206 F 
ATOM     63  C   UNL A   1      43.406  20.931  25.885  1.00  0.00     0.040 A 
ATOM     64  C   UNL A   1      44.760  22.563  24.808  1.00  0.00     0.040 A 
ATOM     65  F   UNL A   1      45.011  24.677  25.667  1.00  0.00    -0.206 F 
ATOM     66  C   UNL A   1      44.271  21.270  24.858  1.00  0.00     0.006 A 
ENDBRANCH  45  59
BRANCH  46  67
ATOM     67  C   UNL A   1      41.424  30.638  33.289  1.00  0.00     0.057 A 
ATOM     68  C   UNL A   1      40.473  29.806  33.924  1.00  0.00     0.134 A 
ATOM     69  C   UNL A   1      41.489  31.963  33.727  1.00  0.00     0.134 A 
ATOM     70  F   UNL A   1      40.324  28.534  33.523  1.00  0.00    -0.206 F 
ATOM     71  C   UNL A   1      39.807  30.196  35.087  1.00  0.00     0.040 A 
ATOM     72  C   UNL A   1      40.759  32.386  34.850  1.00  0.00     0.040 A 
ATOM     73  F   UNL A   1      42.384  32.814  33.205  1.00  0.00    -0.206 F 
ATOM     74  C   UNL A   1      39.984  31.482  35.577  1.00  0.00     0.006 A 
ENDBRANCH  46  67
BRANCH  58  75
ATOM     75  C   UNL A   1      45.025  24.284  33.257  1.00  0.00     0.057 A 
ATOM     76  C   UNL A   1      44.230  23.144  33.458  1.00  0.00     0.134 A 
ATOM     77  C   UNL A   1      46.348  24.166  33.743  1.00  0.00     0.134 A 
ATOM     78  F   UNL A   1      43.027  23.007  32.885  1.00  0.00    -0.206 F 
ATOM     79  C   UNL A   1      44.658  22.048  34.214  1.00  0.00     0.040 A 
ATOM     80  C   UNL A   1      46.815  23.036  34.416  1.00  0.00     0.040 A 
ATOM     81  F   UNL A   1      47.267  25.125  33.566  1.00  0.00    -0.206 F 
ATOM     82  C   UNL A   1      45.956  21.989  34.695  1.00  0.00     0.006 A 
ENDBRANCH  58  75
ENDBRANCH  32  33
ENDBRANCH  25  27
ENDBRANCH  24  25
ENDBRANCH  23  24
ENDBRANCH   1  23
TORSDOF 14
ENDMDL
