MODEL 1
REMARK VINA RESULT:     -12.9      0.000      0.000
REMARK SMILES C[C@@H]1CC[C@H](C)c2nc3cc(F)c(Cl)cc3c(C(=O)OCCOC(=O)c3ccc(-c4c5nc(c(-c6c(F)cccc6F)c6ccc([nH]6)c(-c6c(F)cccc6F)c6nc(c(-c7c(F)cccc7F)c7ccc4[nH]7)C=C6)C=C5)cc3)c21
REMARK SMILES IDX 22 1 21 2 20 3 18 4 19 5 17 6 1 7 2 8 3 9 80 10 4 11 7 12
REMARK SMILES IDX 5 13 8 14 16 15 6 16 9 17 15 18 10 19 13 20 11 21 14 22
REMARK SMILES IDX 12 23 23 24 24 25 25 26 26 27 27 28 79 29 28 30 78 31 29 32
REMARK SMILES IDX 30 33 31 34 72 35 32 36 77 37 71 38 73 39 33 40 76 41 70 42
REMARK SMILES IDX 69 43 34 45 60 46 43 47 59 48 44 49 47 50 58 51 74 52 45 53
REMARK SMILES IDX 46 54 57 56 75 57 48 58 35 59 36 60 41 61 37 62 38 63 40 64
REMARK SMILES IDX 42 65 39 66 61 67 62 68 67 69 63 70 64 71 66 72 68 73 65 74
REMARK SMILES IDX 49 75 50 76 55 77 51 78 52 79 54 80 56 81 53 82
REMARK H PARENT 73 44 47 55
REMARK Flexibility Score: inf
ROOT
ATOM      1  C   UNL A   1      32.359  30.055  25.412  1.00  0.00     0.275 C 
ENDROOT
BRANCH   1   2
ATOM      2  C   UNL A   1      33.280  28.980  24.842  1.00  0.00     0.275 C 
BRANCH   2   3
ATOM      3  O   UNL A   1      33.198  28.944  23.396  1.00  0.00    -0.458 OA
BRANCH   3   4
ATOM      4  C   UNL A   1      33.028  27.713  22.839  1.00  0.00     0.339 C 
ATOM      5  O   UNL A   1      33.618  27.293  21.865  1.00  0.00    -0.246 OA
BRANCH   4   6
ATOM      6  C   UNL A   1      31.984  26.928  23.574  1.00  0.00     0.074 A 
ATOM      7  C   UNL A   1      34.347  24.591  23.277  1.00  0.00     0.013 C 
ATOM      8  C   UNL A   1      33.791  25.342  24.495  1.00  0.00     0.019 C 
ATOM      9  C   UNL A   1      34.037  24.539  25.783  1.00  0.00     0.009 C 
ATOM     10  C   UNL A   1      32.354  25.786  24.336  1.00  0.00    -0.008 A 
ATOM     11  C   UNL A   1      33.033  23.408  25.905  1.00  0.00     0.010 C 
ATOM     12  C   UNL A   1      31.336  25.097  24.996  1.00  0.00     0.048 A 
ATOM     13  C   UNL A   1      31.609  23.964  25.976  1.00  0.00     0.035 C 
ATOM     14  N   UNL A   1      30.042  25.478  24.910  1.00  0.00    -0.252 NA
ATOM     15  C   UNL A   1      30.618  27.307  23.447  1.00  0.00     0.017 A 
ATOM     16  C   UNL A   1      30.617  22.809  25.822  1.00  0.00     0.014 C 
ATOM     17  C   UNL A   1      29.691  26.524  24.160  1.00  0.00     0.074 A 
ATOM     18  C   UNL A   1      30.114  28.381  22.659  1.00  0.00     0.034 A 
ATOM     19  C   UNL A   1      28.340  26.821  24.097  1.00  0.00     0.069 A 
ATOM     20  C   UNL A   1      28.751  28.667  22.613  1.00  0.00     0.077 A 
ATOM     21  C   UNL A   1      27.869  27.882  23.336  1.00  0.00     0.143 A 
ATOM     22  Cl  UNL A   1      28.189  29.983  21.660  1.00  0.00    -0.081 Cl
ATOM     23  F   UNL A   1      26.551  28.124  23.310  1.00  0.00    -0.205 F 
ENDBRANCH   4   6
ENDBRANCH   3   4
ENDBRANCH   2   3
ENDBRANCH   1   2
BRANCH   1  24
ATOM     24  O   UNL A   1      32.647  30.179  26.814  1.00  0.00    -0.458 OA
BRANCH  24  25
ATOM     25  C   UNL A   1      33.212  31.337  27.218  1.00  0.00     0.338 C 
ATOM     26  O   UNL A   1      32.681  32.430  27.326  1.00  0.00    -0.246 OA
BRANCH  25  27
ATOM     27  C   UNL A   1      34.599  31.058  27.631  1.00  0.00     0.060 A 
ATOM     28  C   UNL A   1      35.488  32.081  27.941  1.00  0.00     0.016 A 
ATOM     29  C   UNL A   1      34.965  29.738  27.865  1.00  0.00     0.016 A 
ATOM     30  C   UNL A   1      36.736  31.763  28.503  1.00  0.00     0.010 A 
ATOM     31  C   UNL A   1      36.136  29.449  28.564  1.00  0.00     0.010 A 
ATOM     32  C   UNL A   1      37.056  30.447  28.899  1.00  0.00    -0.014 A 
BRANCH  32  33
ATOM     33  C   UNL A   1      38.287  30.137  29.705  1.00  0.00     0.031 A 
ATOM     34  C   UNL A   1      38.485  30.615  31.133  1.00  0.00     0.074 A 
ATOM     35  C   UNL A   1      39.316  29.482  29.118  1.00  0.00     0.049 A 
ATOM     36  N   UNL A   1      39.484  30.370  31.952  1.00  0.00    -0.248 NA
ATOM     37  C   UNL A   1      37.488  31.537  31.698  1.00  0.00     0.031 C 
ATOM     38  C   UNL A   1      39.397  29.120  27.700  1.00  0.00     0.029 A 
ATOM     39  N   UNL A   1      40.486  28.983  29.645  1.00  0.00    -0.354 N 
ATOM     40  C   UNL A   1      39.247  31.133  33.092  1.00  0.00     0.074 A 
ATOM     41  C   UNL A   1      38.071  31.925  32.823  1.00  0.00     0.031 C 
ATOM     42  C   UNL A   1      40.490  28.371  27.494  1.00  0.00     0.029 A 
ATOM     43  C   UNL A   1      41.209  28.224  28.755  1.00  0.00     0.049 A 
ATOM     44  H   UNL A   1      40.776  29.153  30.570  1.00  0.00     0.167 HD
ATOM     45  C   UNL A   1      39.900  31.133  34.281  1.00  0.00     0.037 A 
ATOM     46  C   UNL A   1      42.303  27.455  28.928  1.00  0.00     0.037 A 
ATOM     47  C   UNL A   1      41.009  30.273  34.597  1.00  0.00     0.049 A 
ATOM     48  C   UNL A   1      42.928  27.341  30.289  1.00  0.00     0.074 A 
ATOM     49  C   UNL A   1      41.630  30.083  35.821  1.00  0.00     0.029 A 
ATOM     50  N   UNL A   1      41.655  29.451  33.689  1.00  0.00    -0.354 N 
ATOM     51  N   UNL A   1      42.592  27.945  31.401  1.00  0.00    -0.248 NA
ATOM     52  C   UNL A   1      44.072  26.428  30.422  1.00  0.00     0.031 C 
ATOM     53  C   UNL A   1      42.672  29.167  35.646  1.00  0.00     0.029 A 
ATOM     54  C   UNL A   1      42.673  28.758  34.324  1.00  0.00     0.049 A 
ATOM     55  H   UNL A   1      41.426  29.371  32.735  1.00  0.00     0.167 HD
ATOM     56  C   UNL A   1      43.466  27.470  32.370  1.00  0.00     0.074 A 
ATOM     57  C   UNL A   1      44.337  26.514  31.719  1.00  0.00     0.031 C 
ATOM     58  C   UNL A   1      43.536  27.802  33.681  1.00  0.00     0.037 A 
BRANCH  45  59
ATOM     59  C   UNL A   1      39.383  32.032  35.373  1.00  0.00     0.057 A 
ATOM     60  C   UNL A   1      39.768  33.378  35.459  1.00  0.00     0.134 A 
ATOM     61  C   UNL A   1      38.430  31.579  36.295  1.00  0.00     0.134 A 
ATOM     62  F   UNL A   1      40.675  33.882  34.607  1.00  0.00    -0.206 F 
ATOM     63  C   UNL A   1      39.251  34.229  36.437  1.00  0.00     0.040 A 
ATOM     64  C   UNL A   1      37.880  32.429  37.256  1.00  0.00     0.040 A 
ATOM     65  F   UNL A   1      37.999  30.309  36.261  1.00  0.00    -0.206 F 
ATOM     66  C   UNL A   1      38.295  33.757  37.333  1.00  0.00     0.006 A 
ENDBRANCH  45  59
BRANCH  46  67
ATOM     67  C   UNL A   1      42.798  26.631  27.797  1.00  0.00     0.057 A 
ATOM     68  C   UNL A   1      42.284  25.346  27.582  1.00  0.00     0.134 A 
ATOM     69  C   UNL A   1      43.744  27.110  26.887  1.00  0.00     0.134 A 
ATOM     70  F   UNL A   1      41.383  24.828  28.431  1.00  0.00    -0.206 F 
ATOM     71  C   UNL A   1      42.696  24.563  26.503  1.00  0.00     0.040 A 
ATOM     72  C   UNL A   1      44.151  26.346  25.790  1.00  0.00     0.040 A 
ATOM     73  F   UNL A   1      44.263  28.337  27.032  1.00  0.00    -0.206 F 
ATOM     74  C   UNL A   1      43.628  25.069  25.598  1.00  0.00     0.006 A 
ENDBRANCH  46  67
BRANCH  58  75
ATOM     75  C   UNL A   1      44.575  27.124  34.522  1.00  0.00     0.057 A 
ATOM     76  C   UNL A   1      45.826  27.707  34.755  1.00  0.00     0.134 A 
ATOM     77  C   UNL A   1      44.296  25.911  35.164  1.00  0.00     0.134 A 
ATOM     78  F   UNL A   1      46.158  28.864  34.164  1.00  0.00    -0.206 F 
ATOM     79  C   UNL A   1      46.768  27.103  35.590  1.00  0.00     0.040 A 
ATOM     80  C   UNL A   1      45.219  25.308  36.020  1.00  0.00     0.040 A 
ATOM     81  F   UNL A   1      43.111  25.305  34.990  1.00  0.00    -0.206 F 
ATOM     82  C   UNL A   1      46.460  25.904  36.232  1.00  0.00     0.006 A 
ENDBRANCH  58  75
ENDBRANCH  32  33
ENDBRANCH  25  27
ENDBRANCH  24  25
ENDBRANCH   1  24
TORSDOF 11
ENDMDL
MODEL 2
REMARK VINA RESULT:     -12.8      4.571      8.984
REMARK SMILES C[C@@H]1CC[C@H](C)c2nc3cc(F)c(Cl)cc3c(C(=O)OCCOC(=O)c3ccc(-c4c5nc(c(-c6c(F)cccc6F)c6ccc([nH]6)c(-c6c(F)cccc6F)c6nc(c(-c7c(F)cccc7F)c7ccc4[nH]7)C=C6)C=C5)cc3)c21
REMARK SMILES IDX 22 1 21 2 20 3 18 4 19 5 17 6 1 7 2 8 3 9 80 10 4 11 7 12
REMARK SMILES IDX 5 13 8 14 16 15 6 16 9 17 15 18 10 19 13 20 11 21 14 22
REMARK SMILES IDX 12 23 23 24 24 25 25 26 26 27 27 28 79 29 28 30 78 31 29 32
REMARK SMILES IDX 30 33 31 34 72 35 32 36 77 37 71 38 73 39 33 40 76 41 70 42
REMARK SMILES IDX 69 43 34 45 60 46 43 47 59 48 44 49 47 50 58 51 74 52 45 53
REMARK SMILES IDX 46 54 57 56 75 57 48 58 35 59 36 60 41 61 37 62 38 63 40 64
REMARK SMILES IDX 42 65 39 66 61 67 62 68 67 69 63 70 64 71 66 72 68 73 65 74
REMARK SMILES IDX 49 75 50 76 55 77 51 78 52 79 54 80 56 81 53 82
REMARK H PARENT 73 44 47 55
REMARK Flexibility Score: inf
ROOT
ATOM      1  C   UNL A   1      36.155  21.443  25.789  1.00  0.00     0.275 C 
ENDROOT
BRANCH   1   2
ATOM      2  C   UNL A   1      35.354  22.707  26.091  1.00  0.00     0.275 C 
BRANCH   2   3
ATOM      3  O   UNL A   1      34.395  22.469  27.152  1.00  0.00    -0.458 OA
BRANCH   3   4
ATOM      4  C   UNL A   1      33.105  22.808  26.876  1.00  0.00     0.339 C 
ATOM      5  O   UNL A   1      32.217  22.921  27.695  1.00  0.00    -0.246 OA
BRANCH   4   6
ATOM      6  C   UNL A   1      32.903  23.007  25.405  1.00  0.00     0.074 A 
ATOM      7  C   UNL A   1      31.897  25.985  26.526  1.00  0.00     0.013 C 
ATOM      8  C   UNL A   1      33.116  25.557  25.697  1.00  0.00     0.019 C 
ATOM      9  C   UNL A   1      33.662  26.743  24.885  1.00  0.00     0.009 C 
ATOM     10  C   UNL A   1      32.882  24.320  24.858  1.00  0.00    -0.008 A 
ATOM     11  C   UNL A   1      32.801  26.992  23.662  1.00  0.00     0.010 C 
ATOM     12  C   UNL A   1      32.688  24.440  23.482  1.00  0.00     0.048 A 
ATOM     13  C   UNL A   1      32.811  25.766  22.745  1.00  0.00     0.035 C 
ATOM     14  N   UNL A   1      32.509  23.360  22.688  1.00  0.00    -0.252 NA
ATOM     15  C   UNL A   1      32.673  21.871  24.580  1.00  0.00     0.017 A 
ATOM     16  C   UNL A   1      31.731  25.939  21.674  1.00  0.00     0.014 C 
ATOM     17  C   UNL A   1      32.485  22.132  23.209  1.00  0.00     0.074 A 
ATOM     18  C   UNL A   1      32.597  20.518  25.015  1.00  0.00     0.034 A 
ATOM     19  C   UNL A   1      32.257  21.087  22.330  1.00  0.00     0.069 A 
ATOM     20  C   UNL A   1      32.371  19.479  24.114  1.00  0.00     0.077 A 
ATOM     21  C   UNL A   1      32.203  19.771  22.771  1.00  0.00     0.143 A 
ATOM     22  Cl  UNL A   1      32.303  17.858  24.683  1.00  0.00    -0.081 Cl
ATOM     23  F   UNL A   1      31.978  18.798  21.877  1.00  0.00    -0.205 F 
ENDBRANCH   4   6
ENDBRANCH   3   4
ENDBRANCH   2   3
ENDBRANCH   1   2
BRANCH   1  24
ATOM     24  O   UNL A   1      37.381  21.844  25.157  1.00  0.00    -0.458 OA
BRANCH  24  25
ATOM     25  C   UNL A   1      38.528  21.447  25.748  1.00  0.00     0.338 C 
ATOM     26  O   UNL A   1      39.076  20.361  25.662  1.00  0.00    -0.246 OA
BRANCH  25  27
ATOM     27  C   UNL A   1      39.106  22.601  26.460  1.00  0.00     0.060 A 
ATOM     28  C   UNL A   1      40.210  22.465  27.295  1.00  0.00     0.016 A 
ATOM     29  C   UNL A   1      38.629  23.870  26.159  1.00  0.00     0.016 A 
ATOM     30  C   UNL A   1      40.835  23.614  27.805  1.00  0.00     0.010 A 
ATOM     31  C   UNL A   1      39.350  25.000  26.543  1.00  0.00     0.010 A 
ATOM     32  C   UNL A   1      40.467  24.909  27.378  1.00  0.00    -0.014 A 
BRANCH  32  33
ATOM     33  C   UNL A   1      41.274  26.124  27.740  1.00  0.00     0.031 A 
ATOM     34  C   UNL A   1      42.685  26.363  27.231  1.00  0.00     0.074 A 
ATOM     35  C   UNL A   1      40.774  27.012  28.630  1.00  0.00     0.049 A 
ATOM     36  N   UNL A   1      43.468  27.400  27.432  1.00  0.00    -0.248 NA
ATOM     37  C   UNL A   1      43.336  25.289  26.464  1.00  0.00     0.031 C 
ATOM     38  C   UNL A   1      39.525  26.852  29.381  1.00  0.00     0.029 A 
ATOM     39  N   UNL A   1      41.243  28.239  29.043  1.00  0.00    -0.354 N 
ATOM     40  C   UNL A   1      44.694  27.079  26.856  1.00  0.00     0.074 A 
ATOM     41  C   UNL A   1      44.587  25.717  26.388  1.00  0.00     0.031 C 
ATOM     42  C   UNL A   1      39.275  27.974  30.072  1.00  0.00     0.029 A 
ATOM     43  C   UNL A   1      40.359  28.924  29.843  1.00  0.00     0.049 A 
ATOM     44  H   UNL A   1      42.127  28.591  28.789  1.00  0.00     0.167 HD
ATOM     45  C   UNL A   1      45.789  27.856  26.667  1.00  0.00     0.037 A 
ATOM     46  C   UNL A   1      40.382  30.188  30.311  1.00  0.00     0.037 A 
ATOM     47  C   UNL A   1      45.871  29.245  27.034  1.00  0.00     0.049 A 
ATOM     48  C   UNL A   1      41.530  31.092  29.965  1.00  0.00     0.074 A 
ATOM     49  C   UNL A   1      46.871  30.157  26.738  1.00  0.00     0.029 A 
ATOM     50  N   UNL A   1      44.913  29.926  27.766  1.00  0.00    -0.354 N 
ATOM     51  N   UNL A   1      42.611  30.822  29.277  1.00  0.00    -0.248 NA
ATOM     52  C   UNL A   1      41.454  32.479  30.446  1.00  0.00     0.031 C 
ATOM     53  C   UNL A   1      46.531  31.384  27.318  1.00  0.00     0.029 A 
ATOM     54  C   UNL A   1      45.302  31.244  27.938  1.00  0.00     0.049 A 
ATOM     55  H   UNL A   1      44.079  29.533  28.112  1.00  0.00     0.167 HD
ATOM     56  C   UNL A   1      43.333  32.006  29.223  1.00  0.00     0.074 A 
ATOM     57  C   UNL A   1      42.559  33.003  29.933  1.00  0.00     0.031 C 
ATOM     58  C   UNL A   1      44.532  32.240  28.637  1.00  0.00     0.037 A 
BRANCH  45  59
ATOM     59  C   UNL A   1      46.971  27.255  25.953  1.00  0.00     0.057 A 
ATOM     60  C   UNL A   1      47.140  27.394  24.568  1.00  0.00     0.134 A 
ATOM     61  C   UNL A   1      47.993  26.608  26.661  1.00  0.00     0.134 A 
ATOM     62  F   UNL A   1      46.203  28.005  23.826  1.00  0.00    -0.206 F 
ATOM     63  C   UNL A   1      48.261  26.885  23.910  1.00  0.00     0.040 A 
ATOM     64  C   UNL A   1      49.135  26.125  26.019  1.00  0.00     0.040 A 
ATOM     65  F   UNL A   1      47.911  26.456  27.992  1.00  0.00    -0.206 F 
ATOM     66  C   UNL A   1      49.268  26.257  24.638  1.00  0.00     0.006 A 
ENDBRANCH  45  59
BRANCH  46  67
ATOM     67  C   UNL A   1      39.208  30.708  31.056  1.00  0.00     0.057 A 
ATOM     68  C   UNL A   1      39.142  30.581  32.449  1.00  0.00     0.134 A 
ATOM     69  C   UNL A   1      38.161  31.379  30.417  1.00  0.00     0.134 A 
ATOM     70  F   UNL A   1      40.112  29.936  33.114  1.00  0.00    -0.206 F 
ATOM     71  C   UNL A   1      38.074  31.098  33.182  1.00  0.00     0.040 A 
ATOM     72  C   UNL A   1      37.095  31.920  31.140  1.00  0.00     0.040 A 
ATOM     73  F   UNL A   1      38.173  31.544  29.087  1.00  0.00    -0.206 F 
ATOM     74  C   UNL A   1      37.049  31.778  32.526  1.00  0.00     0.006 A 
ENDBRANCH  46  67
BRANCH  58  75
ATOM     75  C   UNL A   1      45.090  33.629  28.713  1.00  0.00     0.057 A 
ATOM     76  C   UNL A   1      45.982  34.008  29.722  1.00  0.00     0.134 A 
ATOM     77  C   UNL A   1      44.792  34.575  27.723  1.00  0.00     0.134 A 
ATOM     78  F   UNL A   1      46.304  33.150  30.703  1.00  0.00    -0.206 F 
ATOM     79  C   UNL A   1      46.550  35.283  29.753  1.00  0.00     0.040 A 
ATOM     80  C   UNL A   1      45.370  35.845  27.729  1.00  0.00     0.040 A 
ATOM     81  F   UNL A   1      43.952  34.271  26.722  1.00  0.00    -0.206 F 
ATOM     82  C   UNL A   1      46.250  36.201  28.749  1.00  0.00     0.006 A 
ENDBRANCH  58  75
ENDBRANCH  32  33
ENDBRANCH  25  27
ENDBRANCH  24  25
ENDBRANCH   1  24
TORSDOF 11
ENDMDL
MODEL 3
REMARK VINA RESULT:     -12.5      4.185      7.520
REMARK SMILES C[C@@H]1CC[C@H](C)c2nc3cc(F)c(Cl)cc3c(C(=O)OCCOC(=O)c3ccc(-c4c5nc(c(-c6c(F)cccc6F)c6ccc([nH]6)c(-c6c(F)cccc6F)c6nc(c(-c7c(F)cccc7F)c7ccc4[nH]7)C=C6)C=C5)cc3)c21
REMARK SMILES IDX 22 1 21 2 20 3 18 4 19 5 17 6 1 7 2 8 3 9 80 10 4 11 7 12
REMARK SMILES IDX 5 13 8 14 16 15 6 16 9 17 15 18 10 19 13 20 11 21 14 22
REMARK SMILES IDX 12 23 23 24 24 25 25 26 26 27 27 28 79 29 28 30 78 31 29 32
REMARK SMILES IDX 30 33 31 34 72 35 32 36 77 37 71 38 73 39 33 40 76 41 70 42
REMARK SMILES IDX 69 43 34 45 60 46 43 47 59 48 44 49 47 50 58 51 74 52 45 53
REMARK SMILES IDX 46 54 57 56 75 57 48 58 35 59 36 60 41 61 37 62 38 63 40 64
REMARK SMILES IDX 42 65 39 66 61 67 62 68 67 69 63 70 64 71 66 72 68 73 65 74
REMARK SMILES IDX 49 75 50 76 55 77 51 78 52 79 54 80 56 81 53 82
REMARK H PARENT 73 44 47 55
REMARK Flexibility Score: inf
ROOT
ATOM      1  C   UNL A   1      33.601  31.218  27.505  1.00  0.00     0.275 C 
ENDROOT
BRANCH   1   2
ATOM      2  C   UNL A   1      32.355  30.447  27.080  1.00  0.00     0.275 C 
BRANCH   2   3
ATOM      3  O   UNL A   1      32.687  29.077  26.740  1.00  0.00    -0.458 OA
BRANCH   3   4
ATOM      4  C   UNL A   1      32.875  28.820  25.417  1.00  0.00     0.339 C 
ATOM      5  O   UNL A   1      33.739  29.309  24.720  1.00  0.00    -0.246 OA
BRANCH   4   6
ATOM      6  C   UNL A   1      31.848  27.855  24.905  1.00  0.00     0.074 A 
ATOM      7  C   UNL A   1      34.545  25.890  24.865  1.00  0.00     0.013 C 
ATOM      8  C   UNL A   1      33.271  25.871  25.722  1.00  0.00     0.019 C 
ATOM      9  C   UNL A   1      33.024  24.464  26.290  1.00  0.00     0.009 C 
ATOM     10  C   UNL A   1      32.059  26.454  25.029  1.00  0.00    -0.008 A 
ATOM     11  C   UNL A   1      32.434  23.556  25.227  1.00  0.00     0.010 C 
ATOM     12  C   UNL A   1      31.068  25.608  24.532  1.00  0.00     0.048 A 
ATOM     13  C   UNL A   1      31.086  24.101  24.749  1.00  0.00     0.035 C 
ATOM     14  N   UNL A   1      29.952  26.086  23.937  1.00  0.00    -0.252 NA
ATOM     15  C   UNL A   1      30.696  28.361  24.241  1.00  0.00     0.017 A 
ATOM     16  C   UNL A   1      30.653  23.329  23.501  1.00  0.00     0.014 C 
ATOM     17  C   UNL A   1      29.776  27.399  23.781  1.00  0.00     0.074 A 
ATOM     18  C   UNL A   1      30.405  29.732  23.989  1.00  0.00     0.034 A 
ATOM     19  C   UNL A   1      28.624  27.800  23.126  1.00  0.00     0.069 A 
ATOM     20  C   UNL A   1      29.238  30.115  23.332  1.00  0.00     0.077 A 
ATOM     21  C   UNL A   1      28.350  29.143  22.904  1.00  0.00     0.143 A 
ATOM     22  Cl  UNL A   1      28.921  31.784  23.062  1.00  0.00    -0.081 Cl
ATOM     23  F   UNL A   1      27.221  29.475  22.263  1.00  0.00    -0.205 F 
ENDBRANCH   4   6
ENDBRANCH   3   4
ENDBRANCH   2   3
ENDBRANCH   1   2
BRANCH   1  24
ATOM     24  O   UNL A   1      34.552  30.268  28.010  1.00  0.00    -0.458 OA
BRANCH  24  25
ATOM     25  C   UNL A   1      35.528  30.750  28.809  1.00  0.00     0.338 C 
ATOM     26  O   UNL A   1      35.440  31.632  29.647  1.00  0.00    -0.246 OA
BRANCH  25  27
ATOM     27  C   UNL A   1      36.746  29.948  28.590  1.00  0.00     0.060 A 
ATOM     28  C   UNL A   1      37.433  29.980  27.382  1.00  0.00     0.016 A 
ATOM     29  C   UNL A   1      37.295  29.274  29.673  1.00  0.00     0.016 A 
ATOM     30  C   UNL A   1      38.682  29.346  27.282  1.00  0.00     0.010 A 
ATOM     31  C   UNL A   1      38.600  28.785  29.606  1.00  0.00     0.010 A 
ATOM     32  C   UNL A   1      39.328  28.801  28.414  1.00  0.00    -0.014 A 
BRANCH  32  33
ATOM     33  C   UNL A   1      40.755  28.328  28.362  1.00  0.00     0.031 A 
ATOM     34  C   UNL A   1      41.142  26.901  28.015  1.00  0.00     0.074 A 
ATOM     35  C   UNL A   1      41.747  29.172  28.728  1.00  0.00     0.049 A 
ATOM     36  N   UNL A   1      42.343  26.382  27.888  1.00  0.00    -0.248 NA
ATOM     37  C   UNL A   1      40.066  25.910  27.860  1.00  0.00     0.031 C 
ATOM     38  C   UNL A   1      41.560  30.515  29.285  1.00  0.00     0.029 A 
ATOM     39  N   UNL A   1      43.116  29.036  28.667  1.00  0.00    -0.354 N 
ATOM     40  C   UNL A   1      42.157  25.018  27.682  1.00  0.00     0.074 A 
ATOM     41  C   UNL A   1      40.740  24.771  27.801  1.00  0.00     0.031 C 
ATOM     42  C   UNL A   1      42.753  31.114  29.411  1.00  0.00     0.029 A 
ATOM     43  C   UNL A   1      43.796  30.191  28.977  1.00  0.00     0.049 A 
ATOM     44  H   UNL A   1      43.563  28.194  28.425  1.00  0.00     0.167 HD
ATOM     45  C   UNL A   1      43.063  24.063  27.355  1.00  0.00     0.037 A 
ATOM     46  C   UNL A   1      45.105  30.500  28.885  1.00  0.00     0.037 A 
ATOM     47  C   UNL A   1      44.462  24.315  27.131  1.00  0.00     0.049 A 
ATOM     48  C   UNL A   1      46.081  29.479  28.374  1.00  0.00     0.074 A 
ATOM     49  C   UNL A   1      45.425  23.449  26.640  1.00  0.00     0.029 A 
ATOM     50  N   UNL A   1      45.095  25.523  27.370  1.00  0.00    -0.354 N 
ATOM     51  N   UNL A   1      45.863  28.237  28.025  1.00  0.00    -0.248 NA
ATOM     52  C   UNL A   1      47.479  29.909  28.229  1.00  0.00     0.031 C 
ATOM     53  C   UNL A   1      46.649  24.126  26.610  1.00  0.00     0.029 A 
ATOM     54  C   UNL A   1      46.438  25.423  27.044  1.00  0.00     0.049 A 
ATOM     55  H   UNL A   1      44.657  26.333  27.719  1.00  0.00     0.167 HD
ATOM     56  C   UNL A   1      47.088  27.742  27.598  1.00  0.00     0.074 A 
ATOM     57  C   UNL A   1      48.043  28.823  27.716  1.00  0.00     0.031 C 
ATOM     58  C   UNL A   1      47.388  26.498  27.152  1.00  0.00     0.037 A 
BRANCH  45  59
ATOM     59  C   UNL A   1      42.565  22.659  27.133  1.00  0.00     0.057 A 
ATOM     60  C   UNL A   1      42.210  21.828  28.205  1.00  0.00     0.134 A 
ATOM     61  C   UNL A   1      42.356  22.161  25.839  1.00  0.00     0.134 A 
ATOM     62  F   UNL A   1      42.381  22.240  29.471  1.00  0.00    -0.206 F 
ATOM     63  C   UNL A   1      41.698  20.545  28.001  1.00  0.00     0.040 A 
ATOM     64  C   UNL A   1      41.812  20.894  25.623  1.00  0.00     0.040 A 
ATOM     65  F   UNL A   1      42.653  22.907  24.765  1.00  0.00    -0.206 F 
ATOM     66  C   UNL A   1      41.488  20.079  26.706  1.00  0.00     0.006 A 
ENDBRANCH  45  59
BRANCH  46  67
ATOM     67  C   UNL A   1      45.544  31.890  29.170  1.00  0.00     0.057 A 
ATOM     68  C   UNL A   1      46.009  32.237  30.445  1.00  0.00     0.134 A 
ATOM     69  C   UNL A   1      45.559  32.881  28.185  1.00  0.00     0.134 A 
ATOM     70  F   UNL A   1      46.005  31.330  31.434  1.00  0.00    -0.206 F 
ATOM     71  C   UNL A   1      46.469  33.522  30.732  1.00  0.00     0.040 A 
ATOM     72  C   UNL A   1      46.037  34.166  28.451  1.00  0.00     0.040 A 
ATOM     73  F   UNL A   1      45.139  32.607  26.941  1.00  0.00    -0.206 F 
ATOM     74  C   UNL A   1      46.491  34.489  29.729  1.00  0.00     0.006 A 
ENDBRANCH  46  67
BRANCH  58  75
ATOM     75  C   UNL A   1      48.802  26.226  26.736  1.00  0.00     0.057 A 
ATOM     76  C   UNL A   1      49.716  25.610  27.598  1.00  0.00     0.134 A 
ATOM     77  C   UNL A   1      49.232  26.514  25.434  1.00  0.00     0.134 A 
ATOM     78  F   UNL A   1      49.369  25.315  28.860  1.00  0.00    -0.206 F 
ATOM     79  C   UNL A   1      51.013  25.300  27.185  1.00  0.00     0.040 A 
ATOM     80  C   UNL A   1      50.518  26.188  25.001  1.00  0.00     0.040 A 
ATOM     81  F   UNL A   1      48.401  27.094  24.555  1.00  0.00    -0.206 F 
ATOM     82  C   UNL A   1      51.413  25.582  25.880  1.00  0.00     0.006 A 
ENDBRANCH  58  75
ENDBRANCH  32  33
ENDBRANCH  25  27
ENDBRANCH  24  25
ENDBRANCH   1  24
TORSDOF 11
ENDMDL
