MODEL 1
REMARK VINA RESULT:     -11.9      0.000      0.000
REMARK SMILES Cc1ccc(Nc2c(C)cccc2Cl)c(CC(=O)OCCOC(=O)c2ccc(-c3c4nc(c(-c5c(F)cccc5F)c5ccc([nH]5)c(-c5c(F)cccc5F)c5nc(c(-c6c(F)cccc6F)c6ccc3[nH]6)C=C5)C=C4)cc2)c1
REMARK SMILES IDX 20 1 19 2 17 3 18 4 16 5 15 6 1 7 2 8 3 9 79 10 4 11 5 12
REMARK SMILES IDX 6 13 7 15 8 16 13 17 9 18 10 19 12 20 14 21 11 22 21 23
REMARK SMILES IDX 22 24 23 25 24 26 25 27 26 28 78 29 27 30 77 31 28 32 29 33
REMARK SMILES IDX 30 34 71 35 31 36 76 37 70 38 72 39 32 40 75 41 69 42 68 43
REMARK SMILES IDX 33 45 59 46 42 47 58 48 43 49 46 50 57 51 73 52 44 53 45 54
REMARK SMILES IDX 56 56 74 57 47 58 34 59 35 60 40 61 36 62 37 63 39 64 41 65
REMARK SMILES IDX 38 66 60 67 61 68 66 69 62 70 63 71 65 72 67 73 64 74 48 75
REMARK SMILES IDX 49 76 54 77 50 78 51 79 53 80 55 81 52 82
REMARK H PARENT 6 14 72 44 46 55
REMARK Flexibility Score: inf
ROOT
ATOM      1  C   UNL A   1      33.291  30.465  26.704  1.00  0.00     0.274 C 
ENDROOT
BRANCH   1   2
ATOM      2  O   UNL A   1      32.160  29.961  27.396  1.00  0.00    -0.462 OA
BRANCH   2   3
ATOM      3  C   UNL A   1      31.863  28.638  27.260  1.00  0.00     0.310 C 
ATOM      4  O   UNL A   1      31.174  27.982  28.002  1.00  0.00    -0.252 OA
BRANCH   3   5
ATOM      5  C   UNL A   1      32.568  28.124  26.017  1.00  0.00     0.160 C 
BRANCH   5   6
ATOM      6  C   UNL A   1      31.529  27.630  25.048  1.00  0.00    -0.013 A 
ATOM      7  C   UNL A   1      29.130  29.444  22.726  1.00  0.00     0.044 C 
ATOM      8  C   UNL A   1      29.809  28.347  23.486  1.00  0.00    -0.051 A 
ATOM      9  C   UNL A   1      29.282  27.055  23.511  1.00  0.00     0.005 A 
ATOM     10  C   UNL A   1      30.945  28.620  24.237  1.00  0.00     0.009 A 
ATOM     11  C   UNL A   1      29.882  26.053  24.280  1.00  0.00     0.026 A 
ATOM     12  C   UNL A   1      31.001  26.317  25.077  1.00  0.00     0.042 A 
BRANCH  12  13
ATOM     13  N   UNL A   1      31.531  25.306  25.900  1.00  0.00    -0.354 N 
ATOM     14  H   UNL A   1      31.489  25.493  26.866  1.00  0.00     0.167 HD
BRANCH  13  15
ATOM     15  C   UNL A   1      32.116  24.061  25.557  1.00  0.00     0.060 A 
ATOM     16  C   UNL A   1      31.421  22.860  25.807  1.00  0.00    -0.026 A 
ATOM     17  C   UNL A   1      33.296  23.992  24.785  1.00  0.00     0.064 A 
ATOM     18  C   UNL A   1      30.180  22.834  26.655  1.00  0.00     0.046 C 
ATOM     19  C   UNL A   1      31.922  21.645  25.303  1.00  0.00     0.005 A 
ATOM     20  C   UNL A   1      33.736  22.791  24.222  1.00  0.00     0.023 A 
ATOM     21  Cl  UNL A   1      34.358  25.340  24.631  1.00  0.00    -0.082 Cl
ATOM     22  C   UNL A   1      33.052  21.614  24.488  1.00  0.00     0.002 A 
ENDBRANCH  13  15
ENDBRANCH  12  13
ENDBRANCH   5   6
ENDBRANCH   3   5
ENDBRANCH   2   3
ENDBRANCH   1   2
BRANCH   1  23
ATOM     23  C   UNL A   1      34.368  30.863  27.725  1.00  0.00     0.275 C 
BRANCH  23  24
ATOM     24  O   UNL A   1      35.509  29.942  27.939  1.00  0.00    -0.458 OA
BRANCH  24  25
ATOM     25  C   UNL A   1      36.431  29.867  28.940  1.00  0.00     0.338 C 
ATOM     26  O   UNL A   1      36.240  30.329  30.057  1.00  0.00    -0.246 OA
BRANCH  25  27
ATOM     27  C   UNL A   1      37.666  29.130  28.656  1.00  0.00     0.060 A 
ATOM     28  C   UNL A   1      38.506  29.448  27.573  1.00  0.00     0.016 A 
ATOM     29  C   UNL A   1      38.049  28.209  29.603  1.00  0.00     0.016 A 
ATOM     30  C   UNL A   1      39.790  28.908  27.537  1.00  0.00     0.010 A 
ATOM     31  C   UNL A   1      39.378  27.972  29.752  1.00  0.00     0.010 A 
ATOM     32  C   UNL A   1      40.216  28.195  28.657  1.00  0.00    -0.014 A 
BRANCH  32  33
ATOM     33  C   UNL A   1      41.355  27.300  28.701  1.00  0.00     0.031 A 
ATOM     34  C   UNL A   1      41.237  25.883  28.370  1.00  0.00     0.074 A 
ATOM     35  C   UNL A   1      42.514  27.959  28.937  1.00  0.00     0.049 A 
ATOM     36  N   UNL A   1      41.823  24.947  29.030  1.00  0.00    -0.248 NA
ATOM     37  C   UNL A   1      40.420  25.389  27.262  1.00  0.00     0.031 C 
ATOM     38  C   UNL A   1      43.898  27.557  28.822  1.00  0.00     0.029 A 
ATOM     39  N   UNL A   1      42.595  29.268  29.438  1.00  0.00    -0.354 N 
ATOM     40  C   UNL A   1      41.781  23.834  28.219  1.00  0.00     0.074 A 
ATOM     41  C   UNL A   1      40.743  24.089  27.248  1.00  0.00     0.031 C 
ATOM     42  C   UNL A   1      44.653  28.440  29.512  1.00  0.00     0.029 A 
ATOM     43  C   UNL A   1      43.763  29.393  30.172  1.00  0.00     0.049 A 
ATOM     44  H   UNL A   1      41.931  29.980  29.292  1.00  0.00     0.167 HD
ATOM     45  C   UNL A   1      42.817  22.948  28.237  1.00  0.00     0.037 A 
ATOM     46  C   UNL A   1      43.606  29.605  31.511  1.00  0.00     0.037 A 
ATOM     47  C   UNL A   1      43.900  23.470  29.069  1.00  0.00     0.049 A 
ATOM     48  C   UNL A   1      43.966  28.350  32.266  1.00  0.00     0.074 A 
ATOM     49  C   UNL A   1      45.033  24.190  28.727  1.00  0.00     0.029 A 
ATOM     50  N   UNL A   1      43.704  23.676  30.430  1.00  0.00    -0.354 N 
ATOM     51  N   UNL A   1      43.940  27.154  31.744  1.00  0.00    -0.248 NA
ATOM     52  C   UNL A   1      44.449  28.356  33.640  1.00  0.00     0.031 C 
ATOM     53  C   UNL A   1      45.485  24.880  29.877  1.00  0.00     0.029 A 
ATOM     54  C   UNL A   1      44.626  24.584  30.920  1.00  0.00     0.049 A 
ATOM     55  H   UNL A   1      43.006  23.237  30.970  1.00  0.00     0.167 HD
ATOM     56  C   UNL A   1      44.456  26.258  32.635  1.00  0.00     0.074 A 
ATOM     57  C   UNL A   1      44.745  27.055  33.815  1.00  0.00     0.031 C 
ATOM     58  C   UNL A   1      44.641  24.941  32.329  1.00  0.00     0.037 A 
BRANCH  45  59
ATOM     59  C   UNL A   1      42.983  21.857  27.209  1.00  0.00     0.057 A 
ATOM     60  C   UNL A   1      42.149  20.722  27.188  1.00  0.00     0.134 A 
ATOM     61  C   UNL A   1      43.956  21.891  26.194  1.00  0.00     0.134 A 
ATOM     62  F   UNL A   1      41.138  20.570  28.051  1.00  0.00    -0.206 F 
ATOM     63  C   UNL A   1      42.311  19.673  26.274  1.00  0.00     0.040 A 
ATOM     64  C   UNL A   1      44.147  20.834  25.289  1.00  0.00     0.040 A 
ATOM     65  F   UNL A   1      44.747  22.963  26.030  1.00  0.00    -0.206 F 
ATOM     66  C   UNL A   1      43.324  19.716  25.330  1.00  0.00     0.006 A 
ENDBRANCH  45  59
BRANCH  46  67
ATOM     67  C   UNL A   1      42.474  30.546  31.830  1.00  0.00     0.057 A 
ATOM     68  C   UNL A   1      41.274  29.998  32.339  1.00  0.00     0.134 A 
ATOM     69  C   UNL A   1      42.625  31.929  31.973  1.00  0.00     0.134 A 
ATOM     70  F   UNL A   1      41.049  28.677  32.250  1.00  0.00    -0.206 F 
ATOM     71  C   UNL A   1      40.330  30.761  33.040  1.00  0.00     0.040 A 
ATOM     72  C   UNL A   1      41.672  32.709  32.656  1.00  0.00     0.040 A 
ATOM     73  F   UNL A   1      43.730  32.547  31.534  1.00  0.00    -0.206 F 
ATOM     74  C   UNL A   1      40.541  32.121  33.223  1.00  0.00     0.006 A 
ENDBRANCH  46  67
BRANCH  58  75
ATOM     75  C   UNL A   1      44.968  23.861  33.319  1.00  0.00     0.057 A 
ATOM     76  C   UNL A   1      46.251  23.647  33.834  1.00  0.00     0.134 A 
ATOM     77  C   UNL A   1      43.935  23.104  33.921  1.00  0.00     0.134 A 
ATOM     78  F   UNL A   1      47.301  24.378  33.433  1.00  0.00    -0.206 F 
ATOM     79  C   UNL A   1      46.502  22.705  34.836  1.00  0.00     0.040 A 
ATOM     80  C   UNL A   1      44.165  22.214  34.969  1.00  0.00     0.040 A 
ATOM     81  F   UNL A   1      42.654  23.220  33.541  1.00  0.00    -0.206 F 
ATOM     82  C   UNL A   1      45.457  21.998  35.417  1.00  0.00     0.006 A 
ENDBRANCH  58  75
ENDBRANCH  32  33
ENDBRANCH  25  27
ENDBRANCH  24  25
ENDBRANCH  23  24
ENDBRANCH   1  23
TORSDOF 14
ENDMDL
MODEL 2
REMARK VINA RESULT:     -11.8      1.267      2.745
REMARK SMILES Cc1ccc(Nc2c(C)cccc2Cl)c(CC(=O)OCCOC(=O)c2ccc(-c3c4nc(c(-c5c(F)cccc5F)c5ccc([nH]5)c(-c5c(F)cccc5F)c5nc(c(-c6c(F)cccc6F)c6ccc3[nH]6)C=C5)C=C4)cc2)c1
REMARK SMILES IDX 20 1 19 2 17 3 18 4 16 5 15 6 1 7 2 8 3 9 79 10 4 11 5 12
REMARK SMILES IDX 6 13 7 15 8 16 13 17 9 18 10 19 12 20 14 21 11 22 21 23
REMARK SMILES IDX 22 24 23 25 24 26 25 27 26 28 78 29 27 30 77 31 28 32 29 33
REMARK SMILES IDX 30 34 71 35 31 36 76 37 70 38 72 39 32 40 75 41 69 42 68 43
REMARK SMILES IDX 33 45 59 46 42 47 58 48 43 49 46 50 57 51 73 52 44 53 45 54
REMARK SMILES IDX 56 56 74 57 47 58 34 59 35 60 40 61 36 62 37 63 39 64 41 65
REMARK SMILES IDX 38 66 60 67 61 68 66 69 62 70 63 71 65 72 67 73 64 74 48 75
REMARK SMILES IDX 49 76 54 77 50 78 51 79 53 80 55 81 52 82
REMARK H PARENT 6 14 72 44 46 55
REMARK Flexibility Score: inf
ROOT
ATOM      1  C   UNL A   1      33.146  29.233  26.845  1.00  0.00     0.274 C 
ENDROOT
BRANCH   1   2
ATOM      2  O   UNL A   1      33.788  27.969  26.778  1.00  0.00    -0.462 OA
BRANCH   2   3
ATOM      3  C   UNL A   1      33.596  27.214  25.659  1.00  0.00     0.310 C 
ATOM      4  O   UNL A   1      33.842  27.545  24.525  1.00  0.00    -0.252 OA
BRANCH   3   5
ATOM      5  C   UNL A   1      32.999  25.885  26.086  1.00  0.00     0.160 C 
BRANCH   5   6
ATOM      6  C   UNL A   1      33.656  24.788  25.294  1.00  0.00    -0.013 A 
ATOM      7  C   UNL A   1      37.254  23.584  25.091  1.00  0.00     0.044 C 
ATOM      8  C   UNL A   1      35.794  23.738  24.800  1.00  0.00    -0.051 A 
ATOM      9  C   UNL A   1      35.215  23.144  23.679  1.00  0.00     0.005 A 
ATOM     10  C   UNL A   1      35.003  24.539  25.615  1.00  0.00     0.009 A 
ATOM     11  C   UNL A   1      33.866  23.351  23.376  1.00  0.00     0.026 A 
ATOM     12  C   UNL A   1      33.063  24.187  24.158  1.00  0.00     0.042 A 
BRANCH  12  13
ATOM     13  N   UNL A   1      31.730  24.437  23.779  1.00  0.00    -0.354 N 
ATOM     14  H   UNL A   1      31.138  23.650  23.803  1.00  0.00     0.167 HD
BRANCH  13  15
ATOM     15  C   UNL A   1      31.107  25.643  23.370  1.00  0.00     0.060 A 
ATOM     16  C   UNL A   1      30.143  26.256  24.195  1.00  0.00    -0.026 A 
ATOM     17  C   UNL A   1      31.567  26.361  22.246  1.00  0.00     0.064 A 
ATOM     18  C   UNL A   1      29.565  25.547  25.387  1.00  0.00     0.046 C 
ATOM     19  C   UNL A   1      29.662  27.539  23.872  1.00  0.00     0.005 A 
ATOM     20  C   UNL A   1      31.143  27.667  21.984  1.00  0.00     0.023 A 
ATOM     21  Cl  UNL A   1      32.543  25.622  21.033  1.00  0.00    -0.082 Cl
ATOM     22  C   UNL A   1      30.182  28.254  22.795  1.00  0.00     0.002 A 
ENDBRANCH  13  15
ENDBRANCH  12  13
ENDBRANCH   5   6
ENDBRANCH   3   5
ENDBRANCH   2   3
ENDBRANCH   1   2
BRANCH   1  23
ATOM     23  C   UNL A   1      34.137  30.270  27.396  1.00  0.00     0.275 C 
BRANCH  23  24
ATOM     24  O   UNL A   1      35.395  29.783  28.011  1.00  0.00    -0.458 OA
BRANCH  24  25
ATOM     25  C   UNL A   1      36.561  30.425  28.304  1.00  0.00     0.338 C 
ATOM     26  O   UNL A   1      36.655  31.644  28.361  1.00  0.00    -0.246 OA
BRANCH  25  27
ATOM     27  C   UNL A   1      37.719  29.587  28.633  1.00  0.00     0.060 A 
ATOM     28  C   UNL A   1      37.744  28.736  29.753  1.00  0.00     0.016 A 
ATOM     29  C   UNL A   1      38.723  29.553  27.694  1.00  0.00     0.016 A 
ATOM     30  C   UNL A   1      38.740  27.765  29.838  1.00  0.00     0.010 A 
ATOM     31  C   UNL A   1      39.460  28.417  27.599  1.00  0.00     0.010 A 
ATOM     32  C   UNL A   1      39.571  27.604  28.730  1.00  0.00    -0.014 A 
BRANCH  32  33
ATOM     33  C   UNL A   1      40.840  26.902  28.725  1.00  0.00     0.031 A 
ATOM     34  C   UNL A   1      40.947  25.501  28.329  1.00  0.00     0.074 A 
ATOM     35  C   UNL A   1      41.882  27.728  28.986  1.00  0.00     0.049 A 
ATOM     36  N   UNL A   1      41.685  24.643  28.942  1.00  0.00    -0.248 NA
ATOM     37  C   UNL A   1      40.206  24.933  27.205  1.00  0.00     0.031 C 
ATOM     38  C   UNL A   1      43.310  27.561  28.845  1.00  0.00     0.029 A 
ATOM     39  N   UNL A   1      41.758  29.010  29.547  1.00  0.00    -0.354 N 
ATOM     40  C   UNL A   1      41.811  23.576  28.080  1.00  0.00     0.074 A 
ATOM     41  C   UNL A   1      40.733  23.704  27.128  1.00  0.00     0.031 C 
ATOM     42  C   UNL A   1      43.922  28.522  29.571  1.00  0.00     0.029 A 
ATOM     43  C   UNL A   1      42.899  29.288  30.280  1.00  0.00     0.049 A 
ATOM     44  H   UNL A   1      40.986  29.611  29.438  1.00  0.00     0.167 HD
ATOM     45  C   UNL A   1      42.977  22.869  28.052  1.00  0.00     0.037 A 
ATOM     46  C   UNL A   1      42.727  29.411  31.628  1.00  0.00     0.037 A 
ATOM     47  C   UNL A   1      43.972  23.520  28.901  1.00  0.00     0.049 A 
ATOM     48  C   UNL A   1      43.294  28.198  32.322  1.00  0.00     0.074 A 
ATOM     49  C   UNL A   1      44.971  24.429  28.587  1.00  0.00     0.029 A 
ATOM     50  N   UNL A   1      43.763  23.630  30.272  1.00  0.00    -0.354 N 
ATOM     51  N   UNL A   1      43.454  27.038  31.744  1.00  0.00    -0.248 NA
ATOM     52  C   UNL A   1      43.787  28.220  33.692  1.00  0.00     0.031 C 
ATOM     53  C   UNL A   1      45.320  25.129  29.766  1.00  0.00     0.029 A 
ATOM     54  C   UNL A   1      44.533  24.652  30.799  1.00  0.00     0.049 A 
ATOM     55  H   UNL A   1      43.152  23.061  30.794  1.00  0.00     0.167 HD
ATOM     56  C   UNL A   1      44.119  26.198  32.590  1.00  0.00     0.074 A 
ATOM     57  C   UNL A   1      44.290  26.977  33.805  1.00  0.00     0.031 C 
ATOM     58  C   UNL A   1      44.508  24.943  32.223  1.00  0.00     0.037 A 
BRANCH  45  59
ATOM     59  C   UNL A   1      43.303  21.866  26.973  1.00  0.00     0.057 A 
ATOM     60  C   UNL A   1      42.671  20.609  26.910  1.00  0.00     0.134 A 
ATOM     61  C   UNL A   1      44.236  22.107  25.949  1.00  0.00     0.134 A 
ATOM     62  F   UNL A   1      41.717  20.252  27.778  1.00  0.00    -0.206 F 
ATOM     63  C   UNL A   1      42.987  19.642  25.949  1.00  0.00     0.040 A 
ATOM     64  C   UNL A   1      44.583  21.137  24.994  1.00  0.00     0.040 A 
ATOM     65  F   UNL A   1      44.833  23.302  25.825  1.00  0.00    -0.206 F 
ATOM     66  C   UNL A   1      43.961  19.895  24.995  1.00  0.00     0.006 A 
ENDBRANCH  45  59
BRANCH  46  67
ATOM     67  C   UNL A   1      41.463  30.142  31.996  1.00  0.00     0.057 A 
ATOM     68  C   UNL A   1      40.415  29.404  32.594  1.00  0.00     0.134 A 
ATOM     69  C   UNL A   1      41.366  31.534  32.097  1.00  0.00     0.134 A 
ATOM     70  F   UNL A   1      40.430  28.062  32.550  1.00  0.00    -0.206 F 
ATOM     71  C   UNL A   1      39.390  30.007  33.335  1.00  0.00     0.040 A 
ATOM     72  C   UNL A   1      40.329  32.151  32.822  1.00  0.00     0.040 A 
ATOM     73  F   UNL A   1      42.313  32.326  31.575  1.00  0.00    -0.206 F 
ATOM     74  C   UNL A   1      39.360  31.388  33.473  1.00  0.00     0.006 A 
ENDBRANCH  46  67
BRANCH  58  75
ATOM     75  C   UNL A   1      45.017  23.886  33.159  1.00  0.00     0.057 A 
ATOM     76  C   UNL A   1      46.307  23.891  33.702  1.00  0.00     0.134 A 
ATOM     77  C   UNL A   1      44.138  22.910  33.683  1.00  0.00     0.134 A 
ATOM     78  F   UNL A   1      47.203  24.833  33.378  1.00  0.00    -0.206 F 
ATOM     79  C   UNL A   1      46.715  22.953  34.657  1.00  0.00     0.040 A 
ATOM     80  C   UNL A   1      44.513  22.017  34.685  1.00  0.00     0.040 A 
ATOM     81  F   UNL A   1      42.867  22.801  33.269  1.00  0.00    -0.206 F 
ATOM     82  C   UNL A   1      45.814  22.025  35.163  1.00  0.00     0.006 A 
ENDBRANCH  58  75
ENDBRANCH  32  33
ENDBRANCH  25  27
ENDBRANCH  24  25
ENDBRANCH  23  24
ENDBRANCH   1  23
TORSDOF 14
ENDMDL
MODEL 3
REMARK VINA RESULT:     -11.8      3.916      9.430
REMARK SMILES Cc1ccc(Nc2c(C)cccc2Cl)c(CC(=O)OCCOC(=O)c2ccc(-c3c4nc(c(-c5c(F)cccc5F)c5ccc([nH]5)c(-c5c(F)cccc5F)c5nc(c(-c6c(F)cccc6F)c6ccc3[nH]6)C=C5)C=C4)cc2)c1
REMARK SMILES IDX 20 1 19 2 17 3 18 4 16 5 15 6 1 7 2 8 3 9 79 10 4 11 5 12
REMARK SMILES IDX 6 13 7 15 8 16 13 17 9 18 10 19 12 20 14 21 11 22 21 23
REMARK SMILES IDX 22 24 23 25 24 26 25 27 26 28 78 29 27 30 77 31 28 32 29 33
REMARK SMILES IDX 30 34 71 35 31 36 76 37 70 38 72 39 32 40 75 41 69 42 68 43
REMARK SMILES IDX 33 45 59 46 42 47 58 48 43 49 46 50 57 51 73 52 44 53 45 54
REMARK SMILES IDX 56 56 74 57 47 58 34 59 35 60 40 61 36 62 37 63 39 64 41 65
REMARK SMILES IDX 38 66 60 67 61 68 66 69 62 70 63 71 65 72 67 73 64 74 48 75
REMARK SMILES IDX 49 76 54 77 50 78 51 79 53 80 55 81 52 82
REMARK H PARENT 6 14 72 44 46 55
REMARK Flexibility Score: inf
ROOT
ATOM      1  C   UNL A   1      36.353  23.346  26.109  1.00  0.00     0.274 C 
ENDROOT
BRANCH   1   2
ATOM      2  O   UNL A   1      36.344  22.428  25.028  1.00  0.00    -0.462 OA
BRANCH   2   3
ATOM      3  C   UNL A   1      35.904  21.161  25.268  1.00  0.00     0.310 C 
ATOM      4  O   UNL A   1      36.507  20.141  25.038  1.00  0.00    -0.252 OA
BRANCH   3   5
ATOM      5  C   UNL A   1      34.509  21.252  25.859  1.00  0.00     0.160 C 
BRANCH   5   6
ATOM      6  C   UNL A   1      33.508  21.145  24.741  1.00  0.00    -0.013 A 
ATOM      7  C   UNL A   1      32.278  18.197  22.685  1.00  0.00     0.044 C 
ATOM      8  C   UNL A   1      32.492  19.599  23.163  1.00  0.00    -0.051 A 
ATOM      9  C   UNL A   1      32.050  20.691  22.415  1.00  0.00     0.005 A 
ATOM     10  C   UNL A   1      33.198  19.834  24.336  1.00  0.00     0.009 A 
ATOM     11  C   UNL A   1      32.316  21.998  22.834  1.00  0.00     0.026 A 
ATOM     12  C   UNL A   1      33.062  22.258  23.988  1.00  0.00     0.042 A 
BRANCH  12  13
ATOM     13  N   UNL A   1      33.379  23.584  24.337  1.00  0.00    -0.354 N 
ATOM     14  H   UNL A   1      34.339  23.759  24.472  1.00  0.00     0.167 HD
BRANCH  13  15
ATOM     15  C   UNL A   1      32.534  24.707  24.523  1.00  0.00     0.060 A 
ATOM     16  C   UNL A   1      32.428  25.688  23.517  1.00  0.00    -0.026 A 
ATOM     17  C   UNL A   1      31.635  24.775  25.610  1.00  0.00     0.064 A 
ATOM     18  C   UNL A   1      33.372  25.717  22.348  1.00  0.00     0.046 C 
ATOM     19  C   UNL A   1      31.457  26.701  23.628  1.00  0.00     0.005 A 
ATOM     20  C   UNL A   1      30.622  25.738  25.665  1.00  0.00     0.023 A 
ATOM     21  Cl  UNL A   1      31.831  23.796  27.013  1.00  0.00    -0.082 Cl
ATOM     22  C   UNL A   1      30.538  26.707  24.676  1.00  0.00     0.002 A 
ENDBRANCH  13  15
ENDBRANCH  12  13
ENDBRANCH   5   6
ENDBRANCH   3   5
ENDBRANCH   2   3
ENDBRANCH   1   2
BRANCH   1  23
ATOM     23  C   UNL A   1      37.675  24.130  26.091  1.00  0.00     0.275 C 
BRANCH  23  24
ATOM     24  O   UNL A   1      38.700  23.802  27.109  1.00  0.00    -0.458 OA
BRANCH  24  25
ATOM     25  C   UNL A   1      39.926  24.344  27.361  1.00  0.00     0.338 C 
ATOM     26  O   UNL A   1      40.971  23.725  27.213  1.00  0.00    -0.246 OA
BRANCH  25  27
ATOM     27  C   UNL A   1      39.962  25.755  27.756  1.00  0.00     0.060 A 
ATOM     28  C   UNL A   1      40.304  26.784  26.859  1.00  0.00     0.016 A 
ATOM     29  C   UNL A   1      39.484  26.041  29.014  1.00  0.00     0.016 A 
ATOM     30  C   UNL A   1      40.034  28.104  27.216  1.00  0.00     0.010 A 
ATOM     31  C   UNL A   1      38.914  27.257  29.211  1.00  0.00     0.010 A 
ATOM     32  C   UNL A   1      39.308  28.314  28.388  1.00  0.00    -0.014 A 
BRANCH  32  33
ATOM     33  C   UNL A   1      39.202  29.574  29.097  1.00  0.00     0.031 A 
ATOM     34  C   UNL A   1      38.156  30.546  28.794  1.00  0.00     0.074 A 
ATOM     35  C   UNL A   1      40.076  29.655  30.129  1.00  0.00     0.049 A 
ATOM     36  N   UNL A   1      38.360  31.815  28.735  1.00  0.00    -0.248 NA
ATOM     37  C   UNL A   1      36.774  30.165  28.509  1.00  0.00     0.031 C 
ATOM     38  C   UNL A   1      40.177  30.567  31.245  1.00  0.00     0.029 A 
ATOM     39  N   UNL A   1      41.191  28.816  30.292  1.00  0.00    -0.354 N 
ATOM     40  C   UNL A   1      37.113  32.397  28.801  1.00  0.00     0.074 A 
ATOM     41  C   UNL A   1      36.170  31.360  28.455  1.00  0.00     0.031 C 
ATOM     42  C   UNL A   1      41.413  30.450  31.777  1.00  0.00     0.029 A 
ATOM     43  C   UNL A   1      42.183  29.517  30.957  1.00  0.00     0.049 A 
ATOM     44  H   UNL A   1      41.256  27.883  29.985  1.00  0.00     0.167 HD
ATOM     45  C   UNL A   1      36.962  33.594  29.439  1.00  0.00     0.037 A 
ATOM     46  C   UNL A   1      43.317  29.769  30.241  1.00  0.00     0.037 A 
ATOM     47  C   UNL A   1      38.216  33.971  30.087  1.00  0.00     0.049 A 
ATOM     48  C   UNL A   1      43.362  31.228  29.865  1.00  0.00     0.074 A 
ATOM     49  C   UNL A   1      38.654  33.776  31.387  1.00  0.00     0.029 A 
ATOM     50  N   UNL A   1      39.354  34.218  29.326  1.00  0.00    -0.354 N 
ATOM     51  N   UNL A   1      42.307  31.993  29.787  1.00  0.00    -0.248 NA
ATOM     52  C   UNL A   1      44.603  31.951  29.619  1.00  0.00     0.031 C 
ATOM     53  C   UNL A   1      40.068  33.848  31.395  1.00  0.00     0.029 A 
ATOM     54  C   UNL A   1      40.494  34.082  30.100  1.00  0.00     0.049 A 
ATOM     55  H   UNL A   1      39.350  34.455  28.370  1.00  0.00     0.167 HD
ATOM     56  C   UNL A   1      42.695  33.283  29.568  1.00  0.00     0.074 A 
ATOM     57  C   UNL A   1      44.142  33.205  29.452  1.00  0.00     0.031 C 
ATOM     58  C   UNL A   1      41.810  34.321  29.532  1.00  0.00     0.037 A 
BRANCH  45  59
ATOM     59  C   UNL A   1      35.615  34.173  29.790  1.00  0.00     0.057 A 
ATOM     60  C   UNL A   1      34.755  34.704  28.809  1.00  0.00     0.134 A 
ATOM     61  C   UNL A   1      35.107  34.214  31.101  1.00  0.00     0.134 A 
ATOM     62  F   UNL A   1      35.068  34.685  27.508  1.00  0.00    -0.206 F 
ATOM     63  C   UNL A   1      33.520  35.290  29.112  1.00  0.00     0.040 A 
ATOM     64  C   UNL A   1      33.883  34.823  31.423  1.00  0.00     0.040 A 
ATOM     65  F   UNL A   1      35.774  33.647  32.118  1.00  0.00    -0.206 F 
ATOM     66  C   UNL A   1      33.085  35.369  30.425  1.00  0.00     0.006 A 
ENDBRANCH  45  59
BRANCH  46  67
ATOM     67  C   UNL A   1      43.738  28.610  29.377  1.00  0.00     0.057 A 
ATOM     68  C   UNL A   1      44.003  27.372  30.004  1.00  0.00     0.134 A 
ATOM     69  C   UNL A   1      43.571  28.570  27.988  1.00  0.00     0.134 A 
ATOM     70  F   UNL A   1      44.171  27.317  31.336  1.00  0.00    -0.206 F 
ATOM     71  C   UNL A   1      43.999  26.154  29.311  1.00  0.00     0.040 A 
ATOM     72  C   UNL A   1      43.586  27.354  27.278  1.00  0.00     0.040 A 
ATOM     73  F   UNL A   1      43.304  29.687  27.297  1.00  0.00    -0.206 F 
ATOM     74  C   UNL A   1      43.763  26.141  27.942  1.00  0.00     0.006 A 
ENDBRANCH  46  67
BRANCH  58  75
ATOM     75  C   UNL A   1      42.125  35.711  29.061  1.00  0.00     0.057 A 
ATOM     76  C   UNL A   1      42.913  36.612  29.785  1.00  0.00     0.134 A 
ATOM     77  C   UNL A   1      41.775  36.120  27.753  1.00  0.00     0.134 A 
ATOM     78  F   UNL A   1      43.410  36.303  30.991  1.00  0.00    -0.206 F 
ATOM     79  C   UNL A   1      43.279  37.860  29.269  1.00  0.00     0.040 A 
ATOM     80  C   UNL A   1      42.194  37.330  27.204  1.00  0.00     0.040 A 
ATOM     81  F   UNL A   1      41.038  35.348  26.940  1.00  0.00    -0.206 F 
ATOM     82  C   UNL A   1      42.935  38.215  27.971  1.00  0.00     0.006 A 
ENDBRANCH  58  75
ENDBRANCH  32  33
ENDBRANCH  25  27
ENDBRANCH  24  25
ENDBRANCH  23  24
ENDBRANCH   1  23
TORSDOF 14
ENDMDL
