MODEL 1
REMARK VINA RESULT:     -12.2      0.000      0.000
REMARK SMILES COC(=O)c1c(NC(=O)[C@@H]2[C@H]3CC[C@H](CC3)[C@H]2C(=O)OCCOC(=O)c2ccc(-c3c4nc(c(-c5c(F)cccc5F)c5ccc([nH]5)c(-c5c(F)cccc5F)c5nc(c(-c6c(F)cccc6F)c6ccc3[nH]6)C=C5)C=C4)cc2)sc(C)c1-c1ccc(C)cc1
REMARK SMILES IDX 21 1 20 2 18 3 19 4 17 5 10 6 11 7 12 8 16 9 14 10 13 11
REMARK SMILES IDX 15 12 8 13 7 14 9 16 6 17 5 18 83 19 80 20 81 21 82 22 3 23
REMARK SMILES IDX 4 24 2 25 1 26 84 27 85 28 90 29 86 30 89 31 87 32 88 33
REMARK SMILES IDX 22 34 23 35 24 36 25 37 26 38 27 39 79 40 28 41 78 42 29 43
REMARK SMILES IDX 30 44 31 45 72 46 32 47 77 48 71 49 73 50 33 51 76 52 70 53
REMARK SMILES IDX 69 54 34 56 60 57 43 58 59 59 44 60 47 61 58 62 74 63 45 64
REMARK SMILES IDX 46 65 57 67 75 68 48 69 35 70 36 71 41 72 37 73 38 74 40 75
REMARK SMILES IDX 42 76 39 77 61 78 62 79 67 80 63 81 64 82 66 83 68 84 65 85
REMARK SMILES IDX 49 86 50 87 55 88 51 89 52 90 54 91 56 92 53 93
REMARK H PARENT 7 15 73 55 47 66
REMARK Flexibility Score: inf
ROOT
ATOM      1  C   UNL A   1      36.377  19.241  24.649  1.00  0.00     0.274 C 
ENDROOT
BRANCH   1   2
ATOM      2  O   UNL A   1      35.497  20.072  25.436  1.00  0.00    -0.462 OA
BRANCH   2   3
ATOM      3  C   UNL A   1      34.500  20.674  24.738  1.00  0.00     0.310 C 
ATOM      4  O   UNL A   1      33.561  20.067  24.227  1.00  0.00    -0.252 OA
BRANCH   3   5
ATOM      5  C   UNL A   1      34.635  22.186  24.612  1.00  0.00     0.115 C 
ATOM      6  C   UNL A   1      33.347  23.063  24.405  1.00  0.00     0.096 C 
ATOM      7  C   UNL A   1      33.376  24.141  25.553  1.00  0.00     0.002 C 
ATOM      8  C   UNL A   1      33.318  23.390  26.904  1.00  0.00     0.005 C 
ATOM      9  C   UNL A   1      34.687  24.979  25.594  1.00  0.00     0.005 C 
ATOM     10  C   UNL A   1      35.466  22.627  25.843  1.00  0.00     0.004 C 
ATOM     11  C   UNL A   1      34.597  22.567  27.108  1.00  0.00     0.005 C 
ATOM     12  C   UNL A   1      35.917  24.070  25.612  1.00  0.00     0.005 C 
BRANCH   6  13
ATOM     13  C   UNL A   1      33.323  23.764  23.010  1.00  0.00     0.229 C 
ATOM     14  N   UNL A   1      32.636  24.869  22.587  1.00  0.00    -0.317 N 
ATOM     15  H   UNL A   1      32.884  25.109  21.666  1.00  0.00     0.170 HD
ATOM     16  O   UNL A   1      33.973  23.234  22.088  1.00  0.00    -0.274 OA
BRANCH  14  17
ATOM     17  C   UNL A   1      31.686  25.748  23.094  1.00  0.00     0.111 A 
ATOM     18  C   UNL A   1      31.743  27.148  23.076  1.00  0.00     0.102 A 
ATOM     19  C   UNL A   1      30.417  27.727  23.294  1.00  0.00     0.012 A 
ATOM     20  S   UNL A   1      30.300  25.227  23.919  1.00  0.00    -0.122 S 
ATOM     21  C   UNL A   1      29.513  26.740  23.669  1.00  0.00     0.012 A 
ATOM     22  C   UNL A   1      28.028  26.827  23.828  1.00  0.00     0.057 C 
BRANCH  18  23
ATOM     23  C   UNL A   1      32.959  27.899  22.755  1.00  0.00     0.341 C 
ATOM     24  O   UNL A   1      33.654  27.668  21.774  1.00  0.00    -0.246 OA
BRANCH  23  25
ATOM     25  O   UNL A   1      33.239  28.851  23.687  1.00  0.00    -0.465 OA
ATOM     26  C   UNL A   1      33.416  28.453  25.047  1.00  0.00     0.282 C 
ENDBRANCH  23  25
ENDBRANCH  18  23
BRANCH  19  27
ATOM     27  C   UNL A   1      29.965  29.115  23.042  1.00  0.00    -0.016 A 
ATOM     28  C   UNL A   1      29.540  29.516  21.766  1.00  0.00     0.009 A 
ATOM     29  C   UNL A   1      29.919  30.065  24.066  1.00  0.00     0.009 A 
ATOM     30  C   UNL A   1      29.029  30.800  21.532  1.00  0.00     0.004 A 
ATOM     31  C   UNL A   1      29.403  31.351  23.840  1.00  0.00     0.004 A 
ATOM     32  C   UNL A   1      28.939  31.725  22.575  1.00  0.00    -0.051 A 
ATOM     33  C   UNL A   1      28.376  33.095  22.326  1.00  0.00     0.044 C 
ENDBRANCH  19  27
ENDBRANCH  14  17
ENDBRANCH   6  13
ENDBRANCH   3   5
ENDBRANCH   2   3
ENDBRANCH   1   2
BRANCH   1  34
ATOM     34  C   UNL A   1      37.867  19.500  24.946  1.00  0.00     0.275 C 
BRANCH  34  35
ATOM     35  O   UNL A   1      38.183  20.789  25.535  1.00  0.00    -0.458 OA
BRANCH  35  36
ATOM     36  C   UNL A   1      39.372  20.790  26.168  1.00  0.00     0.338 C 
ATOM     37  O   UNL A   1      40.113  19.828  26.250  1.00  0.00    -0.246 OA
BRANCH  36  38
ATOM     38  C   UNL A   1      39.863  22.018  26.778  1.00  0.00     0.060 A 
ATOM     39  C   UNL A   1      39.520  23.207  26.119  1.00  0.00     0.016 A 
ATOM     40  C   UNL A   1      40.888  21.999  27.714  1.00  0.00     0.016 A 
ATOM     41  C   UNL A   1      40.225  24.376  26.346  1.00  0.00     0.010 A 
ATOM     42  C   UNL A   1      41.573  23.189  27.982  1.00  0.00     0.010 A 
ATOM     43  C   UNL A   1      41.245  24.375  27.299  1.00  0.00    -0.014 A 
BRANCH  43  44
ATOM     44  C   UNL A   1      41.773  25.670  27.765  1.00  0.00     0.031 A 
ATOM     45  C   UNL A   1      40.944  26.670  28.501  1.00  0.00     0.074 A 
ATOM     46  C   UNL A   1      43.054  25.920  27.446  1.00  0.00     0.049 A 
ATOM     47  N   UNL A   1      41.247  27.892  28.855  1.00  0.00    -0.248 NA
ATOM     48  C   UNL A   1      39.592  26.251  28.885  1.00  0.00     0.031 C 
ATOM     49  C   UNL A   1      43.938  24.985  26.741  1.00  0.00     0.029 A 
ATOM     50  N   UNL A   1      43.822  27.031  27.639  1.00  0.00    -0.354 N 
ATOM     51  C   UNL A   1      40.116  28.399  29.483  1.00  0.00     0.074 A 
ATOM     52  C   UNL A   1      39.120  27.351  29.461  1.00  0.00     0.031 C 
ATOM     53  C   UNL A   1      45.120  25.576  26.532  1.00  0.00     0.029 A 
ATOM     54  C   UNL A   1      45.053  26.935  27.047  1.00  0.00     0.049 A 
ATOM     55  H   UNL A   1      43.522  27.816  28.151  1.00  0.00     0.167 HD
ATOM     56  C   UNL A   1      39.938  29.632  30.016  1.00  0.00     0.037 A 
ATOM     57  C   UNL A   1      46.010  27.864  26.897  1.00  0.00     0.037 A 
ATOM     58  C   UNL A   1      40.966  30.643  30.041  1.00  0.00     0.049 A 
ATOM     59  C   UNL A   1      45.786  29.218  27.493  1.00  0.00     0.074 A 
ATOM     60  C   UNL A   1      40.925  31.905  30.607  1.00  0.00     0.029 A 
ATOM     61  N   UNL A   1      42.223  30.503  29.467  1.00  0.00    -0.354 N 
ATOM     62  N   UNL A   1      44.731  29.677  28.122  1.00  0.00    -0.248 NA
ATOM     63  C   UNL A   1      46.888  30.176  27.374  1.00  0.00     0.031 C 
ATOM     64  C   UNL A   1      42.132  32.550  30.321  1.00  0.00     0.029 A 
ATOM     65  C   UNL A   1      42.951  31.669  29.632  1.00  0.00     0.049 A 
ATOM     66  H   UNL A   1      42.548  29.694  29.011  1.00  0.00     0.167 HD
ATOM     67  C   UNL A   1      45.052  30.971  28.501  1.00  0.00     0.074 A 
ATOM     68  C   UNL A   1      46.407  31.213  28.044  1.00  0.00     0.031 C 
ATOM     69  C   UNL A   1      44.298  31.879  29.166  1.00  0.00     0.037 A 
BRANCH  56  70
ATOM     70  C   UNL A   1      38.589  29.987  30.581  1.00  0.00     0.057 A 
ATOM     71  C   UNL A   1      38.248  29.745  31.917  1.00  0.00     0.134 A 
ATOM     72  C   UNL A   1      37.649  30.665  29.792  1.00  0.00     0.134 A 
ATOM     73  F   UNL A   1      39.095  29.098  32.729  1.00  0.00    -0.206 F 
ATOM     74  C   UNL A   1      37.019  30.155  32.444  1.00  0.00     0.040 A 
ATOM     75  C   UNL A   1      36.429  31.101  30.314  1.00  0.00     0.040 A 
ATOM     76  F   UNL A   1      37.910  30.936  28.504  1.00  0.00    -0.206 F 
ATOM     77  C   UNL A   1      36.110  30.845  31.644  1.00  0.00     0.006 A 
ENDBRANCH  56  70
BRANCH  57  78
ATOM     78  C   UNL A   1      47.242  27.522  26.151  1.00  0.00     0.057 A 
ATOM     79  C   UNL A   1      48.356  26.990  26.805  1.00  0.00     0.134 A 
ATOM     80  C   UNL A   1      47.315  27.676  24.760  1.00  0.00     0.134 A 
ATOM     81  F   UNL A   1      48.340  26.819  28.135  1.00  0.00    -0.206 F 
ATOM     82  C   UNL A   1      49.514  26.647  26.106  1.00  0.00     0.040 A 
ATOM     83  C   UNL A   1      48.454  27.308  24.046  1.00  0.00     0.040 A 
ATOM     84  F   UNL A   1      46.268  28.154  24.073  1.00  0.00    -0.206 F 
ATOM     85  C   UNL A   1      49.562  26.801  24.721  1.00  0.00     0.006 A 
ENDBRANCH  57  78
BRANCH  69  86
ATOM     86  C   UNL A   1      44.941  33.200  29.461  1.00  0.00     0.057 A 
ATOM     87  C   UNL A   1      44.819  34.291  28.591  1.00  0.00     0.134 A 
ATOM     88  C   UNL A   1      45.676  33.385  30.638  1.00  0.00     0.134 A 
ATOM     89  F   UNL A   1      44.141  34.171  27.439  1.00  0.00    -0.206 F 
ATOM     90  C   UNL A   1      45.432  35.512  28.868  1.00  0.00     0.040 A 
ATOM     91  C   UNL A   1      46.266  34.611  30.941  1.00  0.00     0.040 A 
ATOM     92  F   UNL A   1      45.822  32.382  31.516  1.00  0.00    -0.206 F 
ATOM     93  C   UNL A   1      46.153  35.677  30.049  1.00  0.00     0.006 A 
ENDBRANCH  69  86
ENDBRANCH  43  44
ENDBRANCH  36  38
ENDBRANCH  35  36
ENDBRANCH  34  35
ENDBRANCH   1  34
TORSDOF 16
ENDMDL
MODEL 2
REMARK VINA RESULT:     -12.0      1.819      2.899
REMARK SMILES COC(=O)c1c(NC(=O)[C@@H]2[C@H]3CC[C@H](CC3)[C@H]2C(=O)OCCOC(=O)c2ccc(-c3c4nc(c(-c5c(F)cccc5F)c5ccc([nH]5)c(-c5c(F)cccc5F)c5nc(c(-c6c(F)cccc6F)c6ccc3[nH]6)C=C5)C=C4)cc2)sc(C)c1-c1ccc(C)cc1
REMARK SMILES IDX 21 1 20 2 18 3 19 4 17 5 10 6 11 7 12 8 16 9 14 10 13 11
REMARK SMILES IDX 15 12 8 13 7 14 9 16 6 17 5 18 83 19 80 20 81 21 82 22 3 23
REMARK SMILES IDX 4 24 2 25 1 26 84 27 85 28 90 29 86 30 89 31 87 32 88 33
REMARK SMILES IDX 22 34 23 35 24 36 25 37 26 38 27 39 79 40 28 41 78 42 29 43
REMARK SMILES IDX 30 44 31 45 72 46 32 47 77 48 71 49 73 50 33 51 76 52 70 53
REMARK SMILES IDX 69 54 34 56 60 57 43 58 59 59 44 60 47 61 58 62 74 63 45 64
REMARK SMILES IDX 46 65 57 67 75 68 48 69 35 70 36 71 41 72 37 73 38 74 40 75
REMARK SMILES IDX 42 76 39 77 61 78 62 79 67 80 63 81 64 82 66 83 68 84 65 85
REMARK SMILES IDX 49 86 50 87 55 88 51 89 52 90 54 91 56 92 53 93
REMARK H PARENT 7 15 73 55 47 66
REMARK Flexibility Score: inf
ROOT
ATOM      1  C   UNL A   1      38.049  19.595  24.624  1.00  0.00     0.274 C 
ENDROOT
BRANCH   1   2
ATOM      2  O   UNL A   1      36.688  19.875  25.016  1.00  0.00    -0.462 OA
BRANCH   2   3
ATOM      3  C   UNL A   1      36.235  21.108  24.670  1.00  0.00     0.310 C 
ATOM      4  O   UNL A   1      36.823  21.860  23.896  1.00  0.00    -0.252 OA
BRANCH   3   5
ATOM      5  C   UNL A   1      34.926  21.514  25.335  1.00  0.00     0.115 C 
ATOM      6  C   UNL A   1      34.133  22.756  24.788  1.00  0.00     0.096 C 
ATOM      7  C   UNL A   1      32.679  22.234  24.483  1.00  0.00     0.002 C 
ATOM      8  C   UNL A   1      32.791  21.135  23.401  1.00  0.00     0.005 C 
ATOM      9  C   UNL A   1      31.988  21.555  25.702  1.00  0.00     0.005 C 
ATOM     10  C   UNL A   1      34.067  20.225  25.369  1.00  0.00     0.004 C 
ATOM     11  C   UNL A   1      33.536  19.915  23.961  1.00  0.00     0.005 C 
ATOM     12  C   UNL A   1      32.885  20.474  26.307  1.00  0.00     0.005 C 
BRANCH   6  13
ATOM     13  C   UNL A   1      34.078  23.928  25.819  1.00  0.00     0.229 C 
ATOM     14  N   UNL A   1      33.548  25.183  25.704  1.00  0.00    -0.317 N 
ATOM     15  H   UNL A   1      33.607  25.672  26.556  1.00  0.00     0.170 HD
ATOM     16  O   UNL A   1      34.647  23.757  26.915  1.00  0.00    -0.274 OA
BRANCH  14  17
ATOM     17  C   UNL A   1      32.950  25.963  24.720  1.00  0.00     0.111 A 
ATOM     18  C   UNL A   1      31.677  26.547  24.771  1.00  0.00     0.102 A 
ATOM     19  C   UNL A   1      31.556  27.621  23.783  1.00  0.00     0.012 A 
ATOM     20  S   UNL A   1      33.674  26.260  23.216  1.00  0.00    -0.122 S 
ATOM     21  C   UNL A   1      32.654  27.620  22.931  1.00  0.00     0.012 A 
ATOM     22  C   UNL A   1      33.047  28.623  21.892  1.00  0.00     0.057 C 
BRANCH  18  23
ATOM     23  C   UNL A   1      30.669  26.193  25.773  1.00  0.00     0.341 C 
ATOM     24  O   UNL A   1      29.570  25.733  25.490  1.00  0.00    -0.246 OA
BRANCH  23  25
ATOM     25  O   UNL A   1      31.085  26.465  27.041  1.00  0.00    -0.465 OA
ATOM     26  C   UNL A   1      31.400  27.814  27.388  1.00  0.00     0.282 C 
ENDBRANCH  23  25
ENDBRANCH  18  23
BRANCH  19  27
ATOM     27  C   UNL A   1      30.534  28.690  23.706  1.00  0.00    -0.016 A 
ATOM     28  C   UNL A   1      30.714  29.911  24.374  1.00  0.00     0.009 A 
ATOM     29  C   UNL A   1      29.372  28.534  22.945  1.00  0.00     0.009 A 
ATOM     30  C   UNL A   1      29.797  30.963  24.240  1.00  0.00     0.004 A 
ATOM     31  C   UNL A   1      28.452  29.586  22.803  1.00  0.00     0.004 A 
ATOM     32  C   UNL A   1      28.664  30.814  23.436  1.00  0.00    -0.051 A 
ATOM     33  C   UNL A   1      27.692  31.949  23.281  1.00  0.00     0.044 C 
ENDBRANCH  19  27
ENDBRANCH  14  17
ENDBRANCH   6  13
ENDBRANCH   3   5
ENDBRANCH   2   3
ENDBRANCH   1   2
BRANCH   1  34
ATOM     34  C   UNL A   1      39.071  19.945  25.724  1.00  0.00     0.275 C 
BRANCH  34  35
ATOM     35  O   UNL A   1      40.101  18.953  25.973  1.00  0.00    -0.458 OA
BRANCH  35  36
ATOM     36  C   UNL A   1      41.344  19.468  25.895  1.00  0.00     0.338 C 
ATOM     37  O   UNL A   1      42.294  18.908  25.378  1.00  0.00    -0.246 OA
BRANCH  36  38
ATOM     38  C   UNL A   1      41.607  20.800  26.420  1.00  0.00     0.060 A 
ATOM     39  C   UNL A   1      41.978  21.766  25.473  1.00  0.00     0.016 A 
ATOM     40  C   UNL A   1      41.835  21.012  27.772  1.00  0.00     0.016 A 
ATOM     41  C   UNL A   1      42.625  22.928  25.858  1.00  0.00     0.010 A 
ATOM     42  C   UNL A   1      42.447  22.206  28.170  1.00  0.00     0.010 A 
ATOM     43  C   UNL A   1      42.843  23.162  27.216  1.00  0.00    -0.014 A 
BRANCH  43  44
ATOM     44  C   UNL A   1      43.234  24.517  27.642  1.00  0.00     0.031 A 
ATOM     45  C   UNL A   1      42.248  25.554  28.068  1.00  0.00     0.074 A 
ATOM     46  C   UNL A   1      44.551  24.783  27.583  1.00  0.00     0.049 A 
ATOM     47  N   UNL A   1      42.447  26.817  28.344  1.00  0.00    -0.248 NA
ATOM     48  C   UNL A   1      40.852  25.124  28.193  1.00  0.00     0.031 C 
ATOM     49  C   UNL A   1      45.583  23.816  27.193  1.00  0.00     0.029 A 
ATOM     50  N   UNL A   1      45.239  25.937  27.817  1.00  0.00    -0.354 N 
ATOM     51  C   UNL A   1      41.198  27.341  28.653  1.00  0.00     0.074 A 
ATOM     52  C   UNL A   1      40.248  26.258  28.530  1.00  0.00     0.031 C 
ATOM     53  C   UNL A   1      46.772  24.428  27.182  1.00  0.00     0.029 A 
ATOM     54  C   UNL A   1      46.572  25.829  27.519  1.00  0.00     0.049 A 
ATOM     55  H   UNL A   1      44.822  26.759  28.163  1.00  0.00     0.167 HD
ATOM     56  C   UNL A   1      40.888  28.614  28.997  1.00  0.00     0.037 A 
ATOM     57  C   UNL A   1      47.524  26.775  27.481  1.00  0.00     0.037 A 
ATOM     58  C   UNL A   1      41.869  29.662  29.134  1.00  0.00     0.049 A 
ATOM     59  C   UNL A   1      47.153  28.173  27.863  1.00  0.00     0.074 A 
ATOM     60  C   UNL A   1      41.684  30.973  29.538  1.00  0.00     0.029 A 
ATOM     61  N   UNL A   1      43.223  29.514  28.866  1.00  0.00    -0.354 N 
ATOM     62  N   UNL A   1      45.978  28.653  28.194  1.00  0.00    -0.248 NA
ATOM     63  C   UNL A   1      48.239  29.156  27.883  1.00  0.00     0.031 C 
ATOM     64  C   UNL A   1      42.915  31.632  29.452  1.00  0.00     0.029 A 
ATOM     65  C   UNL A   1      43.878  30.718  29.057  1.00  0.00     0.049 A 
ATOM     66  H   UNL A   1      43.653  28.675  28.581  1.00  0.00     0.167 HD
ATOM     67  C   UNL A   1      46.188  29.990  28.491  1.00  0.00     0.074 A 
ATOM     68  C   UNL A   1      47.606  30.237  28.315  1.00  0.00     0.031 C 
ATOM     69  C   UNL A   1      45.291  30.931  28.874  1.00  0.00     0.037 A 
BRANCH  56  70
ATOM     70  C   UNL A   1      39.442  28.972  29.215  1.00  0.00     0.057 A 
ATOM     71  C   UNL A   1      38.608  29.394  28.173  1.00  0.00     0.134 A 
ATOM     72  C   UNL A   1      38.855  28.802  30.477  1.00  0.00     0.134 A 
ATOM     73  F   UNL A   1      39.100  29.582  26.941  1.00  0.00    -0.206 F 
ATOM     74  C   UNL A   1      37.247  29.645  28.380  1.00  0.00     0.040 A 
ATOM     75  C   UNL A   1      37.493  29.024  30.691  1.00  0.00     0.040 A 
ATOM     76  F   UNL A   1      39.593  28.394  31.521  1.00  0.00    -0.206 F 
ATOM     77  C   UNL A   1      36.684  29.449  29.640  1.00  0.00     0.006 A 
ENDBRANCH  56  70
BRANCH  57  78
ATOM     78  C   UNL A   1      48.895  26.407  27.061  1.00  0.00     0.057 A 
ATOM     79  C   UNL A   1      49.315  26.578  25.740  1.00  0.00     0.134 A 
ATOM     80  C   UNL A   1      49.831  25.920  27.984  1.00  0.00     0.134 A 
ATOM     81  F   UNL A   1      48.462  27.043  24.816  1.00  0.00    -0.206 F 
ATOM     82  C   UNL A   1      50.612  26.252  25.342  1.00  0.00     0.040 A 
ATOM     83  C   UNL A   1      51.138  25.619  27.606  1.00  0.00     0.040 A 
ATOM     84  F   UNL A   1      49.495  25.761  29.273  1.00  0.00    -0.206 F 
ATOM     85  C   UNL A   1      51.529  25.776  26.278  1.00  0.00     0.006 A 
ENDBRANCH  57  78
BRANCH  69  86
ATOM     86  C   UNL A   1      45.833  32.300  29.156  1.00  0.00     0.057 A 
ATOM     87  C   UNL A   1      46.319  32.655  30.421  1.00  0.00     0.134 A 
ATOM     88  C   UNL A   1      45.883  33.267  28.145  1.00  0.00     0.134 A 
ATOM     89  F   UNL A   1      46.282  31.777  31.435  1.00  0.00    -0.206 F 
ATOM     90  C   UNL A   1      46.808  33.935  30.677  1.00  0.00     0.040 A 
ATOM     91  C   UNL A   1      46.400  34.540  28.381  1.00  0.00     0.040 A 
ATOM     92  F   UNL A   1      45.441  32.986  26.910  1.00  0.00    -0.206 F 
ATOM     93  C   UNL A   1      46.856  34.880  29.654  1.00  0.00     0.006 A 
ENDBRANCH  69  86
ENDBRANCH  43  44
ENDBRANCH  36  38
ENDBRANCH  35  36
ENDBRANCH  34  35
ENDBRANCH   1  34
TORSDOF 16
ENDMDL
MODEL 3
REMARK VINA RESULT:     -11.9      3.674      8.965
REMARK SMILES COC(=O)c1c(NC(=O)[C@@H]2[C@H]3CC[C@H](CC3)[C@H]2C(=O)OCCOC(=O)c2ccc(-c3c4nc(c(-c5c(F)cccc5F)c5ccc([nH]5)c(-c5c(F)cccc5F)c5nc(c(-c6c(F)cccc6F)c6ccc3[nH]6)C=C5)C=C4)cc2)sc(C)c1-c1ccc(C)cc1
REMARK SMILES IDX 21 1 20 2 18 3 19 4 17 5 10 6 11 7 12 8 16 9 14 10 13 11
REMARK SMILES IDX 15 12 8 13 7 14 9 16 6 17 5 18 83 19 80 20 81 21 82 22 3 23
REMARK SMILES IDX 4 24 2 25 1 26 84 27 85 28 90 29 86 30 89 31 87 32 88 33
REMARK SMILES IDX 22 34 23 35 24 36 25 37 26 38 27 39 79 40 28 41 78 42 29 43
REMARK SMILES IDX 30 44 31 45 72 46 32 47 77 48 71 49 73 50 33 51 76 52 70 53
REMARK SMILES IDX 69 54 34 56 60 57 43 58 59 59 44 60 47 61 58 62 74 63 45 64
REMARK SMILES IDX 46 65 57 67 75 68 48 69 35 70 36 71 41 72 37 73 38 74 40 75
REMARK SMILES IDX 42 76 39 77 61 78 62 79 67 80 63 81 64 82 66 83 68 84 65 85
REMARK SMILES IDX 49 86 50 87 55 88 51 89 52 90 54 91 56 92 53 93
REMARK H PARENT 7 15 73 55 47 66
REMARK Flexibility Score: inf
ROOT
ATOM      1  C   UNL A   1      31.898  28.417  27.479  1.00  0.00     0.274 C 
ENDROOT
BRANCH   1   2
ATOM      2  O   UNL A   1      31.644  27.246  26.672  1.00  0.00    -0.462 OA
BRANCH   2   3
ATOM      3  C   UNL A   1      32.726  26.760  26.013  1.00  0.00     0.310 C 
ATOM      4  O   UNL A   1      33.852  26.693  26.503  1.00  0.00    -0.252 OA
BRANCH   3   5
ATOM      5  C   UNL A   1      32.450  26.307  24.585  1.00  0.00     0.115 C 
ATOM      6  C   UNL A   1      31.031  26.554  23.955  1.00  0.00     0.096 C 
ATOM      7  C   UNL A   1      31.290  27.338  22.614  1.00  0.00     0.002 C 
ATOM      8  C   UNL A   1      31.972  28.677  22.976  1.00  0.00     0.005 C 
ATOM      9  C   UNL A   1      32.271  26.615  21.646  1.00  0.00     0.005 C 
ATOM     10  C   UNL A   1      33.594  26.912  23.734  1.00  0.00     0.004 C 
ATOM     11  C   UNL A   1      33.370  28.421  23.555  1.00  0.00     0.005 C 
ATOM     12  C   UNL A   1      33.568  26.235  22.363  1.00  0.00     0.005 C 
BRANCH   6  13
ATOM     13  C   UNL A   1      30.270  25.223  23.662  1.00  0.00     0.229 C 
ATOM     14  N   UNL A   1      30.508  23.952  24.109  1.00  0.00    -0.317 N 
ATOM     15  H   UNL A   1      29.808  23.332  23.803  1.00  0.00     0.170 HD
ATOM     16  O   UNL A   1      29.323  25.267  22.853  1.00  0.00    -0.274 OA
BRANCH  14  17
ATOM     17  C   UNL A   1      31.462  23.290  24.873  1.00  0.00     0.111 A 
ATOM     18  C   UNL A   1      32.694  22.789  24.429  1.00  0.00     0.102 A 
ATOM     19  C   UNL A   1      33.598  22.553  25.556  1.00  0.00     0.012 A 
ATOM     20  S   UNL A   1      31.225  22.904  26.507  1.00  0.00    -0.122 S 
ATOM     21  C   UNL A   1      32.916  22.688  26.760  1.00  0.00     0.012 A 
ATOM     22  C   UNL A   1      33.455  22.707  28.155  1.00  0.00     0.057 C 
BRANCH  18  23
ATOM     23  C   UNL A   1      33.041  22.650  23.013  1.00  0.00     0.341 C 
ATOM     24  O   UNL A   1      34.026  23.174  22.507  1.00  0.00    -0.246 OA
BRANCH  23  25
ATOM     25  O   UNL A   1      32.129  21.906  22.328  1.00  0.00    -0.465 OA
ATOM     26  C   UNL A   1      32.147  20.486  22.477  1.00  0.00     0.282 C 
ENDBRANCH  23  25
ENDBRANCH  18  23
BRANCH  19  27
ATOM     27  C   UNL A   1      35.063  22.341  25.531  1.00  0.00    -0.016 A 
ATOM     28  C   UNL A   1      35.951  23.402  25.759  1.00  0.00     0.009 A 
ATOM     29  C   UNL A   1      35.613  21.074  25.310  1.00  0.00     0.009 A 
ATOM     30  C   UNL A   1      37.338  23.200  25.824  1.00  0.00     0.004 A 
ATOM     31  C   UNL A   1      37.000  20.864  25.379  1.00  0.00     0.004 A 
ATOM     32  C   UNL A   1      37.873  21.921  25.652  1.00  0.00    -0.051 A 
ATOM     33  C   UNL A   1      39.356  21.703  25.739  1.00  0.00     0.044 C 
ENDBRANCH  19  27
ENDBRANCH  14  17
ENDBRANCH   6  13
ENDBRANCH   3   5
ENDBRANCH   2   3
ENDBRANCH   1   2
BRANCH   1  34
ATOM     34  C   UNL A   1      31.771  29.731  26.683  1.00  0.00     0.275 C 
BRANCH  34  35
ATOM     35  O   UNL A   1      33.018  30.319  26.225  1.00  0.00    -0.458 OA
BRANCH  35  36
ATOM     36  C   UNL A   1      33.569  31.138  27.141  1.00  0.00     0.338 C 
ATOM     37  O   UNL A   1      33.016  32.111  27.622  1.00  0.00    -0.246 OA
BRANCH  36  38
ATOM     38  C   UNL A   1      34.904  30.856  27.650  1.00  0.00     0.060 A 
ATOM     39  C   UNL A   1      35.052  29.644  28.339  1.00  0.00     0.016 A 
ATOM     40  C   UNL A   1      35.857  31.858  27.771  1.00  0.00     0.016 A 
ATOM     41  C   UNL A   1      36.120  29.437  29.193  1.00  0.00     0.010 A 
ATOM     42  C   UNL A   1      36.964  31.635  28.597  1.00  0.00     0.010 A 
ATOM     43  C   UNL A   1      37.096  30.428  29.309  1.00  0.00    -0.014 A 
BRANCH  43  44
ATOM     44  C   UNL A   1      38.374  30.085  29.958  1.00  0.00     0.031 A 
ATOM     45  C   UNL A   1      39.368  29.149  29.355  1.00  0.00     0.074 A 
ATOM     46  C   UNL A   1      38.576  30.642  31.164  1.00  0.00     0.049 A 
ATOM     47  N   UNL A   1      40.467  28.666  29.874  1.00  0.00    -0.248 NA
ATOM     48  C   UNL A   1      39.092  28.682  27.993  1.00  0.00     0.031 C 
ATOM     49  C   UNL A   1      37.658  31.583  31.817  1.00  0.00     0.029 A 
ATOM     50  N   UNL A   1      39.588  30.478  32.064  1.00  0.00    -0.354 N 
ATOM     51  C   UNL A   1      41.004  27.819  28.913  1.00  0.00     0.074 A 
ATOM     52  C   UNL A   1      40.108  27.855  27.778  1.00  0.00     0.031 C 
ATOM     53  C   UNL A   1      38.135  31.888  33.028  1.00  0.00     0.029 A 
ATOM     54  C   UNL A   1      39.359  31.131  33.246  1.00  0.00     0.049 A 
ATOM     55  H   UNL A   1      40.397  29.948  31.882  1.00  0.00     0.167 HD
ATOM     56  C   UNL A   1      42.137  27.080  28.989  1.00  0.00     0.037 A 
ATOM     57  C   UNL A   1      40.042  31.087  34.400  1.00  0.00     0.037 A 
ATOM     58  C   UNL A   1      43.018  27.092  30.130  1.00  0.00     0.049 A 
ATOM     59  C   UNL A   1      41.288  30.261  34.457  1.00  0.00     0.074 A 
ATOM     60  C   UNL A   1      44.225  26.436  30.298  1.00  0.00     0.029 A 
ATOM     61  N   UNL A   1      42.781  27.798  31.302  1.00  0.00    -0.354 N 
ATOM     62  N   UNL A   1      41.813  29.495  33.530  1.00  0.00    -0.248 NA
ATOM     63  C   UNL A   1      42.046  30.304  35.710  1.00  0.00     0.031 C 
ATOM     64  C   UNL A   1      44.684  26.693  31.594  1.00  0.00     0.029 A 
ATOM     65  C   UNL A   1      43.797  27.562  32.211  1.00  0.00     0.049 A 
ATOM     66  H   UNL A   1      42.003  28.380  31.462  1.00  0.00     0.167 HD
ATOM     67  C   UNL A   1      42.980  28.987  34.078  1.00  0.00     0.074 A 
ATOM     68  C   UNL A   1      43.091  29.546  35.411  1.00  0.00     0.031 C 
ATOM     69  C   UNL A   1      43.879  28.133  33.531  1.00  0.00     0.037 A 
BRANCH  56  70
ATOM     70  C   UNL A   1      42.483  26.169  27.843  1.00  0.00     0.057 A 
ATOM     71  C   UNL A   1      43.376  26.541  26.830  1.00  0.00     0.134 A 
ATOM     72  C   UNL A   1      41.980  24.861  27.803  1.00  0.00     0.134 A 
ATOM     73  F   UNL A   1      43.893  27.777  26.801  1.00  0.00    -0.206 F 
ATOM     74  C   UNL A   1      43.746  25.651  25.817  1.00  0.00     0.040 A 
ATOM     75  C   UNL A   1      42.362  23.955  26.812  1.00  0.00     0.040 A 
ATOM     76  F   UNL A   1      41.124  24.432  28.744  1.00  0.00    -0.206 F 
ATOM     77  C   UNL A   1      43.248  24.349  25.812  1.00  0.00     0.006 A 
ENDBRANCH  56  70
BRANCH  57  78
ATOM     78  C   UNL A   1      39.544  31.848  35.568  1.00  0.00     0.057 A 
ATOM     79  C   UNL A   1      38.591  31.301  36.431  1.00  0.00     0.134 A 
ATOM     80  C   UNL A   1      40.045  33.121  35.873  1.00  0.00     0.134 A 
ATOM     81  F   UNL A   1      38.079  30.085  36.188  1.00  0.00    -0.206 F 
ATOM     82  C   UNL A   1      38.131  32.004  37.545  1.00  0.00     0.040 A 
ATOM     83  C   UNL A   1      39.616  33.821  37.000  1.00  0.00     0.040 A 
ATOM     84  F   UNL A   1      40.982  33.686  35.099  1.00  0.00    -0.206 F 
ATOM     85  C   UNL A   1      38.649  33.266  37.834  1.00  0.00     0.006 A 
ENDBRANCH  57  78
BRANCH  69  86
ATOM     86  C   UNL A   1      45.072  27.786  34.370  1.00  0.00     0.057 A 
ATOM     87  C   UNL A   1      45.077  26.674  35.220  1.00  0.00     0.134 A 
ATOM     88  C   UNL A   1      46.233  28.567  34.311  1.00  0.00     0.134 A 
ATOM     89  F   UNL A   1      43.989  25.898  35.333  1.00  0.00    -0.206 F 
ATOM     90  C   UNL A   1      46.187  26.367  36.007  1.00  0.00     0.040 A 
ATOM     91  C   UNL A   1      47.360  28.250  35.068  1.00  0.00     0.040 A 
ATOM     92  F   UNL A   1      46.294  29.640  33.509  1.00  0.00    -0.206 F 
ATOM     93  C   UNL A   1      47.335  27.152  35.926  1.00  0.00     0.006 A 
ENDBRANCH  69  86
ENDBRANCH  43  44
ENDBRANCH  36  38
ENDBRANCH  35  36
ENDBRANCH  34  35
ENDBRANCH   1  34
TORSDOF 16
ENDMDL
