MODEL 1
REMARK VINA RESULT:     -11.5      0.000      0.000
REMARK SMILES COc1cc(CC(=O)N[C@@H](CC(=O)OCCOC(=O)c2ccc(-c3c4nc(c(-c5c(F)cccc5F)c5ccc([nH]5)c(-c5c(F)cccc5F)c5nc(c(-c6c(F)cccc6F)c6ccc3[nH]6)C=C5)C=C4)cc2)c2cccs2)ccc1C
REMARK SMILES IDX 14 1 12 2 13 3 11 4 10 5 9 6 7 7 8 8 6 10 5 11 3 12 4 13
REMARK SMILES IDX 81 14 80 15 82 16 79 17 2 18 1 19 74 20 75 21 78 22 76 23
REMARK SMILES IDX 77 24 15 25 16 26 17 27 18 28 19 29 20 30 21 31 73 32 22 33
REMARK SMILES IDX 72 34 23 35 24 36 25 37 66 38 26 39 71 40 65 41 67 42 27 43
REMARK SMILES IDX 70 44 64 45 63 46 28 48 54 49 37 50 53 51 38 52 41 53 52 54
REMARK SMILES IDX 68 55 39 56 40 57 51 59 69 60 42 61 29 62 30 63 35 64 31 65
REMARK SMILES IDX 32 66 34 67 36 68 33 69 55 70 56 71 61 72 57 73 58 74 60 75
REMARK SMILES IDX 62 76 59 77 43 78 44 79 49 80 45 81 46 82 48 83 50 84 47 85
REMARK H PARENT 9 9 67 47 41 58
REMARK Flexibility Score: inf
ROOT
ATOM      1  O   UNL A   1      32.207  29.003  24.550  1.00  0.00    -0.462 OA
ENDROOT
BRANCH   1   2
ATOM      2  C   UNL A   1      33.412  28.431  24.333  1.00  0.00     0.308 C 
ATOM      3  O   UNL A   1      34.188  28.805  23.482  1.00  0.00    -0.252 OA
BRANCH   2   4
ATOM      4  C   UNL A   1      33.607  27.310  25.328  1.00  0.00     0.153 C 
BRANCH   4   5
ATOM      5  C   UNL A   1      33.289  25.942  24.734  1.00  0.00     0.133 C 
BRANCH   5   6
ATOM      6  N   UNL A   1      32.802  26.136  23.383  1.00  0.00    -0.348 N 
ATOM      7  C   UNL A   1      33.182  25.314  22.349  1.00  0.00     0.224 C 
ATOM      8  O   UNL A   1      33.533  25.811  21.280  1.00  0.00    -0.275 OA
ATOM      9  H   UNL A   1      32.182  26.879  23.199  1.00  0.00     0.164 HD
BRANCH   7  10
ATOM     10  C   UNL A   1      33.059  23.811  22.543  1.00  0.00     0.135 C 
BRANCH  10  11
ATOM     11  C   UNL A   1      34.203  23.093  23.227  1.00  0.00    -0.035 A 
ATOM     12  C   UNL A   1      34.976  21.160  24.518  1.00  0.00     0.122 A 
ATOM     13  C   UNL A   1      33.948  21.889  23.912  1.00  0.00     0.051 A 
ATOM     14  C   UNL A   1      36.295  21.625  24.436  1.00  0.00    -0.009 A 
ATOM     15  C   UNL A   1      36.553  22.828  23.754  1.00  0.00     0.007 A 
ATOM     16  C   UNL A   1      37.455  20.849  25.000  1.00  0.00     0.048 C 
ATOM     17  C   UNL A   1      35.518  23.557  23.156  1.00  0.00     0.005 A 
BRANCH  12  18
ATOM     18  O   UNL A   1      34.759  20.025  25.255  1.00  0.00    -0.496 OA
ATOM     19  C   UNL A   1      33.884  19.064  24.675  1.00  0.00     0.278 C 
ENDBRANCH  12  18
ENDBRANCH  10  11
ENDBRANCH   7  10
ENDBRANCH   5   6
BRANCH   5  20
ATOM     20  C   UNL A   1      32.365  25.113  25.589  1.00  0.00     0.027 A 
ATOM     21  C   UNL A   1      32.632  24.089  26.479  1.00  0.00     0.017 A 
ATOM     22  S   UNL A   1      30.665  25.369  25.455  1.00  0.00    -0.147 S 
ATOM     23  C   UNL A   1      31.454  23.412  26.907  1.00  0.00     0.012 A 
ATOM     24  C   UNL A   1      30.313  24.009  26.426  1.00  0.00     0.065 A 
ENDBRANCH   5  20
ENDBRANCH   4   5
ENDBRANCH   2   4
ENDBRANCH   1   2
BRANCH   1  25
ATOM     25  C   UNL A   1      31.778  29.048  25.906  1.00  0.00     0.274 C 
BRANCH  25  26
ATOM     26  C   UNL A   1      32.107  30.353  26.675  1.00  0.00     0.275 C 
BRANCH  26  27
ATOM     27  O   UNL A   1      33.460  30.806  27.088  1.00  0.00    -0.458 OA
BRANCH  27  28
ATOM     28  C   UNL A   1      34.068  31.786  27.802  1.00  0.00     0.338 C 
ATOM     29  O   UNL A   1      33.491  32.803  28.164  1.00  0.00    -0.246 OA
BRANCH  28  30
ATOM     30  C   UNL A   1      35.463  31.590  28.175  1.00  0.00     0.060 A 
ATOM     31  C   UNL A   1      36.399  32.642  28.268  1.00  0.00     0.016 A 
ATOM     32  C   UNL A   1      35.792  30.311  28.539  1.00  0.00     0.016 A 
ATOM     33  C   UNL A   1      37.643  32.398  28.851  1.00  0.00     0.010 A 
ATOM     34  C   UNL A   1      36.833  30.166  29.398  1.00  0.00     0.010 A 
ATOM     35  C   UNL A   1      37.826  31.151  29.437  1.00  0.00    -0.014 A 
BRANCH  35  36
ATOM     36  C   UNL A   1      39.082  30.532  29.812  1.00  0.00     0.031 A 
ATOM     37  C   UNL A   1      39.658  29.437  29.027  1.00  0.00     0.074 A 
ATOM     38  C   UNL A   1      39.759  31.358  30.650  1.00  0.00     0.049 A 
ATOM     39  N   UNL A   1      40.420  28.530  29.526  1.00  0.00    -0.248 NA
ATOM     40  C   UNL A   1      39.413  29.250  27.593  1.00  0.00     0.031 C 
ATOM     41  C   UNL A   1      41.173  31.587  30.862  1.00  0.00     0.029 A 
ATOM     42  N   UNL A   1      39.173  32.330  31.466  1.00  0.00    -0.354 N 
ATOM     43  C   UNL A   1      41.082  27.966  28.454  1.00  0.00     0.074 A 
ATOM     44  C   UNL A   1      40.275  28.267  27.295  1.00  0.00     0.031 C 
ATOM     45  C   UNL A   1      41.328  32.396  31.935  1.00  0.00     0.029 A 
ATOM     46  C   UNL A   1      40.012  32.650  32.513  1.00  0.00     0.049 A 
ATOM     47  H   UNL A   1      38.287  32.730  31.313  1.00  0.00     0.167 HD
ATOM     48  C   UNL A   1      42.393  27.610  28.597  1.00  0.00     0.037 A 
ATOM     49  C   UNL A   1      39.553  32.295  33.750  1.00  0.00     0.037 A 
ATOM     50  C   UNL A   1      42.898  28.145  29.860  1.00  0.00     0.049 A 
ATOM     51  C   UNL A   1      40.301  31.065  34.187  1.00  0.00     0.074 A 
ATOM     52  C   UNL A   1      43.635  29.287  30.127  1.00  0.00     0.029 A 
ATOM     53  N   UNL A   1      42.359  27.730  31.069  1.00  0.00    -0.354 N 
ATOM     54  N   UNL A   1      40.778  30.169  33.365  1.00  0.00    -0.248 NA
ATOM     55  C   UNL A   1      40.676  30.827  35.573  1.00  0.00     0.031 C 
ATOM     56  C   UNL A   1      43.537  29.556  31.513  1.00  0.00     0.029 A 
ATOM     57  C   UNL A   1      42.712  28.600  32.081  1.00  0.00     0.049 A 
ATOM     58  H   UNL A   1      41.802  26.927  31.189  1.00  0.00     0.167 HD
ATOM     59  C   UNL A   1      41.580  29.311  34.061  1.00  0.00     0.074 A 
ATOM     60  C   UNL A   1      41.461  29.745  35.442  1.00  0.00     0.031 C 
ATOM     61  C   UNL A   1      42.326  28.341  33.456  1.00  0.00     0.037 A 
BRANCH  48  62
ATOM     62  C   UNL A   1      43.321  27.117  27.508  1.00  0.00     0.057 A 
ATOM     63  C   UNL A   1      43.568  25.738  27.329  1.00  0.00     0.134 A 
ATOM     64  C   UNL A   1      43.934  27.943  26.550  1.00  0.00     0.134 A 
ATOM     65  F   UNL A   1      43.001  24.807  28.107  1.00  0.00    -0.206 F 
ATOM     66  C   UNL A   1      44.395  25.225  26.325  1.00  0.00     0.040 A 
ATOM     67  C   UNL A   1      44.783  27.443  25.547  1.00  0.00     0.040 A 
ATOM     68  F   UNL A   1      43.700  29.263  26.514  1.00  0.00    -0.206 F 
ATOM     69  C   UNL A   1      45.017  26.079  25.432  1.00  0.00     0.006 A 
ENDBRANCH  48  62
BRANCH  49  70
ATOM     70  C   UNL A   1      38.067  32.531  33.876  1.00  0.00     0.057 A 
ATOM     71  C   UNL A   1      37.638  33.858  34.099  1.00  0.00     0.134 A 
ATOM     72  C   UNL A   1      37.110  31.653  33.349  1.00  0.00     0.134 A 
ATOM     73  F   UNL A   1      38.496  34.765  34.596  1.00  0.00    -0.206 F 
ATOM     74  C   UNL A   1      36.381  34.321  33.690  1.00  0.00     0.040 A 
ATOM     75  C   UNL A   1      35.839  32.105  32.949  1.00  0.00     0.040 A 
ATOM     76  F   UNL A   1      37.422  30.376  33.088  1.00  0.00    -0.206 F 
ATOM     77  C   UNL A   1      35.489  33.449  33.077  1.00  0.00     0.006 A 
ENDBRANCH  49  70
BRANCH  61  78
ATOM     78  C   UNL A   1      42.879  27.123  34.144  1.00  0.00     0.057 A 
ATOM     79  C   UNL A   1      42.077  26.153  34.758  1.00  0.00     0.134 A 
ATOM     80  C   UNL A   1      44.255  26.797  34.061  1.00  0.00     0.134 A 
ATOM     81  F   UNL A   1      40.741  26.246  34.775  1.00  0.00    -0.206 F 
ATOM     82  C   UNL A   1      42.609  24.998  35.336  1.00  0.00     0.040 A 
ATOM     83  C   UNL A   1      44.783  25.610  34.565  1.00  0.00     0.040 A 
ATOM     84  F   UNL A   1      45.148  27.595  33.459  1.00  0.00    -0.206 F 
ATOM     85  C   UNL A   1      43.964  24.717  35.232  1.00  0.00     0.006 A 
ENDBRANCH  61  78
ENDBRANCH  35  36
ENDBRANCH  28  30
ENDBRANCH  27  28
ENDBRANCH  26  27
ENDBRANCH  25  26
ENDBRANCH   1  25
TORSDOF 17
ENDMDL
MODEL 2
REMARK VINA RESULT:     -11.5      1.353      1.992
REMARK SMILES COc1cc(CC(=O)N[C@@H](CC(=O)OCCOC(=O)c2ccc(-c3c4nc(c(-c5c(F)cccc5F)c5ccc([nH]5)c(-c5c(F)cccc5F)c5nc(c(-c6c(F)cccc6F)c6ccc3[nH]6)C=C5)C=C4)cc2)c2cccs2)ccc1C
REMARK SMILES IDX 14 1 12 2 13 3 11 4 10 5 9 6 7 7 8 8 6 10 5 11 3 12 4 13
REMARK SMILES IDX 81 14 80 15 82 16 79 17 2 18 1 19 74 20 75 21 78 22 76 23
REMARK SMILES IDX 77 24 15 25 16 26 17 27 18 28 19 29 20 30 21 31 73 32 22 33
REMARK SMILES IDX 72 34 23 35 24 36 25 37 66 38 26 39 71 40 65 41 67 42 27 43
REMARK SMILES IDX 70 44 64 45 63 46 28 48 54 49 37 50 53 51 38 52 41 53 52 54
REMARK SMILES IDX 68 55 39 56 40 57 51 59 69 60 42 61 29 62 30 63 35 64 31 65
REMARK SMILES IDX 32 66 34 67 36 68 33 69 55 70 56 71 61 72 57 73 58 74 60 75
REMARK SMILES IDX 62 76 59 77 43 78 44 79 49 80 45 81 46 82 48 83 50 84 47 85
REMARK H PARENT 9 9 67 47 41 58
REMARK Flexibility Score: inf
ROOT
ATOM      1  O   UNL A   1      32.814  29.791  24.704  1.00  0.00    -0.462 OA
ENDROOT
BRANCH   1   2
ATOM      2  C   UNL A   1      33.151  28.583  24.202  1.00  0.00     0.308 C 
ATOM      3  O   UNL A   1      33.767  27.747  24.823  1.00  0.00    -0.252 OA
BRANCH   2   4
ATOM      4  C   UNL A   1      32.610  28.470  22.795  1.00  0.00     0.153 C 
BRANCH   4   5
ATOM      5  C   UNL A   1      31.406  27.538  22.706  1.00  0.00     0.133 C 
BRANCH   5   6
ATOM      6  N   UNL A   1      31.568  26.698  21.536  1.00  0.00    -0.348 N 
ATOM      7  C   UNL A   1      32.291  25.530  21.575  1.00  0.00     0.224 C 
ATOM      8  O   UNL A   1      33.108  25.296  20.685  1.00  0.00    -0.275 OA
ATOM      9  H   UNL A   1      31.149  26.973  20.688  1.00  0.00     0.164 HD
BRANCH   7  10
ATOM     10  C   UNL A   1      31.978  24.527  22.673  1.00  0.00     0.135 C 
BRANCH  10  11
ATOM     11  C   UNL A   1      33.134  23.757  23.275  1.00  0.00    -0.035 A 
ATOM     12  C   UNL A   1      33.992  21.641  24.163  1.00  0.00     0.122 A 
ATOM     13  C   UNL A   1      32.944  22.412  23.649  1.00  0.00     0.051 A 
ATOM     14  C   UNL A   1      35.265  22.208  24.301  1.00  0.00    -0.009 A 
ATOM     15  C   UNL A   1      35.457  23.551  23.930  1.00  0.00     0.007 A 
ATOM     16  C   UNL A   1      36.451  21.411  24.776  1.00  0.00     0.048 C 
ATOM     17  C   UNL A   1      34.403  24.321  23.424  1.00  0.00     0.005 A 
BRANCH  12  18
ATOM     18  O   UNL A   1      33.830  20.354  24.606  1.00  0.00    -0.496 OA
ATOM     19  C   UNL A   1      32.646  19.693  24.176  1.00  0.00     0.278 C 
ENDBRANCH  12  18
ENDBRANCH  10  11
ENDBRANCH   7  10
ENDBRANCH   5   6
BRANCH   5  20
ATOM     20  C   UNL A   1      30.082  28.257  22.748  1.00  0.00     0.027 A 
ATOM     21  C   UNL A   1      28.861  27.875  23.274  1.00  0.00     0.017 A 
ATOM     22  S   UNL A   1      29.953  29.794  21.976  1.00  0.00    -0.147 S 
ATOM     23  C   UNL A   1      27.803  28.750  22.895  1.00  0.00     0.012 A 
ATOM     24  C   UNL A   1      28.260  29.838  22.190  1.00  0.00     0.065 A 
ENDBRANCH   5  20
ENDBRANCH   4   5
ENDBRANCH   2   4
ENDBRANCH   1   2
BRANCH   1  25
ATOM     25  C   UNL A   1      31.710  29.802  25.602  1.00  0.00     0.274 C 
BRANCH  25  26
ATOM     26  C   UNL A   1      32.039  30.166  27.072  1.00  0.00     0.275 C 
BRANCH  26  27
ATOM     27  O   UNL A   1      33.373  30.552  27.598  1.00  0.00    -0.458 OA
BRANCH  27  28
ATOM     28  C   UNL A   1      34.090  31.651  27.941  1.00  0.00     0.338 C 
ATOM     29  O   UNL A   1      33.603  32.772  28.003  1.00  0.00    -0.246 OA
BRANCH  28  30
ATOM     30  C   UNL A   1      35.494  31.468  28.283  1.00  0.00     0.060 A 
ATOM     31  C   UNL A   1      36.434  32.521  28.302  1.00  0.00     0.016 A 
ATOM     32  C   UNL A   1      35.831  30.205  28.695  1.00  0.00     0.016 A 
ATOM     33  C   UNL A   1      37.695  32.299  28.859  1.00  0.00     0.010 A 
ATOM     34  C   UNL A   1      36.897  30.096  29.529  1.00  0.00     0.010 A 
ATOM     35  C   UNL A   1      37.892  31.080  29.495  1.00  0.00    -0.014 A 
BRANCH  35  36
ATOM     36  C   UNL A   1      39.157  30.474  29.861  1.00  0.00     0.031 A 
ATOM     37  C   UNL A   1      39.736  29.380  29.077  1.00  0.00     0.074 A 
ATOM     38  C   UNL A   1      39.835  31.311  30.687  1.00  0.00     0.049 A 
ATOM     39  N   UNL A   1      40.511  28.482  29.575  1.00  0.00    -0.248 NA
ATOM     40  C   UNL A   1      39.478  29.182  27.647  1.00  0.00     0.031 C 
ATOM     41  C   UNL A   1      41.249  31.554  30.884  1.00  0.00     0.029 A 
ATOM     42  N   UNL A   1      39.249  32.283  31.503  1.00  0.00    -0.354 N 
ATOM     43  C   UNL A   1      41.167  27.918  28.499  1.00  0.00     0.074 A 
ATOM     44  C   UNL A   1      40.346  28.205  27.346  1.00  0.00     0.031 C 
ATOM     45  C   UNL A   1      41.407  32.372  31.951  1.00  0.00     0.029 A 
ATOM     46  C   UNL A   1      40.094  32.618  32.540  1.00  0.00     0.049 A 
ATOM     47  H   UNL A   1      38.358  32.674  31.357  1.00  0.00     0.167 HD
ATOM     48  C   UNL A   1      42.482  27.575  28.631  1.00  0.00     0.037 A 
ATOM     49  C   UNL A   1      39.651  32.266  33.784  1.00  0.00     0.037 A 
ATOM     50  C   UNL A   1      42.995  28.122  29.887  1.00  0.00     0.049 A 
ATOM     51  C   UNL A   1      40.414  31.046  34.220  1.00  0.00     0.074 A 
ATOM     52  C   UNL A   1      43.725  29.272  30.139  1.00  0.00     0.029 A 
ATOM     53  N   UNL A   1      42.472  27.710  31.103  1.00  0.00    -0.354 N 
ATOM     54  N   UNL A   1      40.892  30.149  33.400  1.00  0.00    -0.248 NA
ATOM     55  C   UNL A   1      40.805  30.820  35.604  1.00  0.00     0.031 C 
ATOM     56  C   UNL A   1      43.638  29.550  31.523  1.00  0.00     0.029 A 
ATOM     57  C   UNL A   1      42.827  28.590  32.106  1.00  0.00     0.049 A 
ATOM     58  H   UNL A   1      41.924  26.902  31.234  1.00  0.00     0.167 HD
ATOM     59  C   UNL A   1      41.709  29.302  34.093  1.00  0.00     0.074 A 
ATOM     60  C   UNL A   1      41.599  29.744  35.472  1.00  0.00     0.031 C 
ATOM     61  C   UNL A   1      42.457  28.336  33.487  1.00  0.00     0.037 A 
BRANCH  48  62
ATOM     62  C   UNL A   1      43.405  27.084  27.537  1.00  0.00     0.057 A 
ATOM     63  C   UNL A   1      43.967  27.980  26.600  1.00  0.00     0.134 A 
ATOM     64  C   UNL A   1      43.846  25.756  27.403  1.00  0.00     0.134 A 
ATOM     65  F   UNL A   1      43.713  29.294  26.631  1.00  0.00    -0.206 F 
ATOM     66  C   UNL A   1      44.845  27.587  25.585  1.00  0.00     0.040 A 
ATOM     67  C   UNL A   1      44.714  25.344  26.377  1.00  0.00     0.040 A 
ATOM     68  F   UNL A   1      43.496  24.813  28.289  1.00  0.00    -0.206 F 
ATOM     69  C   UNL A   1      45.216  26.260  25.462  1.00  0.00     0.006 A 
ENDBRANCH  48  62
BRANCH  49  70
ATOM     70  C   UNL A   1      38.164  32.490  33.923  1.00  0.00     0.057 A 
ATOM     71  C   UNL A   1      37.725  33.815  34.133  1.00  0.00     0.134 A 
ATOM     72  C   UNL A   1      37.210  31.595  33.418  1.00  0.00     0.134 A 
ATOM     73  F   UNL A   1      38.579  34.736  34.608  1.00  0.00    -0.206 F 
ATOM     74  C   UNL A   1      36.459  34.260  33.732  1.00  0.00     0.040 A 
ATOM     75  C   UNL A   1      35.931  32.029  33.027  1.00  0.00     0.040 A 
ATOM     76  F   UNL A   1      37.532  30.317  33.171  1.00  0.00    -0.206 F 
ATOM     77  C   UNL A   1      35.569  33.371  33.141  1.00  0.00     0.006 A 
ENDBRANCH  49  70
BRANCH  61  78
ATOM     78  C   UNL A   1      43.028  27.127  34.176  1.00  0.00     0.057 A 
ATOM     79  C   UNL A   1      42.239  26.133  34.769  1.00  0.00     0.134 A 
ATOM     80  C   UNL A   1      44.413  26.836  34.117  1.00  0.00     0.134 A 
ATOM     81  F   UNL A   1      40.902  26.192  34.763  1.00  0.00    -0.206 F 
ATOM     82  C   UNL A   1      42.790  24.988  35.349  1.00  0.00     0.040 A 
ATOM     83  C   UNL A   1      44.961  25.660  34.622  1.00  0.00     0.040 A 
ATOM     84  F   UNL A   1      45.296  27.660  33.536  1.00  0.00    -0.206 F 
ATOM     85  C   UNL A   1      44.153  24.742  35.268  1.00  0.00     0.006 A 
ENDBRANCH  61  78
ENDBRANCH  35  36
ENDBRANCH  28  30
ENDBRANCH  27  28
ENDBRANCH  26  27
ENDBRANCH  25  26
ENDBRANCH   1  25
TORSDOF 17
ENDMDL
MODEL 3
REMARK VINA RESULT:     -11.3      2.766      9.011
REMARK SMILES COc1cc(CC(=O)N[C@@H](CC(=O)OCCOC(=O)c2ccc(-c3c4nc(c(-c5c(F)cccc5F)c5ccc([nH]5)c(-c5c(F)cccc5F)c5nc(c(-c6c(F)cccc6F)c6ccc3[nH]6)C=C5)C=C4)cc2)c2cccs2)ccc1C
REMARK SMILES IDX 14 1 12 2 13 3 11 4 10 5 9 6 7 7 8 8 6 10 5 11 3 12 4 13
REMARK SMILES IDX 81 14 80 15 82 16 79 17 2 18 1 19 74 20 75 21 78 22 76 23
REMARK SMILES IDX 77 24 15 25 16 26 17 27 18 28 19 29 20 30 21 31 73 32 22 33
REMARK SMILES IDX 72 34 23 35 24 36 25 37 66 38 26 39 71 40 65 41 67 42 27 43
REMARK SMILES IDX 70 44 64 45 63 46 28 48 54 49 37 50 53 51 38 52 41 53 52 54
REMARK SMILES IDX 68 55 39 56 40 57 51 59 69 60 42 61 29 62 30 63 35 64 31 65
REMARK SMILES IDX 32 66 34 67 36 68 33 69 55 70 56 71 61 72 57 73 58 74 60 75
REMARK SMILES IDX 62 76 59 77 43 78 44 79 49 80 45 81 46 82 48 83 50 84 47 85
REMARK H PARENT 9 9 67 47 41 58
REMARK Flexibility Score: inf
ROOT
ATOM      1  O   UNL A   1      34.179  22.734  25.354  1.00  0.00    -0.462 OA
ENDROOT
BRANCH   1   2
ATOM      2  C   UNL A   1      34.371  24.038  25.650  1.00  0.00     0.308 C 
ATOM      3  O   UNL A   1      35.430  24.608  25.510  1.00  0.00    -0.252 OA
BRANCH   2   4
ATOM      4  C   UNL A   1      33.067  24.626  26.138  1.00  0.00     0.153 C 
BRANCH   4   5
ATOM      5  C   UNL A   1      32.829  26.036  25.607  1.00  0.00     0.133 C 
BRANCH   5   6
ATOM      6  N   UNL A   1      31.624  26.555  26.224  1.00  0.00    -0.348 N 
ATOM      7  C   UNL A   1      31.610  27.756  26.891  1.00  0.00     0.224 C 
ATOM      8  O   UNL A   1      31.067  27.828  27.993  1.00  0.00    -0.275 OA
ATOM      9  H   UNL A   1      30.792  26.032  26.164  1.00  0.00     0.164 HD
BRANCH   7  10
ATOM     10  C   UNL A   1      32.186  28.975  26.190  1.00  0.00     0.135 C 
BRANCH  10  11
ATOM     11  C   UNL A   1      33.418  29.617  26.791  1.00  0.00    -0.035 A 
ATOM     12  C   UNL A   1      34.418  31.532  27.947  1.00  0.00     0.122 A 
ATOM     13  C   UNL A   1      33.323  30.913  27.335  1.00  0.00     0.051 A 
ATOM     14  C   UNL A   1      35.638  30.849  28.036  1.00  0.00    -0.009 A 
ATOM     15  C   UNL A   1      35.737  29.556  27.492  1.00  0.00     0.007 A 
ATOM     16  C   UNL A   1      36.830  31.429  28.748  1.00  0.00     0.048 C 
ATOM     17  C   UNL A   1      34.639  28.945  26.873  1.00  0.00     0.005 A 
BRANCH  12  18
ATOM     18  O   UNL A   1      34.386  32.818  28.422  1.00  0.00    -0.496 OA
ATOM     19  C   UNL A   1      33.273  33.604  28.010  1.00  0.00     0.278 C 
ENDBRANCH  12  18
ENDBRANCH  10  11
ENDBRANCH   7  10
ENDBRANCH   5   6
BRANCH   5  20
ATOM     20  C   UNL A   1      32.815  26.120  24.103  1.00  0.00     0.027 A 
ATOM     21  C   UNL A   1      33.584  26.869  23.231  1.00  0.00     0.017 A 
ATOM     22  S   UNL A   1      31.630  25.215  23.236  1.00  0.00    -0.147 S 
ATOM     23  C   UNL A   1      33.092  26.833  21.895  1.00  0.00     0.012 A 
ATOM     24  C   UNL A   1      32.034  25.967  21.758  1.00  0.00     0.065 A 
ENDBRANCH   5  20
ENDBRANCH   4   5
ENDBRANCH   2   4
ENDBRANCH   1   2
BRANCH   1  25
ATOM     25  C   UNL A   1      35.254  22.086  24.684  1.00  0.00     0.274 C 
BRANCH  25  26
ATOM     26  C   UNL A   1      36.431  21.627  25.582  1.00  0.00     0.275 C 
BRANCH  26  27
ATOM     27  O   UNL A   1      37.764  22.274  25.673  1.00  0.00    -0.458 OA
BRANCH  27  28
ATOM     28  C   UNL A   1      39.021  22.035  26.125  1.00  0.00     0.338 C 
ATOM     29  O   UNL A   1      39.623  20.994  25.899  1.00  0.00    -0.246 OA
BRANCH  28  30
ATOM     30  C   UNL A   1      39.682  23.087  26.884  1.00  0.00     0.060 A 
ATOM     31  C   UNL A   1      40.675  22.839  27.857  1.00  0.00     0.016 A 
ATOM     32  C   UNL A   1      39.351  24.365  26.516  1.00  0.00     0.016 A 
ATOM     33  C   UNL A   1      41.413  23.909  28.366  1.00  0.00     0.010 A 
ATOM     34  C   UNL A   1      40.280  25.329  26.742  1.00  0.00     0.010 A 
ATOM     35  C   UNL A   1      41.214  25.147  27.768  1.00  0.00    -0.014 A 
BRANCH  35  36
ATOM     36  C   UNL A   1      41.590  26.446  28.291  1.00  0.00     0.031 A 
ATOM     37  C   UNL A   1      40.592  27.365  28.842  1.00  0.00     0.074 A 
ATOM     38  C   UNL A   1      42.921  26.456  28.558  1.00  0.00     0.049 A 
ATOM     39  N   UNL A   1      40.723  28.644  28.834  1.00  0.00    -0.248 NA
ATOM     40  C   UNL A   1      39.330  26.925  29.447  1.00  0.00     0.031 C 
ATOM     41  C   UNL A   1      43.710  27.144  29.559  1.00  0.00     0.029 A 
ATOM     42  N   UNL A   1      43.870  25.634  27.943  1.00  0.00    -0.354 N 
ATOM     43  C   UNL A   1      39.840  29.117  29.784  1.00  0.00     0.074 A 
ATOM     44  C   UNL A   1      38.859  28.071  29.960  1.00  0.00     0.031 C 
ATOM     45  C   UNL A   1      45.022  26.945  29.293  1.00  0.00     0.029 A 
ATOM     46  C   UNL A   1      45.130  26.187  28.050  1.00  0.00     0.049 A 
ATOM     47  H   UNL A   1      43.667  24.781  27.497  1.00  0.00     0.167 HD
ATOM     48  C   UNL A   1      40.211  30.173  30.566  1.00  0.00     0.037 A 
ATOM     49  C   UNL A   1      45.689  26.583  26.868  1.00  0.00     0.037 A 
ATOM     50  C   UNL A   1      41.634  30.441  30.364  1.00  0.00     0.049 A 
ATOM     51  C   UNL A   1      45.587  28.081  26.786  1.00  0.00     0.074 A 
ATOM     52  C   UNL A   1      42.738  30.065  31.112  1.00  0.00     0.029 A 
ATOM     53  N   UNL A   1      42.111  30.828  29.121  1.00  0.00    -0.354 N 
ATOM     54  N   UNL A   1      44.638  28.782  27.347  1.00  0.00    -0.248 NA
ATOM     55  C   UNL A   1      46.620  28.905  26.174  1.00  0.00     0.031 C 
ATOM     56  C   UNL A   1      43.889  30.233  30.306  1.00  0.00     0.029 A 
ATOM     57  C   UNL A   1      43.481  30.675  29.058  1.00  0.00     0.049 A 
ATOM     58  H   UNL A   1      41.550  31.166  28.385  1.00  0.00     0.167 HD
ATOM     59  C   UNL A   1      44.958  30.107  27.269  1.00  0.00     0.074 A 
ATOM     60  C   UNL A   1      46.190  30.135  26.501  1.00  0.00     0.031 C 
ATOM     61  C   UNL A   1      44.224  31.082  27.879  1.00  0.00     0.037 A 
BRANCH  48  62
ATOM     62  C   UNL A   1      39.451  30.736  31.747  1.00  0.00     0.057 A 
ATOM     63  C   UNL A   1      38.934  32.051  31.722  1.00  0.00     0.134 A 
ATOM     64  C   UNL A   1      39.119  30.007  32.902  1.00  0.00     0.134 A 
ATOM     65  F   UNL A   1      39.093  32.858  30.664  1.00  0.00    -0.206 F 
ATOM     66  C   UNL A   1      38.202  32.614  32.772  1.00  0.00     0.040 A 
ATOM     67  C   UNL A   1      38.399  30.567  33.973  1.00  0.00     0.040 A 
ATOM     68  F   UNL A   1      39.433  28.710  33.022  1.00  0.00    -0.206 F 
ATOM     69  C   UNL A   1      37.940  31.876  33.911  1.00  0.00     0.006 A 
ENDBRANCH  48  62
BRANCH  49  70
ATOM     70  C   UNL A   1      45.389  25.602  25.760  1.00  0.00     0.057 A 
ATOM     71  C   UNL A   1      46.257  24.498  25.619  1.00  0.00     0.134 A 
ATOM     72  C   UNL A   1      44.115  25.464  25.191  1.00  0.00     0.134 A 
ATOM     73  F   UNL A   1      47.494  24.547  26.142  1.00  0.00    -0.206 F 
ATOM     74  C   UNL A   1      45.838  23.277  25.074  1.00  0.00     0.040 A 
ATOM     75  C   UNL A   1      43.691  24.247  24.628  1.00  0.00     0.040 A 
ATOM     76  F   UNL A   1      43.213  26.452  25.283  1.00  0.00    -0.206 F 
ATOM     77  C   UNL A   1      44.536  23.138  24.610  1.00  0.00     0.006 A 
ENDBRANCH  49  70
BRANCH  61  78
ATOM     78  C   UNL A   1      44.247  32.539  27.508  1.00  0.00     0.057 A 
ATOM     79  C   UNL A   1      43.940  33.013  26.225  1.00  0.00     0.134 A 
ATOM     80  C   UNL A   1      44.418  33.543  28.491  1.00  0.00     0.134 A 
ATOM     81  F   UNL A   1      43.600  32.188  25.228  1.00  0.00    -0.206 F 
ATOM     82  C   UNL A   1      43.906  34.376  25.920  1.00  0.00     0.040 A 
ATOM     83  C   UNL A   1      44.308  34.904  28.212  1.00  0.00     0.040 A 
ATOM     84  F   UNL A   1      44.667  33.255  29.777  1.00  0.00    -0.206 F 
ATOM     85  C   UNL A   1      44.080  35.327  26.915  1.00  0.00     0.006 A 
ENDBRANCH  61  78
ENDBRANCH  35  36
ENDBRANCH  28  30
ENDBRANCH  27  28
ENDBRANCH  26  27
ENDBRANCH  25  26
ENDBRANCH   1  25
TORSDOF 17
ENDMDL
