MODEL 1
REMARK VINA RESULT:     -12.0      0.000      0.000
REMARK SMILES COc1ccc(-n2c(SCC(=O)OCCOC(=O)c3ccc(-c4c5nc(c(-c6c(F)cccc6F)c6ccc([nH]6)c(-c6c(F)cccc6F)c6nc(c(-c7c(F)cccc7F)c7ccc4[nH]7)C=C6)C=C5)cc3)nc3sc4c(c3c2=O)CC[N@H+](C)C4)cc1
REMARK SMILES IDX 14 1 13 2 11 3 12 4 10 5 9 6 8 7 7 8 79 9 73 10 78 11 80 12
REMARK SMILES IDX 74 13 77 14 75 15 76 16 81 17 85 18 82 19 83 20 84 21 6 23
REMARK SMILES IDX 3 24 4 25 87 26 5 27 86 28 2 29 1 30 15 31 16 32 17 33 18 34
REMARK SMILES IDX 19 35 20 36 72 37 21 38 71 39 22 40 23 41 24 42 65 43 25 44
REMARK SMILES IDX 70 45 64 46 66 47 26 48 69 49 63 50 62 51 27 53 53 54 36 55
REMARK SMILES IDX 52 56 37 57 40 58 51 59 67 60 38 61 39 62 50 64 68 65 41 66
REMARK SMILES IDX 28 67 29 68 34 69 30 70 31 71 33 72 35 73 32 74 54 75 55 76
REMARK SMILES IDX 60 77 56 78 57 79 59 80 61 81 58 82 42 83 43 84 48 85 44 86
REMARK SMILES IDX 45 87 47 88 49 89 46 90
REMARK H PARENT 83 22 66 52 40 63
REMARK Flexibility Score: inf
ROOT
ATOM      1  C   UNL A   1      41.573  40.807  26.388  1.00  0.00     0.274 C 
ENDROOT
BRANCH   1   2
ATOM      2  O   UNL A   1      41.237  41.059  24.985  1.00  0.00    -0.461 OA
BRANCH   2   3
ATOM      3  C   UNL A   1      42.138  41.784  24.254  1.00  0.00     0.316 C 
ATOM      4  O   UNL A   1      43.347  41.788  24.483  1.00  0.00    -0.251 OA
BRANCH   3   5
ATOM      5  C   UNL A   1      41.591  42.328  22.932  1.00  0.00     0.200 C 
BRANCH   5   6
ATOM      6  S   UNL A   1      42.494  42.156  21.421  1.00  0.00    -0.076 SA
BRANCH   6   7
ATOM      7  C   UNL A   1      43.231  43.549  20.657  1.00  0.00     0.177 A 
ATOM      8  N   UNL A   1      44.403  44.246  21.007  1.00  0.00    -0.255 N 
ATOM      9  C   UNL A   1      44.905  45.168  20.074  1.00  0.00     0.267 A 
ATOM     10  N   UNL A   1      42.428  43.958  19.695  1.00  0.00    -0.212 NA
ATOM     11  C   UNL A   1      44.003  45.663  19.099  1.00  0.00     0.081 A 
ATOM     12  O   UNL A   1      46.060  45.556  19.994  1.00  0.00    -0.268 OA
ATOM     13  C   UNL A   1      42.790  45.062  18.996  1.00  0.00     0.132 A 
ATOM     14  C   UNL A   1      44.250  46.687  18.153  1.00  0.00    -0.008 A 
ATOM     15  S   UNL A   1      41.831  45.888  17.835  1.00  0.00    -0.114 S 
ATOM     16  C   UNL A   1      43.111  46.965  17.438  1.00  0.00     0.065 A 
ATOM     17  C   UNL A   1      45.539  47.428  17.936  1.00  0.00     0.099 C 
ATOM     18  C   UNL A   1      43.049  48.030  16.384  1.00  0.00     0.310 C 
ATOM     19  C   UNL A   1      45.479  48.297  16.663  1.00  0.00     0.267 C 
ATOM     20  N   UNL A   1      44.187  48.988  16.454  1.00  0.00    -0.333 N 
ATOM     21  C   UNL A   1      43.999  50.006  17.483  1.00  0.00     0.333 C 
ATOM     22  H   UNL A   1      44.212  49.457  15.549  1.00  0.00     0.348 HD
BRANCH   8  23
ATOM     23  C   UNL A   1      45.244  44.171  22.173  1.00  0.00     0.052 A 
ATOM     24  C   UNL A   1      46.386  43.166  25.610  1.00  0.00     0.119 A 
ATOM     25  C   UNL A   1      46.863  42.139  24.222  1.00  0.00     0.048 A 
ATOM     26  C   UNL A   1      45.466  44.603  25.279  1.00  0.00     0.048 A 
ATOM     27  C   UNL A   1      46.222  42.675  22.371  1.00  0.00     0.030 A 
ATOM     28  C   UNL A   1      44.950  45.070  23.635  1.00  0.00     0.030 A 
BRANCH  24  29
ATOM     29  O   UNL A   1      46.616  42.705  26.872  1.00  0.00    -0.497 OA
ATOM     30  C   UNL A   1      45.478  42.038  27.424  1.00  0.00     0.278 C 
ENDBRANCH  24  29
ENDBRANCH   8  23
ENDBRANCH   6   7
ENDBRANCH   5   6
ENDBRANCH   3   5
ENDBRANCH   2   3
ENDBRANCH   1   2
BRANCH   1  31
ATOM     31  C   UNL A   1      42.113  39.365  26.546  1.00  0.00     0.275 C 
BRANCH  31  32
ATOM     32  O   UNL A   1      43.370  39.408  27.274  1.00  0.00    -0.458 OA
BRANCH  32  33
ATOM     33  C   UNL A   1      43.360  38.934  28.555  1.00  0.00     0.338 C 
ATOM     34  O   UNL A   1      43.528  39.717  29.484  1.00  0.00    -0.246 OA
BRANCH  33  35
ATOM     35  C   UNL A   1      43.001  37.345  28.830  1.00  0.00     0.060 A 
ATOM     36  C   UNL A   1      41.669  35.887  28.314  1.00  0.00     0.016 A 
ATOM     37  C   UNL A   1      44.044  36.988  30.265  1.00  0.00     0.016 A 
ATOM     38  C   UNL A   1      41.559  34.396  29.321  1.00  0.00     0.010 A 
ATOM     39  C   UNL A   1      43.800  35.497  31.155  1.00  0.00     0.010 A 
ATOM     40  C   UNL A   1      42.597  34.254  30.724  1.00  0.00    -0.014 A 
BRANCH  40  41
ATOM     41  C   UNL A   1      42.441  33.052  31.615  1.00  0.00     0.031 A 
ATOM     42  C   UNL A   1      40.996  32.935  32.032  1.00  0.00     0.074 A 
ATOM     43  C   UNL A   1      43.025  31.849  31.359  1.00  0.00     0.049 A 
ATOM     44  N   UNL A   1      40.077  32.356  31.314  1.00  0.00    -0.248 NA
ATOM     45  C   UNL A   1      40.457  33.796  33.084  1.00  0.00     0.031 C 
ATOM     46  C   UNL A   1      43.094  31.218  30.034  1.00  0.00     0.029 A 
ATOM     47  N   UNL A   1      43.349  30.811  32.233  1.00  0.00    -0.354 N 
ATOM     48  C   UNL A   1      38.850  32.873  31.721  1.00  0.00     0.074 A 
ATOM     49  C   UNL A   1      39.138  33.738  32.841  1.00  0.00     0.031 C 
ATOM     50  C   UNL A   1      43.296  29.893  30.189  1.00  0.00     0.029 A 
ATOM     51  C   UNL A   1      43.453  29.569  31.608  1.00  0.00     0.049 A 
ATOM     52  H   UNL A   1      43.490  30.941  33.198  1.00  0.00     0.167 HD
ATOM     53  C   UNL A   1      37.677  32.578  31.089  1.00  0.00     0.037 A 
ATOM     54  C   UNL A   1      43.171  28.352  32.159  1.00  0.00     0.037 A 
ATOM     55  C   UNL A   1      37.717  31.616  30.008  1.00  0.00     0.049 A 
ATOM     56  C   UNL A   1      41.721  28.154  31.820  1.00  0.00     0.074 A 
ATOM     57  C   UNL A   1      37.084  31.341  28.813  1.00  0.00     0.029 A 
ATOM     58  N   UNL A   1      38.628  30.615  30.161  1.00  0.00    -0.354 N 
ATOM     59  N   UNL A   1      41.220  27.626  30.740  1.00  0.00    -0.248 NA
ATOM     60  C   UNL A   1      40.737  28.820  32.694  1.00  0.00     0.031 C 
ATOM     61  C   UNL A   1      37.562  30.058  28.362  1.00  0.00     0.029 A 
ATOM     62  C   UNL A   1      38.454  29.571  29.305  1.00  0.00     0.049 A 
ATOM     63  H   UNL A   1      39.348  30.643  30.832  1.00  0.00     0.167 HD
ATOM     64  C   UNL A   1      39.939  28.165  30.664  1.00  0.00     0.074 A 
ATOM     65  C   UNL A   1      39.632  28.713  31.968  1.00  0.00     0.031 C 
ATOM     66  C   UNL A   1      39.332  28.440  29.477  1.00  0.00     0.037 A 
BRANCH  53  67
ATOM     67  C   UNL A   1      36.361  32.951  31.662  1.00  0.00     0.057 A 
ATOM     68  C   UNL A   1      35.615  33.922  30.975  1.00  0.00     0.134 A 
ATOM     69  C   UNL A   1      35.868  32.505  32.887  1.00  0.00     0.134 A 
ATOM     70  F   UNL A   1      36.032  34.371  29.780  1.00  0.00    -0.206 F 
ATOM     71  C   UNL A   1      34.446  34.464  31.503  1.00  0.00     0.040 A 
ATOM     72  C   UNL A   1      34.687  33.034  33.425  1.00  0.00     0.040 A 
ATOM     73  F   UNL A   1      36.528  31.576  33.593  1.00  0.00    -0.206 F 
ATOM     74  C   UNL A   1      33.982  34.026  32.739  1.00  0.00     0.006 A 
ENDBRANCH  53  67
BRANCH  54  75
ATOM     75  C   UNL A   1      43.720  27.914  33.476  1.00  0.00     0.057 A 
ATOM     76  C   UNL A   1      44.331  26.653  33.571  1.00  0.00     0.134 A 
ATOM     77  C   UNL A   1      43.611  28.622  34.684  1.00  0.00     0.134 A 
ATOM     78  F   UNL A   1      44.344  25.825  32.515  1.00  0.00    -0.206 F 
ATOM     79  C   UNL A   1      44.921  26.193  34.755  1.00  0.00     0.040 A 
ATOM     80  C   UNL A   1      44.231  28.197  35.863  1.00  0.00     0.040 A 
ATOM     81  F   UNL A   1      42.892  29.746  34.779  1.00  0.00    -0.206 F 
ATOM     82  C   UNL A   1      44.911  26.987  35.896  1.00  0.00     0.006 A 
ENDBRANCH  54  75
BRANCH  66  83
ATOM     83  C   UNL A   1      39.808  27.626  28.351  1.00  0.00     0.057 A 
ATOM     84  C   UNL A   1      39.533  26.258  28.331  1.00  0.00     0.134 A 
ATOM     85  C   UNL A   1      40.604  28.154  27.337  1.00  0.00     0.134 A 
ATOM     86  F   UNL A   1      38.815  25.696  29.316  1.00  0.00    -0.206 F 
ATOM     87  C   UNL A   1      39.993  25.444  27.301  1.00  0.00     0.040 A 
ATOM     88  C   UNL A   1      41.081  27.347  26.304  1.00  0.00     0.040 A 
ATOM     89  F   UNL A   1      40.903  29.462  27.312  1.00  0.00    -0.206 F 
ATOM     90  C   UNL A   1      40.758  25.992  26.273  1.00  0.00     0.006 A 
ENDBRANCH  66  83
ENDBRANCH  40  41
ENDBRANCH  33  35
ENDBRANCH  32  33
ENDBRANCH  31  32
ENDBRANCH   1  31
TORSDOF 15
ENDMDL
MODEL 2
REMARK VINA RESULT:     -11.7      6.216     15.331
REMARK SMILES COc1ccc(-n2c(SCC(=O)OCCOC(=O)c3ccc(-c4c5nc(c(-c6c(F)cccc6F)c6ccc([nH]6)c(-c6c(F)cccc6F)c6nc(c(-c7c(F)cccc7F)c7ccc4[nH]7)C=C6)C=C5)cc3)nc3sc4c(c3c2=O)CC[N@H+](C)C4)cc1
REMARK SMILES IDX 14 1 13 2 11 3 12 4 10 5 9 6 8 7 7 8 79 9 73 10 78 11 80 12
REMARK SMILES IDX 74 13 77 14 75 15 76 16 81 17 85 18 82 19 83 20 84 21 6 23
REMARK SMILES IDX 3 24 4 25 87 26 5 27 86 28 2 29 1 30 15 31 16 32 17 33 18 34
REMARK SMILES IDX 19 35 20 36 72 37 21 38 71 39 22 40 23 41 24 42 65 43 25 44
REMARK SMILES IDX 70 45 64 46 66 47 26 48 69 49 63 50 62 51 27 53 53 54 36 55
REMARK SMILES IDX 52 56 37 57 40 58 51 59 67 60 38 61 39 62 50 64 68 65 41 66
REMARK SMILES IDX 28 67 29 68 34 69 30 70 31 71 33 72 35 73 32 74 54 75 55 76
REMARK SMILES IDX 60 77 56 78 57 79 59 80 61 81 58 82 42 83 43 84 48 85 44 86
REMARK SMILES IDX 45 87 47 88 49 89 46 90
REMARK H PARENT 83 22 66 52 40 63
REMARK Flexibility Score: inf
ROOT
ATOM      1  C   UNL A   1      42.251  30.919  33.456  1.00  0.00     0.274 C 
ENDROOT
BRANCH   1   2
ATOM      2  O   UNL A   1      41.443  31.157  34.654  1.00  0.00    -0.461 OA
BRANCH   2   3
ATOM      3  C   UNL A   1      40.386  30.314  34.865  1.00  0.00     0.316 C 
ATOM      4  O   UNL A   1      40.107  29.845  35.967  1.00  0.00    -0.251 OA
BRANCH   3   5
ATOM      5  C   UNL A   1      39.381  30.255  33.712  1.00  0.00     0.200 C 
BRANCH   5   6
ATOM      6  S   UNL A   1      37.733  30.868  33.895  1.00  0.00    -0.076 SA
BRANCH   6   7
ATOM      7  C   UNL A   1      36.918  31.654  32.558  1.00  0.00     0.177 A 
ATOM      8  N   UNL A   1      37.067  31.447  31.174  1.00  0.00    -0.255 N 
ATOM      9  C   UNL A   1      36.107  32.031  30.331  1.00  0.00     0.267 A 
ATOM     10  N   UNL A   1      36.161  32.613  33.051  1.00  0.00    -0.212 NA
ATOM     11  C   UNL A   1      35.362  33.118  30.849  1.00  0.00     0.081 A 
ATOM     12  O   UNL A   1      35.820  31.663  29.202  1.00  0.00    -0.268 OA
ATOM     13  C   UNL A   1      35.468  33.384  32.176  1.00  0.00     0.132 A 
ATOM     14  C   UNL A   1      34.446  33.936  30.144  1.00  0.00    -0.008 A 
ATOM     15  S   UNL A   1      34.572  34.798  32.559  1.00  0.00    -0.114 S 
ATOM     16  C   UNL A   1      33.989  34.951  30.948  1.00  0.00     0.065 A 
ATOM     17  C   UNL A   1      34.018  33.790  28.710  1.00  0.00     0.099 C 
ATOM     18  C   UNL A   1      33.031  36.003  30.472  1.00  0.00     0.310 C 
ATOM     19  C   UNL A   1      32.835  34.722  28.380  1.00  0.00     0.267 C 
ATOM     20  N   UNL A   1      32.928  36.068  28.987  1.00  0.00    -0.333 N 
ATOM     21  C   UNL A   1      34.031  36.809  28.382  1.00  0.00     0.333 C 
ATOM     22  H   UNL A   1      32.065  36.574  28.791  1.00  0.00     0.348 HD
BRANCH   8  23
ATOM     23  C   UNL A   1      38.035  30.693  30.422  1.00  0.00     0.052 A 
ATOM     24  C   UNL A   1      40.945  28.412  29.752  1.00  0.00     0.119 A 
ATOM     25  C   UNL A   1      39.313  27.688  29.891  1.00  0.00     0.048 A 
ATOM     26  C   UNL A   1      41.081  30.139  29.879  1.00  0.00     0.048 A 
ATOM     27  C   UNL A   1      37.749  28.923  30.277  1.00  0.00     0.030 A 
ATOM     28  C   UNL A   1      39.681  31.206  30.180  1.00  0.00     0.030 A 
BRANCH  24  29
ATOM     29  O   UNL A   1      42.026  27.582  29.715  1.00  0.00    -0.497 OA
ATOM     30  C   UNL A   1      42.671  27.584  28.439  1.00  0.00     0.278 C 
ENDBRANCH  24  29
ENDBRANCH   8  23
ENDBRANCH   6   7
ENDBRANCH   5   6
ENDBRANCH   3   5
ENDBRANCH   2   3
ENDBRANCH   1   2
BRANCH   1  31
ATOM     31  C   UNL A   1      43.112  32.168  33.148  1.00  0.00     0.275 C 
BRANCH  31  32
ATOM     32  O   UNL A   1      42.400  33.010  32.201  1.00  0.00    -0.458 OA
BRANCH  32  33
ATOM     33  C   UNL A   1      43.020  33.262  31.010  1.00  0.00     0.338 C 
ATOM     34  O   UNL A   1      43.857  32.469  30.592  1.00  0.00    -0.246 OA
BRANCH  33  35
ATOM     35  C   UNL A   1      42.543  34.558  30.104  1.00  0.00     0.060 A 
ATOM     36  C   UNL A   1      41.386  35.055  28.497  1.00  0.00     0.016 A 
ATOM     37  C   UNL A   1      43.695  35.833  30.671  1.00  0.00     0.016 A 
ATOM     38  C   UNL A   1      41.613  36.660  27.710  1.00  0.00     0.010 A 
ATOM     39  C   UNL A   1      43.814  37.340  29.782  1.00  0.00     0.010 A 
ATOM     40  C   UNL A   1      42.834  37.742  28.347  1.00  0.00    -0.014 A 
BRANCH  40  41
ATOM     41  C   UNL A   1      43.086  39.042  27.635  1.00  0.00     0.031 A 
ATOM     42  C   UNL A   1      42.855  40.181  28.597  1.00  0.00     0.074 A 
ATOM     43  C   UNL A   1      44.145  39.248  26.804  1.00  0.00     0.049 A 
ATOM     44  N   UNL A   1      43.751  40.619  29.435  1.00  0.00    -0.248 NA
ATOM     45  C   UNL A   1      41.495  40.612  28.921  1.00  0.00     0.031 C 
ATOM     46  C   UNL A   1      45.517  38.794  27.070  1.00  0.00     0.029 A 
ATOM     47  N   UNL A   1      44.301  40.170  25.769  1.00  0.00    -0.354 N 
ATOM     48  C   UNL A   1      43.072  41.262  30.465  1.00  0.00     0.074 A 
ATOM     49  C   UNL A   1      41.678  41.257  30.083  1.00  0.00     0.031 C 
ATOM     50  C   UNL A   1      46.374  39.530  26.330  1.00  0.00     0.029 A 
ATOM     51  C   UNL A   1      45.632  40.457  25.474  1.00  0.00     0.049 A 
ATOM     52  H   UNL A   1      43.543  40.580  25.293  1.00  0.00     0.167 HD
ATOM     53  C   UNL A   1      43.698  41.733  31.582  1.00  0.00     0.037 A 
ATOM     54  C   UNL A   1      46.128  41.640  25.004  1.00  0.00     0.037 A 
ATOM     55  C   UNL A   1      45.141  41.629  31.641  1.00  0.00     0.049 A 
ATOM     56  C   UNL A   1      46.476  42.385  26.261  1.00  0.00     0.074 A 
ATOM     57  C   UNL A   1      46.151  41.450  32.564  1.00  0.00     0.029 A 
ATOM     58  N   UNL A   1      45.778  41.772  30.446  1.00  0.00    -0.354 N 
ATOM     59  N   UNL A   1      47.594  42.342  26.929  1.00  0.00    -0.248 NA
ATOM     60  C   UNL A   1      45.372  43.077  26.951  1.00  0.00     0.031 C 
ATOM     61  C   UNL A   1      47.400  41.647  31.871  1.00  0.00     0.029 A 
ATOM     62  C   UNL A   1      47.121  41.969  30.552  1.00  0.00     0.049 A 
ATOM     63  H   UNL A   1      45.309  41.737  29.581  1.00  0.00     0.167 HD
ATOM     64  C   UNL A   1      47.230  42.721  28.218  1.00  0.00     0.074 A 
ATOM     65  C   UNL A   1      45.928  43.346  28.125  1.00  0.00     0.031 C 
ATOM     66  C   UNL A   1      47.837  42.216  29.326  1.00  0.00     0.037 A 
BRANCH  53  67
ATOM     67  C   UNL A   1      43.008  42.608  32.560  1.00  0.00     0.057 A 
ATOM     68  C   UNL A   1      42.774  43.938  32.176  1.00  0.00     0.134 A 
ATOM     69  C   UNL A   1      42.688  42.248  33.869  1.00  0.00     0.134 A 
ATOM     70  F   UNL A   1      43.043  44.335  30.922  1.00  0.00    -0.206 F 
ATOM     71  C   UNL A   1      42.282  44.889  33.068  1.00  0.00     0.040 A 
ATOM     72  C   UNL A   1      42.182  43.192  34.773  1.00  0.00     0.040 A 
ATOM     73  F   UNL A   1      42.881  40.993  34.300  1.00  0.00    -0.206 F 
ATOM     74  C   UNL A   1      41.992  44.517  34.377  1.00  0.00     0.006 A 
ENDBRANCH  53  67
BRANCH  54  75
ATOM     75  C   UNL A   1      45.547  42.348  23.826  1.00  0.00     0.057 A 
ATOM     76  C   UNL A   1      46.376  42.633  22.729  1.00  0.00     0.134 A 
ATOM     77  C   UNL A   1      44.237  42.845  23.733  1.00  0.00     0.134 A 
ATOM     78  F   UNL A   1      47.687  42.348  22.778  1.00  0.00    -0.206 F 
ATOM     79  C   UNL A   1      45.895  43.243  21.563  1.00  0.00     0.040 A 
ATOM     80  C   UNL A   1      43.730  43.417  22.562  1.00  0.00     0.040 A 
ATOM     81  F   UNL A   1      43.396  42.812  24.774  1.00  0.00    -0.206 F 
ATOM     82  C   UNL A   1      44.555  43.596  21.461  1.00  0.00     0.006 A 
ENDBRANCH  54  75
BRANCH  66  83
ATOM     83  C   UNL A   1      49.213  41.751  29.103  1.00  0.00     0.057 A 
ATOM     84  C   UNL A   1      49.450  40.390  28.898  1.00  0.00     0.134 A 
ATOM     85  C   UNL A   1      50.308  42.609  29.174  1.00  0.00     0.134 A 
ATOM     86  F   UNL A   1      48.430  39.519  28.875  1.00  0.00    -0.206 F 
ATOM     87  C   UNL A   1      50.741  39.903  28.716  1.00  0.00     0.040 A 
ATOM     88  C   UNL A   1      51.608  42.131  29.003  1.00  0.00     0.040 A 
ATOM     89  F   UNL A   1      50.136  43.924  29.375  1.00  0.00    -0.206 F 
ATOM     90  C   UNL A   1      51.825  40.778  28.753  1.00  0.00     0.006 A 
ENDBRANCH  66  83
ENDBRANCH  40  41
ENDBRANCH  33  35
ENDBRANCH  32  33
ENDBRANCH  31  32
ENDBRANCH   1  31
TORSDOF 15
ENDMDL
MODEL 3
REMARK VINA RESULT:     -11.6      1.804      2.438
REMARK SMILES COc1ccc(-n2c(SCC(=O)OCCOC(=O)c3ccc(-c4c5nc(c(-c6c(F)cccc6F)c6ccc([nH]6)c(-c6c(F)cccc6F)c6nc(c(-c7c(F)cccc7F)c7ccc4[nH]7)C=C6)C=C5)cc3)nc3sc4c(c3c2=O)CC[N@H+](C)C4)cc1
REMARK SMILES IDX 14 1 13 2 11 3 12 4 10 5 9 6 8 7 7 8 79 9 73 10 78 11 80 12
REMARK SMILES IDX 74 13 77 14 75 15 76 16 81 17 85 18 82 19 83 20 84 21 6 23
REMARK SMILES IDX 3 24 4 25 87 26 5 27 86 28 2 29 1 30 15 31 16 32 17 33 18 34
REMARK SMILES IDX 19 35 20 36 72 37 21 38 71 39 22 40 23 41 24 42 65 43 25 44
REMARK SMILES IDX 70 45 64 46 66 47 26 48 69 49 63 50 62 51 27 53 53 54 36 55
REMARK SMILES IDX 52 56 37 57 40 58 51 59 67 60 38 61 39 62 50 64 68 65 41 66
REMARK SMILES IDX 28 67 29 68 34 69 30 70 31 71 33 72 35 73 32 74 54 75 55 76
REMARK SMILES IDX 60 77 56 78 57 79 59 80 61 81 58 82 42 83 43 84 48 85 44 86
REMARK SMILES IDX 45 87 47 88 49 89 46 90
REMARK H PARENT 83 22 66 52 40 63
REMARK Flexibility Score: inf
ROOT
ATOM      1  C   UNL A   1      43.965  40.728  27.894  1.00  0.00     0.274 C 
ENDROOT
BRANCH   1   2
ATOM      2  O   UNL A   1      43.841  41.926  27.061  1.00  0.00    -0.461 OA
BRANCH   2   3
ATOM      3  C   UNL A   1      44.148  41.792  25.734  1.00  0.00     0.316 C 
ATOM      4  O   UNL A   1      43.386  41.283  24.914  1.00  0.00    -0.251 OA
BRANCH   3   5
ATOM      5  C   UNL A   1      45.357  42.610  25.277  1.00  0.00     0.200 C 
BRANCH   5   6
ATOM      6  S   UNL A   1      46.179  42.264  23.750  1.00  0.00    -0.076 SA
BRANCH   6   7
ATOM      7  C   UNL A   1      45.637  42.999  22.255  1.00  0.00     0.177 A 
ATOM      8  N   UNL A   1      46.322  43.869  21.387  1.00  0.00    -0.255 N 
ATOM      9  C   UNL A   1      45.744  44.107  20.128  1.00  0.00     0.267 A 
ATOM     10  N   UNL A   1      44.367  42.691  22.088  1.00  0.00    -0.212 NA
ATOM     11  C   UNL A   1      44.358  43.850  19.991  1.00  0.00     0.081 A 
ATOM     12  O   UNL A   1      46.333  44.473  19.123  1.00  0.00    -0.268 OA
ATOM     13  C   UNL A   1      43.730  43.199  21.004  1.00  0.00     0.132 A 
ATOM     14  C   UNL A   1      43.546  44.139  18.868  1.00  0.00    -0.008 A 
ATOM     15  S   UNL A   1      42.048  43.095  20.673  1.00  0.00    -0.114 S 
ATOM     16  C   UNL A   1      42.232  43.840  19.134  1.00  0.00     0.065 A 
ATOM     17  C   UNL A   1      43.989  44.721  17.555  1.00  0.00     0.099 C 
ATOM     18  C   UNL A   1      41.126  44.071  18.148  1.00  0.00     0.310 C 
ATOM     19  C   UNL A   1      42.859  44.666  16.506  1.00  0.00     0.267 C 
ATOM     20  N   UNL A   1      41.516  44.984  17.037  1.00  0.00    -0.333 N 
ATOM     21  C   UNL A   1      41.456  46.391  17.421  1.00  0.00     0.333 C 
ATOM     22  H   UNL A   1      40.829  44.830  16.298  1.00  0.00     0.348 HD
BRANCH   8  23
ATOM     23  C   UNL A   1      47.572  44.569  21.529  1.00  0.00     0.052 A 
ATOM     24  C   UNL A   1      50.738  45.791  23.142  1.00  0.00     0.119 A 
ATOM     25  C   UNL A   1      50.791  44.256  22.222  1.00  0.00     0.048 A 
ATOM     26  C   UNL A   1      49.234  46.658  23.189  1.00  0.00     0.048 A 
ATOM     27  C   UNL A   1      49.071  43.589  21.374  1.00  0.00     0.030 A 
ATOM     28  C   UNL A   1      47.745  46.067  22.399  1.00  0.00     0.030 A 
BRANCH  24  29
ATOM     29  O   UNL A   1      51.819  46.137  23.899  1.00  0.00    -0.497 OA
ATOM     30  C   UNL A   1      51.655  45.784  25.275  1.00  0.00     0.278 C 
ENDBRANCH  24  29
ENDBRANCH   8  23
ENDBRANCH   6   7
ENDBRANCH   5   6
ENDBRANCH   3   5
ENDBRANCH   2   3
ENDBRANCH   1   2
BRANCH   1  31
ATOM     31  C   UNL A   1      42.570  40.092  28.108  1.00  0.00     0.275 C 
BRANCH  31  32
ATOM     32  O   UNL A   1      42.411  38.982  27.184  1.00  0.00    -0.458 OA
BRANCH  32  33
ATOM     33  C   UNL A   1      43.164  37.868  27.419  1.00  0.00     0.338 C 
ATOM     34  O   UNL A   1      43.976  37.505  26.573  1.00  0.00    -0.246 OA
BRANCH  33  35
ATOM     35  C   UNL A   1      43.058  37.109  28.882  1.00  0.00     0.060 A 
ATOM     36  C   UNL A   1      43.930  37.045  30.726  1.00  0.00     0.016 A 
ATOM     37  C   UNL A   1      41.937  35.742  28.492  1.00  0.00     0.016 A 
ATOM     38  C   UNL A   1      43.603  35.642  31.810  1.00  0.00     0.010 A 
ATOM     39  C   UNL A   1      41.739  34.437  29.647  1.00  0.00     0.010 A 
ATOM     40  C   UNL A   1      42.549  34.368  31.235  1.00  0.00    -0.014 A 
BRANCH  40  41
ATOM     41  C   UNL A   1      42.348  33.155  32.101  1.00  0.00     0.031 A 
ATOM     42  C   UNL A   1      40.885  33.036  32.447  1.00  0.00     0.074 A 
ATOM     43  C   UNL A   1      42.942  31.953  31.858  1.00  0.00     0.049 A 
ATOM     44  N   UNL A   1      40.000  32.469  31.678  1.00  0.00    -0.248 NA
ATOM     45  C   UNL A   1      40.297  33.884  33.484  1.00  0.00     0.031 C 
ATOM     46  C   UNL A   1      43.073  31.340  30.529  1.00  0.00     0.029 A 
ATOM     47  N   UNL A   1      43.221  30.903  32.732  1.00  0.00    -0.354 N 
ATOM     48  C   UNL A   1      38.756  32.984  32.032  1.00  0.00     0.074 A 
ATOM     49  C   UNL A   1      38.992  33.834  33.177  1.00  0.00     0.031 C 
ATOM     50  C   UNL A   1      43.264  30.012  30.676  1.00  0.00     0.029 A 
ATOM     51  C   UNL A   1      43.352  29.670  32.096  1.00  0.00     0.049 A 
ATOM     52  H   UNL A   1      43.315  31.020  33.705  1.00  0.00     0.167 HD
ATOM     53  C   UNL A   1      37.615  32.701  31.341  1.00  0.00     0.037 A 
ATOM     54  C   UNL A   1      43.042  28.446  32.617  1.00  0.00     0.037 A 
ATOM     55  C   UNL A   1      37.704  31.753  30.250  1.00  0.00     0.049 A 
ATOM     56  C   UNL A   1      41.609  28.257  32.206  1.00  0.00     0.074 A 
ATOM     57  C   UNL A   1      37.128  31.495  29.023  1.00  0.00     0.029 A 
ATOM     58  N   UNL A   1      38.604  30.747  30.434  1.00  0.00    -0.354 N 
ATOM     59  N   UNL A   1      41.160  27.744  31.096  1.00  0.00    -0.248 NA
ATOM     60  C   UNL A   1      40.586  28.914  33.040  1.00  0.00     0.031 C 
ATOM     61  C   UNL A   1      37.625  30.217  28.579  1.00  0.00     0.029 A 
ATOM     62  C   UNL A   1      38.470  29.715  29.557  1.00  0.00     0.049 A 
ATOM     63  H   UNL A   1      39.291  30.764  31.139  1.00  0.00     0.167 HD
ATOM     64  C   UNL A   1      39.885  28.288  30.967  1.00  0.00     0.074 A 
ATOM     65  C   UNL A   1      39.517  28.819  32.261  1.00  0.00     0.031 C 
ATOM     66  C   UNL A   1      39.336  28.580  29.756  1.00  0.00     0.037 A 
BRANCH  53  67
ATOM     67  C   UNL A   1      36.273  33.069  31.855  1.00  0.00     0.057 A 
ATOM     68  C   UNL A   1      35.522  33.978  31.092  1.00  0.00     0.134 A 
ATOM     69  C   UNL A   1      35.757  32.682  33.091  1.00  0.00     0.134 A 
ATOM     70  F   UNL A   1      35.961  34.368  29.885  1.00  0.00    -0.206 F 
ATOM     71  C   UNL A   1      34.324  34.517  31.555  1.00  0.00     0.040 A 
ATOM     72  C   UNL A   1      34.547  33.208  33.564  1.00  0.00     0.040 A 
ATOM     73  F   UNL A   1      36.420  31.814  33.868  1.00  0.00    -0.206 F 
ATOM     74  C   UNL A   1      33.836  34.138  32.802  1.00  0.00     0.006 A 
ENDBRANCH  53  67
BRANCH  54  75
ATOM     75  C   UNL A   1      43.526  27.989  33.953  1.00  0.00     0.057 A 
ATOM     76  C   UNL A   1      44.243  26.785  34.039  1.00  0.00     0.134 A 
ATOM     77  C   UNL A   1      43.259  28.619  35.179  1.00  0.00     0.134 A 
ATOM     78  F   UNL A   1      44.414  26.019  32.951  1.00  0.00    -0.206 F 
ATOM     79  C   UNL A   1      44.780  26.317  35.246  1.00  0.00     0.040 A 
ATOM     80  C   UNL A   1      43.824  28.189  36.384  1.00  0.00     0.040 A 
ATOM     81  F   UNL A   1      42.433  29.669  35.267  1.00  0.00    -0.206 F 
ATOM     82  C   UNL A   1      44.608  27.045  36.417  1.00  0.00     0.006 A 
ENDBRANCH  54  75
BRANCH  66  83
ATOM     83  C   UNL A   1      39.864  27.779  28.643  1.00  0.00     0.057 A 
ATOM     84  C   UNL A   1      39.517  26.431  28.545  1.00  0.00     0.134 A 
ATOM     85  C   UNL A   1      40.774  28.296  27.723  1.00  0.00     0.134 A 
ATOM     86  F   UNL A   1      38.686  25.877  29.441  1.00  0.00    -0.206 F 
ATOM     87  C   UNL A   1      40.021  25.628  27.526  1.00  0.00     0.040 A 
ATOM     88  C   UNL A   1      41.295  27.499  26.703  1.00  0.00     0.040 A 
ATOM     89  F   UNL A   1      41.145  29.584  27.775  1.00  0.00    -0.206 F 
ATOM     90  C   UNL A   1      40.902  26.167  26.590  1.00  0.00     0.006 A 
ENDBRANCH  66  83
ENDBRANCH  40  41
ENDBRANCH  33  35
ENDBRANCH  32  33
ENDBRANCH  31  32
ENDBRANCH   1  31
TORSDOF 15
ENDMDL
