MODEL 1
REMARK VINA RESULT:     -10.8      0.000      0.000
REMARK SMILES C[C@H](C(=O)OCCOC(=O)c1ccc(-c2c3nc(c(-c4c(F)cccc4F)c4ccc([nH]4)c(-c4c(F)cccc4F)c4nc(c(-c5c(F)cccc5F)c5ccc2[nH]5)C=C4)C=C3)cc1)N1C(=O)/C(=C/c2ccccc2F)SC1=S
REMARK SMILES IDX 6 1 5 2 3 3 4 4 2 5 1 6 65 7 66 8 78 9 67 10 68 11 77 12
REMARK SMILES IDX 79 13 69 14 70 15 71 16 75 17 72 18 74 19 76 20 73 21 7 22
REMARK SMILES IDX 8 23 9 24 10 25 11 26 12 27 64 28 13 29 63 30 14 31 15 32
REMARK SMILES IDX 16 33 57 34 17 35 62 36 56 37 58 38 18 39 61 40 55 41 54 42
REMARK SMILES IDX 19 44 45 45 28 46 44 47 29 48 32 49 43 50 59 51 30 52 31 53
REMARK SMILES IDX 42 55 60 56 33 57 20 58 21 59 26 60 22 61 23 62 25 63 27 64
REMARK SMILES IDX 24 65 46 66 47 67 52 68 48 69 49 70 51 71 53 72 50 73 34 74
REMARK SMILES IDX 35 75 40 76 36 77 37 78 39 79 41 80 38 81
REMARK H PARENT 58 43 32 54
REMARK Flexibility Score: inf
ROOT
ATOM      1  C   UNL A   1      32.465  29.240  25.883  1.00  0.00     0.274 C 
ENDROOT
BRANCH   1   2
ATOM      2  O   UNL A   1      32.213  29.044  24.474  1.00  0.00    -0.461 OA
BRANCH   2   3
ATOM      3  C   UNL A   1      31.063  28.385  24.158  1.00  0.00     0.329 C 
ATOM      4  O   UNL A   1      30.183  28.844  23.433  1.00  0.00    -0.250 OA
BRANCH   3   5
ATOM      5  C   UNL A   1      31.021  26.924  24.678  1.00  0.00     0.199 C 
ATOM      6  C   UNL A   1      29.748  26.354  24.039  1.00  0.00     0.044 C 
BRANCH   5   7
ATOM      7  N   UNL A   1      32.266  26.140  24.456  1.00  0.00    -0.279 N 
ATOM      8  C   UNL A   1      32.681  25.341  25.520  1.00  0.00     0.266 C 
ATOM      9  C   UNL A   1      32.835  25.774  23.249  1.00  0.00     0.149 C 
ATOM     10  O   UNL A   1      32.068  25.157  26.564  1.00  0.00    -0.268 OA
ATOM     11  C   UNL A   1      33.930  24.616  25.189  1.00  0.00     0.081 C 
ATOM     12  S   UNL A   1      34.254  24.767  23.520  1.00  0.00    -0.054 SA
ATOM     13  S   UNL A   1      32.361  26.069  21.677  1.00  0.00    -0.052 S 
ATOM     14  C   UNL A   1      34.619  23.919  26.104  1.00  0.00     0.032 C 
BRANCH  14  15
ATOM     15  C   UNL A   1      35.797  23.100  25.802  1.00  0.00     0.012 A 
ATOM     16  C   UNL A   1      37.067  23.642  26.038  1.00  0.00     0.011 A 
ATOM     17  C   UNL A   1      35.702  21.786  25.330  1.00  0.00     0.130 A 
ATOM     18  C   UNL A   1      38.211  22.866  25.838  1.00  0.00     0.001 A 
ATOM     19  C   UNL A   1      36.840  21.007  25.137  1.00  0.00     0.040 A 
ATOM     20  F   UNL A   1      34.502  21.245  25.065  1.00  0.00    -0.206 F 
ATOM     21  C   UNL A   1      38.097  21.547  25.398  1.00  0.00     0.003 A 
ENDBRANCH  14  15
ENDBRANCH   5   7
ENDBRANCH   3   5
ENDBRANCH   2   3
ENDBRANCH   1   2
BRANCH   1  22
ATOM     22  C   UNL A   1      33.883  28.804  26.235  1.00  0.00     0.275 C 
BRANCH  22  23
ATOM     23  O   UNL A   1      34.080  28.986  27.645  1.00  0.00    -0.458 OA
BRANCH  23  24
ATOM     24  C   UNL A   1      34.630  30.165  28.010  1.00  0.00     0.338 C 
ATOM     25  O   UNL A   1      34.079  31.243  28.140  1.00  0.00    -0.246 OA
BRANCH  24  26
ATOM     26  C   UNL A   1      36.052  29.952  28.307  1.00  0.00     0.060 A 
ATOM     27  C   UNL A   1      36.993  30.194  27.307  1.00  0.00     0.016 A 
ATOM     28  C   UNL A   1      36.438  29.392  29.521  1.00  0.00     0.016 A 
ATOM     29  C   UNL A   1      38.311  29.778  27.479  1.00  0.00     0.010 A 
ATOM     30  C   UNL A   1      37.782  29.072  29.731  1.00  0.00     0.010 A 
ATOM     31  C   UNL A   1      38.726  29.222  28.698  1.00  0.00    -0.014 A 
BRANCH  31  32
ATOM     32  C   UNL A   1      40.128  28.757  28.886  1.00  0.00     0.031 A 
ATOM     33  C   UNL A   1      41.160  29.688  29.468  1.00  0.00     0.074 A 
ATOM     34  C   UNL A   1      40.491  27.506  28.537  1.00  0.00     0.049 A 
ATOM     35  N   UNL A   1      42.463  29.559  29.512  1.00  0.00    -0.248 NA
ATOM     36  C   UNL A   1      40.662  30.937  30.066  1.00  0.00     0.031 C 
ATOM     37  C   UNL A   1      39.596  26.478  28.005  1.00  0.00     0.029 A 
ATOM     38  N   UNL A   1      41.716  26.887  28.581  1.00  0.00    -0.354 N 
ATOM     39  C   UNL A   1      42.941  30.736  30.075  1.00  0.00     0.074 A 
ATOM     40  C   UNL A   1      41.790  31.564  30.367  1.00  0.00     0.031 C 
ATOM     41  C   UNL A   1      40.291  25.347  27.809  1.00  0.00     0.029 A 
ATOM     42  C   UNL A   1      41.696  25.595  28.116  1.00  0.00     0.049 A 
ATOM     43  H   UNL A   1      42.532  27.327  28.914  1.00  0.00     0.167 HD
ATOM     44  C   UNL A   1      44.224  31.096  30.320  1.00  0.00     0.037 A 
ATOM     45  C   UNL A   1      42.698  24.718  27.916  1.00  0.00     0.037 A 
ATOM     46  C   UNL A   1      45.363  30.244  30.097  1.00  0.00     0.049 A 
ATOM     47  C   UNL A   1      44.112  25.140  28.189  1.00  0.00     0.074 A 
ATOM     48  C   UNL A   1      46.700  30.512  30.335  1.00  0.00     0.029 A 
ATOM     49  N   UNL A   1      45.294  28.949  29.609  1.00  0.00    -0.354 N 
ATOM     50  N   UNL A   1      44.558  26.282  28.648  1.00  0.00    -0.248 NA
ATOM     51  C   UNL A   1      45.164  24.159  27.888  1.00  0.00     0.031 C 
ATOM     52  C   UNL A   1      47.444  29.384  29.970  1.00  0.00     0.029 A 
ATOM     53  C   UNL A   1      46.566  28.406  29.532  1.00  0.00     0.049 A 
ATOM     54  H   UNL A   1      44.465  28.484  29.353  1.00  0.00     0.167 HD
ATOM     55  C   UNL A   1      45.939  26.159  28.696  1.00  0.00     0.074 A 
ATOM     56  C   UNL A   1      46.257  24.822  28.238  1.00  0.00     0.031 C 
ATOM     57  C   UNL A   1      46.863  27.074  29.076  1.00  0.00     0.037 A 
BRANCH  44  58
ATOM     58  C   UNL A   1      44.470  32.485  30.828  1.00  0.00     0.057 A 
ATOM     59  C   UNL A   1      44.549  32.778  32.194  1.00  0.00     0.134 A 
ATOM     60  C   UNL A   1      44.671  33.540  29.927  1.00  0.00     0.134 A 
ATOM     61  F   UNL A   1      44.351  31.815  33.107  1.00  0.00    -0.206 F 
ATOM     62  C   UNL A   1      44.802  34.074  32.647  1.00  0.00     0.040 A 
ATOM     63  C   UNL A   1      44.945  34.835  30.366  1.00  0.00     0.040 A 
ATOM     64  F   UNL A   1      44.614  33.324  28.603  1.00  0.00    -0.206 F 
ATOM     65  C   UNL A   1      45.008  35.106  31.732  1.00  0.00     0.006 A 
ENDBRANCH  44  58
BRANCH  45  66
ATOM     66  C   UNL A   1      42.398  23.365  27.388  1.00  0.00     0.057 A 
ATOM     67  C   UNL A   1      42.451  23.100  26.015  1.00  0.00     0.134 A 
ATOM     68  C   UNL A   1      42.061  22.307  28.240  1.00  0.00     0.134 A 
ATOM     69  F   UNL A   1      42.743  24.080  25.149  1.00  0.00    -0.206 F 
ATOM     70  C   UNL A   1      42.178  21.829  25.507  1.00  0.00     0.040 A 
ATOM     71  C   UNL A   1      41.810  21.025  27.748  1.00  0.00     0.040 A 
ATOM     72  F   UNL A   1      41.994  22.499  29.565  1.00  0.00    -0.206 F 
ATOM     73  C   UNL A   1      41.864  20.784  26.377  1.00  0.00     0.006 A 
ENDBRANCH  45  66
BRANCH  57  74
ATOM     74  C   UNL A   1      48.297  26.649  29.031  1.00  0.00     0.057 A 
ATOM     75  C   UNL A   1      49.089  26.863  27.896  1.00  0.00     0.134 A 
ATOM     76  C   UNL A   1      48.899  26.041  30.140  1.00  0.00     0.134 A 
ATOM     77  F   UNL A   1      48.564  27.427  26.798  1.00  0.00    -0.206 F 
ATOM     78  C   UNL A   1      50.428  26.471  27.860  1.00  0.00     0.040 A 
ATOM     79  C   UNL A   1      50.241  25.662  30.121  1.00  0.00     0.040 A 
ATOM     80  F   UNL A   1      48.192  25.814  31.257  1.00  0.00    -0.206 F 
ATOM     81  C   UNL A   1      51.008  25.873  28.978  1.00  0.00     0.006 A 
ENDBRANCH  57  74
ENDBRANCH  31  32
ENDBRANCH  24  26
ENDBRANCH  23  24
ENDBRANCH  22  23
ENDBRANCH   1  22
TORSDOF 13
ENDMDL
MODEL 2
REMARK VINA RESULT:     -10.7      2.877      6.850
REMARK SMILES C[C@H](C(=O)OCCOC(=O)c1ccc(-c2c3nc(c(-c4c(F)cccc4F)c4ccc([nH]4)c(-c4c(F)cccc4F)c4nc(c(-c5c(F)cccc5F)c5ccc2[nH]5)C=C4)C=C3)cc1)N1C(=O)/C(=C/c2ccccc2F)SC1=S
REMARK SMILES IDX 6 1 5 2 3 3 4 4 2 5 1 6 65 7 66 8 78 9 67 10 68 11 77 12
REMARK SMILES IDX 79 13 69 14 70 15 71 16 75 17 72 18 74 19 76 20 73 21 7 22
REMARK SMILES IDX 8 23 9 24 10 25 11 26 12 27 64 28 13 29 63 30 14 31 15 32
REMARK SMILES IDX 16 33 57 34 17 35 62 36 56 37 58 38 18 39 61 40 55 41 54 42
REMARK SMILES IDX 19 44 45 45 28 46 44 47 29 48 32 49 43 50 59 51 30 52 31 53
REMARK SMILES IDX 42 55 60 56 33 57 20 58 21 59 26 60 22 61 23 62 25 63 27 64
REMARK SMILES IDX 24 65 46 66 47 67 52 68 48 69 49 70 51 71 53 72 50 73 34 74
REMARK SMILES IDX 35 75 40 76 36 77 37 78 39 79 41 80 38 81
REMARK H PARENT 58 43 32 54
REMARK Flexibility Score: inf
ROOT
ATOM      1  C   UNL A   1      35.264  20.350  25.244  1.00  0.00     0.274 C 
ENDROOT
BRANCH   1   2
ATOM      2  O   UNL A   1      34.750  21.566  24.657  1.00  0.00    -0.461 OA
BRANCH   2   3
ATOM      3  C   UNL A   1      33.536  21.469  24.045  1.00  0.00     0.329 C 
ATOM      4  O   UNL A   1      32.819  20.472  24.092  1.00  0.00    -0.250 OA
BRANCH   3   5
ATOM      5  C   UNL A   1      33.060  22.795  23.396  1.00  0.00     0.199 C 
ATOM      6  C   UNL A   1      31.778  22.390  22.657  1.00  0.00     0.044 C 
BRANCH   5   7
ATOM      7  N   UNL A   1      32.935  23.946  24.331  1.00  0.00    -0.279 N 
ATOM      8  C   UNL A   1      33.345  25.182  23.835  1.00  0.00     0.266 C 
ATOM      9  C   UNL A   1      32.118  24.051  25.443  1.00  0.00     0.149 C 
ATOM     10  O   UNL A   1      33.699  25.415  22.686  1.00  0.00    -0.268 OA
ATOM     11  C   UNL A   1      33.183  26.247  24.852  1.00  0.00     0.081 C 
ATOM     12  S   UNL A   1      32.264  25.652  26.162  1.00  0.00    -0.054 SA
ATOM     13  S   UNL A   1      31.030  22.978  26.112  1.00  0.00    -0.052 S 
ATOM     14  C   UNL A   1      33.663  27.486  24.676  1.00  0.00     0.032 C 
BRANCH  14  15
ATOM     15  C   UNL A   1      33.436  28.599  25.603  1.00  0.00     0.012 A 
ATOM     16  C   UNL A   1      34.426  28.896  26.547  1.00  0.00     0.011 A 
ATOM     17  C   UNL A   1      32.289  29.400  25.553  1.00  0.00     0.130 A 
ATOM     18  C   UNL A   1      34.282  29.997  27.395  1.00  0.00     0.001 A 
ATOM     19  C   UNL A   1      32.146  30.503  26.391  1.00  0.00     0.040 A 
ATOM     20  F   UNL A   1      31.307  29.126  24.681  1.00  0.00    -0.206 F 
ATOM     21  C   UNL A   1      33.148  30.805  27.311  1.00  0.00     0.003 A 
ENDBRANCH  14  15
ENDBRANCH   5   7
ENDBRANCH   3   5
ENDBRANCH   2   3
ENDBRANCH   1   2
BRANCH   1  22
ATOM     22  C   UNL A   1      36.748  20.196  24.934  1.00  0.00     0.275 C 
BRANCH  22  23
ATOM     23  O   UNL A   1      37.458  21.285  25.545  1.00  0.00    -0.458 OA
BRANCH  23  24
ATOM     24  C   UNL A   1      38.733  21.021  25.906  1.00  0.00     0.338 C 
ATOM     25  O   UNL A   1      39.364  19.993  25.738  1.00  0.00    -0.246 OA
BRANCH  24  26
ATOM     26  C   UNL A   1      39.312  22.227  26.510  1.00  0.00     0.060 A 
ATOM     27  C   UNL A   1      38.790  23.472  26.165  1.00  0.00     0.016 A 
ATOM     28  C   UNL A   1      40.448  22.133  27.310  1.00  0.00     0.016 A 
ATOM     29  C   UNL A   1      39.464  24.634  26.531  1.00  0.00     0.010 A 
ATOM     30  C   UNL A   1      41.063  23.303  27.764  1.00  0.00     0.010 A 
ATOM     31  C   UNL A   1      40.604  24.566  27.346  1.00  0.00    -0.014 A 
BRANCH  31  32
ATOM     32  C   UNL A   1      41.343  25.801  27.728  1.00  0.00     0.031 A 
ATOM     33  C   UNL A   1      40.673  26.849  28.580  1.00  0.00     0.074 A 
ATOM     34  C   UNL A   1      42.612  25.998  27.317  1.00  0.00     0.049 A 
ATOM     35  N   UNL A   1      41.054  28.074  28.839  1.00  0.00    -0.248 NA
ATOM     36  C   UNL A   1      39.397  26.472  29.210  1.00  0.00     0.031 C 
ATOM     37  C   UNL A   1      43.408  25.056  26.530  1.00  0.00     0.029 A 
ATOM     38  N   UNL A   1      43.458  27.063  27.512  1.00  0.00    -0.354 N 
ATOM     39  C   UNL A   1      40.034  28.634  29.600  1.00  0.00     0.074 A 
ATOM     40  C   UNL A   1      39.023  27.613  29.770  1.00  0.00     0.031 C 
ATOM     41  C   UNL A   1      44.634  25.565  26.340  1.00  0.00     0.029 A 
ATOM     42  C   UNL A   1      44.685  26.905  26.915  1.00  0.00     0.049 A 
ATOM     43  H   UNL A   1      43.208  27.863  28.029  1.00  0.00     0.167 HD
ATOM     44  C   UNL A   1      39.948  29.888  30.104  1.00  0.00     0.037 A 
ATOM     45  C   UNL A   1      45.722  27.756  26.803  1.00  0.00     0.037 A 
ATOM     46  C   UNL A   1      40.986  30.881  29.997  1.00  0.00     0.049 A 
ATOM     47  C   UNL A   1      45.602  29.143  27.365  1.00  0.00     0.074 A 
ATOM     48  C   UNL A   1      40.998  32.173  30.495  1.00  0.00     0.029 A 
ATOM     49  N   UNL A   1      42.204  30.681  29.369  1.00  0.00    -0.354 N 
ATOM     50  N   UNL A   1      44.603  29.686  28.015  1.00  0.00    -0.248 NA
ATOM     51  C   UNL A   1      46.744  30.043  27.152  1.00  0.00     0.031 C 
ATOM     52  C   UNL A   1      42.220  32.762  30.149  1.00  0.00     0.029 A 
ATOM     53  C   UNL A   1      42.976  31.827  29.461  1.00  0.00     0.049 A 
ATOM     54  H   UNL A   1      42.481  29.848  28.923  1.00  0.00     0.167 HD
ATOM     55  C   UNL A   1      44.994  30.988  28.293  1.00  0.00     0.074 A 
ATOM     56  C   UNL A   1      46.331  31.148  27.759  1.00  0.00     0.031 C 
ATOM     57  C   UNL A   1      44.304  31.967  28.925  1.00  0.00     0.037 A 
BRANCH  44  58
ATOM     58  C   UNL A   1      38.673  30.273  30.793  1.00  0.00     0.057 A 
ATOM     59  C   UNL A   1      38.497  30.130  32.173  1.00  0.00     0.134 A 
ATOM     60  C   UNL A   1      37.617  30.833  30.060  1.00  0.00     0.134 A 
ATOM     61  F   UNL A   1      39.463  29.586  32.928  1.00  0.00    -0.206 F 
ATOM     62  C   UNL A   1      37.310  30.515  32.800  1.00  0.00     0.040 A 
ATOM     63  C   UNL A   1      36.435  31.241  30.677  1.00  0.00     0.040 A 
ATOM     64  F   UNL A   1      37.725  31.002  28.733  1.00  0.00    -0.206 F 
ATOM     65  C   UNL A   1      36.277  31.079  32.052  1.00  0.00     0.006 A 
ENDBRANCH  44  58
BRANCH  45  66
ATOM     66  C   UNL A   1      46.951  27.330  26.089  1.00  0.00     0.057 A 
ATOM     67  C   UNL A   1      47.061  27.469  24.702  1.00  0.00     0.134 A 
ATOM     68  C   UNL A   1      48.042  26.785  26.776  1.00  0.00     0.134 A 
ATOM     69  F   UNL A   1      46.039  27.961  23.988  1.00  0.00    -0.206 F 
ATOM     70  C   UNL A   1      48.215  27.079  24.020  1.00  0.00     0.040 A 
ATOM     71  C   UNL A   1      49.211  26.413  26.110  1.00  0.00     0.040 A 
ATOM     72  F   UNL A   1      47.996  26.628  28.106  1.00  0.00    -0.206 F 
ATOM     73  C   UNL A   1      49.298  26.556  24.727  1.00  0.00     0.006 A 
ENDBRANCH  45  66
BRANCH  57  74
ATOM     74  C   UNL A   1      44.994  33.285  29.090  1.00  0.00     0.057 A 
ATOM     75  C   UNL A   1      44.838  34.315  28.154  1.00  0.00     0.134 A 
ATOM     76  C   UNL A   1      45.803  33.536  30.204  1.00  0.00     0.134 A 
ATOM     77  F   UNL A   1      44.087  34.129  27.057  1.00  0.00    -0.206 F 
ATOM     78  C   UNL A   1      45.477  35.545  28.313  1.00  0.00     0.040 A 
ATOM     79  C   UNL A   1      46.432  34.767  30.383  1.00  0.00     0.040 A 
ATOM     80  F   UNL A   1      45.987  32.589  31.137  1.00  0.00    -0.206 F 
ATOM     81  C   UNL A   1      46.274  35.775  29.434  1.00  0.00     0.006 A 
ENDBRANCH  57  74
ENDBRANCH  31  32
ENDBRANCH  24  26
ENDBRANCH  23  24
ENDBRANCH  22  23
ENDBRANCH   1  22
TORSDOF 13
ENDMDL
MODEL 3
REMARK VINA RESULT:     -10.7      2.807      7.129
REMARK SMILES C[C@H](C(=O)OCCOC(=O)c1ccc(-c2c3nc(c(-c4c(F)cccc4F)c4ccc([nH]4)c(-c4c(F)cccc4F)c4nc(c(-c5c(F)cccc5F)c5ccc2[nH]5)C=C4)C=C3)cc1)N1C(=O)/C(=C/c2ccccc2F)SC1=S
REMARK SMILES IDX 6 1 5 2 3 3 4 4 2 5 1 6 65 7 66 8 78 9 67 10 68 11 77 12
REMARK SMILES IDX 79 13 69 14 70 15 71 16 75 17 72 18 74 19 76 20 73 21 7 22
REMARK SMILES IDX 8 23 9 24 10 25 11 26 12 27 64 28 13 29 63 30 14 31 15 32
REMARK SMILES IDX 16 33 57 34 17 35 62 36 56 37 58 38 18 39 61 40 55 41 54 42
REMARK SMILES IDX 19 44 45 45 28 46 44 47 29 48 32 49 43 50 59 51 30 52 31 53
REMARK SMILES IDX 42 55 60 56 33 57 20 58 21 59 26 60 22 61 23 62 25 63 27 64
REMARK SMILES IDX 24 65 46 66 47 67 52 68 48 69 49 70 51 71 53 72 50 73 34 74
REMARK SMILES IDX 35 75 40 76 36 77 37 78 39 79 41 80 38 81
REMARK H PARENT 58 43 32 54
REMARK Flexibility Score: inf
ROOT
ATOM      1  C   UNL A   1      34.872  20.527  25.281  1.00  0.00     0.274 C 
ENDROOT
BRANCH   1   2
ATOM      2  O   UNL A   1      34.415  21.755  24.675  1.00  0.00    -0.461 OA
BRANCH   2   3
ATOM      3  C   UNL A   1      33.434  22.424  25.344  1.00  0.00     0.329 C 
ATOM      4  O   UNL A   1      32.536  21.875  25.979  1.00  0.00    -0.250 OA
BRANCH   3   5
ATOM      5  C   UNL A   1      33.631  23.962  25.360  1.00  0.00     0.199 C 
ATOM      6  C   UNL A   1      35.127  24.135  25.067  1.00  0.00     0.044 C 
BRANCH   5   7
ATOM      7  N   UNL A   1      32.704  24.726  24.482  1.00  0.00    -0.279 N 
ATOM      8  C   UNL A   1      32.262  25.951  24.979  1.00  0.00     0.266 C 
ATOM      9  C   UNL A   1      32.539  24.605  23.113  1.00  0.00     0.149 C 
ATOM     10  O   UNL A   1      32.642  26.487  26.013  1.00  0.00    -0.268 OA
ATOM     11  C   UNL A   1      31.342  26.615  24.027  1.00  0.00     0.081 C 
ATOM     12  S   UNL A   1      31.389  25.803  22.526  1.00  0.00    -0.054 SA
ATOM     13  S   UNL A   1      33.278  23.605  22.002  1.00  0.00    -0.052 S 
ATOM     14  C   UNL A   1      30.653  27.720  24.346  1.00  0.00     0.032 C 
BRANCH  14  15
ATOM     15  C   UNL A   1      29.816  28.472  23.406  1.00  0.00     0.012 A 
ATOM     16  C   UNL A   1      28.425  28.345  23.501  1.00  0.00     0.011 A 
ATOM     17  C   UNL A   1      30.351  29.341  22.449  1.00  0.00     0.130 A 
ATOM     18  C   UNL A   1      27.591  29.104  22.676  1.00  0.00     0.001 A 
ATOM     19  C   UNL A   1      29.523  30.106  21.630  1.00  0.00     0.040 A 
ATOM     20  F   UNL A   1      31.680  29.464  22.310  1.00  0.00    -0.206 F 
ATOM     21  C   UNL A   1      28.140  29.991  21.749  1.00  0.00     0.003 A 
ENDBRANCH  14  15
ENDBRANCH   5   7
ENDBRANCH   3   5
ENDBRANCH   2   3
ENDBRANCH   1   2
BRANCH   1  22
ATOM     22  C   UNL A   1      36.355  20.315  25.001  1.00  0.00     0.275 C 
BRANCH  22  23
ATOM     23  O   UNL A   1      37.100  21.337  25.680  1.00  0.00    -0.458 OA
BRANCH  23  24
ATOM     24  C   UNL A   1      38.427  21.111  25.798  1.00  0.00     0.338 C 
ATOM     25  O   UNL A   1      39.059  20.138  25.431  1.00  0.00    -0.246 OA
BRANCH  24  26
ATOM     26  C   UNL A   1      39.054  22.289  26.410  1.00  0.00     0.060 A 
ATOM     27  C   UNL A   1      38.541  23.552  26.123  1.00  0.00     0.016 A 
ATOM     28  C   UNL A   1      40.221  22.152  27.158  1.00  0.00     0.016 A 
ATOM     29  C   UNL A   1      39.252  24.691  26.493  1.00  0.00     0.010 A 
ATOM     30  C   UNL A   1      40.876  23.297  27.618  1.00  0.00     0.010 A 
ATOM     31  C   UNL A   1      40.423  24.580  27.255  1.00  0.00    -0.014 A 
BRANCH  31  32
ATOM     32  C   UNL A   1      41.202  25.790  27.640  1.00  0.00     0.031 A 
ATOM     33  C   UNL A   1      40.567  26.852  28.501  1.00  0.00     0.074 A 
ATOM     34  C   UNL A   1      42.473  25.951  27.223  1.00  0.00     0.049 A 
ATOM     35  N   UNL A   1      40.986  28.065  28.765  1.00  0.00    -0.248 NA
ATOM     36  C   UNL A   1      39.285  26.510  29.136  1.00  0.00     0.031 C 
ATOM     37  C   UNL A   1      43.236  24.990  26.426  1.00  0.00     0.029 A 
ATOM     38  N   UNL A   1      43.351  26.989  27.418  1.00  0.00    -0.354 N 
ATOM     39  C   UNL A   1      39.988  28.651  29.534  1.00  0.00     0.074 A 
ATOM     40  C   UNL A   1      38.948  27.659  29.705  1.00  0.00     0.031 C 
ATOM     41  C   UNL A   1      44.476  25.464  26.232  1.00  0.00     0.029 A 
ATOM     42  C   UNL A   1      44.570  26.799  26.814  1.00  0.00     0.049 A 
ATOM     43  H   UNL A   1      43.129  27.794  27.941  1.00  0.00     0.167 HD
ATOM     44  C   UNL A   1      39.942  29.904  30.046  1.00  0.00     0.037 A 
ATOM     45  C   UNL A   1      45.631  27.619  26.700  1.00  0.00     0.037 A 
ATOM     46  C   UNL A   1      41.008  30.866  29.938  1.00  0.00     0.049 A 
ATOM     47  C   UNL A   1      45.556  29.006  27.271  1.00  0.00     0.074 A 
ATOM     48  C   UNL A   1      41.062  32.154  30.443  1.00  0.00     0.029 A 
ATOM     49  N   UNL A   1      42.217  30.633  29.302  1.00  0.00    -0.354 N 
ATOM     50  N   UNL A   1      44.577  29.574  27.929  1.00  0.00    -0.248 NA
ATOM     51  C   UNL A   1      46.723  29.873  27.056  1.00  0.00     0.031 C 
ATOM     52  C   UNL A   1      42.299  32.709  30.093  1.00  0.00     0.029 A 
ATOM     53  C   UNL A   1      43.023  31.755  29.396  1.00  0.00     0.049 A 
ATOM     54  H   UNL A   1      42.466  29.795  28.850  1.00  0.00     0.167 HD
ATOM     55  C   UNL A   1      45.009  30.862  28.212  1.00  0.00     0.074 A 
ATOM     56  C   UNL A   1      46.346  30.986  27.671  1.00  0.00     0.031 C 
ATOM     57  C   UNL A   1      44.352  31.858  28.853  1.00  0.00     0.037 A 
BRANCH  44  58
ATOM     58  C   UNL A   1      38.683  30.322  30.744  1.00  0.00     0.057 A 
ATOM     59  C   UNL A   1      37.622  30.934  30.067  1.00  0.00     0.134 A 
ATOM     60  C   UNL A   1      38.518  30.070  32.113  1.00  0.00     0.134 A 
ATOM     61  F   UNL A   1      37.723  31.216  28.760  1.00  0.00    -0.206 F 
ATOM     62  C   UNL A   1      36.448  31.296  30.730  1.00  0.00     0.040 A 
ATOM     63  C   UNL A   1      37.342  30.408  32.783  1.00  0.00     0.040 A 
ATOM     64  F   UNL A   1      39.496  29.481  32.819  1.00  0.00    -0.206 F 
ATOM     65  C   UNL A   1      36.303  31.027  32.091  1.00  0.00     0.006 A 
ENDBRANCH  44  58
BRANCH  45  66
ATOM     66  C   UNL A   1      46.843  27.161  25.977  1.00  0.00     0.057 A 
ATOM     67  C   UNL A   1      46.996  27.399  24.607  1.00  0.00     0.134 A 
ATOM     68  C   UNL A   1      47.875  26.485  26.638  1.00  0.00     0.134 A 
ATOM     69  F   UNL A   1      46.029  28.019  23.917  1.00  0.00    -0.206 F 
ATOM     70  C   UNL A   1      48.135  26.979  23.918  1.00  0.00     0.040 A 
ATOM     71  C   UNL A   1      49.030  26.081  25.965  1.00  0.00     0.040 A 
ATOM     72  F   UNL A   1      47.786  26.228  27.950  1.00  0.00    -0.206 F 
ATOM     73  C   UNL A   1      49.160  26.324  24.600  1.00  0.00     0.006 A 
ENDBRANCH  45  66
BRANCH  57  74
ATOM     74  C   UNL A   1      45.081  33.154  29.021  1.00  0.00     0.057 A 
ATOM     75  C   UNL A   1      45.917  33.388  30.120  1.00  0.00     0.134 A 
ATOM     76  C   UNL A   1      44.966  34.169  28.063  1.00  0.00     0.134 A 
ATOM     77  F   UNL A   1      46.056  32.458  31.077  1.00  0.00    -0.206 F 
ATOM     78  C   UNL A   1      46.602  34.594  30.269  1.00  0.00     0.040 A 
ATOM     79  C   UNL A   1      45.660  35.373  28.193  1.00  0.00     0.040 A 
ATOM     80  F   UNL A   1      44.184  34.003  26.987  1.00  0.00    -0.206 F 
ATOM     81  C   UNL A   1      46.477  35.589  29.301  1.00  0.00     0.006 A 
ENDBRANCH  57  74
ENDBRANCH  31  32
ENDBRANCH  24  26
ENDBRANCH  23  24
ENDBRANCH  22  23
ENDBRANCH   1  22
TORSDOF 13
ENDMDL
