MODEL 1
REMARK VINA RESULT:     -11.2      0.000      0.000
REMARK SMILES Cc1ccc(NC(=O)c2cccn2CC(=O)OCCOC(=O)c2ccc(-c3c4nc(c(-c5c(F)cccc5F)c5ccc([nH]5)c(-c5c(F)cccc5F)c5nc(c(-c6c(F)cccc6F)c6ccc3[nH]6)C=C5)C=C4)cc2)cc1
REMARK SMILES IDX 18 1 17 2 15 3 16 4 14 5 13 6 9 7 10 8 11 9 12 10 7 11 6 12
REMARK SMILES IDX 8 14 5 15 1 16 2 17 3 18 78 19 4 20 77 21 19 22 20 23 21 24
REMARK SMILES IDX 22 25 23 26 24 27 76 28 25 29 75 30 26 31 27 32 28 33 69 34
REMARK SMILES IDX 29 35 74 36 68 37 70 38 30 39 73 40 67 41 66 42 31 44 57 45
REMARK SMILES IDX 40 46 56 47 41 48 44 49 55 50 71 51 42 52 43 53 54 55 72 56
REMARK SMILES IDX 45 57 32 58 33 59 38 60 34 61 35 62 37 63 39 64 36 65 58 66
REMARK SMILES IDX 59 67 64 68 60 69 61 70 63 71 65 72 62 73 46 74 47 75 52 76
REMARK SMILES IDX 48 77 49 78 51 79 53 80 50 81
REMARK H PARENT 6 13 70 43 44 54
REMARK Flexibility Score: inf
ROOT
ATOM      1  C   UNL A   1      34.709  30.655  27.260  1.00  0.00     0.274 C 
ENDROOT
BRANCH   1   2
ATOM      2  O   UNL A   1      33.509  29.896  27.488  1.00  0.00    -0.461 OA
BRANCH   2   3
ATOM      3  C   UNL A   1      32.707  29.704  26.405  1.00  0.00     0.326 C 
ATOM      4  O   UNL A   1      31.738  30.393  26.120  1.00  0.00    -0.250 OA
BRANCH   3   5
ATOM      5  C   UNL A   1      33.277  28.654  25.492  1.00  0.00     0.244 C 
BRANCH   5   6
ATOM      6  N   UNL A   1      32.337  28.159  24.506  1.00  0.00    -0.332 N 
ATOM      7  C   UNL A   1      31.475  27.105  24.702  1.00  0.00     0.107 A 
ATOM      8  C   UNL A   1      30.703  27.004  23.555  1.00  0.00     0.033 A 
ATOM      9  C   UNL A   1      31.160  27.978  22.633  1.00  0.00     0.020 A 
ATOM     10  C   UNL A   1      32.170  28.679  23.247  1.00  0.00     0.087 A 
BRANCH   7  11
ATOM     11  C   UNL A   1      31.442  26.323  25.912  1.00  0.00     0.272 C 
ATOM     12  N   UNL A   1      32.271  25.237  26.058  1.00  0.00    -0.321 N 
ATOM     13  H   UNL A   1      32.140  24.755  26.906  1.00  0.00     0.170 HD
ATOM     14  O   UNL A   1      30.698  26.612  26.849  1.00  0.00    -0.267 OA
BRANCH  12  15
ATOM     15  C   UNL A   1      33.268  24.676  25.241  1.00  0.00     0.041 A 
ATOM     16  C   UNL A   1      36.533  22.602  23.339  1.00  0.00     0.044 C 
ATOM     17  C   UNL A   1      35.418  23.410  23.929  1.00  0.00    -0.051 A 
ATOM     18  C   UNL A   1      34.104  23.183  23.521  1.00  0.00     0.005 A 
ATOM     19  C   UNL A   1      35.657  24.346  24.939  1.00  0.00     0.005 A 
ATOM     20  C   UNL A   1      33.041  23.827  24.159  1.00  0.00     0.026 A 
ATOM     21  C   UNL A   1      34.590  24.983  25.577  1.00  0.00     0.026 A 
ENDBRANCH  12  15
ENDBRANCH   7  11
ENDBRANCH   5   6
ENDBRANCH   3   5
ENDBRANCH   2   3
ENDBRANCH   1   2
BRANCH   1  22
ATOM     22  C   UNL A   1      35.465  30.761  28.590  1.00  0.00     0.275 C 
BRANCH  22  23
ATOM     23  O   UNL A   1      36.107  29.500  28.892  1.00  0.00    -0.458 OA
BRANCH  23  24
ATOM     24  C   UNL A   1      36.759  29.361  30.078  1.00  0.00     0.338 C 
ATOM     25  O   UNL A   1      36.263  29.491  31.187  1.00  0.00    -0.246 OA
BRANCH  24  26
ATOM     26  C   UNL A   1      38.120  28.790  29.837  1.00  0.00     0.060 A 
ATOM     27  C   UNL A   1      38.650  28.703  28.537  1.00  0.00     0.016 A 
ATOM     28  C   UNL A   1      38.949  28.492  30.907  1.00  0.00     0.016 A 
ATOM     29  C   UNL A   1      40.037  28.514  28.328  1.00  0.00     0.010 A 
ATOM     30  C   UNL A   1      40.303  28.217  30.693  1.00  0.00     0.010 A 
ATOM     31  C   UNL A   1      40.894  28.339  29.418  1.00  0.00    -0.014 A 
BRANCH  31  32
ATOM     32  C   UNL A   1      42.342  28.739  29.415  1.00  0.00     0.031 A 
ATOM     33  C   UNL A   1      43.064  28.305  30.617  1.00  0.00     0.074 A 
ATOM     34  C   UNL A   1      43.211  28.852  28.375  1.00  0.00     0.049 A 
ATOM     35  N   UNL A   1      43.304  27.054  30.803  1.00  0.00    -0.248 NA
ATOM     36  C   UNL A   1      43.626  29.194  31.605  1.00  0.00     0.031 C 
ATOM     37  C   UNL A   1      42.844  29.066  26.991  1.00  0.00     0.029 A 
ATOM     38  N   UNL A   1      44.613  28.604  28.339  1.00  0.00    -0.354 N 
ATOM     39  C   UNL A   1      44.266  26.960  31.767  1.00  0.00     0.074 A 
ATOM     40  C   UNL A   1      44.345  28.309  32.309  1.00  0.00     0.031 C 
ATOM     41  C   UNL A   1      43.926  28.841  26.220  1.00  0.00     0.029 A 
ATOM     42  C   UNL A   1      45.075  28.379  27.033  1.00  0.00     0.049 A 
ATOM     43  H   UNL A   1      45.191  28.593  29.137  1.00  0.00     0.167 HD
ATOM     44  C   UNL A   1      44.975  25.794  31.838  1.00  0.00     0.037 A 
ATOM     45  C   UNL A   1      45.868  27.353  26.583  1.00  0.00     0.037 A 
ATOM     46  C   UNL A   1      44.383  24.687  31.037  1.00  0.00     0.049 A 
ATOM     47  C   UNL A   1      44.894  26.253  26.349  1.00  0.00     0.074 A 
ATOM     48  C   UNL A   1      43.984  23.385  31.284  1.00  0.00     0.029 A 
ATOM     49  N   UNL A   1      44.048  24.893  29.704  1.00  0.00    -0.354 N 
ATOM     50  N   UNL A   1      44.455  25.549  27.338  1.00  0.00    -0.248 NA
ATOM     51  C   UNL A   1      44.259  25.979  25.076  1.00  0.00     0.031 C 
ATOM     52  C   UNL A   1      43.326  22.874  30.113  1.00  0.00     0.029 A 
ATOM     53  C   UNL A   1      43.318  23.854  29.134  1.00  0.00     0.049 A 
ATOM     54  H   UNL A   1      44.306  25.702  29.206  1.00  0.00     0.167 HD
ATOM     55  C   UNL A   1      43.425  24.778  26.888  1.00  0.00     0.074 A 
ATOM     56  C   UNL A   1      43.294  25.141  25.481  1.00  0.00     0.031 C 
ATOM     57  C   UNL A   1      42.741  23.990  27.770  1.00  0.00     0.037 A 
BRANCH  44  58
ATOM     58  C   UNL A   1      46.339  25.687  32.498  1.00  0.00     0.057 A 
ATOM     59  C   UNL A   1      46.535  24.765  33.546  1.00  0.00     0.134 A 
ATOM     60  C   UNL A   1      47.511  26.369  32.115  1.00  0.00     0.134 A 
ATOM     61  F   UNL A   1      45.524  24.035  34.038  1.00  0.00    -0.206 F 
ATOM     62  C   UNL A   1      47.788  24.521  34.132  1.00  0.00     0.040 A 
ATOM     63  C   UNL A   1      48.778  26.091  32.648  1.00  0.00     0.040 A 
ATOM     64  F   UNL A   1      47.499  27.375  31.240  1.00  0.00    -0.206 F 
ATOM     65  C   UNL A   1      48.922  25.165  33.666  1.00  0.00     0.006 A 
ENDBRANCH  44  58
BRANCH  45  66
ATOM     66  C   UNL A   1      47.241  26.856  26.967  1.00  0.00     0.057 A 
ATOM     67  C   UNL A   1      48.243  26.864  25.987  1.00  0.00     0.134 A 
ATOM     68  C   UNL A   1      47.528  26.055  28.098  1.00  0.00     0.134 A 
ATOM     69  F   UNL A   1      48.077  27.576  24.861  1.00  0.00    -0.206 F 
ATOM     70  C   UNL A   1      49.400  26.067  26.085  1.00  0.00     0.040 A 
ATOM     71  C   UNL A   1      48.660  25.236  28.194  1.00  0.00     0.040 A 
ATOM     72  F   UNL A   1      46.712  25.988  29.154  1.00  0.00    -0.206 F 
ATOM     73  C   UNL A   1      49.593  25.222  27.174  1.00  0.00     0.006 A 
ENDBRANCH  45  66
BRANCH  57  74
ATOM     74  C   UNL A   1      41.362  23.479  27.411  1.00  0.00     0.057 A 
ATOM     75  C   UNL A   1      41.084  22.281  26.735  1.00  0.00     0.134 A 
ATOM     76  C   UNL A   1      40.241  24.293  27.643  1.00  0.00     0.134 A 
ATOM     77  F   UNL A   1      42.008  21.317  26.616  1.00  0.00    -0.206 F 
ATOM     78  C   UNL A   1      39.829  22.005  26.169  1.00  0.00     0.040 A 
ATOM     79  C   UNL A   1      38.970  24.012  27.124  1.00  0.00     0.040 A 
ATOM     80  F   UNL A   1      40.339  25.414  28.370  1.00  0.00    -0.206 F 
ATOM     81  C   UNL A   1      38.770  22.883  26.346  1.00  0.00     0.006 A 
ENDBRANCH  57  74
ENDBRANCH  31  32
ENDBRANCH  24  26
ENDBRANCH  23  24
ENDBRANCH  22  23
ENDBRANCH   1  22
TORSDOF 14
ENDMDL
MODEL 2
REMARK VINA RESULT:     -11.0      5.774     11.114
REMARK SMILES Cc1ccc(NC(=O)c2cccn2CC(=O)OCCOC(=O)c2ccc(-c3c4nc(c(-c5c(F)cccc5F)c5ccc([nH]5)c(-c5c(F)cccc5F)c5nc(c(-c6c(F)cccc6F)c6ccc3[nH]6)C=C5)C=C4)cc2)cc1
REMARK SMILES IDX 18 1 17 2 15 3 16 4 14 5 13 6 9 7 10 8 11 9 12 10 7 11 6 12
REMARK SMILES IDX 8 14 5 15 1 16 2 17 3 18 78 19 4 20 77 21 19 22 20 23 21 24
REMARK SMILES IDX 22 25 23 26 24 27 76 28 25 29 75 30 26 31 27 32 28 33 69 34
REMARK SMILES IDX 29 35 74 36 68 37 70 38 30 39 73 40 67 41 66 42 31 44 57 45
REMARK SMILES IDX 40 46 56 47 41 48 44 49 55 50 71 51 42 52 43 53 54 55 72 56
REMARK SMILES IDX 45 57 32 58 33 59 38 60 34 61 35 62 37 63 39 64 36 65 58 66
REMARK SMILES IDX 59 67 64 68 60 69 61 70 63 71 65 72 62 73 46 74 47 75 52 76
REMARK SMILES IDX 48 77 49 78 51 79 53 80 50 81
REMARK H PARENT 6 13 70 43 44 54
REMARK Flexibility Score: inf
ROOT
ATOM      1  C   UNL A   1      46.765  26.645  27.235  1.00  0.00     0.274 C 
ENDROOT
BRANCH   1   2
ATOM      2  O   UNL A   1      45.842  25.661  26.739  1.00  0.00    -0.461 OA
BRANCH   2   3
ATOM      3  C   UNL A   1      46.319  24.391  26.635  1.00  0.00     0.326 C 
ATOM      4  O   UNL A   1      47.474  24.056  26.858  1.00  0.00    -0.250 OA
BRANCH   3   5
ATOM      5  C   UNL A   1      45.201  23.413  26.400  1.00  0.00     0.244 C 
BRANCH   5   6
ATOM      6  N   UNL A   1      44.371  23.178  27.564  1.00  0.00    -0.332 N 
ATOM      7  C   UNL A   1      43.059  22.767  27.524  1.00  0.00     0.107 A 
ATOM      8  C   UNL A   1      42.657  22.589  28.839  1.00  0.00     0.033 A 
ATOM      9  C   UNL A   1      43.734  22.963  29.680  1.00  0.00     0.020 A 
ATOM     10  C   UNL A   1      44.782  23.322  28.866  1.00  0.00     0.087 A 
BRANCH   7  11
ATOM     11  C   UNL A   1      42.328  22.571  26.298  1.00  0.00     0.272 C 
ATOM     12  N   UNL A   1      41.540  23.576  25.792  1.00  0.00    -0.321 N 
ATOM     13  H   UNL A   1      41.059  23.322  24.971  1.00  0.00     0.170 HD
ATOM     14  O   UNL A   1      42.403  21.519  25.661  1.00  0.00    -0.267 OA
BRANCH  12  15
ATOM     15  C   UNL A   1      41.283  24.894  26.208  1.00  0.00     0.041 A 
ATOM     16  C   UNL A   1      40.194  29.018  26.827  1.00  0.00     0.044 C 
ATOM     17  C   UNL A   1      40.664  27.603  26.678  1.00  0.00    -0.051 A 
ATOM     18  C   UNL A   1      40.105  26.599  27.470  1.00  0.00     0.005 A 
ATOM     19  C   UNL A   1      41.606  27.250  25.709  1.00  0.00     0.005 A 
ATOM     20  C   UNL A   1      40.429  25.259  27.248  1.00  0.00     0.026 A 
ATOM     21  C   UNL A   1      41.922  25.907  25.487  1.00  0.00     0.026 A 
ENDBRANCH  12  15
ENDBRANCH   7  11
ENDBRANCH   5   6
ENDBRANCH   3   5
ENDBRANCH   2   3
ENDBRANCH   1   2
BRANCH   1  22
ATOM     22  C   UNL A   1      46.190  28.034  26.932  1.00  0.00     0.275 C 
BRANCH  22  23
ATOM     23  O   UNL A   1      44.747  28.004  27.048  1.00  0.00    -0.458 OA
BRANCH  23  24
ATOM     24  C   UNL A   1      44.067  29.180  27.113  1.00  0.00     0.338 C 
ATOM     25  O   UNL A   1      43.786  29.898  26.164  1.00  0.00    -0.246 OA
BRANCH  24  26
ATOM     26  C   UNL A   1      43.499  29.355  28.485  1.00  0.00     0.060 A 
ATOM     27  C   UNL A   1      43.139  30.629  28.962  1.00  0.00     0.016 A 
ATOM     28  C   UNL A   1      43.161  28.247  29.246  1.00  0.00     0.016 A 
ATOM     29  C   UNL A   1      42.283  30.771  30.081  1.00  0.00     0.010 A 
ATOM     30  C   UNL A   1      42.389  28.397  30.402  1.00  0.00     0.010 A 
ATOM     31  C   UNL A   1      41.839  29.641  30.774  1.00  0.00    -0.014 A 
BRANCH  31  32
ATOM     32  C   UNL A   1      40.533  29.574  31.511  1.00  0.00     0.031 A 
ATOM     33  C   UNL A   1      40.664  29.848  32.946  1.00  0.00     0.074 A 
ATOM     34  C   UNL A   1      39.281  29.904  31.095  1.00  0.00     0.049 A 
ATOM     35  N   UNL A   1      40.946  31.039  33.348  1.00  0.00    -0.248 NA
ATOM     36  C   UNL A   1      40.412  28.889  33.995  1.00  0.00     0.031 C 
ATOM     37  C   UNL A   1      38.838  29.957  29.717  1.00  0.00     0.029 A 
ATOM     38  N   UNL A   1      38.195  30.447  31.840  1.00  0.00    -0.354 N 
ATOM     39  C   UNL A   1      40.660  31.101  34.681  1.00  0.00     0.074 A 
ATOM     40  C   UNL A   1      40.443  29.710  35.054  1.00  0.00     0.031 C 
ATOM     41  C   UNL A   1      37.649  30.587  29.672  1.00  0.00     0.029 A 
ATOM     42  C   UNL A   1      37.251  31.074  31.013  1.00  0.00     0.049 A 
ATOM     43  H   UNL A   1      38.117  30.388  32.820  1.00  0.00     0.167 HD
ATOM     44  C   UNL A   1      40.476  32.339  35.229  1.00  0.00     0.037 A 
ATOM     45  C   UNL A   1      36.701  32.324  31.156  1.00  0.00     0.037 A 
ATOM     46  C   UNL A   1      40.911  33.454  34.342  1.00  0.00     0.049 A 
ATOM     47  C   UNL A   1      37.722  33.213  30.539  1.00  0.00     0.074 A 
ATOM     48  C   UNL A   1      41.759  34.541  34.456  1.00  0.00     0.029 A 
ATOM     49  N   UNL A   1      40.470  33.509  33.025  1.00  0.00    -0.354 N 
ATOM     50  N   UNL A   1      38.780  33.547  31.198  1.00  0.00    -0.248 NA
ATOM     51  C   UNL A   1      37.703  33.643  29.156  1.00  0.00     0.031 C 
ATOM     52  C   UNL A   1      41.883  35.167  33.167  1.00  0.00     0.029 A 
ATOM     53  C   UNL A   1      41.108  34.474  32.251  1.00  0.00     0.049 A 
ATOM     54  H   UNL A   1      39.766  32.919  32.671  1.00  0.00     0.167 HD
ATOM     55  C   UNL A   1      39.640  34.165  30.340  1.00  0.00     0.074 A 
ATOM     56  C   UNL A   1      38.947  34.133  29.056  1.00  0.00     0.031 C 
ATOM     57  C   UNL A   1      40.872  34.551  30.785  1.00  0.00     0.037 A 
BRANCH  44  58
ATOM     58  C   UNL A   1      39.718  32.574  36.524  1.00  0.00     0.057 A 
ATOM     59  C   UNL A   1      40.274  33.408  37.516  1.00  0.00     0.134 A 
ATOM     60  C   UNL A   1      38.427  32.105  36.836  1.00  0.00     0.134 A 
ATOM     61  F   UNL A   1      41.499  33.935  37.383  1.00  0.00    -0.206 F 
ATOM     62  C   UNL A   1      39.592  33.768  38.690  1.00  0.00     0.040 A 
ATOM     63  C   UNL A   1      37.710  32.506  37.973  1.00  0.00     0.040 A 
ATOM     64  F   UNL A   1      37.796  31.198  36.089  1.00  0.00    -0.206 F 
ATOM     65  C   UNL A   1      38.294  33.339  38.911  1.00  0.00     0.006 A 
ENDBRANCH  44  58
BRANCH  45  66
ATOM     66  C   UNL A   1      35.921  32.996  32.261  1.00  0.00     0.057 A 
ATOM     67  C   UNL A   1      35.124  34.099  31.929  1.00  0.00     0.134 A 
ATOM     68  C   UNL A   1      36.187  32.854  33.644  1.00  0.00     0.134 A 
ATOM     69  F   UNL A   1      34.818  34.346  30.646  1.00  0.00    -0.206 F 
ATOM     70  C   UNL A   1      34.699  35.039  32.889  1.00  0.00     0.040 A 
ATOM     71  C   UNL A   1      35.794  33.796  34.603  1.00  0.00     0.040 A 
ATOM     72  F   UNL A   1      36.872  31.820  34.139  1.00  0.00    -0.206 F 
ATOM     73  C   UNL A   1      35.066  34.908  34.224  1.00  0.00     0.006 A 
ENDBRANCH  45  66
BRANCH  57  74
ATOM     74  C   UNL A   1      41.980  34.826  29.791  1.00  0.00     0.057 A 
ATOM     75  C   UNL A   1      41.878  35.650  28.660  1.00  0.00     0.134 A 
ATOM     76  C   UNL A   1      43.194  34.127  29.898  1.00  0.00     0.134 A 
ATOM     77  F   UNL A   1      40.871  36.523  28.521  1.00  0.00    -0.206 F 
ATOM     78  C   UNL A   1      42.825  35.632  27.622  1.00  0.00     0.040 A 
ATOM     79  C   UNL A   1      44.171  34.132  28.893  1.00  0.00     0.040 A 
ATOM     80  F   UNL A   1      43.473  33.388  30.979  1.00  0.00    -0.206 F 
ATOM     81  C   UNL A   1      43.969  34.855  27.729  1.00  0.00     0.006 A 
ENDBRANCH  57  74
ENDBRANCH  31  32
ENDBRANCH  24  26
ENDBRANCH  23  24
ENDBRANCH  22  23
ENDBRANCH   1  22
TORSDOF 14
ENDMDL
MODEL 3
REMARK VINA RESULT:     -10.9      1.195      2.862
REMARK SMILES Cc1ccc(NC(=O)c2cccn2CC(=O)OCCOC(=O)c2ccc(-c3c4nc(c(-c5c(F)cccc5F)c5ccc([nH]5)c(-c5c(F)cccc5F)c5nc(c(-c6c(F)cccc6F)c6ccc3[nH]6)C=C5)C=C4)cc2)cc1
REMARK SMILES IDX 18 1 17 2 15 3 16 4 14 5 13 6 9 7 10 8 11 9 12 10 7 11 6 12
REMARK SMILES IDX 8 14 5 15 1 16 2 17 3 18 78 19 4 20 77 21 19 22 20 23 21 24
REMARK SMILES IDX 22 25 23 26 24 27 76 28 25 29 75 30 26 31 27 32 28 33 69 34
REMARK SMILES IDX 29 35 74 36 68 37 70 38 30 39 73 40 67 41 66 42 31 44 57 45
REMARK SMILES IDX 40 46 56 47 41 48 44 49 55 50 71 51 42 52 43 53 54 55 72 56
REMARK SMILES IDX 45 57 32 58 33 59 38 60 34 61 35 62 37 63 39 64 36 65 58 66
REMARK SMILES IDX 59 67 64 68 60 69 61 70 63 71 65 72 62 73 46 74 47 75 52 76
REMARK SMILES IDX 48 77 49 78 51 79 53 80 50 81
REMARK H PARENT 6 13 70 43 44 54
REMARK Flexibility Score: inf
ROOT
ATOM      1  C   UNL A   1      34.711  30.509  27.233  1.00  0.00     0.274 C 
ENDROOT
BRANCH   1   2
ATOM      2  O   UNL A   1      33.318  30.188  27.390  1.00  0.00    -0.461 OA
BRANCH   2   3
ATOM      3  C   UNL A   1      32.656  29.823  26.258  1.00  0.00     0.326 C 
ATOM      4  O   UNL A   1      31.460  29.984  26.063  1.00  0.00    -0.250 OA
BRANCH   3   5
ATOM      5  C   UNL A   1      33.618  29.371  25.194  1.00  0.00     0.244 C 
BRANCH   5   6
ATOM      6  N   UNL A   1      33.632  27.937  24.985  1.00  0.00    -0.332 N 
ATOM      7  C   UNL A   1      33.613  27.322  23.755  1.00  0.00     0.107 A 
ATOM      8  C   UNL A   1      33.713  25.959  23.990  1.00  0.00     0.033 A 
ATOM      9  C   UNL A   1      33.728  25.756  25.392  1.00  0.00     0.020 A 
ATOM     10  C   UNL A   1      33.678  26.996  25.984  1.00  0.00     0.087 A 
BRANCH   7  11
ATOM     11  C   UNL A   1      33.521  28.042  22.511  1.00  0.00     0.272 C 
ATOM     12  N   UNL A   1      32.301  28.465  22.043  1.00  0.00    -0.321 N 
ATOM     13  H   UNL A   1      32.350  28.915  21.169  1.00  0.00     0.170 HD
ATOM     14  O   UNL A   1      34.522  28.318  21.847  1.00  0.00    -0.267 OA
BRANCH  12  15
ATOM     15  C   UNL A   1      30.996  28.387  22.562  1.00  0.00     0.041 A 
ATOM     16  C   UNL A   1      26.784  28.275  23.467  1.00  0.00     0.044 C 
ATOM     17  C   UNL A   1      28.265  28.357  23.258  1.00  0.00    -0.051 A 
ATOM     18  C   UNL A   1      29.055  27.222  23.436  1.00  0.00     0.005 A 
ATOM     19  C   UNL A   1      28.870  29.536  22.815  1.00  0.00     0.005 A 
ATOM     20  C   UNL A   1      30.413  27.245  23.109  1.00  0.00     0.026 A 
ATOM     21  C   UNL A   1      30.228  29.552  22.485  1.00  0.00     0.026 A 
ENDBRANCH  12  15
ENDBRANCH   7  11
ENDBRANCH   5   6
ENDBRANCH   3   5
ENDBRANCH   2   3
ENDBRANCH   1   2
BRANCH   1  22
ATOM     22  C   UNL A   1      35.529  29.485  28.029  1.00  0.00     0.275 C 
BRANCH  22  23
ATOM     23  O   UNL A   1      36.520  30.167  28.834  1.00  0.00    -0.458 OA
BRANCH  23  24
ATOM     24  C   UNL A   1      37.004  29.550  29.945  1.00  0.00     0.338 C 
ATOM     25  O   UNL A   1      36.371  29.303  30.961  1.00  0.00    -0.246 OA
BRANCH  24  26
ATOM     26  C   UNL A   1      38.364  28.996  29.658  1.00  0.00     0.060 A 
ATOM     27  C   UNL A   1      38.970  29.179  28.402  1.00  0.00     0.016 A 
ATOM     28  C   UNL A   1      39.118  28.438  30.678  1.00  0.00     0.016 A 
ATOM     29  C   UNL A   1      40.363  28.990  28.232  1.00  0.00     0.010 A 
ATOM     30  C   UNL A   1      40.475  28.168  30.482  1.00  0.00     0.010 A 
ATOM     31  C   UNL A   1      41.147  28.547  29.301  1.00  0.00    -0.014 A 
BRANCH  31  32
ATOM     32  C   UNL A   1      42.601  28.884  29.466  1.00  0.00     0.031 A 
ATOM     33  C   UNL A   1      43.187  28.331  30.692  1.00  0.00     0.074 A 
ATOM     34  C   UNL A   1      43.571  29.037  28.525  1.00  0.00     0.049 A 
ATOM     35  N   UNL A   1      43.364  27.060  30.802  1.00  0.00    -0.248 NA
ATOM     36  C   UNL A   1      43.681  29.119  31.796  1.00  0.00     0.031 C 
ATOM     37  C   UNL A   1      43.348  29.370  27.133  1.00  0.00     0.029 A 
ATOM     38  N   UNL A   1      44.960  28.734  28.602  1.00  0.00    -0.354 N 
ATOM     39  C   UNL A   1      44.223  26.854  31.842  1.00  0.00     0.074 A 
ATOM     40  C   UNL A   1      44.296  28.154  32.494  1.00  0.00     0.031 C 
ATOM     41  C   UNL A   1      44.491  29.158  26.453  1.00  0.00     0.029 A 
ATOM     42  C   UNL A   1      45.539  28.588  27.331  1.00  0.00     0.049 A 
ATOM     43  H   UNL A   1      45.457  28.639  29.447  1.00  0.00     0.167 HD
ATOM     44  C   UNL A   1      44.881  25.657  31.887  1.00  0.00     0.037 A 
ATOM     45  C   UNL A   1      46.335  27.566  26.879  1.00  0.00     0.037 A 
ATOM     46  C   UNL A   1      44.331  24.639  30.949  1.00  0.00     0.049 A 
ATOM     47  C   UNL A   1      45.350  26.529  26.468  1.00  0.00     0.074 A 
ATOM     48  C   UNL A   1      43.864  23.340  31.054  1.00  0.00     0.029 A 
ATOM     49  N   UNL A   1      44.135  24.958  29.611  1.00  0.00    -0.354 N 
ATOM     50  N   UNL A   1      44.794  25.772  27.353  1.00  0.00    -0.248 NA
ATOM     51  C   UNL A   1      44.833  26.379  25.123  1.00  0.00     0.031 C 
ATOM     52  C   UNL A   1      43.306  22.947  29.789  1.00  0.00     0.029 A 
ATOM     53  C   UNL A   1      43.428  23.997  28.894  1.00  0.00     0.049 A 
ATOM     54  H   UNL A   1      44.469  25.790  29.205  1.00  0.00     0.167 HD
ATOM     55  C   UNL A   1      43.785  25.081  26.748  1.00  0.00     0.074 A 
ATOM     56  C   UNL A   1      43.805  25.554  25.368  1.00  0.00     0.031 C 
ATOM     57  C   UNL A   1      42.992  24.259  27.497  1.00  0.00     0.037 A 
BRANCH  44  58
ATOM     58  C   UNL A   1      46.169  25.442  32.662  1.00  0.00     0.057 A 
ATOM     59  C   UNL A   1      46.239  24.418  33.628  1.00  0.00     0.134 A 
ATOM     60  C   UNL A   1      47.389  26.119  32.464  1.00  0.00     0.134 A 
ATOM     61  F   UNL A   1      45.167  23.677  33.945  1.00  0.00    -0.206 F 
ATOM     62  C   UNL A   1      47.421  24.078  34.306  1.00  0.00     0.040 A 
ATOM     63  C   UNL A   1      48.590  25.750  33.088  1.00  0.00     0.040 A 
ATOM     64  F   UNL A   1      47.487  27.205  31.696  1.00  0.00    -0.206 F 
ATOM     65  C   UNL A   1      48.611  24.727  34.018  1.00  0.00     0.006 A 
ENDBRANCH  44  58
BRANCH  45  66
ATOM     66  C   UNL A   1      47.646  26.984  27.351  1.00  0.00     0.057 A 
ATOM     67  C   UNL A   1      48.726  26.982  26.457  1.00  0.00     0.134 A 
ATOM     68  C   UNL A   1      47.798  26.122  28.463  1.00  0.00     0.134 A 
ATOM     69  F   UNL A   1      48.689  27.748  25.356  1.00  0.00    -0.206 F 
ATOM     70  C   UNL A   1      49.832  26.123  26.613  1.00  0.00     0.040 A 
ATOM     71  C   UNL A   1      48.879  25.243  28.613  1.00  0.00     0.040 A 
ATOM     72  F   UNL A   1      46.895  26.053  29.444  1.00  0.00    -0.206 F 
ATOM     73  C   UNL A   1      49.892  25.224  27.673  1.00  0.00     0.006 A 
ENDBRANCH  45  66
BRANCH  57  74
ATOM     74  C   UNL A   1      41.637  23.836  26.970  1.00  0.00     0.057 A 
ATOM     75  C   UNL A   1      40.502  24.657  26.878  1.00  0.00     0.134 A 
ATOM     76  C   UNL A   1      41.411  22.488  26.646  1.00  0.00     0.134 A 
ATOM     77  F   UNL A   1      40.598  25.991  26.964  1.00  0.00    -0.206 F 
ATOM     78  C   UNL A   1      39.212  24.144  26.670  1.00  0.00     0.040 A 
ATOM     79  C   UNL A   1      40.136  21.966  26.391  1.00  0.00     0.040 A 
ATOM     80  F   UNL A   1      42.423  21.613  26.586  1.00  0.00    -0.206 F 
ATOM     81  C   UNL A   1      39.023  22.789  26.444  1.00  0.00     0.006 A 
ENDBRANCH  57  74
ENDBRANCH  31  32
ENDBRANCH  24  26
ENDBRANCH  23  24
ENDBRANCH  22  23
ENDBRANCH   1  22
TORSDOF 14
ENDMDL
