MODEL 1
REMARK VINA RESULT:     -12.2      0.000      0.000
REMARK SMILES O=C(OCCOC(=O)[C@@H]1[C@H](C(=O)Nc2ccc(Cn3cncn3)cc2)[C@@H]2C=C[C@H]1CC2)c1ccc(-c2c3nc(c(-c4c(F)cccc4F)c4ccc([nH]4)c(-c4c(F)cccc4F)c4nc(c(-c5c(F)cccc5F)c5ccc2[nH]5)C=C4)C=C3)cc1
REMARK SMILES IDX 5 1 4 2 3 3 2 4 1 5 32 6 33 7 85 8 34 9 84 10 35 11 36 12
REMARK SMILES IDX 37 13 78 14 38 15 83 16 77 17 79 18 39 19 82 20 76 21 75 22
REMARK SMILES IDX 40 24 66 25 49 26 65 27 50 28 53 29 64 30 80 31 51 32 52 33
REMARK SMILES IDX 63 35 81 36 54 37 41 38 42 39 47 40 43 41 44 42 46 43 48 44
REMARK SMILES IDX 45 45 67 46 68 47 73 48 69 49 70 50 72 51 74 52 71 53 55 54
REMARK SMILES IDX 56 55 61 56 57 57 58 58 60 59 62 60 59 61 6 62 7 63 8 64
REMARK SMILES IDX 9 65 10 66 29 67 26 68 28 69 30 70 27 71 31 72 11 73 12 74
REMARK SMILES IDX 13 75 14 77 15 78 25 79 16 80 24 81 17 82 18 83 19 84 20 85
REMARK SMILES IDX 23 86 21 87 22 88
REMARK H PARENT 79 23 53 34 13 76
REMARK Flexibility Score: inf
ROOT
ATOM      1  C   UNL A   1      34.444  28.971  26.950  1.00  0.00     0.274 C 
ENDROOT
BRANCH   1   2
ATOM      2  C   UNL A   1      34.646  30.328  27.626  1.00  0.00     0.275 C 
BRANCH   2   3
ATOM      3  O   UNL A   1      36.016  30.711  27.854  1.00  0.00    -0.458 OA
BRANCH   3   4
ATOM      4  C   UNL A   1      36.595  30.230  28.971  1.00  0.00     0.338 C 
ATOM      5  O   UNL A   1      36.159  30.419  30.102  1.00  0.00    -0.246 OA
BRANCH   4   6
ATOM      6  C   UNL A   1      37.758  29.366  28.681  1.00  0.00     0.060 A 
ATOM      7  C   UNL A   1      38.193  28.383  29.584  1.00  0.00     0.016 A 
ATOM      8  C   UNL A   1      38.439  29.592  27.477  1.00  0.00     0.016 A 
ATOM      9  C   UNL A   1      39.389  27.736  29.356  1.00  0.00     0.010 A 
ATOM     10  C   UNL A   1      39.639  28.952  27.251  1.00  0.00     0.010 A 
ATOM     11  C   UNL A   1      40.135  28.099  28.237  1.00  0.00    -0.014 A 
BRANCH  11  12
ATOM     12  C   UNL A   1      41.521  27.679  28.200  1.00  0.00     0.031 A 
ATOM     13  C   UNL A   1      41.795  26.388  27.527  1.00  0.00     0.074 A 
ATOM     14  C   UNL A   1      42.463  28.501  28.703  1.00  0.00     0.049 A 
ATOM     15  N   UNL A   1      42.281  25.303  28.036  1.00  0.00    -0.248 NA
ATOM     16  C   UNL A   1      41.367  26.251  26.127  1.00  0.00     0.031 C 
ATOM     17  C   UNL A   1      42.312  29.889  29.157  1.00  0.00     0.029 A 
ATOM     18  N   UNL A   1      43.797  28.286  28.823  1.00  0.00    -0.354 N 
ATOM     19  C   UNL A   1      42.416  24.411  26.973  1.00  0.00     0.074 A 
ATOM     20  C   UNL A   1      41.691  24.984  25.870  1.00  0.00     0.031 C 
ATOM     21  C   UNL A   1      43.533  30.456  29.275  1.00  0.00     0.029 A 
ATOM     22  C   UNL A   1      44.539  29.439  29.046  1.00  0.00     0.049 A 
ATOM     23  H   UNL A   1      44.204  27.392  28.758  1.00  0.00     0.167 HD
ATOM     24  C   UNL A   1      43.313  23.386  27.013  1.00  0.00     0.037 A 
ATOM     25  C   UNL A   1      45.886  29.535  28.935  1.00  0.00     0.037 A 
ATOM     26  C   UNL A   1      43.699  23.080  28.367  1.00  0.00     0.049 A 
ATOM     27  C   UNL A   1      46.433  28.155  29.040  1.00  0.00     0.074 A 
ATOM     28  C   UNL A   1      43.028  22.656  29.498  1.00  0.00     0.029 A 
ATOM     29  N   UNL A   1      44.914  23.539  28.815  1.00  0.00    -0.354 N 
ATOM     30  N   UNL A   1      46.373  27.443  30.133  1.00  0.00    -0.248 NA
ATOM     31  C   UNL A   1      46.578  27.393  27.806  1.00  0.00     0.031 C 
ATOM     32  C   UNL A   1      43.647  23.357  30.575  1.00  0.00     0.029 A 
ATOM     33  C   UNL A   1      44.693  24.111  30.041  1.00  0.00     0.049 A 
ATOM     34  H   UNL A   1      45.777  23.472  28.345  1.00  0.00     0.167 HD
ATOM     35  C   UNL A   1      46.063  26.157  29.708  1.00  0.00     0.074 A 
ATOM     36  C   UNL A   1      46.257  26.178  28.258  1.00  0.00     0.031 C 
ATOM     37  C   UNL A   1      45.396  25.278  30.514  1.00  0.00     0.037 A 
BRANCH  24  38
ATOM     38  C   UNL A   1      44.130  22.928  25.825  1.00  0.00     0.057 A 
ATOM     39  C   UNL A   1      44.215  21.551  25.543  1.00  0.00     0.134 A 
ATOM     40  C   UNL A   1      45.073  23.731  25.149  1.00  0.00     0.134 A 
ATOM     41  F   UNL A   1      43.371  20.678  26.114  1.00  0.00    -0.206 F 
ATOM     42  C   UNL A   1      45.225  21.008  24.740  1.00  0.00     0.040 A 
ATOM     43  C   UNL A   1      46.054  23.203  24.308  1.00  0.00     0.040 A 
ATOM     44  F   UNL A   1      45.164  25.052  25.338  1.00  0.00    -0.206 F 
ATOM     45  C   UNL A   1      46.160  21.834  24.131  1.00  0.00     0.006 A 
ENDBRANCH  24  38
BRANCH  25  46
ATOM     46  C   UNL A   1      46.636  30.668  28.348  1.00  0.00     0.057 A 
ATOM     47  C   UNL A   1      46.480  31.037  27.007  1.00  0.00     0.134 A 
ATOM     48  C   UNL A   1      47.347  31.574  29.159  1.00  0.00     0.134 A 
ATOM     49  F   UNL A   1      45.773  30.265  26.168  1.00  0.00    -0.206 F 
ATOM     50  C   UNL A   1      47.000  32.238  26.501  1.00  0.00     0.040 A 
ATOM     51  C   UNL A   1      47.876  32.770  28.667  1.00  0.00     0.040 A 
ATOM     52  F   UNL A   1      47.478  31.371  30.478  1.00  0.00    -0.206 F 
ATOM     53  C   UNL A   1      47.696  33.112  27.333  1.00  0.00     0.006 A 
ENDBRANCH  25  46
BRANCH  37  54
ATOM     54  C   UNL A   1      45.148  25.681  31.942  1.00  0.00     0.057 A 
ATOM     55  C   UNL A   1      46.083  25.493  32.972  1.00  0.00     0.134 A 
ATOM     56  C   UNL A   1      44.013  26.435  32.251  1.00  0.00     0.134 A 
ATOM     57  F   UNL A   1      47.251  24.883  32.741  1.00  0.00    -0.206 F 
ATOM     58  C   UNL A   1      45.876  25.993  34.261  1.00  0.00     0.040 A 
ATOM     59  C   UNL A   1      43.808  26.967  33.527  1.00  0.00     0.040 A 
ATOM     60  F   UNL A   1      43.109  26.714  31.300  1.00  0.00    -0.206 F 
ATOM     61  C   UNL A   1      44.736  26.740  34.540  1.00  0.00     0.006 A 
ENDBRANCH  37  54
ENDBRANCH  11  12
ENDBRANCH   4   6
ENDBRANCH   3   4
ENDBRANCH   2   3
ENDBRANCH   1   2
BRANCH   1  62
ATOM     62  O   UNL A   1      33.691  29.113  25.713  1.00  0.00    -0.462 OA
BRANCH  62  63
ATOM     63  C   UNL A   1      33.499  27.959  25.030  1.00  0.00     0.310 C 
ATOM     64  O   UNL A   1      34.338  27.065  24.976  1.00  0.00    -0.252 OA
BRANCH  63  65
ATOM     65  C   UNL A   1      32.198  27.848  24.229  1.00  0.00     0.119 C 
ATOM     66  C   UNL A   1      31.004  27.561  25.179  1.00  0.00     0.100 C 
ATOM     67  C   UNL A   1      31.963  27.079  22.872  1.00  0.00     0.026 C 
ATOM     68  C   UNL A   1      29.831  26.929  24.385  1.00  0.00     0.025 C 
ATOM     69  C   UNL A   1      31.348  25.690  23.021  1.00  0.00    -0.027 C 
ATOM     70  C   UNL A   1      30.781  27.812  22.170  1.00  0.00     0.009 C 
ATOM     71  C   UNL A   1      30.272  25.608  23.822  1.00  0.00    -0.027 C 
ATOM     72  C   UNL A   1      29.545  27.808  23.126  1.00  0.00     0.009 C 
BRANCH  66  73
ATOM     73  C   UNL A   1      31.217  26.956  26.594  1.00  0.00     0.228 C 
ATOM     74  O   UNL A   1      31.028  27.716  27.561  1.00  0.00    -0.274 OA
ATOM     75  N   UNL A   1      31.453  25.659  26.951  1.00  0.00    -0.326 N 
ATOM     76  H   UNL A   1      31.306  25.516  27.914  1.00  0.00     0.169 HD
BRANCH  75  77
ATOM     77  C   UNL A   1      31.851  24.476  26.307  1.00  0.00     0.041 A 
ATOM     78  C   UNL A   1      30.963  23.415  26.146  1.00  0.00     0.026 A 
ATOM     79  C   UNL A   1      33.125  24.269  25.842  1.00  0.00     0.026 A 
ATOM     80  C   UNL A   1      31.332  22.287  25.378  1.00  0.00     0.008 A 
ATOM     81  C   UNL A   1      33.541  23.152  25.136  1.00  0.00     0.008 A 
ATOM     82  C   UNL A   1      32.617  22.180  24.820  1.00  0.00    -0.026 A 
BRANCH  82  83
ATOM     83  C   UNL A   1      33.047  21.093  23.875  1.00  0.00     0.181 C 
BRANCH  83  84
ATOM     84  N   UNL A   1      32.803  19.784  24.433  1.00  0.00    -0.249 N 
ATOM     85  C   UNL A   1      32.153  18.750  23.838  1.00  0.00     0.220 A 
ATOM     86  N   UNL A   1      33.265  19.432  25.651  1.00  0.00    -0.160 NA
ATOM     87  N   UNL A   1      32.170  17.707  24.632  1.00  0.00    -0.224 NA
ATOM     88  C   UNL A   1      32.856  18.162  25.723  1.00  0.00     0.246 A 
ENDBRANCH  83  84
ENDBRANCH  82  83
ENDBRANCH  75  77
ENDBRANCH  66  73
ENDBRANCH  63  65
ENDBRANCH  62  63
ENDBRANCH   1  62
TORSDOF 15
ENDMDL
MODEL 2
REMARK VINA RESULT:     -12.2      1.454      2.201
REMARK SMILES O=C(OCCOC(=O)[C@@H]1[C@H](C(=O)Nc2ccc(Cn3cncn3)cc2)[C@@H]2C=C[C@H]1CC2)c1ccc(-c2c3nc(c(-c4c(F)cccc4F)c4ccc([nH]4)c(-c4c(F)cccc4F)c4nc(c(-c5c(F)cccc5F)c5ccc2[nH]5)C=C4)C=C3)cc1
REMARK SMILES IDX 5 1 4 2 3 3 2 4 1 5 32 6 33 7 85 8 34 9 84 10 35 11 36 12
REMARK SMILES IDX 37 13 78 14 38 15 83 16 77 17 79 18 39 19 82 20 76 21 75 22
REMARK SMILES IDX 40 24 66 25 49 26 65 27 50 28 53 29 64 30 80 31 51 32 52 33
REMARK SMILES IDX 63 35 81 36 54 37 41 38 42 39 47 40 43 41 44 42 46 43 48 44
REMARK SMILES IDX 45 45 67 46 68 47 73 48 69 49 70 50 72 51 74 52 71 53 55 54
REMARK SMILES IDX 56 55 61 56 57 57 58 58 60 59 62 60 59 61 6 62 7 63 8 64
REMARK SMILES IDX 9 65 10 66 29 67 26 68 28 69 30 70 27 71 31 72 11 73 12 74
REMARK SMILES IDX 13 75 14 77 15 78 25 79 16 80 24 81 17 82 18 83 19 84 20 85
REMARK SMILES IDX 23 86 21 87 22 88
REMARK H PARENT 79 23 53 34 13 76
REMARK Flexibility Score: inf
ROOT
ATOM      1  C   UNL A   1      34.104  28.862  26.535  1.00  0.00     0.274 C 
ENDROOT
BRANCH   1   2
ATOM      2  C   UNL A   1      34.471  29.511  27.870  1.00  0.00     0.275 C 
BRANCH   2   3
ATOM      3  O   UNL A   1      35.671  30.308  27.864  1.00  0.00    -0.458 OA
BRANCH   3   4
ATOM      4  C   UNL A   1      36.474  30.189  28.939  1.00  0.00     0.338 C 
ATOM      5  O   UNL A   1      36.201  30.634  30.049  1.00  0.00    -0.246 OA
BRANCH   4   6
ATOM      6  C   UNL A   1      37.677  29.377  28.663  1.00  0.00     0.060 A 
ATOM      7  C   UNL A   1      38.138  28.405  29.565  1.00  0.00     0.016 A 
ATOM      8  C   UNL A   1      38.368  29.642  27.472  1.00  0.00     0.016 A 
ATOM      9  C   UNL A   1      39.364  27.811  29.351  1.00  0.00     0.010 A 
ATOM     10  C   UNL A   1      39.598  29.054  27.261  1.00  0.00     0.010 A 
ATOM     11  C   UNL A   1      40.113  28.215  28.248  1.00  0.00    -0.014 A 
BRANCH  11  12
ATOM     12  C   UNL A   1      41.515  27.853  28.233  1.00  0.00     0.031 A 
ATOM     13  C   UNL A   1      41.854  26.574  27.565  1.00  0.00     0.074 A 
ATOM     14  C   UNL A   1      42.415  28.714  28.748  1.00  0.00     0.049 A 
ATOM     15  N   UNL A   1      42.377  25.511  28.082  1.00  0.00    -0.248 NA
ATOM     16  C   UNL A   1      41.452  26.418  26.159  1.00  0.00     0.031 C 
ATOM     17  C   UNL A   1      42.199  30.095  29.197  1.00  0.00     0.029 A 
ATOM     18  N   UNL A   1      43.755  28.556  28.887  1.00  0.00    -0.354 N 
ATOM     19  C   UNL A   1      42.564  24.624  27.022  1.00  0.00     0.074 A 
ATOM     20  C   UNL A   1      41.832  25.166  25.908  1.00  0.00     0.031 C 
ATOM     21  C   UNL A   1      43.393  30.713  29.332  1.00  0.00     0.029 A 
ATOM     22  C   UNL A   1      44.444  29.739  29.118  1.00  0.00     0.049 A 
ATOM     23  H   UNL A   1      44.200  27.680  28.829  1.00  0.00     0.167 HD
ATOM     24  C   UNL A   1      43.504  23.639  27.077  1.00  0.00     0.037 A 
ATOM     25  C   UNL A   1      45.788  29.892  29.027  1.00  0.00     0.037 A 
ATOM     26  C   UNL A   1      43.882  23.350  28.436  1.00  0.00     0.049 A 
ATOM     27  C   UNL A   1      46.390  28.536  29.142  1.00  0.00     0.074 A 
ATOM     28  C   UNL A   1      43.214  22.899  29.558  1.00  0.00     0.029 A 
ATOM     29  N   UNL A   1      45.071  23.860  28.901  1.00  0.00    -0.354 N 
ATOM     30  N   UNL A   1      46.345  27.822  30.235  1.00  0.00    -0.248 NA
ATOM     31  C   UNL A   1      46.585  27.780  27.911  1.00  0.00     0.031 C 
ATOM     32  C   UNL A   1      43.788  23.626  30.643  1.00  0.00     0.029 A 
ATOM     33  C   UNL A   1      44.808  24.423  30.123  1.00  0.00     0.049 A 
ATOM     34  H   UNL A   1      45.942  23.829  28.444  1.00  0.00     0.167 HD
ATOM     35  C   UNL A   1      46.096  26.525  29.806  1.00  0.00     0.074 A 
ATOM     36  C   UNL A   1      46.310  26.552  28.360  1.00  0.00     0.031 C 
ATOM     37  C   UNL A   1      45.454  25.619  30.605  1.00  0.00     0.037 A 
BRANCH  24  38
ATOM     38  C   UNL A   1      44.356  23.214  25.901  1.00  0.00     0.057 A 
ATOM     39  C   UNL A   1      44.458  21.845  25.589  1.00  0.00     0.134 A 
ATOM     40  C   UNL A   1      45.312  24.039  25.271  1.00  0.00     0.134 A 
ATOM     41  F   UNL A   1      43.604  20.953  26.115  1.00  0.00    -0.206 F 
ATOM     42  C   UNL A   1      45.494  21.328  24.801  1.00  0.00     0.040 A 
ATOM     43  C   UNL A   1      46.320  23.537  24.445  1.00  0.00     0.040 A 
ATOM     44  F   UNL A   1      45.389  25.355  25.494  1.00  0.00    -0.206 F 
ATOM     45  C   UNL A   1      46.439  22.174  24.238  1.00  0.00     0.006 A 
ENDBRANCH  24  38
BRANCH  25  46
ATOM     46  C   UNL A   1      46.498  31.055  28.449  1.00  0.00     0.057 A 
ATOM     47  C   UNL A   1      46.383  31.387  27.095  1.00  0.00     0.134 A 
ATOM     48  C   UNL A   1      47.117  32.017  29.271  1.00  0.00     0.134 A 
ATOM     49  F   UNL A   1      45.761  30.559  26.243  1.00  0.00    -0.206 F 
ATOM     50  C   UNL A   1      46.855  32.607  26.586  1.00  0.00     0.040 A 
ATOM     51  C   UNL A   1      47.599  33.232  28.777  1.00  0.00     0.040 A 
ATOM     52  F   UNL A   1      47.198  31.847  30.599  1.00  0.00    -0.206 F 
ATOM     53  C   UNL A   1      47.461  33.536  27.429  1.00  0.00     0.006 A 
ENDBRANCH  25  46
BRANCH  37  54
ATOM     54  C   UNL A   1      45.169  26.012  32.028  1.00  0.00     0.057 A 
ATOM     55  C   UNL A   1      43.995  26.668  32.429  1.00  0.00     0.134 A 
ATOM     56  C   UNL A   1      46.018  25.562  33.043  1.00  0.00     0.134 A 
ATOM     57  F   UNL A   1      43.070  27.035  31.535  1.00  0.00    -0.206 F 
ATOM     58  C   UNL A   1      43.701  26.905  33.775  1.00  0.00     0.040 A 
ATOM     59  C   UNL A   1      45.721  25.764  34.394  1.00  0.00     0.040 A 
ATOM     60  F   UNL A   1      47.124  24.866  32.739  1.00  0.00    -0.206 F 
ATOM     61  C   UNL A   1      44.564  26.446  34.764  1.00  0.00     0.006 A 
ENDBRANCH  37  54
ENDBRANCH  11  12
ENDBRANCH   4   6
ENDBRANCH   3   4
ENDBRANCH   2   3
ENDBRANCH   1   2
BRANCH   1  62
ATOM     62  O   UNL A   1      33.388  27.613  26.743  1.00  0.00    -0.462 OA
BRANCH  62  63
ATOM     63  C   UNL A   1      32.041  27.703  26.627  1.00  0.00     0.310 C 
ATOM     64  O   UNL A   1      31.283  27.682  27.592  1.00  0.00    -0.252 OA
BRANCH  63  65
ATOM     65  C   UNL A   1      31.480  27.740  25.202  1.00  0.00     0.119 C 
ATOM     66  C   UNL A   1      30.405  26.635  25.018  1.00  0.00     0.100 C 
ATOM     67  C   UNL A   1      32.283  27.896  23.853  1.00  0.00     0.026 C 
ATOM     68  C   UNL A   1      30.230  26.308  23.512  1.00  0.00     0.025 C 
ATOM     69  C   UNL A   1      32.568  26.587  23.122  1.00  0.00    -0.027 C 
ATOM     70  C   UNL A   1      31.291  28.548  22.844  1.00  0.00     0.009 C 
ATOM     71  C   UNL A   1      31.520  25.759  22.973  1.00  0.00    -0.027 C 
ATOM     72  C   UNL A   1      30.022  27.642  22.728  1.00  0.00     0.009 C 
BRANCH  66  73
ATOM     73  C   UNL A   1      30.343  25.396  25.952  1.00  0.00     0.228 C 
ATOM     74  O   UNL A   1      29.329  25.285  26.666  1.00  0.00    -0.274 OA
ATOM     75  N   UNL A   1      31.181  24.320  26.016  1.00  0.00    -0.326 N 
ATOM     76  H   UNL A   1      30.779  23.575  26.519  1.00  0.00     0.169 HD
BRANCH  75  77
ATOM     77  C   UNL A   1      32.467  23.995  25.552  1.00  0.00     0.041 A 
ATOM     78  C   UNL A   1      32.654  23.000  24.596  1.00  0.00     0.026 A 
ATOM     79  C   UNL A   1      33.607  24.590  26.031  1.00  0.00     0.026 A 
ATOM     80  C   UNL A   1      33.933  22.778  24.039  1.00  0.00     0.008 A 
ATOM     81  C   UNL A   1      34.886  24.356  25.552  1.00  0.00     0.008 A 
ATOM     82  C   UNL A   1      35.052  23.503  24.482  1.00  0.00    -0.026 A 
BRANCH  82  83
ATOM     83  C   UNL A   1      36.415  23.436  23.851  1.00  0.00     0.181 C 
BRANCH  83  84
ATOM     84  N   UNL A   1      37.403  22.949  24.785  1.00  0.00    -0.249 N 
ATOM     85  C   UNL A   1      38.101  23.681  25.692  1.00  0.00     0.220 A 
ATOM     86  N   UNL A   1      37.708  21.639  24.879  1.00  0.00    -0.160 NA
ATOM     87  N   UNL A   1      38.870  22.887  26.396  1.00  0.00    -0.224 NA
ATOM     88  C   UNL A   1      38.601  21.654  25.872  1.00  0.00     0.246 A 
ENDBRANCH  83  84
ENDBRANCH  82  83
ENDBRANCH  75  77
ENDBRANCH  66  73
ENDBRANCH  63  65
ENDBRANCH  62  63
ENDBRANCH   1  62
TORSDOF 15
ENDMDL
MODEL 3
REMARK VINA RESULT:     -11.9      2.257      6.193
REMARK SMILES O=C(OCCOC(=O)[C@@H]1[C@H](C(=O)Nc2ccc(Cn3cncn3)cc2)[C@@H]2C=C[C@H]1CC2)c1ccc(-c2c3nc(c(-c4c(F)cccc4F)c4ccc([nH]4)c(-c4c(F)cccc4F)c4nc(c(-c5c(F)cccc5F)c5ccc2[nH]5)C=C4)C=C3)cc1
REMARK SMILES IDX 5 1 4 2 3 3 2 4 1 5 32 6 33 7 85 8 34 9 84 10 35 11 36 12
REMARK SMILES IDX 37 13 78 14 38 15 83 16 77 17 79 18 39 19 82 20 76 21 75 22
REMARK SMILES IDX 40 24 66 25 49 26 65 27 50 28 53 29 64 30 80 31 51 32 52 33
REMARK SMILES IDX 63 35 81 36 54 37 41 38 42 39 47 40 43 41 44 42 46 43 48 44
REMARK SMILES IDX 45 45 67 46 68 47 73 48 69 49 70 50 72 51 74 52 71 53 55 54
REMARK SMILES IDX 56 55 61 56 57 57 58 58 60 59 62 60 59 61 6 62 7 63 8 64
REMARK SMILES IDX 9 65 10 66 29 67 26 68 28 69 30 70 27 71 31 72 11 73 12 74
REMARK SMILES IDX 13 75 14 77 15 78 25 79 16 80 24 81 17 82 18 83 19 84 20 85
REMARK SMILES IDX 23 86 21 87 22 88
REMARK H PARENT 79 23 53 34 13 76
REMARK Flexibility Score: inf
ROOT
ATOM      1  C   UNL A   1      32.043  30.208  26.345  1.00  0.00     0.274 C 
ENDROOT
BRANCH   1   2
ATOM      2  C   UNL A   1      32.941  31.057  27.245  1.00  0.00     0.275 C 
BRANCH   2   3
ATOM      3  O   UNL A   1      34.333  30.685  27.264  1.00  0.00    -0.458 OA
BRANCH   3   4
ATOM      4  C   UNL A   1      35.196  31.618  27.709  1.00  0.00     0.338 C 
ATOM      5  O   UNL A   1      35.015  32.826  27.595  1.00  0.00    -0.246 OA
BRANCH   4   6
ATOM      6  C   UNL A   1      36.340  31.033  28.438  1.00  0.00     0.060 A 
ATOM      7  C   UNL A   1      37.437  31.811  28.842  1.00  0.00     0.016 A 
ATOM      8  C   UNL A   1      36.306  29.653  28.681  1.00  0.00     0.016 A 
ATOM      9  C   UNL A   1      38.558  31.189  29.348  1.00  0.00     0.010 A 
ATOM     10  C   UNL A   1      37.430  29.028  29.179  1.00  0.00     0.010 A 
ATOM     11  C   UNL A   1      38.567  29.797  29.422  1.00  0.00    -0.014 A 
BRANCH  11  12
ATOM     12  C   UNL A   1      39.850  29.154  29.615  1.00  0.00     0.031 A 
ATOM     13  C   UNL A   1      40.316  29.030  31.016  1.00  0.00     0.074 A 
ATOM     14  C   UNL A   1      40.493  28.651  28.543  1.00  0.00     0.049 A 
ATOM     15  N   UNL A   1      41.363  29.554  31.565  1.00  0.00    -0.248 NA
ATOM     16  C   UNL A   1      39.440  28.320  31.960  1.00  0.00     0.031 C 
ATOM     17  C   UNL A   1      39.997  28.508  27.168  1.00  0.00     0.029 A 
ATOM     18  N   UNL A   1      41.716  28.066  28.486  1.00  0.00    -0.354 N 
ATOM     19  C   UNL A   1      41.391  29.071  32.872  1.00  0.00     0.074 A 
ATOM     20  C   UNL A   1      40.109  28.459  33.104  1.00  0.00     0.031 C 
ATOM     21  C   UNL A   1      40.811  27.673  26.484  1.00  0.00     0.029 A 
ATOM     22  C   UNL A   1      41.946  27.344  27.322  1.00  0.00     0.049 A 
ATOM     23  H   UNL A   1      42.382  28.147  29.206  1.00  0.00     0.167 HD
ATOM     24  C   UNL A   1      42.553  29.000  33.580  1.00  0.00     0.037 A 
ATOM     25  C   UNL A   1      42.957  26.461  27.137  1.00  0.00     0.037 A 
ATOM     26  C   UNL A   1      43.555  29.878  33.031  1.00  0.00     0.049 A 
ATOM     27  C   UNL A   1      44.005  26.780  28.145  1.00  0.00     0.074 A 
ATOM     28  C   UNL A   1      43.652  31.242  32.836  1.00  0.00     0.029 A 
ATOM     29  N   UNL A   1      44.544  29.327  32.254  1.00  0.00    -0.354 N 
ATOM     30  N   UNL A   1      44.700  27.885  28.131  1.00  0.00    -0.248 NA
ATOM     31  C   UNL A   1      43.917  26.114  29.439  1.00  0.00     0.031 C 
ATOM     32  C   UNL A   1      44.321  31.385  31.584  1.00  0.00     0.029 A 
ATOM     33  C   UNL A   1      44.644  30.106  31.130  1.00  0.00     0.049 A 
ATOM     34  H   UNL A   1      45.078  28.526  32.462  1.00  0.00     0.167 HD
ATOM     35  C   UNL A   1      44.791  28.269  29.462  1.00  0.00     0.074 A 
ATOM     36  C   UNL A   1      44.337  27.108  30.227  1.00  0.00     0.031 C 
ATOM     37  C   UNL A   1      44.940  29.580  29.820  1.00  0.00     0.037 A 
BRANCH  24  38
ATOM     38  C   UNL A   1      42.908  27.866  34.515  1.00  0.00     0.057 A 
ATOM     39  C   UNL A   1      43.184  26.595  33.976  1.00  0.00     0.134 A 
ATOM     40  C   UNL A   1      42.687  27.884  35.909  1.00  0.00     0.134 A 
ATOM     41  F   UNL A   1      43.421  26.440  32.664  1.00  0.00    -0.206 F 
ATOM     42  C   UNL A   1      43.134  25.424  34.743  1.00  0.00     0.040 A 
ATOM     43  C   UNL A   1      42.684  26.726  36.691  1.00  0.00     0.040 A 
ATOM     44  F   UNL A   1      42.365  28.997  36.575  1.00  0.00    -0.206 F 
ATOM     45  C   UNL A   1      42.868  25.486  36.103  1.00  0.00     0.006 A 
ENDBRANCH  24  38
BRANCH  25  46
ATOM     46  C   UNL A   1      42.865  25.160  26.438  1.00  0.00     0.057 A 
ATOM     47  C   UNL A   1      43.676  24.857  25.339  1.00  0.00     0.134 A 
ATOM     48  C   UNL A   1      42.142  24.084  26.988  1.00  0.00     0.134 A 
ATOM     49  F   UNL A   1      44.443  25.804  24.780  1.00  0.00    -0.206 F 
ATOM     50  C   UNL A   1      43.766  23.557  24.817  1.00  0.00     0.040 A 
ATOM     51  C   UNL A   1      42.216  22.786  26.474  1.00  0.00     0.040 A 
ATOM     52  F   UNL A   1      41.406  24.236  28.098  1.00  0.00    -0.206 F 
ATOM     53  C   UNL A   1      43.038  22.516  25.388  1.00  0.00     0.006 A 
ENDBRANCH  25  46
BRANCH  37  54
ATOM     54  C   UNL A   1      45.170  30.587  28.726  1.00  0.00     0.057 A 
ATOM     55  C   UNL A   1      46.431  30.849  28.169  1.00  0.00     0.134 A 
ATOM     56  C   UNL A   1      44.069  31.177  28.100  1.00  0.00     0.134 A 
ATOM     57  F   UNL A   1      47.530  30.240  28.630  1.00  0.00    -0.206 F 
ATOM     58  C   UNL A   1      46.594  31.695  27.068  1.00  0.00     0.040 A 
ATOM     59  C   UNL A   1      44.214  32.000  26.979  1.00  0.00     0.040 A 
ATOM     60  F   UNL A   1      42.827  30.918  28.534  1.00  0.00    -0.206 F 
ATOM     61  C   UNL A   1      45.480  32.269  26.465  1.00  0.00     0.006 A 
ENDBRANCH  37  54
ENDBRANCH  11  12
ENDBRANCH   4   6
ENDBRANCH   3   4
ENDBRANCH   2   3
ENDBRANCH   1   2
BRANCH   1  62
ATOM     62  O   UNL A   1      31.415  29.134  27.099  1.00  0.00    -0.462 OA
BRANCH  62  63
ATOM     63  C   UNL A   1      31.603  27.894  26.586  1.00  0.00     0.310 C 
ATOM     64  O   UNL A   1      31.318  26.867  27.195  1.00  0.00    -0.252 OA
BRANCH  63  65
ATOM     65  C   UNL A   1      32.288  27.818  25.218  1.00  0.00     0.119 C 
ATOM     66  C   UNL A   1      31.348  27.144  24.182  1.00  0.00     0.100 C 
ATOM     67  C   UNL A   1      33.775  27.393  24.906  1.00  0.00     0.026 C 
ATOM     68  C   UNL A   1      32.177  26.583  22.996  1.00  0.00     0.025 C 
ATOM     69  C   UNL A   1      33.947  25.942  24.464  1.00  0.00    -0.027 C 
ATOM     70  C   UNL A   1      34.151  28.117  23.579  1.00  0.00     0.009 C 
ATOM     71  C   UNL A   1      33.107  25.519  23.504  1.00  0.00    -0.027 C 
ATOM     72  C   UNL A   1      33.127  27.707  22.472  1.00  0.00     0.009 C 
BRANCH  66  73
ATOM     73  C   UNL A   1      30.169  26.234  24.624  1.00  0.00     0.228 C 
ATOM     74  O   UNL A   1      29.023  26.697  24.483  1.00  0.00    -0.274 OA
ATOM     75  N   UNL A   1      30.189  24.929  25.026  1.00  0.00    -0.326 N 
ATOM     76  H   UNL A   1      29.289  24.531  25.012  1.00  0.00     0.169 HD
BRANCH  75  77
ATOM     77  C   UNL A   1      31.157  24.004  25.453  1.00  0.00     0.041 A 
ATOM     78  C   UNL A   1      31.536  22.937  24.642  1.00  0.00     0.026 A 
ATOM     79  C   UNL A   1      31.750  24.060  26.689  1.00  0.00     0.026 A 
ATOM     80  C   UNL A   1      32.605  22.096  25.025  1.00  0.00     0.008 A 
ATOM     81  C   UNL A   1      32.760  23.217  27.124  1.00  0.00     0.008 A 
ATOM     82  C   UNL A   1      33.262  22.272  26.254  1.00  0.00    -0.026 A 
BRANCH  82  83
ATOM     83  C   UNL A   1      34.493  21.522  26.677  1.00  0.00     0.181 C 
BRANCH  83  84
ATOM     84  N   UNL A   1      35.647  21.929  25.910  1.00  0.00    -0.249 N 
ATOM     85  C   UNL A   1      36.398  21.151  25.088  1.00  0.00     0.220 A 
ATOM     86  N   UNL A   1      36.082  23.206  25.904  1.00  0.00    -0.160 NA
ATOM     87  N   UNL A   1      37.330  21.881  24.526  1.00  0.00    -0.224 NA
ATOM     88  C   UNL A   1      37.103  23.124  25.047  1.00  0.00     0.246 A 
ENDBRANCH  83  84
ENDBRANCH  82  83
ENDBRANCH  75  77
ENDBRANCH  66  73
ENDBRANCH  63  65
ENDBRANCH  62  63
ENDBRANCH   1  62
TORSDOF 15
ENDMDL
