MODEL 1
REMARK VINA RESULT:     -12.3      0.000      0.000
REMARK SMILES Cc1c(C(=O)OCCOC(=O)c2ccc(-c3c4nc(c(-c5c(F)cccc5F)c5ccc([nH]5)c(-c5c(F)cccc5F)c5nc(c(-c6c(F)cccc6F)c6ccc3[nH]6)C=C5)C=C4)cc2)cccc1N1[C@@H](C)C=C(/C=C(\C#N)C(=O)NCCc2c[nH]c3ccccc23)[C@@H]1C
REMARK SMILES IDX 4 1 5 2 3 3 1 4 2 5 69 6 66 7 68 8 67 9 70 10 71 11 93 12
REMARK SMILES IDX 73 13 72 14 74 15 94 16 75 17 76 18 77 19 78 20 79 21 80 22
REMARK SMILES IDX 81 23 82 25 83 26 84 27 85 28 92 29 86 30 87 31 91 32 88 34
REMARK SMILES IDX 90 35 89 36 6 37 7 38 8 39 9 40 10 41 11 42 12 43 13 44
REMARK SMILES IDX 65 45 14 46 64 47 15 48 16 49 17 50 58 51 18 52 63 53 57 54
REMARK SMILES IDX 59 55 19 56 62 57 56 58 55 59 20 61 46 62 29 63 45 64 30 65
REMARK SMILES IDX 33 66 44 67 60 68 31 69 32 70 43 72 61 73 34 74 21 75 22 76
REMARK SMILES IDX 27 77 23 78 24 79 26 80 28 81 25 82 47 83 48 84 53 85 49 86
REMARK SMILES IDX 50 87 52 88 54 89 51 90 35 91 36 92 41 93 37 94 38 95 40 96
REMARK SMILES IDX 42 97 39 98
REMARK H PARENT 81 24 86 33 59 60 33 71
REMARK Flexibility Score: inf
ROOT
ATOM      1  C   UNL A   1      40.633  20.549  26.654  1.00  0.00     0.338 C 
ATOM      2  O   UNL A   1      40.413  19.878  27.654  1.00  0.00    -0.246 OA
ENDROOT
BRANCH   1   3
ATOM      3  C   UNL A   1      39.857  21.770  26.423  1.00  0.00     0.065 A 
ATOM      4  C   UNL A   1      38.443  20.288  24.991  1.00  0.00     0.047 C 
ATOM      5  C   UNL A   1      38.633  21.574  25.767  1.00  0.00    -0.013 A 
ATOM      6  C   UNL A   1      37.675  22.597  25.823  1.00  0.00     0.041 A 
ATOM      7  C   UNL A   1      40.200  23.004  26.985  1.00  0.00     0.016 A 
ATOM      8  C   UNL A   1      37.980  23.787  26.514  1.00  0.00     0.026 A 
ATOM      9  C   UNL A   1      39.242  24.009  27.059  1.00  0.00     0.003 A 
BRANCH   6  10
ATOM     10  N   UNL A   1      36.528  22.585  25.058  1.00  0.00    -0.358 N 
ATOM     11  C   UNL A   1      35.309  22.092  25.727  1.00  0.00     0.103 C 
ATOM     12  C   UNL A   1      36.244  23.575  24.009  1.00  0.00     0.110 C 
ATOM     13  C   UNL A   1      34.272  22.972  25.123  1.00  0.00     0.003 C 
ATOM     14  C   UNL A   1      35.265  22.303  27.252  1.00  0.00     0.035 C 
ATOM     15  C   UNL A   1      34.795  23.888  24.297  1.00  0.00    -0.026 C 
ATOM     16  C   UNL A   1      36.469  22.952  22.633  1.00  0.00     0.036 C 
BRANCH  15  17
ATOM     17  C   UNL A   1      34.126  25.045  23.751  1.00  0.00     0.031 C 
ATOM     18  C   UNL A   1      33.454  25.126  22.580  1.00  0.00     0.117 C 
BRANCH  18  19
ATOM     19  C   UNL A   1      33.279  24.021  21.695  1.00  0.00     0.105 C 
ATOM     20  N   UNL A   1      33.169  23.133  20.971  1.00  0.00    -0.192 NA
ENDBRANCH  18  19
BRANCH  18  21
ATOM     21  C   UNL A   1      33.140  26.505  22.123  1.00  0.00     0.261 C 
ATOM     22  O   UNL A   1      34.031  27.320  21.884  1.00  0.00    -0.268 OA
ATOM     23  N   UNL A   1      31.877  26.782  21.699  1.00  0.00    -0.351 N 
ATOM     24  H   UNL A   1      31.825  27.118  20.775  1.00  0.00     0.163 HD
BRANCH  23  25
ATOM     25  C   UNL A   1      30.577  26.668  22.376  1.00  0.00     0.121 C 
BRANCH  25  26
ATOM     26  C   UNL A   1      30.634  26.652  23.933  1.00  0.00     0.059 C 
BRANCH  26  27
ATOM     27  C   UNL A   1      30.772  28.037  24.569  1.00  0.00    -0.021 A 
ATOM     28  C   UNL A   1      30.847  29.208  23.813  1.00  0.00     0.087 A 
ATOM     29  C   UNL A   1      31.683  28.369  25.623  1.00  0.00     0.003 A 
ATOM     30  N   UNL A   1      32.235  29.328  23.715  1.00  0.00    -0.361 N 
ATOM     31  C   UNL A   1      32.754  28.939  24.933  1.00  0.00     0.046 A 
ATOM     32  C   UNL A   1      31.797  28.205  27.013  1.00  0.00     0.010 A 
ATOM     33  H   UNL A   1      32.745  29.633  22.930  1.00  0.00     0.166 HD
ATOM     34  C   UNL A   1      34.023  29.103  25.479  1.00  0.00     0.026 A 
ATOM     35  C   UNL A   1      33.006  28.577  27.626  1.00  0.00     0.001 A 
ATOM     36  C   UNL A   1      34.119  28.942  26.861  1.00  0.00     0.002 A 
ENDBRANCH  26  27
ENDBRANCH  25  26
ENDBRANCH  23  25
ENDBRANCH  18  21
ENDBRANCH  15  17
ENDBRANCH   6  10
ENDBRANCH   1   3
BRANCH   1  37
ATOM     37  O   UNL A   1      41.454  20.200  25.642  1.00  0.00    -0.458 OA
BRANCH  37  38
ATOM     38  C   UNL A   1      42.547  19.401  26.112  1.00  0.00     0.275 C 
BRANCH  38  39
ATOM     39  C   UNL A   1      43.817  19.602  25.289  1.00  0.00     0.275 C 
BRANCH  39  40
ATOM     40  O   UNL A   1      44.522  20.880  25.363  1.00  0.00    -0.458 OA
BRANCH  40  41
ATOM     41  C   UNL A   1      44.226  22.056  24.754  1.00  0.00     0.338 C 
ATOM     42  O   UNL A   1      44.154  22.159  23.536  1.00  0.00    -0.246 OA
BRANCH  41  43
ATOM     43  C   UNL A   1      43.992  23.233  25.606  1.00  0.00     0.060 A 
ATOM     44  C   UNL A   1      43.947  23.088  27.007  1.00  0.00     0.016 A 
ATOM     45  C   UNL A   1      43.934  24.485  25.017  1.00  0.00     0.016 A 
ATOM     46  C   UNL A   1      43.955  24.204  27.829  1.00  0.00     0.010 A 
ATOM     47  C   UNL A   1      44.137  25.577  25.808  1.00  0.00     0.010 A 
ATOM     48  C   UNL A   1      44.055  25.439  27.203  1.00  0.00    -0.014 A 
BRANCH  48  49
ATOM     49  C   UNL A   1      43.726  26.690  27.850  1.00  0.00     0.031 A 
ATOM     50  C   UNL A   1      42.367  27.231  27.732  1.00  0.00     0.074 A 
ATOM     51  C   UNL A   1      44.760  27.061  28.643  1.00  0.00     0.049 A 
ATOM     52  N   UNL A   1      42.081  28.485  27.702  1.00  0.00    -0.248 NA
ATOM     53  C   UNL A   1      41.176  26.394  27.545  1.00  0.00     0.031 C 
ATOM     54  C   UNL A   1      44.898  27.946  29.778  1.00  0.00     0.029 A 
ATOM     55  N   UNL A   1      46.086  26.622  28.434  1.00  0.00    -0.354 N 
ATOM     56  C   UNL A   1      40.737  28.557  28.015  1.00  0.00     0.074 A 
ATOM     57  C   UNL A   1      40.181  27.286  27.637  1.00  0.00     0.031 C 
ATOM     58  C   UNL A   1      46.207  28.254  29.921  1.00  0.00     0.029 A 
ATOM     59  C   UNL A   1      46.934  27.661  28.801  1.00  0.00     0.049 A 
ATOM     60  H   UNL A   1      46.359  25.741  28.089  1.00  0.00     0.167 HD
ATOM     61  C   UNL A   1      40.319  29.512  28.896  1.00  0.00     0.037 A 
ATOM     62  C   UNL A   1      47.547  28.310  27.765  1.00  0.00     0.037 A 
ATOM     63  C   UNL A   1      41.487  30.239  29.396  1.00  0.00     0.049 A 
ATOM     64  C   UNL A   1      46.925  29.674  27.553  1.00  0.00     0.074 A 
ATOM     65  C   UNL A   1      42.248  30.122  30.547  1.00  0.00     0.029 A 
ATOM     66  N   UNL A   1      42.272  30.925  28.495  1.00  0.00    -0.354 N 
ATOM     67  N   UNL A   1      45.750  30.024  28.003  1.00  0.00    -0.248 NA
ATOM     68  C   UNL A   1      47.571  30.743  26.803  1.00  0.00     0.031 C 
ATOM     69  C   UNL A   1      43.486  30.797  30.328  1.00  0.00     0.029 A 
ATOM     70  C   UNL A   1      43.490  31.276  29.033  1.00  0.00     0.049 A 
ATOM     71  H   UNL A   1      41.995  31.139  27.575  1.00  0.00     0.167 HD
ATOM     72  C   UNL A   1      45.508  31.336  27.711  1.00  0.00     0.074 A 
ATOM     73  C   UNL A   1      46.644  31.714  26.883  1.00  0.00     0.031 C 
ATOM     74  C   UNL A   1      44.415  32.009  28.188  1.00  0.00     0.037 A 
BRANCH  61  75
ATOM     75  C   UNL A   1      38.964  29.582  29.560  1.00  0.00     0.057 A 
ATOM     76  C   UNL A   1      37.835  30.027  28.840  1.00  0.00     0.134 A 
ATOM     77  C   UNL A   1      38.690  29.184  30.881  1.00  0.00     0.134 A 
ATOM     78  F   UNL A   1      37.909  30.372  27.549  1.00  0.00    -0.206 F 
ATOM     79  C   UNL A   1      36.557  30.131  29.399  1.00  0.00     0.040 A 
ATOM     80  C   UNL A   1      37.414  29.303  31.461  1.00  0.00     0.040 A 
ATOM     81  F   UNL A   1      39.629  28.618  31.651  1.00  0.00    -0.206 F 
ATOM     82  C   UNL A   1      36.341  29.782  30.720  1.00  0.00     0.006 A 
ENDBRANCH  61  75
BRANCH  62  83
ATOM     83  C   UNL A   1      47.979  27.368  26.662  1.00  0.00     0.057 A 
ATOM     84  C   UNL A   1      47.300  27.409  25.420  1.00  0.00     0.134 A 
ATOM     85  C   UNL A   1      49.206  26.698  26.665  1.00  0.00     0.134 A 
ATOM     86  F   UNL A   1      46.111  28.028  25.320  1.00  0.00    -0.206 F 
ATOM     87  C   UNL A   1      47.869  26.937  24.230  1.00  0.00     0.040 A 
ATOM     88  C   UNL A   1      49.768  26.183  25.484  1.00  0.00     0.040 A 
ATOM     89  F   UNL A   1      49.936  26.609  27.785  1.00  0.00    -0.206 F 
ATOM     90  C   UNL A   1      49.121  26.336  24.258  1.00  0.00     0.006 A 
ENDBRANCH  62  83
BRANCH  74  91
ATOM     91  C   UNL A   1      44.097  33.445  27.872  1.00  0.00     0.057 A 
ATOM     92  C   UNL A   1      43.780  33.886  26.585  1.00  0.00     0.134 A 
ATOM     93  C   UNL A   1      44.175  34.466  28.850  1.00  0.00     0.134 A 
ATOM     94  F   UNL A   1      43.866  33.067  25.528  1.00  0.00    -0.206 F 
ATOM     95  C   UNL A   1      43.400  35.206  26.325  1.00  0.00     0.040 A 
ATOM     96  C   UNL A   1      43.859  35.796  28.590  1.00  0.00     0.040 A 
ATOM     97  F   UNL A   1      44.549  34.241  30.115  1.00  0.00    -0.206 F 
ATOM     98  C   UNL A   1      43.427  36.164  27.331  1.00  0.00     0.006 A 
ENDBRANCH  74  91
ENDBRANCH  48  49
ENDBRANCH  41  43
ENDBRANCH  40  41
ENDBRANCH  39  40
ENDBRANCH  38  39
ENDBRANCH  37  38
ENDBRANCH   1  37
TORSDOF 18
ENDMDL
MODEL 2
REMARK VINA RESULT:     -11.9      1.359      2.129
REMARK SMILES Cc1c(C(=O)OCCOC(=O)c2ccc(-c3c4nc(c(-c5c(F)cccc5F)c5ccc([nH]5)c(-c5c(F)cccc5F)c5nc(c(-c6c(F)cccc6F)c6ccc3[nH]6)C=C5)C=C4)cc2)cccc1N1[C@@H](C)C=C(/C=C(\C#N)C(=O)NCCc2c[nH]c3ccccc23)[C@@H]1C
REMARK SMILES IDX 4 1 5 2 3 3 1 4 2 5 69 6 66 7 68 8 67 9 70 10 71 11 93 12
REMARK SMILES IDX 73 13 72 14 74 15 94 16 75 17 76 18 77 19 78 20 79 21 80 22
REMARK SMILES IDX 81 23 82 25 83 26 84 27 85 28 92 29 86 30 87 31 91 32 88 34
REMARK SMILES IDX 90 35 89 36 6 37 7 38 8 39 9 40 10 41 11 42 12 43 13 44
REMARK SMILES IDX 65 45 14 46 64 47 15 48 16 49 17 50 58 51 18 52 63 53 57 54
REMARK SMILES IDX 59 55 19 56 62 57 56 58 55 59 20 61 46 62 29 63 45 64 30 65
REMARK SMILES IDX 33 66 44 67 60 68 31 69 32 70 43 72 61 73 34 74 21 75 22 76
REMARK SMILES IDX 27 77 23 78 24 79 26 80 28 81 25 82 47 83 48 84 53 85 49 86
REMARK SMILES IDX 50 87 52 88 54 89 51 90 35 91 36 92 41 93 37 94 38 95 40 96
REMARK SMILES IDX 42 97 39 98
REMARK H PARENT 81 24 86 33 59 60 33 71
REMARK Flexibility Score: inf
ROOT
ATOM      1  C   UNL A   1      40.452  20.815  26.770  1.00  0.00     0.338 C 
ATOM      2  O   UNL A   1      40.423  20.324  27.891  1.00  0.00    -0.246 OA
ENDROOT
BRANCH   1   3
ATOM      3  C   UNL A   1      39.670  22.022  26.494  1.00  0.00     0.065 A 
ATOM      4  C   UNL A   1      38.285  20.487  25.089  1.00  0.00     0.047 C 
ATOM      5  C   UNL A   1      38.455  21.796  25.828  1.00  0.00    -0.013 A 
ATOM      6  C   UNL A   1      37.488  22.813  25.843  1.00  0.00     0.041 A 
ATOM      7  C   UNL A   1      39.996  23.275  27.022  1.00  0.00     0.016 A 
ATOM      8  C   UNL A   1      37.775  24.025  26.501  1.00  0.00     0.026 A 
ATOM      9  C   UNL A   1      39.028  24.273  27.055  1.00  0.00     0.003 A 
BRANCH   6  10
ATOM     10  N   UNL A   1      36.351  22.768  25.064  1.00  0.00    -0.358 N 
ATOM     11  C   UNL A   1      35.112  22.356  25.752  1.00  0.00     0.103 C 
ATOM     12  C   UNL A   1      36.104  23.680  23.938  1.00  0.00     0.110 C 
ATOM     13  C   UNL A   1      34.104  23.210  25.067  1.00  0.00     0.003 C 
ATOM     14  C   UNL A   1      35.054  22.685  27.254  1.00  0.00     0.035 C 
ATOM     15  C   UNL A   1      34.660  24.048  24.181  1.00  0.00    -0.026 C 
ATOM     16  C   UNL A   1      36.331  22.949  22.617  1.00  0.00     0.036 C 
BRANCH  15  17
ATOM     17  C   UNL A   1      34.025  25.175  23.538  1.00  0.00     0.031 C 
ATOM     18  C   UNL A   1      32.779  25.225  23.017  1.00  0.00     0.117 C 
BRANCH  18  19
ATOM     19  C   UNL A   1      31.863  24.133  23.059  1.00  0.00     0.105 C 
ATOM     20  N   UNL A   1      31.125  23.252  23.126  1.00  0.00    -0.192 NA
ENDBRANCH  18  19
BRANCH  18  21
ATOM     21  C   UNL A   1      32.503  26.397  22.144  1.00  0.00     0.261 C 
ATOM     22  O   UNL A   1      32.886  26.430  20.975  1.00  0.00    -0.268 OA
ATOM     23  N   UNL A   1      31.585  27.314  22.552  1.00  0.00    -0.351 N 
ATOM     24  H   UNL A   1      30.835  27.442  21.927  1.00  0.00     0.163 HD
BRANCH  23  25
ATOM     25  C   UNL A   1      31.513  28.149  23.761  1.00  0.00     0.121 C 
BRANCH  25  26
ATOM     26  C   UNL A   1      32.888  28.549  24.377  1.00  0.00     0.059 C 
BRANCH  26  27
ATOM     27  C   UNL A   1      32.928  28.498  25.906  1.00  0.00    -0.021 A 
ATOM     28  C   UNL A   1      31.780  28.601  26.692  1.00  0.00     0.087 A 
ATOM     29  C   UNL A   1      33.852  29.222  26.726  1.00  0.00     0.003 A 
ATOM     30  N   UNL A   1      31.790  29.977  26.932  1.00  0.00    -0.361 N 
ATOM     31  C   UNL A   1      33.110  30.340  27.110  1.00  0.00     0.046 A 
ATOM     32  C   UNL A   1      35.196  29.145  27.128  1.00  0.00     0.010 A 
ATOM     33  H   UNL A   1      31.007  30.574  26.967  1.00  0.00     0.166 HD
ATOM     34  C   UNL A   1      33.676  31.502  27.624  1.00  0.00     0.026 A 
ATOM     35  C   UNL A   1      35.733  30.223  27.851  1.00  0.00     0.001 A 
ATOM     36  C   UNL A   1      35.009  31.407  28.023  1.00  0.00     0.002 A 
ENDBRANCH  26  27
ENDBRANCH  25  26
ENDBRANCH  23  25
ENDBRANCH  18  21
ENDBRANCH  15  17
ENDBRANCH   6  10
ENDBRANCH   1   3
BRANCH   1  37
ATOM     37  O   UNL A   1      41.049  20.267  25.691  1.00  0.00    -0.458 OA
BRANCH  37  38
ATOM     38  C   UNL A   1      42.166  19.454  26.072  1.00  0.00     0.275 C 
BRANCH  38  39
ATOM     39  C   UNL A   1      43.503  20.069  25.667  1.00  0.00     0.275 C 
BRANCH  39  40
ATOM     40  O   UNL A   1      43.776  21.466  25.996  1.00  0.00    -0.458 OA
BRANCH  40  41
ATOM     41  C   UNL A   1      43.546  22.579  25.253  1.00  0.00     0.338 C 
ATOM     42  O   UNL A   1      43.516  22.551  24.030  1.00  0.00    -0.246 OA
BRANCH  41  43
ATOM     43  C   UNL A   1      43.334  23.849  25.965  1.00  0.00     0.060 A 
ATOM     44  C   UNL A   1      42.845  24.973  25.268  1.00  0.00     0.016 A 
ATOM     45  C   UNL A   1      43.511  23.885  27.338  1.00  0.00     0.016 A 
ATOM     46  C   UNL A   1      42.428  26.100  25.958  1.00  0.00     0.010 A 
ATOM     47  C   UNL A   1      42.928  24.901  28.035  1.00  0.00     0.010 A 
ATOM     48  C   UNL A   1      42.475  26.036  27.343  1.00  0.00    -0.014 A 
BRANCH  48  49
ATOM     49  C   UNL A   1      42.423  27.203  28.197  1.00  0.00     0.031 A 
ATOM     50  C   UNL A   1      41.229  28.055  28.188  1.00  0.00     0.074 A 
ATOM     51  C   UNL A   1      43.492  27.186  29.031  1.00  0.00     0.049 A 
ATOM     52  N   UNL A   1      41.240  29.328  28.375  1.00  0.00    -0.248 NA
ATOM     53  C   UNL A   1      39.883  27.561  27.874  1.00  0.00     0.031 C 
ATOM     54  C   UNL A   1      43.796  27.810  30.299  1.00  0.00     0.029 A 
ATOM     55  N   UNL A   1      44.687  26.493  28.735  1.00  0.00    -0.354 N 
ATOM     56  C   UNL A   1      39.940  29.655  28.711  1.00  0.00     0.074 A 
ATOM     57  C   UNL A   1      39.118  28.630  28.127  1.00  0.00     0.031 C 
ATOM     58  C   UNL A   1      45.137  27.779  30.477  1.00  0.00     0.029 A 
ATOM     59  C   UNL A   1      45.740  27.230  29.265  1.00  0.00     0.049 A 
ATOM     60  H   UNL A   1      44.760  25.644  28.243  1.00  0.00     0.167 HD
ATOM     61  C   UNL A   1      39.728  30.519  29.746  1.00  0.00     0.037 A 
ATOM     62  C   UNL A   1      46.515  27.885  28.348  1.00  0.00     0.037 A 
ATOM     63  C   UNL A   1      41.016  30.861  30.350  1.00  0.00     0.049 A 
ATOM     64  C   UNL A   1      46.230  29.372  28.379  1.00  0.00     0.074 A 
ATOM     65  C   UNL A   1      41.696  30.380  31.455  1.00  0.00     0.029 A 
ATOM     66  N   UNL A   1      41.964  31.489  29.570  1.00  0.00    -0.354 N 
ATOM     67  N   UNL A   1      45.155  29.903  28.894  1.00  0.00    -0.248 NA
ATOM     68  C   UNL A   1      47.126  30.373  27.814  1.00  0.00     0.031 C 
ATOM     69  C   UNL A   1      43.062  30.776  31.341  1.00  0.00     0.029 A 
ATOM     70  C   UNL A   1      43.213  31.453  30.147  1.00  0.00     0.049 A 
ATOM     71  H   UNL A   1      41.770  31.913  28.702  1.00  0.00     0.167 HD
ATOM     72  C   UNL A   1      45.229  31.265  28.833  1.00  0.00     0.074 A 
ATOM     73  C   UNL A   1      46.445  31.505  28.068  1.00  0.00     0.031 C 
ATOM     74  C   UNL A   1      44.307  32.083  29.428  1.00  0.00     0.037 A 
BRANCH  61  75
ATOM     75  C   UNL A   1      38.406  30.788  30.427  1.00  0.00     0.057 A 
ATOM     76  C   UNL A   1      37.820  32.071  30.372  1.00  0.00     0.134 A 
ATOM     77  C   UNL A   1      37.637  29.827  31.106  1.00  0.00     0.134 A 
ATOM     78  F   UNL A   1      38.386  33.081  29.701  1.00  0.00    -0.206 F 
ATOM     79  C   UNL A   1      36.608  32.391  30.993  1.00  0.00     0.040 A 
ATOM     80  C   UNL A   1      36.427  30.141  31.754  1.00  0.00     0.040 A 
ATOM     81  F   UNL A   1      37.995  28.536  31.134  1.00  0.00    -0.206 F 
ATOM     82  C   UNL A   1      35.911  31.429  31.701  1.00  0.00     0.006 A 
ENDBRANCH  61  75
BRANCH  62  83
ATOM     83  C   UNL A   1      46.751  27.068  27.096  1.00  0.00     0.057 A 
ATOM     84  C   UNL A   1      47.591  25.930  27.167  1.00  0.00     0.134 A 
ATOM     85  C   UNL A   1      45.941  27.159  25.960  1.00  0.00     0.134 A 
ATOM     86  F   UNL A   1      48.408  25.759  28.220  1.00  0.00    -0.206 F 
ATOM     87  C   UNL A   1      47.528  24.884  26.239  1.00  0.00     0.040 A 
ATOM     88  C   UNL A   1      45.900  26.134  24.999  1.00  0.00     0.040 A 
ATOM     89  F   UNL A   1      45.101  28.190  25.797  1.00  0.00    -0.206 F 
ATOM     90  C   UNL A   1      46.662  24.976  25.156  1.00  0.00     0.006 A 
ENDBRANCH  62  83
BRANCH  74  91
ATOM     91  C   UNL A   1      44.337  33.586  29.365  1.00  0.00     0.057 A 
ATOM     92  C   UNL A   1      44.565  34.387  30.486  1.00  0.00     0.134 A 
ATOM     93  C   UNL A   1      44.057  34.295  28.172  1.00  0.00     0.134 A 
ATOM     94  F   UNL A   1      44.645  33.859  31.715  1.00  0.00    -0.206 F 
ATOM     95  C   UNL A   1      44.679  35.777  30.394  1.00  0.00     0.040 A 
ATOM     96  C   UNL A   1      44.105  35.683  28.082  1.00  0.00     0.040 A 
ATOM     97  F   UNL A   1      43.730  33.693  27.022  1.00  0.00    -0.206 F 
ATOM     98  C   UNL A   1      44.461  36.429  29.187  1.00  0.00     0.006 A 
ENDBRANCH  74  91
ENDBRANCH  48  49
ENDBRANCH  41  43
ENDBRANCH  40  41
ENDBRANCH  39  40
ENDBRANCH  38  39
ENDBRANCH  37  38
ENDBRANCH   1  37
TORSDOF 18
ENDMDL
MODEL 3
REMARK VINA RESULT:     -11.5      4.875     10.252
REMARK SMILES Cc1c(C(=O)OCCOC(=O)c2ccc(-c3c4nc(c(-c5c(F)cccc5F)c5ccc([nH]5)c(-c5c(F)cccc5F)c5nc(c(-c6c(F)cccc6F)c6ccc3[nH]6)C=C5)C=C4)cc2)cccc1N1[C@@H](C)C=C(/C=C(\C#N)C(=O)NCCc2c[nH]c3ccccc23)[C@@H]1C
REMARK SMILES IDX 4 1 5 2 3 3 1 4 2 5 69 6 66 7 68 8 67 9 70 10 71 11 93 12
REMARK SMILES IDX 73 13 72 14 74 15 94 16 75 17 76 18 77 19 78 20 79 21 80 22
REMARK SMILES IDX 81 23 82 25 83 26 84 27 85 28 92 29 86 30 87 31 91 32 88 34
REMARK SMILES IDX 90 35 89 36 6 37 7 38 8 39 9 40 10 41 11 42 12 43 13 44
REMARK SMILES IDX 65 45 14 46 64 47 15 48 16 49 17 50 58 51 18 52 63 53 57 54
REMARK SMILES IDX 59 55 19 56 62 57 56 58 55 59 20 61 46 62 29 63 45 64 30 65
REMARK SMILES IDX 33 66 44 67 60 68 31 69 32 70 43 72 61 73 34 74 21 75 22 76
REMARK SMILES IDX 27 77 23 78 24 79 26 80 28 81 25 82 47 83 48 84 53 85 49 86
REMARK SMILES IDX 50 87 52 88 54 89 51 90 35 91 36 92 41 93 37 94 38 95 40 96
REMARK SMILES IDX 42 97 39 98
REMARK H PARENT 81 24 86 33 59 60 33 71
REMARK Flexibility Score: inf
ROOT
ATOM      1  C   UNL A   1      34.158  33.525  28.393  1.00  0.00     0.338 C 
ATOM      2  O   UNL A   1      35.136  34.106  27.942  1.00  0.00    -0.246 OA
ENDROOT
BRANCH   1   3
ATOM      3  C   UNL A   1      33.352  32.680  27.508  1.00  0.00     0.065 A 
ATOM      4  C   UNL A   1      35.232  31.055  27.780  1.00  0.00     0.047 C 
ATOM      5  C   UNL A   1      33.801  31.356  27.391  1.00  0.00    -0.013 A 
ATOM      6  C   UNL A   1      32.917  30.396  26.875  1.00  0.00     0.041 A 
ATOM      7  C   UNL A   1      32.124  33.089  26.980  1.00  0.00     0.016 A 
ATOM      8  C   UNL A   1      31.627  30.795  26.474  1.00  0.00     0.026 A 
ATOM      9  C   UNL A   1      31.241  32.132  26.489  1.00  0.00     0.003 A 
BRANCH   6  10
ATOM     10  N   UNL A   1      33.319  29.119  26.541  1.00  0.00    -0.358 N 
ATOM     11  C   UNL A   1      32.753  28.029  27.360  1.00  0.00     0.103 C 
ATOM     12  C   UNL A   1      33.628  28.701  25.167  1.00  0.00     0.110 C 
ATOM     13  C   UNL A   1      32.588  26.958  26.339  1.00  0.00     0.003 C 
ATOM     14  C   UNL A   1      31.365  28.312  27.963  1.00  0.00     0.035 C 
ATOM     15  C   UNL A   1      32.921  27.368  25.108  1.00  0.00    -0.026 C 
ATOM     16  C   UNL A   1      35.140  28.595  24.984  1.00  0.00     0.036 C 
BRANCH  15  17
ATOM     17  C   UNL A   1      32.644  26.689  23.864  1.00  0.00     0.031 C 
ATOM     18  C   UNL A   1      31.615  26.918  23.018  1.00  0.00     0.117 C 
BRANCH  18  19
ATOM     19  C   UNL A   1      30.632  27.929  23.228  1.00  0.00     0.105 C 
ATOM     20  N   UNL A   1      29.814  28.722  23.395  1.00  0.00    -0.192 NA
ENDBRANCH  18  19
BRANCH  18  21
ATOM     21  C   UNL A   1      31.399  25.870  21.985  1.00  0.00     0.261 C 
ATOM     22  O   UNL A   1      31.422  26.139  20.784  1.00  0.00    -0.268 OA
ATOM     23  N   UNL A   1      31.454  24.563  22.358  1.00  0.00    -0.351 N 
ATOM     24  H   UNL A   1      32.132  24.034  21.879  1.00  0.00     0.163 HD
BRANCH  23  25
ATOM     25  C   UNL A   1      30.680  23.801  23.350  1.00  0.00     0.121 C 
BRANCH  25  26
ATOM     26  C   UNL A   1      31.527  23.010  24.392  1.00  0.00     0.059 C 
BRANCH  26  27
ATOM     27  C   UNL A   1      32.552  22.057  23.773  1.00  0.00    -0.021 A 
ATOM     28  C   UNL A   1      32.512  20.677  23.973  1.00  0.00     0.087 A 
ATOM     29  C   UNL A   1      33.969  22.264  23.774  1.00  0.00     0.003 A 
ATOM     30  N   UNL A   1      33.374  20.580  25.069  1.00  0.00    -0.361 N 
ATOM     31  C   UNL A   1      34.390  21.490  24.857  1.00  0.00     0.046 A 
ATOM     32  C   UNL A   1      34.927  23.031  23.092  1.00  0.00     0.010 A 
ATOM     33  H   UNL A   1      33.275  19.980  25.843  1.00  0.00     0.166 HD
ATOM     34  C   UNL A   1      35.628  21.635  25.473  1.00  0.00     0.026 A 
ATOM     35  C   UNL A   1      36.248  23.018  23.570  1.00  0.00     0.001 A 
ATOM     36  C   UNL A   1      36.569  22.396  24.780  1.00  0.00     0.002 A 
ENDBRANCH  26  27
ENDBRANCH  25  26
ENDBRANCH  23  25
ENDBRANCH  18  21
ENDBRANCH  15  17
ENDBRANCH   6  10
ENDBRANCH   1   3
BRANCH   1  37
ATOM     37  O   UNL A   1      33.651  33.691  29.633  1.00  0.00    -0.458 OA
BRANCH  37  38
ATOM     38  C   UNL A   1      33.336  35.066  29.884  1.00  0.00     0.275 C 
BRANCH  38  39
ATOM     39  C   UNL A   1      32.932  35.319  31.335  1.00  0.00     0.275 C 
BRANCH  39  40
ATOM     40  O   UNL A   1      33.581  34.557  32.400  1.00  0.00    -0.458 OA
BRANCH  40  41
ATOM     41  C   UNL A   1      34.731  34.830  33.068  1.00  0.00     0.338 C 
ATOM     42  O   UNL A   1      34.797  35.706  33.920  1.00  0.00    -0.246 OA
BRANCH  41  43
ATOM     43  C   UNL A   1      35.924  34.035  32.735  1.00  0.00     0.060 A 
ATOM     44  C   UNL A   1      36.816  34.489  31.742  1.00  0.00     0.016 A 
ATOM     45  C   UNL A   1      36.210  32.909  33.488  1.00  0.00     0.016 A 
ATOM     46  C   UNL A   1      38.049  33.879  31.574  1.00  0.00     0.010 A 
ATOM     47  C   UNL A   1      37.485  32.428  33.467  1.00  0.00     0.010 A 
ATOM     48  C   UNL A   1      38.362  32.853  32.454  1.00  0.00    -0.014 A 
BRANCH  48  49
ATOM     49  C   UNL A   1      39.414  31.890  32.215  1.00  0.00     0.031 A 
ATOM     50  C   UNL A   1      39.109  30.645  31.501  1.00  0.00     0.074 A 
ATOM     51  C   UNL A   1      40.603  32.440  32.567  1.00  0.00     0.049 A 
ATOM     52  N   UNL A   1      39.689  29.518  31.719  1.00  0.00    -0.248 NA
ATOM     53  C   UNL A   1      38.036  30.524  30.507  1.00  0.00     0.031 C 
ATOM     54  C   UNL A   1      41.982  32.166  32.232  1.00  0.00     0.029 A 
ATOM     55  N   UNL A   1      40.715  33.497  33.496  1.00  0.00    -0.354 N 
ATOM     56  C   UNL A   1      39.436  28.757  30.594  1.00  0.00     0.074 A 
ATOM     57  C   UNL A   1      38.224  29.286  30.031  1.00  0.00     0.031 C 
ATOM     58  C   UNL A   1      42.769  32.745  33.169  1.00  0.00     0.029 A 
ATOM     59  C   UNL A   1      41.901  33.313  34.198  1.00  0.00     0.049 A 
ATOM     60  H   UNL A   1      40.071  34.230  33.624  1.00  0.00     0.167 HD
ATOM     61  C   UNL A   1      40.456  28.031  30.049  1.00  0.00     0.037 A 
ATOM     62  C   UNL A   1      41.757  32.894  35.492  1.00  0.00     0.037 A 
ATOM     63  C   UNL A   1      41.685  28.309  30.794  1.00  0.00     0.049 A 
ATOM     64  C   UNL A   1      42.137  31.435  35.622  1.00  0.00     0.074 A 
ATOM     65  C   UNL A   1      42.748  29.166  30.571  1.00  0.00     0.029 A 
ATOM     66  N   UNL A   1      41.725  28.002  32.137  1.00  0.00    -0.354 N 
ATOM     67  N   UNL A   1      42.206  30.601  34.620  1.00  0.00    -0.248 NA
ATOM     68  C   UNL A   1      42.451  30.797  36.894  1.00  0.00     0.031 C 
ATOM     69  C   UNL A   1      43.454  29.325  31.801  1.00  0.00     0.029 A 
ATOM     70  C   UNL A   1      42.788  28.604  32.772  1.00  0.00     0.049 A 
ATOM     71  H   UNL A   1      41.072  27.420  32.589  1.00  0.00     0.167 HD
ATOM     72  C   UNL A   1      42.646  29.383  35.052  1.00  0.00     0.074 A 
ATOM     73  C   UNL A   1      42.701  29.536  36.499  1.00  0.00     0.031 C 
ATOM     74  C   UNL A   1      42.950  28.360  34.195  1.00  0.00     0.037 A 
BRANCH  61  75
ATOM     75  C   UNL A   1      40.452  27.362  28.695  1.00  0.00     0.057 A 
ATOM     76  C   UNL A   1      39.723  26.172  28.485  1.00  0.00     0.134 A 
ATOM     77  C   UNL A   1      41.097  27.858  27.547  1.00  0.00     0.134 A 
ATOM     78  F   UNL A   1      38.992  25.609  29.454  1.00  0.00    -0.206 F 
ATOM     79  C   UNL A   1      39.690  25.495  27.262  1.00  0.00     0.040 A 
ATOM     80  C   UNL A   1      41.089  27.175  26.317  1.00  0.00     0.040 A 
ATOM     81  F   UNL A   1      41.722  29.043  27.552  1.00  0.00    -0.206 F 
ATOM     82  C   UNL A   1      40.386  25.986  26.172  1.00  0.00     0.006 A 
ENDBRANCH  61  75
BRANCH  62  83
ATOM     83  C   UNL A   1      40.589  33.556  36.190  1.00  0.00     0.057 A 
ATOM     84  C   UNL A   1      39.449  32.778  36.508  1.00  0.00     0.134 A 
ATOM     85  C   UNL A   1      40.685  34.791  36.839  1.00  0.00     0.134 A 
ATOM     86  F   UNL A   1      39.267  31.579  35.930  1.00  0.00    -0.206 F 
ATOM     87  C   UNL A   1      38.539  33.143  37.509  1.00  0.00     0.040 A 
ATOM     88  C   UNL A   1      39.755  35.186  37.816  1.00  0.00     0.040 A 
ATOM     89  F   UNL A   1      41.729  35.602  36.619  1.00  0.00    -0.206 F 
ATOM     90  C   UNL A   1      38.703  34.347  38.182  1.00  0.00     0.006 A 
ENDBRANCH  62  83
BRANCH  74  91
ATOM     91  C   UNL A   1      43.414  26.996  34.629  1.00  0.00     0.057 A 
ATOM     92  C   UNL A   1      44.753  26.601  34.583  1.00  0.00     0.134 A 
ATOM     93  C   UNL A   1      42.508  25.989  35.043  1.00  0.00     0.134 A 
ATOM     94  F   UNL A   1      45.690  27.379  34.024  1.00  0.00    -0.206 F 
ATOM     95  C   UNL A   1      45.178  25.363  35.073  1.00  0.00     0.040 A 
ATOM     96  C   UNL A   1      42.915  24.731  35.475  1.00  0.00     0.040 A 
ATOM     97  F   UNL A   1      41.182  26.162  35.065  1.00  0.00    -0.206 F 
ATOM     98  C   UNL A   1      44.261  24.427  35.532  1.00  0.00     0.006 A 
ENDBRANCH  74  91
ENDBRANCH  48  49
ENDBRANCH  41  43
ENDBRANCH  40  41
ENDBRANCH  39  40
ENDBRANCH  38  39
ENDBRANCH  37  38
ENDBRANCH   1  37
TORSDOF 18
ENDMDL
