MODEL 1
REMARK VINA RESULT:     -12.1      0.000      0.000
REMARK SMILES O=C(OCCOC(=O)c1nnn(-c2cccc(Br)c2)c1[C@@H]1COc2ccccc2O1)c1ccc(-c2c3nc(c(-c4c(F)cccc4F)c4ccc([nH]4)c(-c4c(F)cccc4F)c4nc(c(-c5c(F)cccc5F)c5ccc2[nH]5)C=C4)C=C3)cc1
REMARK SMILES IDX 4 1 3 2 2 3 1 4 31 5 32 6 84 7 33 8 83 9 34 10 35 11 36 12
REMARK SMILES IDX 77 13 37 14 82 15 76 16 78 17 38 18 81 19 75 20 74 21 39 23
REMARK SMILES IDX 65 24 48 25 64 26 49 27 52 28 63 29 79 30 50 31 51 32 62 34
REMARK SMILES IDX 80 35 53 36 40 37 41 38 46 39 42 40 43 41 45 42 47 43 44 44
REMARK SMILES IDX 66 45 67 46 72 47 68 48 69 49 71 50 73 51 70 52 54 53 55 54
REMARK SMILES IDX 60 55 56 56 57 57 59 58 61 59 58 60 5 61 6 62 7 63 8 64 9 65
REMARK SMILES IDX 10 66 20 67 11 68 12 69 21 70 22 71 30 72 23 73 29 74 24 75
REMARK SMILES IDX 28 76 25 77 27 78 26 79 13 80 14 81 19 82 15 83 17 84 16 85
REMARK SMILES IDX 18 86
REMARK H PARENT 78 22 52 33
REMARK Flexibility Score: inf
ROOT
ATOM      1  C   UNL A   1      34.534  29.190  27.125  1.00  0.00     0.275 C 
ENDROOT
BRANCH   1   2
ATOM      2  O   UNL A   1      35.264  29.328  28.353  1.00  0.00    -0.458 OA
BRANCH   2   3
ATOM      3  C   UNL A   1      36.337  30.148  28.333  1.00  0.00     0.338 C 
ATOM      4  O   UNL A   1      36.293  31.349  28.543  1.00  0.00    -0.246 OA
BRANCH   3   5
ATOM      5  C   UNL A   1      37.586  29.371  28.243  1.00  0.00     0.060 A 
ATOM      6  C   UNL A   1      37.999  28.505  29.267  1.00  0.00     0.016 A 
ATOM      7  C   UNL A   1      38.381  29.583  27.116  1.00  0.00     0.016 A 
ATOM      8  C   UNL A   1      39.270  27.983  29.249  1.00  0.00     0.010 A 
ATOM      9  C   UNL A   1      39.654  29.058  27.090  1.00  0.00     0.010 A 
ATOM     10  C   UNL A   1      40.104  28.329  28.193  1.00  0.00    -0.014 A 
BRANCH  10  11
ATOM     11  C   UNL A   1      41.477  27.881  28.266  1.00  0.00     0.031 A 
ATOM     12  C   UNL A   1      41.724  26.559  27.641  1.00  0.00     0.074 A 
ATOM     13  C   UNL A   1      42.415  28.702  28.775  1.00  0.00     0.049 A 
ATOM     14  N   UNL A   1      42.227  25.499  28.183  1.00  0.00    -0.248 NA
ATOM     15  C   UNL A   1      41.231  26.353  26.268  1.00  0.00     0.031 C 
ATOM     16  C   UNL A   1      42.249  30.106  29.168  1.00  0.00     0.029 A 
ATOM     17  N   UNL A   1      43.747  28.502  28.928  1.00  0.00    -0.354 N 
ATOM     18  C   UNL A   1      42.319  24.563  27.155  1.00  0.00     0.074 A 
ATOM     19  C   UNL A   1      41.537  25.073  26.063  1.00  0.00     0.031 C 
ATOM     20  C   UNL A   1      43.464  30.687  29.262  1.00  0.00     0.029 A 
ATOM     21  C   UNL A   1      44.482  29.674  29.059  1.00  0.00     0.049 A 
ATOM     22  H   UNL A   1      44.157  27.607  28.946  1.00  0.00     0.167 HD
ATOM     23  C   UNL A   1      43.265  23.585  27.186  1.00  0.00     0.037 A 
ATOM     24  C   UNL A   1      45.823  29.794  28.900  1.00  0.00     0.037 A 
ATOM     25  C   UNL A   1      43.708  23.334  28.535  1.00  0.00     0.049 A 
ATOM     26  C   UNL A   1      46.408  28.431  28.998  1.00  0.00     0.074 A 
ATOM     27  C   UNL A   1      43.079  22.961  29.708  1.00  0.00     0.029 A 
ATOM     28  N   UNL A   1      44.938  23.814  28.913  1.00  0.00    -0.354 N 
ATOM     29  N   UNL A   1      46.447  27.735  30.100  1.00  0.00    -0.248 NA
ATOM     30  C   UNL A   1      46.521  27.657  27.769  1.00  0.00     0.031 C 
ATOM     31  C   UNL A   1      43.749  23.689  30.734  1.00  0.00     0.029 A 
ATOM     32  C   UNL A   1      44.785  24.407  30.138  1.00  0.00     0.049 A 
ATOM     33  H   UNL A   1      45.774  23.743  28.398  1.00  0.00     0.167 HD
ATOM     34  C   UNL A   1      46.151  26.437  29.709  1.00  0.00     0.074 A 
ATOM     35  C   UNL A   1      46.291  26.435  28.254  1.00  0.00     0.031 C 
ATOM     36  C   UNL A   1      45.533  25.566  30.560  1.00  0.00     0.037 A 
BRANCH  23  37
ATOM     37  C   UNL A   1      44.084  23.189  25.977  1.00  0.00     0.057 A 
ATOM     38  C   UNL A   1      44.211  21.824  25.662  1.00  0.00     0.134 A 
ATOM     39  C   UNL A   1      44.998  24.037  25.316  1.00  0.00     0.134 A 
ATOM     40  F   UNL A   1      43.402  20.910  26.220  1.00  0.00    -0.206 F 
ATOM     41  C   UNL A   1      45.236  21.333  24.844  1.00  0.00     0.040 A 
ATOM     42  C   UNL A   1      45.992  23.562  24.458  1.00  0.00     0.040 A 
ATOM     43  F   UNL A   1      45.053  25.355  25.531  1.00  0.00    -0.206 F 
ATOM     44  C   UNL A   1      46.141  22.202  24.251  1.00  0.00     0.006 A 
ENDBRANCH  23  37
BRANCH  24  45
ATOM     45  C   UNL A   1      46.571  30.944  28.340  1.00  0.00     0.057 A 
ATOM     46  C   UNL A   1      46.427  31.313  26.996  1.00  0.00     0.134 A 
ATOM     47  C   UNL A   1      47.248  31.865  29.161  1.00  0.00     0.134 A 
ATOM     48  F   UNL A   1      45.760  30.524  26.141  1.00  0.00    -0.206 F 
ATOM     49  C   UNL A   1      46.910  32.532  26.501  1.00  0.00     0.040 A 
ATOM     50  C   UNL A   1      47.745  33.080  28.678  1.00  0.00     0.040 A 
ATOM     51  F   UNL A   1      47.374  31.663  30.479  1.00  0.00    -0.206 F 
ATOM     52  C   UNL A   1      47.566  33.424  27.345  1.00  0.00     0.006 A 
ENDBRANCH  24  45
BRANCH  36  53
ATOM     53  C   UNL A   1      45.402  25.966  32.004  1.00  0.00     0.057 A 
ATOM     54  C   UNL A   1      44.283  26.627  32.536  1.00  0.00     0.134 A 
ATOM     55  C   UNL A   1      46.369  25.528  32.914  1.00  0.00     0.134 A 
ATOM     56  F   UNL A   1      43.255  26.987  31.759  1.00  0.00    -0.206 F 
ATOM     57  C   UNL A   1      44.159  26.884  33.905  1.00  0.00     0.040 A 
ATOM     58  C   UNL A   1      46.240  25.746  34.288  1.00  0.00     0.040 A 
ATOM     59  F   UNL A   1      47.435  24.834  32.486  1.00  0.00    -0.206 F 
ATOM     60  C   UNL A   1      45.138  26.436  34.786  1.00  0.00     0.006 A 
ENDBRANCH  36  53
ENDBRANCH  10  11
ENDBRANCH   3   5
ENDBRANCH   2   3
ENDBRANCH   1   2
BRANCH   1  61
ATOM     61  C   UNL A   1      33.180  28.495  27.231  1.00  0.00     0.275 C 
BRANCH  61  62
ATOM     62  O   UNL A   1      33.178  27.200  26.596  1.00  0.00    -0.457 OA
BRANCH  62  63
ATOM     63  C   UNL A   1      31.954  26.596  26.501  1.00  0.00     0.361 C 
ATOM     64  O   UNL A   1      30.876  27.185  26.514  1.00  0.00    -0.244 OA
BRANCH  63  65
ATOM     65  C   UNL A   1      32.029  25.149  26.501  1.00  0.00     0.198 A 
ATOM     66  N   UNL A   1      31.778  24.360  27.599  1.00  0.00    -0.122 NA
ATOM     67  C   UNL A   1      32.379  24.338  25.436  1.00  0.00     0.123 A 
ATOM     68  N   UNL A   1      31.974  23.089  27.251  1.00  0.00    -0.061 NA
ATOM     69  N   UNL A   1      32.488  23.083  26.003  1.00  0.00    -0.213 N 
BRANCH  67  70
ATOM     70  C   UNL A   1      32.484  24.584  23.967  1.00  0.00     0.262 C 
ATOM     71  C   UNL A   1      33.747  25.297  23.488  1.00  0.00     0.281 C 
ATOM     72  O   UNL A   1      31.246  25.177  23.569  1.00  0.00    -0.477 OA
ATOM     73  O   UNL A   1      33.705  26.716  23.578  1.00  0.00    -0.485 OA
ATOM     74  C   UNL A   1      31.319  26.488  23.208  1.00  0.00     0.162 A 
ATOM     75  C   UNL A   1      32.503  27.220  23.170  1.00  0.00     0.161 A 
ATOM     76  C   UNL A   1      30.106  27.110  22.914  1.00  0.00     0.050 A 
ATOM     77  C   UNL A   1      32.481  28.566  22.807  1.00  0.00     0.050 A 
ATOM     78  C   UNL A   1      30.076  28.463  22.576  1.00  0.00     0.004 A 
ATOM     79  C   UNL A   1      31.265  29.190  22.513  1.00  0.00     0.004 A 
ENDBRANCH  67  70
BRANCH  69  80
ATOM     80  C   UNL A   1      33.024  21.920  25.408  1.00  0.00     0.068 A 
ATOM     81  C   UNL A   1      32.153  20.892  25.012  1.00  0.00     0.028 A 
ATOM     82  C   UNL A   1      34.408  21.754  25.334  1.00  0.00     0.044 A 
ATOM     83  C   UNL A   1      32.669  19.661  24.611  1.00  0.00     0.003 A 
ATOM     84  C   UNL A   1      34.909  20.505  24.962  1.00  0.00     0.020 A 
ATOM     85  C   UNL A   1      34.048  19.460  24.611  1.00  0.00     0.016 A 
ATOM     86  Br  UNL A   1      36.774  20.194  25.001  1.00  0.00    -0.051 Br
ENDBRANCH  69  80
ENDBRANCH  63  65
ENDBRANCH  62  63
ENDBRANCH  61  62
ENDBRANCH   1  61
TORSDOF 13
ENDMDL
MODEL 2
REMARK VINA RESULT:     -12.0      2.173      6.129
REMARK SMILES O=C(OCCOC(=O)c1nnn(-c2cccc(Br)c2)c1[C@@H]1COc2ccccc2O1)c1ccc(-c2c3nc(c(-c4c(F)cccc4F)c4ccc([nH]4)c(-c4c(F)cccc4F)c4nc(c(-c5c(F)cccc5F)c5ccc2[nH]5)C=C4)C=C3)cc1
REMARK SMILES IDX 4 1 3 2 2 3 1 4 31 5 32 6 84 7 33 8 83 9 34 10 35 11 36 12
REMARK SMILES IDX 77 13 37 14 82 15 76 16 78 17 38 18 81 19 75 20 74 21 39 23
REMARK SMILES IDX 65 24 48 25 64 26 49 27 52 28 63 29 79 30 50 31 51 32 62 34
REMARK SMILES IDX 80 35 53 36 40 37 41 38 46 39 42 40 43 41 45 42 47 43 44 44
REMARK SMILES IDX 66 45 67 46 72 47 68 48 69 49 71 50 73 51 70 52 54 53 55 54
REMARK SMILES IDX 60 55 56 56 57 57 59 58 61 59 58 60 5 61 6 62 7 63 8 64 9 65
REMARK SMILES IDX 10 66 20 67 11 68 12 69 21 70 22 71 30 72 23 73 29 74 24 75
REMARK SMILES IDX 28 76 25 77 27 78 26 79 13 80 14 81 19 82 15 83 17 84 16 85
REMARK SMILES IDX 18 86
REMARK H PARENT 78 22 52 33
REMARK Flexibility Score: inf
ROOT
ATOM      1  C   UNL A   1      33.878  31.027  27.295  1.00  0.00     0.275 C 
ENDROOT
BRANCH   1   2
ATOM      2  O   UNL A   1      35.099  31.657  27.712  1.00  0.00    -0.458 OA
BRANCH   2   3
ATOM      3  C   UNL A   1      35.271  31.828  29.040  1.00  0.00     0.338 C 
ATOM      4  O   UNL A   1      34.420  32.264  29.797  1.00  0.00    -0.246 OA
BRANCH   3   5
ATOM      5  C   UNL A   1      36.537  31.219  29.485  1.00  0.00     0.060 A 
ATOM      6  C   UNL A   1      37.706  31.975  29.662  1.00  0.00     0.016 A 
ATOM      7  C   UNL A   1      36.543  29.834  29.660  1.00  0.00     0.016 A 
ATOM      8  C   UNL A   1      38.909  31.339  29.848  1.00  0.00     0.010 A 
ATOM      9  C   UNL A   1      37.747  29.192  29.852  1.00  0.00     0.010 A 
ATOM     10  C   UNL A   1      38.919  29.950  29.868  1.00  0.00    -0.014 A 
BRANCH  10  11
ATOM     11  C   UNL A   1      40.211  29.303  29.926  1.00  0.00     0.031 A 
ATOM     12  C   UNL A   1      40.794  29.221  31.288  1.00  0.00     0.074 A 
ATOM     13  C   UNL A   1      40.724  28.747  28.812  1.00  0.00     0.049 A 
ATOM     14  N   UNL A   1      41.933  29.671  31.699  1.00  0.00    -0.248 NA
ATOM     15  C   UNL A   1      39.942  28.679  32.360  1.00  0.00     0.031 C 
ATOM     16  C   UNL A   1      40.063  28.589  27.512  1.00  0.00     0.029 A 
ATOM     17  N   UNL A   1      41.895  28.086  28.637  1.00  0.00    -0.354 N 
ATOM     18  C   UNL A   1      42.035  29.269  33.029  1.00  0.00     0.074 A 
ATOM     19  C   UNL A   1      40.726  28.829  33.426  1.00  0.00     0.031 C 
ATOM     20  C   UNL A   1      40.729  27.667  26.785  1.00  0.00     0.029 A 
ATOM     21  C   UNL A   1      41.919  27.269  27.514  1.00  0.00     0.049 A 
ATOM     22  H   UNL A   1      42.660  28.177  29.251  1.00  0.00     0.167 HD
ATOM     23  C   UNL A   1      43.252  29.061  33.602  1.00  0.00     0.037 A 
ATOM     24  C   UNL A   1      42.804  26.271  27.274  1.00  0.00     0.037 A 
ATOM     25  C   UNL A   1      44.283  29.792  32.909  1.00  0.00     0.049 A 
ATOM     26  C   UNL A   1      43.969  26.482  28.173  1.00  0.00     0.074 A 
ATOM     27  C   UNL A   1      44.492  31.126  32.609  1.00  0.00     0.029 A 
ATOM     28  N   UNL A   1      45.132  29.092  32.088  1.00  0.00    -0.354 N 
ATOM     29  N   UNL A   1      44.814  27.467  28.047  1.00  0.00    -0.248 NA
ATOM     30  C   UNL A   1      43.921  25.869  29.493  1.00  0.00     0.031 C 
ATOM     31  C   UNL A   1      45.069  31.125  31.306  1.00  0.00     0.029 A 
ATOM     32  C   UNL A   1      45.240  29.795  30.917  1.00  0.00     0.049 A 
ATOM     33  H   UNL A   1      45.581  28.242  32.301  1.00  0.00     0.167 HD
ATOM     34  C   UNL A   1      45.074  27.878  29.347  1.00  0.00     0.074 A 
ATOM     35  C   UNL A   1      44.564  26.804  30.197  1.00  0.00     0.031 C 
ATOM     36  C   UNL A   1      45.404  29.174  29.626  1.00  0.00     0.037 A 
BRANCH  23  37
ATOM     37  C   UNL A   1      43.556  27.875  34.490  1.00  0.00     0.057 A 
ATOM     38  C   UNL A   1      43.370  26.578  33.977  1.00  0.00     0.134 A 
ATOM     39  C   UNL A   1      43.705  27.941  35.892  1.00  0.00     0.134 A 
ATOM     40  F   UNL A   1      43.217  26.375  32.659  1.00  0.00    -0.206 F 
ATOM     41  C   UNL A   1      43.231  25.456  34.802  1.00  0.00     0.040 A 
ATOM     42  C   UNL A   1      43.618  26.820  36.720  1.00  0.00     0.040 A 
ATOM     43  F   UNL A   1      43.842  29.094  36.555  1.00  0.00    -0.206 F 
ATOM     44  C   UNL A   1      43.340  25.577  36.180  1.00  0.00     0.006 A 
ENDBRANCH  23  37
BRANCH  24  45
ATOM     45  C   UNL A   1      42.556  24.986  26.580  1.00  0.00     0.057 A 
ATOM     46  C   UNL A   1      43.290  24.627  25.441  1.00  0.00     0.134 A 
ATOM     47  C   UNL A   1      41.776  23.966  27.155  1.00  0.00     0.134 A 
ATOM     48  F   UNL A   1      44.098  25.516  24.844  1.00  0.00    -0.206 F 
ATOM     49  C   UNL A   1      43.266  23.327  24.917  1.00  0.00     0.040 A 
ATOM     50  C   UNL A   1      41.733  22.668  26.635  1.00  0.00     0.040 A 
ATOM     51  F   UNL A   1      41.097  24.165  28.292  1.00  0.00    -0.206 F 
ATOM     52  C   UNL A   1      42.491  22.340  25.519  1.00  0.00     0.006 A 
ENDBRANCH  24  45
BRANCH  36  53
ATOM     53  C   UNL A   1      45.717  30.086  28.472  1.00  0.00     0.057 A 
ATOM     54  C   UNL A   1      44.750  30.827  27.773  1.00  0.00     0.134 A 
ATOM     55  C   UNL A   1      47.055  30.341  28.160  1.00  0.00     0.134 A 
ATOM     56  F   UNL A   1      43.450  30.732  28.077  1.00  0.00    -0.206 F 
ATOM     57  C   UNL A   1      45.100  31.742  26.777  1.00  0.00     0.040 A 
ATOM     58  C   UNL A   1      47.420  31.279  27.192  1.00  0.00     0.040 A 
ATOM     59  F   UNL A   1      48.037  29.716  28.830  1.00  0.00    -0.206 F 
ATOM     60  C   UNL A   1      46.441  31.975  26.487  1.00  0.00     0.006 A 
ENDBRANCH  36  53
ENDBRANCH  10  11
ENDBRANCH   3   5
ENDBRANCH   2   3
ENDBRANCH   1   2
BRANCH   1  61
ATOM     61  C   UNL A   1      34.037  29.765  26.452  1.00  0.00     0.275 C 
BRANCH  61  62
ATOM     62  O   UNL A   1      33.206  29.786  25.274  1.00  0.00    -0.457 OA
BRANCH  62  63
ATOM     63  C   UNL A   1      31.894  29.457  25.476  1.00  0.00     0.361 C 
ATOM     64  O   UNL A   1      30.951  30.241  25.399  1.00  0.00    -0.244 OA
BRANCH  63  65
ATOM     65  C   UNL A   1      31.708  28.089  25.917  1.00  0.00     0.198 A 
ATOM     66  N   UNL A   1      31.723  27.690  27.232  1.00  0.00    -0.122 NA
ATOM     67  C   UNL A   1      31.515  26.979  25.113  1.00  0.00     0.123 A 
ATOM     68  N   UNL A   1      31.559  26.369  27.268  1.00  0.00    -0.061 NA
ATOM     69  N   UNL A   1      31.593  25.919  25.995  1.00  0.00    -0.213 N 
BRANCH  67  70
ATOM     70  C   UNL A   1      31.140  26.821  23.676  1.00  0.00     0.262 C 
ATOM     71  C   UNL A   1      31.983  27.600  22.668  1.00  0.00     0.281 C 
ATOM     72  O   UNL A   1      29.729  27.033  23.604  1.00  0.00    -0.477 OA
ATOM     73  O   UNL A   1      31.588  28.953  22.474  1.00  0.00    -0.485 OA
ATOM     74  C   UNL A   1      29.345  28.181  22.978  1.00  0.00     0.162 A 
ATOM     75  C   UNL A   1      30.231  29.085  22.398  1.00  0.00     0.161 A 
ATOM     76  C   UNL A   1      27.977  28.453  22.987  1.00  0.00     0.050 A 
ATOM     77  C   UNL A   1      29.749  30.247  21.796  1.00  0.00     0.050 A 
ATOM     78  C   UNL A   1      27.493  29.627  22.409  1.00  0.00     0.004 A 
ATOM     79  C   UNL A   1      28.378  30.520  21.805  1.00  0.00     0.004 A 
ENDBRANCH  67  70
BRANCH  69  80
ATOM     80  C   UNL A   1      31.674  24.546  25.677  1.00  0.00     0.068 A 
ATOM     81  C   UNL A   1      30.588  23.710  25.980  1.00  0.00     0.028 A 
ATOM     82  C   UNL A   1      32.868  24.018  25.184  1.00  0.00     0.044 A 
ATOM     83  C   UNL A   1      30.721  22.328  25.859  1.00  0.00     0.003 A 
ATOM     84  C   UNL A   1      32.998  22.631  25.101  1.00  0.00     0.020 A 
ATOM     85  C   UNL A   1      31.937  21.787  25.445  1.00  0.00     0.016 A 
ATOM     86  Br  UNL A   1      34.652  21.872  24.587  1.00  0.00    -0.051 Br
ENDBRANCH  69  80
ENDBRANCH  63  65
ENDBRANCH  62  63
ENDBRANCH  61  62
ENDBRANCH   1  61
TORSDOF 13
ENDMDL
MODEL 3
REMARK VINA RESULT:     -11.9      3.223      7.747
REMARK SMILES O=C(OCCOC(=O)c1nnn(-c2cccc(Br)c2)c1[C@@H]1COc2ccccc2O1)c1ccc(-c2c3nc(c(-c4c(F)cccc4F)c4ccc([nH]4)c(-c4c(F)cccc4F)c4nc(c(-c5c(F)cccc5F)c5ccc2[nH]5)C=C4)C=C3)cc1
REMARK SMILES IDX 4 1 3 2 2 3 1 4 31 5 32 6 84 7 33 8 83 9 34 10 35 11 36 12
REMARK SMILES IDX 77 13 37 14 82 15 76 16 78 17 38 18 81 19 75 20 74 21 39 23
REMARK SMILES IDX 65 24 48 25 64 26 49 27 52 28 63 29 79 30 50 31 51 32 62 34
REMARK SMILES IDX 80 35 53 36 40 37 41 38 46 39 42 40 43 41 45 42 47 43 44 44
REMARK SMILES IDX 66 45 67 46 72 47 68 48 69 49 71 50 73 51 70 52 54 53 55 54
REMARK SMILES IDX 60 55 56 56 57 57 59 58 61 59 58 60 5 61 6 62 7 63 8 64 9 65
REMARK SMILES IDX 10 66 20 67 11 68 12 69 21 70 22 71 30 72 23 73 29 74 24 75
REMARK SMILES IDX 28 76 25 77 27 78 26 79 13 80 14 81 19 82 15 83 17 84 16 85
REMARK SMILES IDX 18 86
REMARK H PARENT 78 22 52 33
REMARK Flexibility Score: inf
ROOT
ATOM      1  C   UNL A   1      39.168  19.782  25.774  1.00  0.00     0.275 C 
ENDROOT
BRANCH   1   2
ATOM      2  O   UNL A   1      40.418  19.646  25.081  1.00  0.00    -0.458 OA
BRANCH   2   3
ATOM      3  C   UNL A   1      41.507  19.391  25.837  1.00  0.00     0.338 C 
ATOM      4  O   UNL A   1      42.161  18.363  25.782  1.00  0.00    -0.246 OA
BRANCH   3   5
ATOM      5  C   UNL A   1      41.926  20.598  26.572  1.00  0.00     0.060 A 
ATOM      6  C   UNL A   1      41.805  20.701  27.966  1.00  0.00     0.016 A 
ATOM      7  C   UNL A   1      42.392  21.670  25.809  1.00  0.00     0.016 A 
ATOM      8  C   UNL A   1      41.985  21.916  28.580  1.00  0.00     0.010 A 
ATOM      9  C   UNL A   1      42.580  22.890  26.421  1.00  0.00     0.010 A 
ATOM     10  C   UNL A   1      42.301  23.010  27.784  1.00  0.00    -0.014 A 
BRANCH  10  11
ATOM     11  C   UNL A   1      42.350  24.301  28.433  1.00  0.00     0.031 A 
ATOM     12  C   UNL A   1      41.160  25.154  28.191  1.00  0.00     0.074 A 
ATOM     13  C   UNL A   1      43.372  24.587  29.262  1.00  0.00     0.049 A 
ATOM     14  N   UNL A   1      41.117  26.343  27.686  1.00  0.00    -0.248 NA
ATOM     15  C   UNL A   1      39.835  24.555  28.427  1.00  0.00     0.031 C 
ATOM     16  C   UNL A   1      44.428  23.677  29.718  1.00  0.00     0.029 A 
ATOM     17  N   UNL A   1      43.614  25.713  29.979  1.00  0.00    -0.354 N 
ATOM     18  C   UNL A   1      39.778  26.726  27.749  1.00  0.00     0.074 A 
ATOM     19  C   UNL A   1      39.024  25.538  28.040  1.00  0.00     0.031 C 
ATOM     20  C   UNL A   1      45.024  24.201  30.809  1.00  0.00     0.029 A 
ATOM     21  C   UNL A   1      44.480  25.524  31.048  1.00  0.00     0.049 A 
ATOM     22  H   UNL A   1      43.213  26.585  29.761  1.00  0.00     0.167 HD
ATOM     23  C   UNL A   1      39.434  28.039  27.843  1.00  0.00     0.037 A 
ATOM     24  C   UNL A   1      44.641  26.365  32.100  1.00  0.00     0.037 A 
ATOM     25  C   UNL A   1      40.483  28.888  27.336  1.00  0.00     0.049 A 
ATOM     26  C   UNL A   1      44.081  27.684  31.706  1.00  0.00     0.074 A 
ATOM     27  C   UNL A   1      41.142  28.999  26.126  1.00  0.00     0.029 A 
ATOM     28  N   UNL A   1      41.261  29.566  28.242  1.00  0.00    -0.354 N 
ATOM     29  N   UNL A   1      44.618  28.462  30.807  1.00  0.00    -0.248 NA
ATOM     30  C   UNL A   1      42.669  27.923  31.971  1.00  0.00     0.031 C 
ATOM     31  C   UNL A   1      42.493  29.295  26.465  1.00  0.00     0.029 A 
ATOM     32  C   UNL A   1      42.566  29.414  27.854  1.00  0.00     0.049 A 
ATOM     33  H   UNL A   1      40.940  30.069  29.025  1.00  0.00     0.167 HD
ATOM     34  C   UNL A   1      43.543  28.973  30.095  1.00  0.00     0.074 A 
ATOM     35  C   UNL A   1      42.367  28.675  30.910  1.00  0.00     0.031 C 
ATOM     36  C   UNL A   1      43.668  29.323  28.781  1.00  0.00     0.037 A 
BRANCH  23  37
ATOM     37  C   UNL A   1      38.362  28.548  28.781  1.00  0.00     0.057 A 
ATOM     38  C   UNL A   1      37.478  29.543  28.326  1.00  0.00     0.134 A 
ATOM     39  C   UNL A   1      38.360  28.348  30.178  1.00  0.00     0.134 A 
ATOM     40  F   UNL A   1      37.380  29.831  27.019  1.00  0.00    -0.206 F 
ATOM     41  C   UNL A   1      36.739  30.350  29.200  1.00  0.00     0.040 A 
ATOM     42  C   UNL A   1      37.588  29.114  31.055  1.00  0.00     0.040 A 
ATOM     43  F   UNL A   1      39.170  27.477  30.789  1.00  0.00    -0.206 F 
ATOM     44  C   UNL A   1      36.804  30.146  30.571  1.00  0.00     0.006 A 
ENDBRANCH  23  37
BRANCH  24  45
ATOM     45  C   UNL A   1      44.928  26.010  33.509  1.00  0.00     0.057 A 
ATOM     46  C   UNL A   1      44.145  25.069  34.192  1.00  0.00     0.134 A 
ATOM     47  C   UNL A   1      46.125  26.388  34.145  1.00  0.00     0.134 A 
ATOM     48  F   UNL A   1      43.006  24.611  33.649  1.00  0.00    -0.206 F 
ATOM     49  C   UNL A   1      44.536  24.524  35.422  1.00  0.00     0.040 A 
ATOM     50  C   UNL A   1      46.522  25.861  35.378  1.00  0.00     0.040 A 
ATOM     51  F   UNL A   1      46.997  27.217  33.553  1.00  0.00    -0.206 F 
ATOM     52  C   UNL A   1      45.733  24.914  36.016  1.00  0.00     0.006 A 
ENDBRANCH  24  45
BRANCH  36  53
ATOM     53  C   UNL A   1      45.051  29.370  28.192  1.00  0.00     0.057 A 
ATOM     54  C   UNL A   1      45.696  28.264  27.616  1.00  0.00     0.134 A 
ATOM     55  C   UNL A   1      45.686  30.609  28.065  1.00  0.00     0.134 A 
ATOM     56  F   UNL A   1      45.117  27.058  27.591  1.00  0.00    -0.206 F 
ATOM     57  C   UNL A   1      46.939  28.380  26.987  1.00  0.00     0.040 A 
ATOM     58  C   UNL A   1      46.911  30.744  27.407  1.00  0.00     0.040 A 
ATOM     59  F   UNL A   1      45.100  31.721  28.536  1.00  0.00    -0.206 F 
ATOM     60  C   UNL A   1      47.548  29.626  26.876  1.00  0.00     0.006 A 
ENDBRANCH  36  53
ENDBRANCH  10  11
ENDBRANCH   3   5
ENDBRANCH   2   3
ENDBRANCH   1   2
BRANCH   1  61
ATOM     61  C   UNL A   1      38.513  21.158  25.699  1.00  0.00     0.275 C 
BRANCH  61  62
ATOM     62  O   UNL A   1      37.113  21.118  26.041  1.00  0.00    -0.457 OA
BRANCH  62  63
ATOM     63  C   UNL A   1      36.267  20.817  25.008  1.00  0.00     0.361 C 
ATOM     64  O   UNL A   1      35.923  19.683  24.687  1.00  0.00    -0.244 OA
BRANCH  63  65
ATOM     65  C   UNL A   1      35.887  21.976  24.225  1.00  0.00     0.198 A 
ATOM     66  N   UNL A   1      36.730  22.644  23.369  1.00  0.00    -0.122 NA
ATOM     67  C   UNL A   1      34.655  22.606  24.223  1.00  0.00     0.123 A 
ATOM     68  N   UNL A   1      36.065  23.672  22.847  1.00  0.00    -0.061 NA
ATOM     69  N   UNL A   1      34.873  23.748  23.476  1.00  0.00    -0.213 N 
BRANCH  67  70
ATOM     70  C   UNL A   1      33.306  22.195  24.714  1.00  0.00     0.262 C 
ATOM     71  C   UNL A   1      33.217  21.784  26.183  1.00  0.00     0.281 C 
ATOM     72  O   UNL A   1      32.807  21.246  23.770  1.00  0.00    -0.477 OA
ATOM     73  O   UNL A   1      33.568  20.431  26.448  1.00  0.00    -0.485 OA
ATOM     74  C   UNL A   1      32.723  19.964  24.223  1.00  0.00     0.162 A 
ATOM     75  C   UNL A   1      33.048  19.575  25.521  1.00  0.00     0.161 A 
ATOM     76  C   UNL A   1      32.334  19.008  23.285  1.00  0.00     0.050 A 
ATOM     77  C   UNL A   1      32.953  18.234  25.892  1.00  0.00     0.050 A 
ATOM     78  C   UNL A   1      32.263  17.662  23.646  1.00  0.00     0.004 A 
ATOM     79  C   UNL A   1      32.562  17.276  24.952  1.00  0.00     0.004 A 
ENDBRANCH  67  70
BRANCH  69  80
ATOM     80  C   UNL A   1      34.006  24.853  23.331  1.00  0.00     0.068 A 
ATOM     81  C   UNL A   1      33.223  24.959  22.171  1.00  0.00     0.028 A 
ATOM     82  C   UNL A   1      34.029  25.880  24.276  1.00  0.00     0.044 A 
ATOM     83  C   UNL A   1      32.515  26.132  21.916  1.00  0.00     0.003 A 
ATOM     84  C   UNL A   1      33.343  27.061  23.990  1.00  0.00     0.020 A 
ATOM     85  C   UNL A   1      32.597  27.195  22.814  1.00  0.00     0.016 A 
ATOM     86  Br  UNL A   1      33.478  28.533  25.170  1.00  0.00    -0.051 Br
ENDBRANCH  69  80
ENDBRANCH  63  65
ENDBRANCH  62  63
ENDBRANCH  61  62
ENDBRANCH   1  61
TORSDOF 13
ENDMDL
