MODEL 1
REMARK VINA RESULT:     -11.7      0.000      0.000
REMARK SMILES O=C(OCCOC(=O)C1CCN(C(=O)COc2ccc(Cl)cc2Cl)CC1)c1ccc(-c2c3nc(c(-c4c(F)cccc4F)c4ccc([nH]4)c(-c4c(F)cccc4F)c4nc(c(-c5c(F)cccc5F)c5ccc2[nH]5)C=C4)C=C3)cc1
REMARK SMILES IDX 5 1 4 2 3 3 2 4 1 5 27 6 28 7 80 8 29 9 79 10 30 11 31 12
REMARK SMILES IDX 32 13 73 14 33 15 78 16 72 17 74 18 34 19 77 20 71 21 70 22
REMARK SMILES IDX 35 24 61 25 44 26 60 27 45 28 48 29 59 30 75 31 46 32 47 33
REMARK SMILES IDX 58 35 76 36 49 37 36 38 37 39 42 40 38 41 39 42 41 43 43 44
REMARK SMILES IDX 40 45 62 46 63 47 68 48 64 49 65 50 67 51 69 52 66 53 50 54
REMARK SMILES IDX 51 55 56 56 52 57 53 58 55 59 57 60 54 61 6 62 7 63 8 64
REMARK SMILES IDX 9 65 10 66 26 67 11 68 25 69 12 70 13 71 14 72 15 73 16 74
REMARK SMILES IDX 17 75 18 76 23 77 19 78 22 79 24 80 20 81 21 82
REMARK H PARENT 74 23 48 34
REMARK Flexibility Score: inf
ROOT
ATOM      1  C   UNL A   1      31.987  30.950  26.410  1.00  0.00     0.274 C 
ENDROOT
BRANCH   1   2
ATOM      2  C   UNL A   1      31.360  32.194  27.052  1.00  0.00     0.275 C 
BRANCH   2   3
ATOM      3  O   UNL A   1      32.160  33.376  26.994  1.00  0.00    -0.458 OA
BRANCH   3   4
ATOM      4  C   UNL A   1      32.917  33.941  27.958  1.00  0.00     0.338 C 
ATOM      5  O   UNL A   1      32.552  35.022  28.420  1.00  0.00    -0.246 OA
BRANCH   4   6
ATOM      6  C   UNL A   1      34.245  33.406  28.413  1.00  0.00     0.060 A 
ATOM      7  C   UNL A   1      35.517  33.968  28.244  1.00  0.00     0.016 A 
ATOM      8  C   UNL A   1      34.168  32.220  29.149  1.00  0.00     0.016 A 
ATOM      9  C   UNL A   1      36.649  33.436  28.886  1.00  0.00     0.010 A 
ATOM     10  C   UNL A   1      35.270  31.736  29.844  1.00  0.00     0.010 A 
ATOM     11  C   UNL A   1      36.531  32.340  29.735  1.00  0.00    -0.014 A 
BRANCH  11  12
ATOM     12  C   UNL A   1      37.681  31.769  30.494  1.00  0.00     0.031 A 
ATOM     13  C   UNL A   1      38.470  30.651  29.862  1.00  0.00     0.074 A 
ATOM     14  C   UNL A   1      37.940  32.127  31.772  1.00  0.00     0.049 A 
ATOM     15  N   UNL A   1      39.405  29.893  30.375  1.00  0.00    -0.248 NA
ATOM     16  C   UNL A   1      38.106  30.290  28.479  1.00  0.00     0.031 C 
ATOM     17  C   UNL A   1      37.204  33.119  32.561  1.00  0.00     0.029 A 
ATOM     18  N   UNL A   1      38.884  31.655  32.654  1.00  0.00    -0.354 N 
ATOM     19  C   UNL A   1      39.696  28.963  29.388  1.00  0.00     0.074 A 
ATOM     20  C   UNL A   1      38.725  29.133  28.335  1.00  0.00     0.031 C 
ATOM     21  C   UNL A   1      37.702  33.158  33.810  1.00  0.00     0.029 A 
ATOM     22  C   UNL A   1      38.807  32.211  33.910  1.00  0.00     0.049 A 
ATOM     23  H   UNL A   1      39.556  30.979  32.409  1.00  0.00     0.167 HD
ATOM     24  C   UNL A   1      40.751  28.121  29.294  1.00  0.00     0.037 A 
ATOM     25  C   UNL A   1      39.557  31.993  35.008  1.00  0.00     0.037 A 
ATOM     26  C   UNL A   1      41.769  28.023  30.297  1.00  0.00     0.049 A 
ATOM     27  C   UNL A   1      40.735  31.060  34.903  1.00  0.00     0.074 A 
ATOM     28  C   UNL A   1      42.954  27.315  30.265  1.00  0.00     0.029 A 
ATOM     29  N   UNL A   1      41.713  28.674  31.520  1.00  0.00    -0.354 N 
ATOM     30  N   UNL A   1      41.115  30.315  33.893  1.00  0.00    -0.248 NA
ATOM     31  C   UNL A   1      41.624  30.977  36.072  1.00  0.00     0.031 C 
ATOM     32  C   UNL A   1      43.611  27.525  31.482  1.00  0.00     0.029 A 
ATOM     33  C   UNL A   1      42.847  28.387  32.256  1.00  0.00     0.049 A 
ATOM     34  H   UNL A   1      40.976  29.254  31.819  1.00  0.00     0.167 HD
ATOM     35  C   UNL A   1      42.316  29.733  34.275  1.00  0.00     0.074 A 
ATOM     36  C   UNL A   1      42.597  30.200  35.617  1.00  0.00     0.031 C 
ATOM     37  C   UNL A   1      43.123  28.902  33.573  1.00  0.00     0.037 A 
BRANCH  24  38
ATOM     38  C   UNL A   1      40.874  27.346  28.015  1.00  0.00     0.057 A 
ATOM     39  C   UNL A   1      40.348  26.047  27.900  1.00  0.00     0.134 A 
ATOM     40  C   UNL A   1      41.582  27.854  26.922  1.00  0.00     0.134 A 
ATOM     41  F   UNL A   1      39.672  25.495  28.919  1.00  0.00    -0.206 F 
ATOM     42  C   UNL A   1      40.590  25.256  26.778  1.00  0.00     0.040 A 
ATOM     43  C   UNL A   1      41.795  27.084  25.776  1.00  0.00     0.040 A 
ATOM     44  F   UNL A   1      42.101  29.089  26.957  1.00  0.00    -0.206 F 
ATOM     45  C   UNL A   1      41.317  25.775  25.711  1.00  0.00     0.006 A 
ENDBRANCH  24  38
BRANCH  25  46
ATOM     46  C   UNL A   1      39.301  32.740  36.269  1.00  0.00     0.057 A 
ATOM     47  C   UNL A   1      38.385  32.259  37.214  1.00  0.00     0.134 A 
ATOM     48  C   UNL A   1      39.921  33.963  36.543  1.00  0.00     0.134 A 
ATOM     49  F   UNL A   1      37.748  31.098  37.002  1.00  0.00    -0.206 F 
ATOM     50  C   UNL A   1      38.066  32.983  38.364  1.00  0.00     0.040 A 
ATOM     51  C   UNL A   1      39.624  34.691  37.700  1.00  0.00     0.040 A 
ATOM     52  F   UNL A   1      40.817  34.476  35.688  1.00  0.00    -0.206 F 
ATOM     53  C   UNL A   1      38.686  34.205  38.609  1.00  0.00     0.006 A 
ENDBRANCH  25  46
BRANCH  37  54
ATOM     54  C   UNL A   1      44.424  28.504  34.199  1.00  0.00     0.057 A 
ATOM     55  C   UNL A   1      44.560  27.328  34.943  1.00  0.00     0.134 A 
ATOM     56  C   UNL A   1      45.575  29.273  33.978  1.00  0.00     0.134 A 
ATOM     57  F   UNL A   1      43.492  26.558  35.200  1.00  0.00    -0.206 F 
ATOM     58  C   UNL A   1      45.797  26.932  35.454  1.00  0.00     0.040 A 
ATOM     59  C   UNL A   1      46.821  28.873  34.459  1.00  0.00     0.040 A 
ATOM     60  F   UNL A   1      45.511  30.408  33.266  1.00  0.00    -0.206 F 
ATOM     61  C   UNL A   1      46.933  27.700  35.201  1.00  0.00     0.006 A 
ENDBRANCH  37  54
ENDBRANCH  11  12
ENDBRANCH   4   6
ENDBRANCH   3   4
ENDBRANCH   2   3
ENDBRANCH   1   2
BRANCH   1  62
ATOM     62  O   UNL A   1      32.380  29.892  27.314  1.00  0.00    -0.462 OA
BRANCH  62  63
ATOM     63  C   UNL A   1      31.863  28.669  27.011  1.00  0.00     0.309 C 
ATOM     64  O   UNL A   1      31.361  27.927  27.846  1.00  0.00    -0.252 OA
BRANCH  63  65
ATOM     65  C   UNL A   1      32.054  28.217  25.558  1.00  0.00     0.103 C 
ATOM     66  C   UNL A   1      30.866  27.641  24.794  1.00  0.00     0.037 C 
ATOM     67  C   UNL A   1      33.338  27.403  25.385  1.00  0.00     0.037 C 
ATOM     68  C   UNL A   1      30.885  26.159  24.433  1.00  0.00     0.120 C 
ATOM     69  C   UNL A   1      33.121  25.911  25.519  1.00  0.00     0.120 C 
ATOM     70  N   UNL A   1      32.121  25.409  24.590  1.00  0.00    -0.340 N 
ATOM     71  C   UNL A   1      32.100  24.105  24.091  1.00  0.00     0.260 C 
ATOM     72  O   UNL A   1      31.071  23.621  23.606  1.00  0.00    -0.271 OA
BRANCH  71  73
ATOM     73  C   UNL A   1      33.367  23.228  24.130  1.00  0.00     0.329 C 
BRANCH  73  74
ATOM     74  O   UNL A   1      33.622  22.268  25.131  1.00  0.00    -0.482 OA
BRANCH  74  75
ATOM     75  C   UNL A   1      33.528  20.931  24.863  1.00  0.00     0.138 A 
ATOM     76  C   UNL A   1      32.358  20.257  24.503  1.00  0.00     0.049 A 
ATOM     77  C   UNL A   1      34.734  20.210  24.909  1.00  0.00     0.084 A 
ATOM     78  C   UNL A   1      32.409  18.919  24.100  1.00  0.00     0.024 A 
ATOM     79  C   UNL A   1      34.782  18.865  24.539  1.00  0.00     0.045 A 
ATOM     80  Cl  UNL A   1      36.210  20.961  25.414  1.00  0.00    -0.080 Cl
ATOM     81  C   UNL A   1      33.620  18.234  24.111  1.00  0.00     0.042 A 
ATOM     82  Cl  UNL A   1      33.676  16.596  23.593  1.00  0.00    -0.084 Cl
ENDBRANCH  74  75
ENDBRANCH  73  74
ENDBRANCH  71  73
ENDBRANCH  63  65
ENDBRANCH  62  63
ENDBRANCH   1  62
TORSDOF 14
ENDMDL
MODEL 2
REMARK VINA RESULT:     -11.7      1.737      6.605
REMARK SMILES O=C(OCCOC(=O)C1CCN(C(=O)COc2ccc(Cl)cc2Cl)CC1)c1ccc(-c2c3nc(c(-c4c(F)cccc4F)c4ccc([nH]4)c(-c4c(F)cccc4F)c4nc(c(-c5c(F)cccc5F)c5ccc2[nH]5)C=C4)C=C3)cc1
REMARK SMILES IDX 5 1 4 2 3 3 2 4 1 5 27 6 28 7 80 8 29 9 79 10 30 11 31 12
REMARK SMILES IDX 32 13 73 14 33 15 78 16 72 17 74 18 34 19 77 20 71 21 70 22
REMARK SMILES IDX 35 24 61 25 44 26 60 27 45 28 48 29 59 30 75 31 46 32 47 33
REMARK SMILES IDX 58 35 76 36 49 37 36 38 37 39 42 40 38 41 39 42 41 43 43 44
REMARK SMILES IDX 40 45 62 46 63 47 68 48 64 49 65 50 67 51 69 52 66 53 50 54
REMARK SMILES IDX 51 55 56 56 52 57 53 58 55 59 57 60 54 61 6 62 7 63 8 64
REMARK SMILES IDX 9 65 10 66 26 67 11 68 25 69 12 70 13 71 14 72 15 73 16 74
REMARK SMILES IDX 17 75 18 76 23 77 19 78 22 79 24 80 20 81 21 82
REMARK H PARENT 74 23 48 34
REMARK Flexibility Score: inf
ROOT
ATOM      1  C   UNL A   1      31.915  30.910  26.612  1.00  0.00     0.274 C 
ENDROOT
BRANCH   1   2
ATOM      2  C   UNL A   1      31.380  32.325  26.872  1.00  0.00     0.275 C 
BRANCH   2   3
ATOM      3  O   UNL A   1      32.375  33.347  26.941  1.00  0.00    -0.458 OA
BRANCH   3   4
ATOM      4  C   UNL A   1      33.134  33.728  27.990  1.00  0.00     0.338 C 
ATOM      5  O   UNL A   1      32.772  34.708  28.640  1.00  0.00    -0.246 OA
BRANCH   4   6
ATOM      6  C   UNL A   1      34.461  33.116  28.339  1.00  0.00     0.060 A 
ATOM      7  C   UNL A   1      35.729  33.711  28.317  1.00  0.00     0.016 A 
ATOM      8  C   UNL A   1      34.387  31.798  28.798  1.00  0.00     0.016 A 
ATOM      9  C   UNL A   1      36.858  33.062  28.846  1.00  0.00     0.010 A 
ATOM     10  C   UNL A   1      35.485  31.183  29.389  1.00  0.00     0.010 A 
ATOM     11  C   UNL A   1      36.740  31.806  29.434  1.00  0.00    -0.014 A 
BRANCH  11  12
ATOM     12  C   UNL A   1      37.886  31.092  30.069  1.00  0.00     0.031 A 
ATOM     13  C   UNL A   1      38.263  31.462  31.481  1.00  0.00     0.074 A 
ATOM     14  C   UNL A   1      38.669  30.239  29.373  1.00  0.00     0.049 A 
ATOM     15  N   UNL A   1      39.302  31.102  32.190  1.00  0.00    -0.248 NA
ATOM     16  C   UNL A   1      37.383  32.428  32.165  1.00  0.00     0.031 C 
ATOM     17  C   UNL A   1      38.500  29.855  27.968  1.00  0.00     0.029 A 
ATOM     18  N   UNL A   1      39.807  29.564  29.752  1.00  0.00    -0.354 N 
ATOM     19  C   UNL A   1      39.201  31.827  33.369  1.00  0.00     0.074 A 
ATOM     20  C   UNL A   1      38.121  32.768  33.205  1.00  0.00     0.031 C 
ATOM     21  C   UNL A   1      39.508  29.044  27.599  1.00  0.00     0.029 A 
ATOM     22  C   UNL A   1      40.386  28.829  28.743  1.00  0.00     0.049 A 
ATOM     23  H   UNL A   1      40.174  29.604  30.664  1.00  0.00     0.167 HD
ATOM     24  C   UNL A   1      39.858  31.649  34.539  1.00  0.00     0.037 A 
ATOM     25  C   UNL A   1      41.490  28.055  28.751  1.00  0.00     0.037 A 
ATOM     26  C   UNL A   1      40.864  30.647  34.729  1.00  0.00     0.049 A 
ATOM     27  C   UNL A   1      42.219  27.853  30.054  1.00  0.00     0.074 A 
ATOM     28  C   UNL A   1      41.507  30.273  35.893  1.00  0.00     0.029 A 
ATOM     29  N   UNL A   1      41.363  29.850  33.711  1.00  0.00    -0.354 N 
ATOM     30  N   UNL A   1      42.000  28.408  31.221  1.00  0.00    -0.248 NA
ATOM     31  C   UNL A   1      43.316  26.873  30.056  1.00  0.00     0.031 C 
ATOM     32  C   UNL A   1      42.413  29.255  35.573  1.00  0.00     0.029 A 
ATOM     33  C   UNL A   1      42.308  28.979  34.218  1.00  0.00     0.049 A 
ATOM     34  H   UNL A   1      41.084  29.897  32.767  1.00  0.00     0.167 HD
ATOM     35  C   UNL A   1      42.878  27.799  32.107  1.00  0.00     0.074 A 
ATOM     36  C   UNL A   1      43.646  26.839  31.339  1.00  0.00     0.031 C 
ATOM     37  C   UNL A   1      43.025  28.001  33.439  1.00  0.00     0.037 A 
BRANCH  24  38
ATOM     38  C   UNL A   1      39.408  32.497  35.692  1.00  0.00     0.057 A 
ATOM     39  C   UNL A   1      40.021  33.732  35.968  1.00  0.00     0.134 A 
ATOM     40  C   UNL A   1      38.421  32.055  36.578  1.00  0.00     0.134 A 
ATOM     41  F   UNL A   1      40.987  34.205  35.165  1.00  0.00    -0.206 F 
ATOM     42  C   UNL A   1      39.724  34.455  37.121  1.00  0.00     0.040 A 
ATOM     43  C   UNL A   1      38.088  32.792  37.717  1.00  0.00     0.040 A 
ATOM     44  F   UNL A   1      37.787  30.892  36.371  1.00  0.00    -0.206 F 
ATOM     45  C   UNL A   1      38.754  33.985  38.002  1.00  0.00     0.006 A 
ENDBRANCH  24  38
BRANCH  25  46
ATOM     46  C   UNL A   1      41.920  27.325  27.529  1.00  0.00     0.057 A 
ATOM     47  C   UNL A   1      42.727  27.947  26.568  1.00  0.00     0.134 A 
ATOM     48  C   UNL A   1      41.503  26.016  27.265  1.00  0.00     0.134 A 
ATOM     49  F   UNL A   1      43.148  29.206  26.757  1.00  0.00    -0.206 F 
ATOM     50  C   UNL A   1      43.074  27.311  25.374  1.00  0.00     0.040 A 
ATOM     51  C   UNL A   1      41.857  25.360  26.081  1.00  0.00     0.040 A 
ATOM     52  F   UNL A   1      40.738  25.356  28.146  1.00  0.00    -0.206 F 
ATOM     53  C   UNL A   1      42.636  26.012  25.128  1.00  0.00     0.006 A 
ENDBRANCH  25  46
BRANCH  37  54
ATOM     54  C   UNL A   1      43.989  27.121  34.173  1.00  0.00     0.057 A 
ATOM     55  C   UNL A   1      43.598  25.904  34.738  1.00  0.00     0.134 A 
ATOM     56  C   UNL A   1      45.346  27.466  34.238  1.00  0.00     0.134 A 
ATOM     57  F   UNL A   1      42.311  25.527  34.721  1.00  0.00    -0.206 F 
ATOM     58  C   UNL A   1      44.525  25.059  35.351  1.00  0.00     0.040 A 
ATOM     59  C   UNL A   1      46.285  26.617  34.823  1.00  0.00     0.040 A 
ATOM     60  F   UNL A   1      45.784  28.618  33.708  1.00  0.00    -0.206 F 
ATOM     61  C   UNL A   1      45.874  25.410  35.383  1.00  0.00     0.006 A 
ENDBRANCH  37  54
ENDBRANCH  11  12
ENDBRANCH   4   6
ENDBRANCH   3   4
ENDBRANCH   2   3
ENDBRANCH   1   2
BRANCH   1  62
ATOM     62  O   UNL A   1      31.520  30.296  25.364  1.00  0.00    -0.462 OA
BRANCH  62  63
ATOM     63  C   UNL A   1      32.364  29.322  24.923  1.00  0.00     0.309 C 
ATOM     64  O   UNL A   1      33.450  29.092  25.439  1.00  0.00    -0.252 OA
BRANCH  63  65
ATOM     65  C   UNL A   1      31.919  28.595  23.648  1.00  0.00     0.103 C 
ATOM     66  C   UNL A   1      30.551  27.918  23.615  1.00  0.00     0.037 C 
ATOM     67  C   UNL A   1      33.039  27.726  23.074  1.00  0.00     0.037 C 
ATOM     68  C   UNL A   1      30.497  26.395  23.564  1.00  0.00     0.120 C 
ATOM     69  C   UNL A   1      32.993  26.294  23.564  1.00  0.00     0.120 C 
ATOM     70  N   UNL A   1      31.717  25.653  23.288  1.00  0.00    -0.340 N 
ATOM     71  C   UNL A   1      31.555  24.279  23.101  1.00  0.00     0.260 C 
ATOM     72  O   UNL A   1      30.449  23.741  23.224  1.00  0.00    -0.271 OA
BRANCH  71  73
ATOM     73  C   UNL A   1      32.759  23.388  22.732  1.00  0.00     0.329 C 
BRANCH  73  74
ATOM     74  O   UNL A   1      33.365  22.483  23.627  1.00  0.00    -0.482 OA
BRANCH  74  75
ATOM     75  C   UNL A   1      34.577  22.760  24.194  1.00  0.00     0.138 A 
ATOM     76  C   UNL A   1      35.817  22.602  23.571  1.00  0.00     0.049 A 
ATOM     77  C   UNL A   1      34.538  23.296  25.493  1.00  0.00     0.084 A 
ATOM     78  C   UNL A   1      36.982  23.064  24.191  1.00  0.00     0.024 A 
ATOM     79  C   UNL A   1      35.704  23.728  26.127  1.00  0.00     0.045 A 
ATOM     80  Cl  UNL A   1      33.045  23.456  26.354  1.00  0.00    -0.080 Cl
ATOM     81  C   UNL A   1      36.919  23.632  25.460  1.00  0.00     0.042 A 
ATOM     82  Cl  UNL A   1      38.354  24.217  26.204  1.00  0.00    -0.084 Cl
ENDBRANCH  74  75
ENDBRANCH  73  74
ENDBRANCH  71  73
ENDBRANCH  63  65
ENDBRANCH  62  63
ENDBRANCH   1  62
TORSDOF 14
ENDMDL
MODEL 3
REMARK VINA RESULT:     -11.7      1.289      6.496
REMARK SMILES O=C(OCCOC(=O)C1CCN(C(=O)COc2ccc(Cl)cc2Cl)CC1)c1ccc(-c2c3nc(c(-c4c(F)cccc4F)c4ccc([nH]4)c(-c4c(F)cccc4F)c4nc(c(-c5c(F)cccc5F)c5ccc2[nH]5)C=C4)C=C3)cc1
REMARK SMILES IDX 5 1 4 2 3 3 2 4 1 5 27 6 28 7 80 8 29 9 79 10 30 11 31 12
REMARK SMILES IDX 32 13 73 14 33 15 78 16 72 17 74 18 34 19 77 20 71 21 70 22
REMARK SMILES IDX 35 24 61 25 44 26 60 27 45 28 48 29 59 30 75 31 46 32 47 33
REMARK SMILES IDX 58 35 76 36 49 37 36 38 37 39 42 40 38 41 39 42 41 43 43 44
REMARK SMILES IDX 40 45 62 46 63 47 68 48 64 49 65 50 67 51 69 52 66 53 50 54
REMARK SMILES IDX 51 55 56 56 52 57 53 58 55 59 57 60 54 61 6 62 7 63 8 64
REMARK SMILES IDX 9 65 10 66 26 67 11 68 25 69 12 70 13 71 14 72 15 73 16 74
REMARK SMILES IDX 17 75 18 76 23 77 19 78 22 79 24 80 20 81 21 82
REMARK H PARENT 74 23 48 34
REMARK Flexibility Score: inf
ROOT
ATOM      1  C   UNL A   1      31.405  31.494  26.494  1.00  0.00     0.274 C 
ENDROOT
BRANCH   1   2
ATOM      2  C   UNL A   1      31.799  32.977  26.528  1.00  0.00     0.275 C 
BRANCH   2   3
ATOM      3  O   UNL A   1      32.021  33.516  27.832  1.00  0.00    -0.458 OA
BRANCH   3   4
ATOM      4  C   UNL A   1      33.095  34.180  28.309  1.00  0.00     0.338 C 
ATOM      5  O   UNL A   1      33.034  35.406  28.374  1.00  0.00    -0.246 OA
BRANCH   4   6
ATOM      6  C   UNL A   1      34.410  33.532  28.641  1.00  0.00     0.060 A 
ATOM      7  C   UNL A   1      35.681  34.118  28.700  1.00  0.00     0.016 A 
ATOM      8  C   UNL A   1      34.317  32.182  28.990  1.00  0.00     0.016 A 
ATOM      9  C   UNL A   1      36.792  33.419  29.204  1.00  0.00     0.010 A 
ATOM     10  C   UNL A   1      35.396  31.513  29.557  1.00  0.00     0.010 A 
ATOM     11  C   UNL A   1      36.652  32.121  29.685  1.00  0.00    -0.014 A 
BRANCH  11  12
ATOM     12  C   UNL A   1      37.777  31.351  30.290  1.00  0.00     0.031 A 
ATOM     13  C   UNL A   1      38.189  31.678  31.703  1.00  0.00     0.074 A 
ATOM     14  C   UNL A   1      38.516  30.480  29.567  1.00  0.00     0.049 A 
ATOM     15  N   UNL A   1      39.222  31.263  32.390  1.00  0.00    -0.248 NA
ATOM     16  C   UNL A   1      37.357  32.664  32.418  1.00  0.00     0.031 C 
ATOM     17  C   UNL A   1      38.312  30.130  28.157  1.00  0.00     0.029 A 
ATOM     18  N   UNL A   1      39.631  29.753  29.916  1.00  0.00    -0.354 N 
ATOM     19  C   UNL A   1      39.167  31.969  33.584  1.00  0.00     0.074 A 
ATOM     20  C   UNL A   1      38.122  32.955  33.453  1.00  0.00     0.031 C 
ATOM     21  C   UNL A   1      39.281  29.287  27.759  1.00  0.00     0.029 A 
ATOM     22  C   UNL A   1      40.166  29.015  28.885  1.00  0.00     0.049 A 
ATOM     23  H   UNL A   1      40.012  29.761  30.823  1.00  0.00     0.167 HD
ATOM     24  C   UNL A   1      39.832  31.742  34.740  1.00  0.00     0.037 A 
ATOM     25  C   UNL A   1      41.237  28.198  28.863  1.00  0.00     0.037 A 
ATOM     26  C   UNL A   1      40.800  30.698  34.897  1.00  0.00     0.049 A 
ATOM     27  C   UNL A   1      41.976  27.942  30.151  1.00  0.00     0.074 A 
ATOM     28  C   UNL A   1      41.443  30.276  36.043  1.00  0.00     0.029 A 
ATOM     29  N   UNL A   1      41.252  29.901  33.856  1.00  0.00    -0.354 N 
ATOM     30  N   UNL A   1      41.795  28.483  31.331  1.00  0.00    -0.248 NA
ATOM     31  C   UNL A   1      43.033  26.919  30.119  1.00  0.00     0.031 C 
ATOM     32  C   UNL A   1      42.303  29.229  35.692  1.00  0.00     0.029 A 
ATOM     33  C   UNL A   1      42.168  28.983  34.333  1.00  0.00     0.049 A 
ATOM     34  H   UNL A   1      40.962  29.977  32.918  1.00  0.00     0.167 HD
ATOM     35  C   UNL A   1      42.661  27.822  32.193  1.00  0.00     0.074 A 
ATOM     36  C   UNL A   1      43.379  26.848  31.396  1.00  0.00     0.031 C 
ATOM     37  C   UNL A   1      42.835  27.993  33.526  1.00  0.00     0.037 A 
BRANCH  24  38
ATOM     38  C   UNL A   1      39.432  32.585  35.916  1.00  0.00     0.057 A 
ATOM     39  C   UNL A   1      40.088  33.796  36.197  1.00  0.00     0.134 A 
ATOM     40  C   UNL A   1      38.451  32.160  36.815  1.00  0.00     0.134 A 
ATOM     41  F   UNL A   1      41.052  34.252  35.381  1.00  0.00    -0.206 F 
ATOM     42  C   UNL A   1      39.839  34.510  37.367  1.00  0.00     0.040 A 
ATOM     43  C   UNL A   1      38.164  32.888  37.972  1.00  0.00     0.040 A 
ATOM     44  F   UNL A   1      37.777  31.020  36.604  1.00  0.00    -0.206 F 
ATOM     45  C   UNL A   1      38.873  34.055  38.261  1.00  0.00     0.006 A 
ENDBRANCH  24  38
BRANCH  25  46
ATOM     46  C   UNL A   1      41.621  27.475  27.621  1.00  0.00     0.057 A 
ATOM     47  C   UNL A   1      42.439  28.083  26.660  1.00  0.00     0.134 A 
ATOM     48  C   UNL A   1      41.148  26.189  27.338  1.00  0.00     0.134 A 
ATOM     49  F   UNL A   1      42.913  29.320  26.866  1.00  0.00    -0.206 F 
ATOM     50  C   UNL A   1      42.743  27.456  25.450  1.00  0.00     0.040 A 
ATOM     51  C   UNL A   1      41.459  25.542  26.138  1.00  0.00     0.040 A 
ATOM     52  F   UNL A   1      40.370  25.544  28.219  1.00  0.00    -0.206 F 
ATOM     53  C   UNL A   1      42.251  26.181  25.185  1.00  0.00     0.006 A 
ENDBRANCH  25  46
BRANCH  37  54
ATOM     54  C   UNL A   1      43.773  27.062  34.229  1.00  0.00     0.057 A 
ATOM     55  C   UNL A   1      45.134  27.349  34.372  1.00  0.00     0.134 A 
ATOM     56  C   UNL A   1      43.282  25.902  34.844  1.00  0.00     0.134 A 
ATOM     57  F   UNL A   1      45.665  28.436  33.794  1.00  0.00    -0.206 F 
ATOM     58  C   UNL A   1      45.979  26.508  35.098  1.00  0.00     0.040 A 
ATOM     59  C   UNL A   1      44.112  25.069  35.595  1.00  0.00     0.040 A 
ATOM     60  F   UNL A   1      41.984  25.576  34.749  1.00  0.00    -0.206 F 
ATOM     61  C   UNL A   1      45.465  25.372  35.722  1.00  0.00     0.006 A 
ENDBRANCH  37  54
ENDBRANCH  11  12
ENDBRANCH   4   6
ENDBRANCH   3   4
ENDBRANCH   2   3
ENDBRANCH   1   2
BRANCH   1  62
ATOM     62  O   UNL A   1      32.473  30.554  26.232  1.00  0.00    -0.462 OA
BRANCH  62  63
ATOM     63  C   UNL A   1      32.146  29.556  25.365  1.00  0.00     0.309 C 
ATOM     64  O   UNL A   1      30.992  29.215  25.141  1.00  0.00    -0.252 OA
BRANCH  63  65
ATOM     65  C   UNL A   1      33.332  28.792  24.765  1.00  0.00     0.103 C 
ATOM     66  C   UNL A   1      33.680  28.993  23.293  1.00  0.00     0.037 C 
ATOM     67  C   UNL A   1      33.332  27.323  25.192  1.00  0.00     0.037 C 
ATOM     68  C   UNL A   1      33.454  27.833  22.330  1.00  0.00     0.120 C 
ATOM     69  C   UNL A   1      32.620  26.416  24.211  1.00  0.00     0.120 C 
ATOM     70  N   UNL A   1      33.170  26.512  22.868  1.00  0.00    -0.340 N 
ATOM     71  C   UNL A   1      33.133  25.477  21.931  1.00  0.00     0.260 C 
ATOM     72  O   UNL A   1      33.278  25.699  20.724  1.00  0.00    -0.271 OA
BRANCH  71  73
ATOM     73  C   UNL A   1      32.912  24.018  22.380  1.00  0.00     0.329 C 
BRANCH  73  74
ATOM     74  O   UNL A   1      33.838  23.291  23.156  1.00  0.00    -0.482 OA
BRANCH  74  75
ATOM     75  C   UNL A   1      33.483  22.116  23.756  1.00  0.00     0.138 A 
ATOM     76  C   UNL A   1      32.529  21.217  23.274  1.00  0.00     0.049 A 
ATOM     77  C   UNL A   1      34.190  21.786  24.925  1.00  0.00     0.084 A 
ATOM     78  C   UNL A   1      32.359  19.972  23.888  1.00  0.00     0.024 A 
ATOM     79  C   UNL A   1      33.999  20.557  25.559  1.00  0.00     0.045 A 
ATOM     80  Cl  UNL A   1      35.337  22.882  25.620  1.00  0.00    -0.080 Cl
ATOM     81  C   UNL A   1      33.100  19.645  25.019  1.00  0.00     0.042 A 
ATOM     82  Cl  UNL A   1      32.899  18.103  25.753  1.00  0.00    -0.084 Cl
ENDBRANCH  74  75
ENDBRANCH  73  74
ENDBRANCH  71  73
ENDBRANCH  63  65
ENDBRANCH  62  63
ENDBRANCH   1  62
TORSDOF 14
ENDMDL
