MODEL 1
REMARK VINA RESULT:     -12.0      0.000      0.000
REMARK SMILES Cc1noc(C)c1[C@H](C)NC(=O)NC[C@@](C)(O)C(=O)OCCOC(=O)c1ccc(-c2c3nc(c(-c4c(F)cccc4F)c4ccc([nH]4)c(-c4c(F)cccc4F)c4nc(c(-c5c(F)cccc5F)c5ccc2[nH]5)C=C4)C=C3)cc1
REMARK SMILES IDX 21 1 20 2 18 3 19 4 15 5 16 6 14 7 13 8 10 9 11 10 12 12
REMARK SMILES IDX 8 14 9 15 7 16 1 17 2 18 3 19 4 20 5 21 6 22 17 23 22 25
REMARK SMILES IDX 23 26 24 27 25 28 26 29 27 30 79 31 28 32 78 33 29 34 30 35
REMARK SMILES IDX 31 36 72 37 32 38 77 39 71 40 73 41 33 42 76 43 70 44 69 45
REMARK SMILES IDX 34 47 60 48 43 49 59 50 44 51 47 52 58 53 74 54 45 55 46 56
REMARK SMILES IDX 57 58 75 59 48 60 35 61 36 62 41 63 37 64 38 65 40 66 42 67
REMARK SMILES IDX 39 68 61 69 62 70 67 71 63 72 64 73 66 74 68 75 65 76 49 77
REMARK SMILES IDX 50 78 55 79 51 80 52 81 54 82 56 83 53 84
REMARK H PARENT 10 11 13 13 17 24 73 46 47 57
REMARK Flexibility Score: inf
ROOT
ATOM      1  C   UNL A   1      44.346  21.358  25.405  1.00  0.00     0.274 C 
ENDROOT
BRANCH   1   2
ATOM      2  O   UNL A   1      42.914  21.448  25.584  1.00  0.00    -0.460 OA
BRANCH   2   3
ATOM      3  C   UNL A   1      42.237  20.288  25.866  1.00  0.00     0.339 C 
ATOM      4  O   UNL A   1      42.546  19.189  25.424  1.00  0.00    -0.249 OA
BRANCH   3   5
ATOM      5  C   UNL A   1      41.044  20.580  26.819  1.00  0.00     0.176 C 
ATOM      6  C   UNL A   1      41.480  21.822  27.604  1.00  0.00     0.057 C 
BRANCH   5   7
ATOM      7  C   UNL A   1      39.668  20.840  26.122  1.00  0.00     0.164 C 
BRANCH   7   8
ATOM      8  N   UNL A   1      39.242  22.221  25.873  1.00  0.00    -0.335 N 
ATOM      9  N   UNL A   1      36.889  22.947  26.292  1.00  0.00    -0.331 N 
ATOM     10  C   UNL A   1      38.263  23.078  26.127  1.00  0.00     0.315 C 
ATOM     11  H   UNL A   1      36.669  23.802  26.729  1.00  0.00     0.165 HD
ATOM     12  O   UNL A   1      38.651  24.259  26.134  1.00  0.00    -0.249 OA
ATOM     13  H   UNL A   1      39.924  22.670  25.323  1.00  0.00     0.165 HD
BRANCH   9  14
ATOM     14  C   UNL A   1      35.002  22.051  26.185  1.00  0.00     0.116 C 
ATOM     15  C   UNL A   1      33.912  21.828  27.524  1.00  0.00     0.036 C 
BRANCH  14  16
ATOM     16  C   UNL A   1      33.964  21.630  24.701  1.00  0.00     0.040 A 
ATOM     17  C   UNL A   1      32.688  19.072  24.686  1.00  0.00     0.071 C 
ATOM     18  C   UNL A   1      33.006  20.497  24.332  1.00  0.00     0.086 A 
ATOM     19  N   UNL A   1      32.227  20.845  23.307  1.00  0.00    -0.085 NA
ATOM     20  O   UNL A   1      32.617  22.052  22.901  1.00  0.00    -0.361 OA
ATOM     21  C   UNL A   1      33.643  22.523  23.642  1.00  0.00     0.139 A 
ATOM     22  C   UNL A   1      34.023  23.834  23.066  1.00  0.00     0.091 C 
ENDBRANCH  14  16
ENDBRANCH   9  14
ENDBRANCH   7   8
ENDBRANCH   5   7
BRANCH   5  23
ATOM     23  O   UNL A   1      40.830  19.578  27.826  1.00  0.00    -0.377 OA
ATOM     24  H   UNL A   1      41.268  19.847  28.648  1.00  0.00     0.212 HD
ENDBRANCH   5  23
ENDBRANCH   3   5
ENDBRANCH   2   3
ENDBRANCH   1   2
BRANCH   1  25
ATOM     25  C   UNL A   1      44.770  22.206  24.207  1.00  0.00     0.275 C 
BRANCH  25  26
ATOM     26  O   UNL A   1      43.991  23.408  24.238  1.00  0.00    -0.458 OA
BRANCH  26  27
ATOM     27  C   UNL A   1      44.636  24.453  24.766  1.00  0.00     0.338 C 
ATOM     28  O   UNL A   1      45.818  24.732  24.626  1.00  0.00    -0.246 OA
BRANCH  27  29
ATOM     29  C   UNL A   1      43.763  25.362  25.514  1.00  0.00     0.060 A 
ATOM     30  C   UNL A   1      44.697  26.728  26.305  1.00  0.00     0.016 A 
ATOM     31  C   UNL A   1      42.129  24.922  26.201  1.00  0.00     0.016 A 
ATOM     32  C   UNL A   1      43.972  27.638  27.690  1.00  0.00     0.010 A 
ATOM     33  C   UNL A   1      41.524  25.704  27.725  1.00  0.00     0.010 A 
ATOM     34  C   UNL A   1      42.434  27.081  28.443  1.00  0.00    -0.014 A 
BRANCH  34  35
ATOM     35  C   UNL A   1      41.848  27.891  29.557  1.00  0.00     0.031 A 
ATOM     36  C   UNL A   1      42.435  27.823  30.932  1.00  0.00     0.074 A 
ATOM     37  C   UNL A   1      40.802  28.714  29.365  1.00  0.00     0.049 A 
ATOM     38  N   UNL A   1      42.433  28.694  31.905  1.00  0.00    -0.248 NA
ATOM     39  C   UNL A   1      43.169  26.599  31.240  1.00  0.00     0.031 C 
ATOM     40  C   UNL A   1      40.041  28.860  28.134  1.00  0.00     0.029 A 
ATOM     41  N   UNL A   1      40.184  29.577  30.236  1.00  0.00    -0.354 N 
ATOM     42  C   UNL A   1      43.301  28.183  32.864  1.00  0.00     0.074 A 
ATOM     43  C   UNL A   1      43.780  26.910  32.374  1.00  0.00     0.031 C 
ATOM     44  C   UNL A   1      39.037  29.729  28.327  1.00  0.00     0.029 A 
ATOM     45  C   UNL A   1      39.099  30.222  29.696  1.00  0.00     0.049 A 
ATOM     46  H   UNL A   1      40.488  29.719  31.161  1.00  0.00     0.167 HD
ATOM     47  C   UNL A   1      43.641  28.711  34.063  1.00  0.00     0.037 A 
ATOM     48  C   UNL A   1      38.256  31.118  30.240  1.00  0.00     0.037 A 
ATOM     49  C   UNL A   1      42.923  29.804  34.663  1.00  0.00     0.049 A 
ATOM     50  C   UNL A   1      38.543  31.622  31.626  1.00  0.00     0.074 A 
ATOM     51  C   UNL A   1      43.104  30.388  35.903  1.00  0.00     0.029 A 
ATOM     52  N   UNL A   1      41.810  30.405  34.093  1.00  0.00    -0.354 N 
ATOM     53  N   UNL A   1      39.513  31.287  32.444  1.00  0.00    -0.248 NA
ATOM     54  C   UNL A   1      37.644  32.657  32.149  1.00  0.00     0.031 C 
ATOM     55  C   UNL A   1      42.046  31.281  36.117  1.00  0.00     0.029 A 
ATOM     56  C   UNL A   1      41.257  31.314  34.978  1.00  0.00     0.049 A 
ATOM     57  H   UNL A   1      41.464  30.213  33.192  1.00  0.00     0.167 HD
ATOM     58  C   UNL A   1      39.357  32.086  33.569  1.00  0.00     0.074 A 
ATOM     59  C   UNL A   1      38.213  32.939  33.312  1.00  0.00     0.031 C 
ATOM     60  C   UNL A   1      40.095  32.122  34.708  1.00  0.00     0.037 A 
BRANCH  47  61
ATOM     61  C   UNL A   1      44.777  28.074  34.811  1.00  0.00     0.057 A 
ATOM     62  C   UNL A   1      46.096  28.523  34.639  1.00  0.00     0.134 A 
ATOM     63  C   UNL A   1      44.565  27.052  35.742  1.00  0.00     0.134 A 
ATOM     64  F   UNL A   1      46.375  29.489  33.752  1.00  0.00    -0.206 F 
ATOM     65  C   UNL A   1      47.158  27.976  35.365  1.00  0.00     0.040 A 
ATOM     66  C   UNL A   1      45.616  26.507  36.484  1.00  0.00     0.040 A 
ATOM     67  F   UNL A   1      43.331  26.568  35.952  1.00  0.00    -0.206 F 
ATOM     68  C   UNL A   1      46.918  26.970  36.297  1.00  0.00     0.006 A 
ENDBRANCH  47  61
BRANCH  48  69
ATOM     69  C   UNL A   1      37.098  31.610  29.449  1.00  0.00     0.057 A 
ATOM     70  C   UNL A   1      35.923  30.861  29.321  1.00  0.00     0.134 A 
ATOM     71  C   UNL A   1      37.131  32.865  28.827  1.00  0.00     0.134 A 
ATOM     72  F   UNL A   1      35.832  29.646  29.880  1.00  0.00    -0.206 F 
ATOM     73  C   UNL A   1      34.828  31.335  28.595  1.00  0.00     0.040 A 
ATOM     74  C   UNL A   1      36.034  33.365  28.122  1.00  0.00     0.040 A 
ATOM     75  F   UNL A   1      38.224  33.638  28.918  1.00  0.00    -0.206 F 
ATOM     76  C   UNL A   1      34.880  32.595  28.000  1.00  0.00     0.006 A 
ENDBRANCH  48  69
BRANCH  60  77
ATOM     77  C   UNL A   1      39.679  33.120  35.748  1.00  0.00     0.057 A 
ATOM     78  C   UNL A   1      40.187  34.426  35.772  1.00  0.00     0.134 A 
ATOM     79  C   UNL A   1      38.753  32.769  36.738  1.00  0.00     0.134 A 
ATOM     80  F   UNL A   1      41.084  34.823  34.856  1.00  0.00    -0.206 F 
ATOM     81  C   UNL A   1      39.827  35.330  36.771  1.00  0.00     0.040 A 
ATOM     82  C   UNL A   1      38.356  33.675  37.721  1.00  0.00     0.040 A 
ATOM     83  F   UNL A   1      38.213  31.540  36.764  1.00  0.00    -0.206 F 
ATOM     84  C   UNL A   1      38.906  34.955  37.747  1.00  0.00     0.006 A 
ENDBRANCH  60  77
ENDBRANCH  34  35
ENDBRANCH  27  29
ENDBRANCH  26  27
ENDBRANCH  25  26
ENDBRANCH   1  25
TORSDOF 16
ENDMDL
MODEL 2
REMARK VINA RESULT:     -12.0      5.963     11.101
REMARK SMILES Cc1noc(C)c1[C@H](C)NC(=O)NC[C@@](C)(O)C(=O)OCCOC(=O)c1ccc(-c2c3nc(c(-c4c(F)cccc4F)c4ccc([nH]4)c(-c4c(F)cccc4F)c4nc(c(-c5c(F)cccc5F)c5ccc2[nH]5)C=C4)C=C3)cc1
REMARK SMILES IDX 21 1 20 2 18 3 19 4 15 5 16 6 14 7 13 8 10 9 11 10 12 12
REMARK SMILES IDX 8 14 9 15 7 16 1 17 2 18 3 19 4 20 5 21 6 22 17 23 22 25
REMARK SMILES IDX 23 26 24 27 25 28 26 29 27 30 79 31 28 32 78 33 29 34 30 35
REMARK SMILES IDX 31 36 72 37 32 38 77 39 71 40 73 41 33 42 76 43 70 44 69 45
REMARK SMILES IDX 34 47 60 48 43 49 59 50 44 51 47 52 58 53 74 54 45 55 46 56
REMARK SMILES IDX 57 58 75 59 48 60 35 61 36 62 41 63 37 64 38 65 40 66 42 67
REMARK SMILES IDX 39 68 61 69 62 70 67 71 63 72 64 73 66 74 68 75 65 76 49 77
REMARK SMILES IDX 50 78 55 79 51 80 52 81 54 82 56 83 53 84
REMARK H PARENT 10 11 13 13 17 24 73 46 47 57
REMARK Flexibility Score: inf
ROOT
ATOM      1  C   UNL A   1      48.608  22.567  34.411  1.00  0.00     0.274 C 
ENDROOT
BRANCH   1   2
ATOM      2  O   UNL A   1      49.908  22.045  34.774  1.00  0.00    -0.460 OA
BRANCH   2   3
ATOM      3  C   UNL A   1      50.188  20.748  34.424  1.00  0.00     0.339 C 
ATOM      4  O   UNL A   1      50.130  20.318  33.280  1.00  0.00    -0.249 OA
BRANCH   3   5
ATOM      5  C   UNL A   1      50.586  19.926  35.683  1.00  0.00     0.176 C 
ATOM      6  C   UNL A   1      51.916  20.541  36.133  1.00  0.00     0.057 C 
BRANCH   5   7
ATOM      7  C   UNL A   1      49.557  19.949  36.860  1.00  0.00     0.164 C 
BRANCH   7   8
ATOM      8  N   UNL A   1      48.125  19.840  36.561  1.00  0.00    -0.335 N 
ATOM      9  N   UNL A   1      46.499  19.047  38.281  1.00  0.00    -0.331 N 
ATOM     10  C   UNL A   1      46.940  19.704  37.140  1.00  0.00     0.315 C 
ATOM     11  H   UNL A   1      45.622  19.476  38.419  1.00  0.00     0.165 HD
ATOM     12  O   UNL A   1      46.020  20.203  36.469  1.00  0.00    -0.249 OA
ATOM     13  H   UNL A   1      48.000  19.883  35.585  1.00  0.00     0.165 HD
BRANCH   9  14
ATOM     14  C   UNL A   1      46.548  17.707  39.887  1.00  0.00     0.116 C 
ATOM     15  C   UNL A   1      47.917  17.424  40.925  1.00  0.00     0.036 C 
BRANCH  14  16
ATOM     16  C   UNL A   1      45.156  16.826  40.749  1.00  0.00     0.040 A 
ATOM     17  C   UNL A   1      45.142  16.895  43.607  1.00  0.00     0.071 C 
ATOM     18  C   UNL A   1      44.663  16.727  42.192  1.00  0.00     0.086 A 
ATOM     19  N   UNL A   1      43.409  16.274  42.239  1.00  0.00    -0.085 NA
ATOM     20  O   UNL A   1      43.043  15.984  40.991  1.00  0.00    -0.361 OA
ATOM     21  C   UNL A   1      44.030  16.241  40.106  1.00  0.00     0.139 A 
ATOM     22  C   UNL A   1      43.531  15.829  38.774  1.00  0.00     0.091 C 
ENDBRANCH  14  16
ENDBRANCH   9  14
ENDBRANCH   7   8
ENDBRANCH   5   7
BRANCH   5  23
ATOM     23  O   UNL A   1      50.901  18.549  35.417  1.00  0.00    -0.377 OA
ATOM     24  H   UNL A   1      51.460  18.202  36.129  1.00  0.00     0.212 HD
ENDBRANCH   5  23
ENDBRANCH   3   5
ENDBRANCH   2   3
ENDBRANCH   1   2
BRANCH   1  25
ATOM     25  C   UNL A   1      47.999  23.307  35.602  1.00  0.00     0.275 C 
BRANCH  25  26
ATOM     26  O   UNL A   1      46.590  23.413  35.363  1.00  0.00    -0.458 OA
BRANCH  26  27
ATOM     27  C   UNL A   1      45.891  23.792  36.438  1.00  0.00     0.338 C 
ATOM     28  O   UNL A   1      45.915  23.278  37.547  1.00  0.00    -0.246 OA
BRANCH  27  29
ATOM     29  C   UNL A   1      45.096  25.004  36.220  1.00  0.00     0.060 A 
ATOM     30  C   UNL A   1      43.340  24.623  35.849  1.00  0.00     0.016 A 
ATOM     31  C   UNL A   1      45.761  26.616  35.681  1.00  0.00     0.016 A 
ATOM     32  C   UNL A   1      42.301  25.853  35.024  1.00  0.00     0.010 A 
ATOM     33  C   UNL A   1      44.760  27.738  34.662  1.00  0.00     0.010 A 
ATOM     34  C   UNL A   1      43.025  27.366  34.366  1.00  0.00    -0.014 A 
BRANCH  34  35
ATOM     35  C   UNL A   1      42.120  28.375  33.732  1.00  0.00     0.031 A 
ATOM     36  C   UNL A   1      41.797  28.290  32.272  1.00  0.00     0.074 A 
ATOM     37  C   UNL A   1      41.553  29.367  34.439  1.00  0.00     0.049 A 
ATOM     38  N   UNL A   1      40.760  28.712  31.601  1.00  0.00    -0.248 NA
ATOM     39  C   UNL A   1      42.782  27.589  31.453  1.00  0.00     0.031 C 
ATOM     40  C   UNL A   1      41.801  29.672  35.840  1.00  0.00     0.029 A 
ATOM     41  N   UNL A   1      40.653  30.330  34.049  1.00  0.00    -0.354 N 
ATOM     42  C   UNL A   1      40.901  28.179  30.324  1.00  0.00     0.074 A 
ATOM     43  C   UNL A   1      42.141  27.437  30.303  1.00  0.00     0.031 C 
ATOM     44  C   UNL A   1      41.104  30.762  36.193  1.00  0.00     0.029 A 
ATOM     45  C   UNL A   1      40.336  31.222  35.043  1.00  0.00     0.049 A 
ATOM     46  H   UNL A   1      40.272  30.376  33.143  1.00  0.00     0.167 HD
ATOM     47  C   UNL A   1      40.085  28.323  29.254  1.00  0.00     0.037 A 
ATOM     48  C   UNL A   1      39.511  32.284  35.032  1.00  0.00     0.037 A 
ATOM     49  C   UNL A   1      39.037  29.308  29.202  1.00  0.00     0.049 A 
ATOM     50  C   UNL A   1      38.691  32.541  33.800  1.00  0.00     0.074 A 
ATOM     51  C   UNL A   1      38.188  29.622  28.157  1.00  0.00     0.029 A 
ATOM     52  N   UNL A   1      38.773  30.213  30.220  1.00  0.00    -0.354 N 
ATOM     53  N   UNL A   1      38.672  31.881  32.666  1.00  0.00    -0.248 NA
ATOM     54  C   UNL A   1      37.747  33.663  33.861  1.00  0.00     0.031 C 
ATOM     55  C   UNL A   1      37.472  30.772  28.514  1.00  0.00     0.029 A 
ATOM     56  C   UNL A   1      37.815  31.122  29.811  1.00  0.00     0.049 A 
ATOM     57  H   UNL A   1      39.205  30.208  31.105  1.00  0.00     0.167 HD
ATOM     58  C   UNL A   1      37.699  32.491  31.885  1.00  0.00     0.074 A 
ATOM     59  C   UNL A   1      37.135  33.557  32.690  1.00  0.00     0.031 C 
ATOM     60  C   UNL A   1      37.299  32.196  30.622  1.00  0.00     0.037 A 
BRANCH  47  61
ATOM     61  C   UNL A   1      40.342  27.455  28.055  1.00  0.00     0.057 A 
ATOM     62  C   UNL A   1      41.103  27.925  26.974  1.00  0.00     0.134 A 
ATOM     63  C   UNL A   1      39.884  26.136  27.990  1.00  0.00     0.134 A 
ATOM     64  F   UNL A   1      41.563  29.186  26.963  1.00  0.00    -0.206 F 
ATOM     65  C   UNL A   1      41.395  27.115  25.874  1.00  0.00     0.040 A 
ATOM     66  C   UNL A   1      40.181  25.310  26.902  1.00  0.00     0.040 A 
ATOM     67  F   UNL A   1      39.143  25.622  28.983  1.00  0.00    -0.206 F 
ATOM     68  C   UNL A   1      40.940  25.799  25.840  1.00  0.00     0.006 A 
ENDBRANCH  47  61
BRANCH  48  69
ATOM     69  C   UNL A   1      39.407  33.144  36.240  1.00  0.00     0.057 A 
ATOM     70  C   UNL A   1      40.171  34.307  36.384  1.00  0.00     0.134 A 
ATOM     71  C   UNL A   1      38.507  32.835  37.269  1.00  0.00     0.134 A 
ATOM     72  F   UNL A   1      41.060  34.652  35.441  1.00  0.00    -0.206 F 
ATOM     73  C   UNL A   1      40.055  35.125  37.510  1.00  0.00     0.040 A 
ATOM     74  C   UNL A   1      38.359  33.658  38.387  1.00  0.00     0.040 A 
ATOM     75  F   UNL A   1      37.738  31.739  37.189  1.00  0.00    -0.206 F 
ATOM     76  C   UNL A   1      39.140  34.804  38.512  1.00  0.00     0.006 A 
ENDBRANCH  48  69
BRANCH  60  77
ATOM     77  C   UNL A   1      36.198  33.040  30.049  1.00  0.00     0.057 A 
ATOM     78  C   UNL A   1      34.870  32.920  30.478  1.00  0.00     0.134 A 
ATOM     79  C   UNL A   1      36.475  33.988  29.057  1.00  0.00     0.134 A 
ATOM     80  F   UNL A   1      34.538  32.024  31.421  1.00  0.00    -0.206 F 
ATOM     81  C   UNL A   1      33.849  33.679  29.906  1.00  0.00     0.040 A 
ATOM     82  C   UNL A   1      35.469  34.779  28.502  1.00  0.00     0.040 A 
ATOM     83  F   UNL A   1      37.729  34.167  28.612  1.00  0.00    -0.206 F 
ATOM     84  C   UNL A   1      34.149  34.614  28.917  1.00  0.00     0.006 A 
ENDBRANCH  60  77
ENDBRANCH  34  35
ENDBRANCH  27  29
ENDBRANCH  26  27
ENDBRANCH  25  26
ENDBRANCH   1  25
TORSDOF 16
ENDMDL
MODEL 3
REMARK VINA RESULT:     -11.9      4.166      7.147
REMARK SMILES Cc1noc(C)c1[C@H](C)NC(=O)NC[C@@](C)(O)C(=O)OCCOC(=O)c1ccc(-c2c3nc(c(-c4c(F)cccc4F)c4ccc([nH]4)c(-c4c(F)cccc4F)c4nc(c(-c5c(F)cccc5F)c5ccc2[nH]5)C=C4)C=C3)cc1
REMARK SMILES IDX 21 1 20 2 18 3 19 4 15 5 16 6 14 7 13 8 10 9 11 10 12 12
REMARK SMILES IDX 8 14 9 15 7 16 1 17 2 18 3 19 4 20 5 21 6 22 17 23 22 25
REMARK SMILES IDX 23 26 24 27 25 28 26 29 27 30 79 31 28 32 78 33 29 34 30 35
REMARK SMILES IDX 31 36 72 37 32 38 77 39 71 40 73 41 33 42 76 43 70 44 69 45
REMARK SMILES IDX 34 47 60 48 43 49 59 50 44 51 47 52 58 53 74 54 45 55 46 56
REMARK SMILES IDX 57 58 75 59 48 60 35 61 36 62 41 63 37 64 38 65 40 66 42 67
REMARK SMILES IDX 39 68 61 69 62 70 67 71 63 72 64 73 66 74 68 75 65 76 49 77
REMARK SMILES IDX 50 78 55 79 51 80 52 81 54 82 56 83 53 84
REMARK H PARENT 10 11 13 13 17 24 73 46 47 57
REMARK Flexibility Score: inf
ROOT
ATOM      1  C   UNL A   1      35.803  19.816  24.969  1.00  0.00     0.274 C 
ENDROOT
BRANCH   1   2
ATOM      2  O   UNL A   1      35.780  21.170  25.479  1.00  0.00    -0.460 OA
BRANCH   2   3
ATOM      3  C   UNL A   1      34.820  22.016  24.984  1.00  0.00     0.339 C 
ATOM      4  O   UNL A   1      34.781  22.405  23.824  1.00  0.00    -0.249 OA
BRANCH   3   5
ATOM      5  C   UNL A   1      33.808  22.394  26.102  1.00  0.00     0.176 C 
ATOM      6  C   UNL A   1      33.912  23.919  26.209  1.00  0.00     0.057 C 
BRANCH   5   7
ATOM      7  C   UNL A   1      32.324  21.972  25.844  1.00  0.00     0.164 C 
BRANCH   7   8
ATOM      8  N   UNL A   1      31.284  22.408  26.782  1.00  0.00    -0.335 N 
ATOM      9  N   UNL A   1      30.056  24.557  26.446  1.00  0.00    -0.331 N 
ATOM     10  C   UNL A   1      30.282  23.267  26.911  1.00  0.00     0.315 C 
ATOM     11  H   UNL A   1      29.083  24.636  26.573  1.00  0.00     0.165 HD
ATOM     12  O   UNL A   1      29.396  22.857  27.681  1.00  0.00    -0.249 OA
ATOM     13  H   UNL A   1      31.355  21.875  27.606  1.00  0.00     0.165 HD
BRANCH   9  14
ATOM     14  C   UNL A   1      30.511  26.435  25.643  1.00  0.00     0.116 C 
ATOM     15  C   UNL A   1      31.464  27.664  26.425  1.00  0.00     0.036 C 
BRANCH  14  16
ATOM     16  C   UNL A   1      30.327  27.065  23.904  1.00  0.00     0.040 A 
ATOM     17  C   UNL A   1      27.933  28.498  23.283  1.00  0.00     0.071 C 
ATOM     18  C   UNL A   1      29.340  27.978  23.179  1.00  0.00     0.086 A 
ATOM     19  N   UNL A   1      29.852  28.420  22.029  1.00  0.00    -0.085 NA
ATOM     20  O   UNL A   1      31.038  27.835  21.871  1.00  0.00    -0.361 OA
ATOM     21  C   UNL A   1      31.333  27.012  22.900  1.00  0.00     0.139 A 
ATOM     22  C   UNL A   1      32.637  26.382  22.586  1.00  0.00     0.091 C 
ENDBRANCH  14  16
ENDBRANCH   9  14
ENDBRANCH   7   8
ENDBRANCH   5   7
BRANCH   5  23
ATOM     23  O   UNL A   1      34.166  21.919  27.410  1.00  0.00    -0.377 OA
ATOM     24  H   UNL A   1      34.897  22.452  27.759  1.00  0.00     0.212 HD
ENDBRANCH   5  23
ENDBRANCH   3   5
ENDBRANCH   2   3
ENDBRANCH   1   2
BRANCH   1  25
ATOM     25  C   UNL A   1      37.245  19.313  24.907  1.00  0.00     0.275 C 
BRANCH  25  26
ATOM     26  O   UNL A   1      38.100  20.462  24.966  1.00  0.00    -0.458 OA
BRANCH  26  27
ATOM     27  C   UNL A   1      39.194  20.278  25.712  1.00  0.00     0.338 C 
ATOM     28  O   UNL A   1      39.938  19.308  25.697  1.00  0.00    -0.246 OA
BRANCH  27  29
ATOM     29  C   UNL A   1      39.525  21.429  26.556  1.00  0.00     0.060 A 
ATOM     30  C   UNL A   1      38.905  23.007  25.854  1.00  0.00     0.016 A 
ATOM     31  C   UNL A   1      40.911  21.499  27.742  1.00  0.00     0.016 A 
ATOM     32  C   UNL A   1      39.626  24.579  26.382  1.00  0.00     0.010 A 
ATOM     33  C   UNL A   1      41.759  23.069  28.086  1.00  0.00     0.010 A 
ATOM     34  C   UNL A   1      41.092  24.606  27.430  1.00  0.00    -0.014 A 
BRANCH  34  35
ATOM     35  C   UNL A   1      41.626  25.929  27.880  1.00  0.00     0.031 A 
ATOM     36  C   UNL A   1      43.041  26.316  27.578  1.00  0.00     0.074 A 
ATOM     37  C   UNL A   1      40.864  26.817  28.542  1.00  0.00     0.049 A 
ATOM     38  N   UNL A   1      43.594  27.490  27.444  1.00  0.00    -0.248 NA
ATOM     39  C   UNL A   1      43.961  25.204  27.359  1.00  0.00     0.031 C 
ATOM     40  C   UNL A   1      39.501  26.602  29.001  1.00  0.00     0.029 A 
ATOM     41  N   UNL A   1      41.156  28.091  28.966  1.00  0.00    -0.354 N 
ATOM     42  C   UNL A   1      44.877  27.245  26.965  1.00  0.00     0.074 A 
ATOM     43  C   UNL A   1      45.032  25.811  26.870  1.00  0.00     0.031 C 
ATOM     44  C   UNL A   1      39.077  27.685  29.672  1.00  0.00     0.029 A 
ATOM     45  C   UNL A   1      40.136  28.684  29.668  1.00  0.00     0.049 A 
ATOM     46  H   UNL A   1      42.014  28.536  28.783  1.00  0.00     0.167 HD
ATOM     47  C   UNL A   1      45.851  28.135  26.664  1.00  0.00     0.037 A 
ATOM     48  C   UNL A   1      40.060  29.901  30.235  1.00  0.00     0.037 A 
ATOM     49  C   UNL A   1      45.790  29.517  27.058  1.00  0.00     0.049 A 
ATOM     50  C   UNL A   1      41.195  30.863  30.023  1.00  0.00     0.074 A 
ATOM     51  C   UNL A   1      46.736  30.512  26.894  1.00  0.00     0.029 A 
ATOM     52  N   UNL A   1      44.752  30.067  27.798  1.00  0.00    -0.354 N 
ATOM     53  N   UNL A   1      42.318  30.686  29.367  1.00  0.00    -0.248 NA
ATOM     54  C   UNL A   1      41.034  32.205  30.593  1.00  0.00     0.031 C 
ATOM     55  C   UNL A   1      46.307  31.638  27.609  1.00  0.00     0.029 A 
ATOM     56  C   UNL A   1      45.057  31.370  28.147  1.00  0.00     0.049 A 
ATOM     57  H   UNL A   1      43.921  29.598  28.038  1.00  0.00     0.167 HD
ATOM     58  C   UNL A   1      42.988  31.901  29.423  1.00  0.00     0.074 A 
ATOM     59  C   UNL A   1      42.130  32.811  30.157  1.00  0.00     0.031 C 
ATOM     60  C   UNL A   1      44.198  32.241  28.910  1.00  0.00     0.037 A 
BRANCH  47  61
ATOM     61  C   UNL A   1      47.067  27.625  25.945  1.00  0.00     0.057 A 
ATOM     62  C   UNL A   1      48.158  27.101  26.655  1.00  0.00     0.134 A 
ATOM     63  C   UNL A   1      47.141  27.603  24.548  1.00  0.00     0.134 A 
ATOM     64  F   UNL A   1      48.161  27.104  27.996  1.00  0.00    -0.206 F 
ATOM     65  C   UNL A   1      49.276  26.575  26.001  1.00  0.00     0.040 A 
ATOM     66  C   UNL A   1      48.247  27.067  23.882  1.00  0.00     0.040 A 
ATOM     67  F   UNL A   1      46.139  28.095  23.805  1.00  0.00    -0.206 F 
ATOM     68  C   UNL A   1      49.319  26.551  24.609  1.00  0.00     0.006 A 
ENDBRANCH  47  61
BRANCH  48  69
ATOM     69  C   UNL A   1      38.852  30.272  31.018  1.00  0.00     0.057 A 
ATOM     70  C   UNL A   1      38.738  29.976  32.380  1.00  0.00     0.134 A 
ATOM     71  C   UNL A   1      37.791  30.965  30.419  1.00  0.00     0.134 A 
ATOM     72  F   UNL A   1      39.712  29.303  33.009  1.00  0.00    -0.206 F 
ATOM     73  C   UNL A   1      37.610  30.345  33.117  1.00  0.00     0.040 A 
ATOM     74  C   UNL A   1      36.671  31.365  31.150  1.00  0.00     0.040 A 
ATOM     75  F   UNL A   1      37.841  31.287  29.118  1.00  0.00    -0.206 F 
ATOM     76  C   UNL A   1      36.576  31.049  32.503  1.00  0.00     0.006 A 
ENDBRANCH  48  69
BRANCH  60  77
ATOM     77  C   UNL A   1      44.649  33.655  29.127  1.00  0.00     0.057 A 
ATOM     78  C   UNL A   1      45.419  34.027  30.237  1.00  0.00     0.134 A 
ATOM     79  C   UNL A   1      44.310  34.656  28.209  1.00  0.00     0.134 A 
ATOM     80  F   UNL A   1      45.772  33.116  31.157  1.00  0.00    -0.206 F 
ATOM     81  C   UNL A   1      45.794  35.354  30.451  1.00  0.00     0.040 A 
ATOM     82  C   UNL A   1      44.708  35.980  28.393  1.00  0.00     0.040 A 
ATOM     83  F   UNL A   1      43.588  34.366  27.116  1.00  0.00    -0.206 F 
ATOM     84  C   UNL A   1      45.440  36.334  29.525  1.00  0.00     0.006 A 
ENDBRANCH  60  77
ENDBRANCH  34  35
ENDBRANCH  27  29
ENDBRANCH  26  27
ENDBRANCH  25  26
ENDBRANCH   1  25
TORSDOF 16
ENDMDL
