MODEL 1
REMARK VINA RESULT:     -12.1      0.000      0.000
REMARK SMILES CC1([C@@H]2C[C@H](C(F)(F)F)n3nc(C(=O)OCCOC(=O)c4ccc(-c5c6nc(c(-c7c(F)cccc7F)c7ccc([nH]7)c(-c7c(F)cccc7F)c7nc(c(-c8c(F)cccc8F)c8ccc5[nH]8)C=C7)C=C6)cc4)cc3N2)CC1
REMARK SMILES IDX 17 1 16 2 15 3 13 4 14 5 12 6 3 7 4 8 77 9 5 10 76 11 10 13
REMARK SMILES IDX 75 14 11 15 2 16 1 17 78 18 79 19 6 20 7 21 8 22 9 23 18 24
REMARK SMILES IDX 19 25 20 26 21 27 22 28 74 29 23 30 73 31 24 32 25 33 26 34
REMARK SMILES IDX 67 35 27 36 72 37 66 38 68 39 28 40 71 41 65 42 64 43 29 45
REMARK SMILES IDX 55 46 38 47 54 48 39 49 42 50 53 51 69 52 40 53 41 54 52 56
REMARK SMILES IDX 70 57 43 58 30 59 31 60 36 61 32 62 33 63 35 64 37 65 34 66
REMARK SMILES IDX 56 67 57 68 62 69 58 70 59 71 61 72 63 73 60 74 44 75 45 76
REMARK SMILES IDX 50 77 46 78 47 79 49 80 51 81 48 82
REMARK H PARENT 77 12 68 44 42 55
REMARK Flexibility Score: inf
ROOT
ATOM      1  C   UNL A   1      43.546  21.585  25.577  1.00  0.00     0.275 C 
ENDROOT
BRANCH   1   2
ATOM      2  C   UNL A   1      42.589  20.571  26.214  1.00  0.00     0.275 C 
BRANCH   2   3
ATOM      3  O   UNL A   1      41.231  20.774  25.782  1.00  0.00    -0.457 OA
BRANCH   3   4
ATOM      4  C   UNL A   1      40.360  21.196  26.753  1.00  0.00     0.359 C 
ATOM      5  O   UNL A   1      40.587  21.105  27.952  1.00  0.00    -0.244 OA
BRANCH   4   6
ATOM      6  C   UNL A   1      39.158  21.844  26.196  1.00  0.00     0.172 A 
ATOM      7  C   UNL A   1      35.414  24.108  24.715  1.00  0.00     0.089 C 
ATOM      8  C   UNL A   1      35.529  22.922  23.733  1.00  0.00     0.062 C 
ATOM      9  N   UNL A   1      36.639  24.256  25.496  1.00  0.00    -0.367 N 
ATOM     10  C   UNL A   1      36.209  21.663  24.292  1.00  0.00     0.216 C 
ATOM     11  C   UNL A   1      37.495  23.243  25.723  1.00  0.00     0.126 A 
ATOM     12  H   UNL A   1      36.849  25.141  25.875  1.00  0.00     0.162 HD
ATOM     13  N   UNL A   1      37.310  22.014  25.160  1.00  0.00    -0.237 N 
ATOM     14  C   UNL A   1      38.644  23.144  26.466  1.00  0.00     0.084 A 
ATOM     15  N   UNL A   1      38.365  21.200  25.308  1.00  0.00    -0.163 NA
BRANCH   7  16
ATOM     16  C   UNL A   1      34.159  24.145  25.602  1.00  0.00    -0.012 C 
ATOM     17  C   UNL A   1      34.240  23.281  26.844  1.00  0.00     0.013 C 
ATOM     18  C   UNL A   1      32.791  24.113  24.923  1.00  0.00     0.009 C 
ATOM     19  C   UNL A   1      33.233  25.352  25.632  1.00  0.00     0.009 C 
ENDBRANCH   7  16
BRANCH  10  20
ATOM     20  C   UNL A   1      35.242  20.699  24.943  1.00  0.00     0.410 C 
ATOM     21  F   UNL A   1      33.989  20.925  24.463  1.00  0.00    -0.169 F 
ATOM     22  F   UNL A   1      35.519  19.409  24.662  1.00  0.00    -0.169 F 
ATOM     23  F   UNL A   1      35.162  20.809  26.279  1.00  0.00    -0.169 F 
ENDBRANCH  10  20
ENDBRANCH   4   6
ENDBRANCH   3   4
ENDBRANCH   2   3
ENDBRANCH   1   2
BRANCH   1  24
ATOM     24  O   UNL A   1      42.856  22.750  25.083  1.00  0.00    -0.458 OA
BRANCH  24  25
ATOM     25  C   UNL A   1      43.559  23.904  25.144  1.00  0.00     0.338 C 
ATOM     26  O   UNL A   1      44.523  24.216  24.463  1.00  0.00    -0.246 OA
BRANCH  25  27
ATOM     27  C   UNL A   1      42.928  24.826  26.101  1.00  0.00     0.060 A 
ATOM     28  C   UNL A   1      43.394  26.138  26.142  1.00  0.00     0.016 A 
ATOM     29  C   UNL A   1      41.986  24.388  27.030  1.00  0.00     0.016 A 
ATOM     30  C   UNL A   1      42.952  27.014  27.127  1.00  0.00     0.010 A 
ATOM     31  C   UNL A   1      41.524  25.277  28.010  1.00  0.00     0.010 A 
ATOM     32  C   UNL A   1      42.023  26.592  28.079  1.00  0.00    -0.014 A 
BRANCH  32  33
ATOM     33  C   UNL A   1      41.637  27.508  29.181  1.00  0.00     0.031 A 
ATOM     34  C   UNL A   1      42.414  27.498  30.466  1.00  0.00     0.074 A 
ATOM     35  C   UNL A   1      40.619  28.376  29.018  1.00  0.00     0.049 A 
ATOM     36  N   UNL A   1      42.151  28.097  31.599  1.00  0.00    -0.248 NA
ATOM     37  C   UNL A   1      43.653  26.703  30.479  1.00  0.00     0.031 C 
ATOM     38  C   UNL A   1      39.842  28.551  27.790  1.00  0.00     0.029 A 
ATOM     39  N   UNL A   1      40.065  29.276  29.893  1.00  0.00    -0.354 N 
ATOM     40  C   UNL A   1      43.162  27.715  32.472  1.00  0.00     0.074 A 
ATOM     41  C   UNL A   1      44.046  26.836  31.739  1.00  0.00     0.031 C 
ATOM     42  C   UNL A   1      38.913  29.499  27.990  1.00  0.00     0.029 A 
ATOM     43  C   UNL A   1      38.987  29.952  29.376  1.00  0.00     0.049 A 
ATOM     44  H   UNL A   1      40.407  29.423  30.804  1.00  0.00     0.167 HD
ATOM     45  C   UNL A   1      43.330  28.067  33.769  1.00  0.00     0.037 A 
ATOM     46  C   UNL A   1      38.129  30.807  29.963  1.00  0.00     0.037 A 
ATOM     47  C   UNL A   1      42.474  28.982  34.477  1.00  0.00     0.049 A 
ATOM     48  C   UNL A   1      38.303  31.134  31.421  1.00  0.00     0.074 A 
ATOM     49  C   UNL A   1      42.567  29.409  35.791  1.00  0.00     0.029 A 
ATOM     50  N   UNL A   1      41.376  29.622  33.924  1.00  0.00    -0.354 N 
ATOM     51  N   UNL A   1      39.234  30.733  32.253  1.00  0.00    -0.248 NA
ATOM     52  C   UNL A   1      37.300  32.022  32.026  1.00  0.00     0.031 C 
ATOM     53  C   UNL A   1      41.504  30.281  36.043  1.00  0.00     0.029 A 
ATOM     54  C   UNL A   1      40.774  30.430  34.874  1.00  0.00     0.049 A 
ATOM     55  H   UNL A   1      41.069  29.518  32.994  1.00  0.00     0.167 HD
ATOM     56  C   UNL A   1      38.947  31.340  33.467  1.00  0.00     0.074 A 
ATOM     57  C   UNL A   1      37.758  32.143  33.264  1.00  0.00     0.031 C 
ATOM     58  C   UNL A   1      39.608  31.243  34.645  1.00  0.00     0.037 A 
BRANCH  45  59
ATOM     59  C   UNL A   1      44.459  27.430  34.523  1.00  0.00     0.057 A 
ATOM     60  C   UNL A   1      45.710  28.042  34.652  1.00  0.00     0.134 A 
ATOM     61  C   UNL A   1      44.267  26.205  35.175  1.00  0.00     0.134 A 
ATOM     62  F   UNL A   1      45.962  29.211  34.043  1.00  0.00    -0.206 F 
ATOM     63  C   UNL A   1      46.738  27.450  35.390  1.00  0.00     0.040 A 
ATOM     64  C   UNL A   1      45.279  25.614  35.934  1.00  0.00     0.040 A 
ATOM     65  F   UNL A   1      43.088  25.569  35.096  1.00  0.00    -0.206 F 
ATOM     66  C   UNL A   1      46.521  26.237  36.041  1.00  0.00     0.006 A 
ENDBRANCH  45  59
BRANCH  46  67
ATOM     67  C   UNL A   1      37.000  31.382  29.189  1.00  0.00     0.057 A 
ATOM     68  C   UNL A   1      35.880  30.611  28.861  1.00  0.00     0.134 A 
ATOM     69  C   UNL A   1      37.025  32.708  28.738  1.00  0.00     0.134 A 
ATOM     70  F   UNL A   1      35.809  29.327  29.240  1.00  0.00    -0.206 F 
ATOM     71  C   UNL A   1      34.832  31.132  28.099  1.00  0.00     0.040 A 
ATOM     72  C   UNL A   1      35.974  33.250  28.000  1.00  0.00     0.040 A 
ATOM     73  F   UNL A   1      38.073  33.498  29.018  1.00  0.00    -0.206 F 
ATOM     74  C   UNL A   1      34.875  32.458  27.672  1.00  0.00     0.006 A 
ENDBRANCH  46  67
BRANCH  58  75
ATOM     75  C   UNL A   1      39.099  32.066  35.789  1.00  0.00     0.057 A 
ATOM     76  C   UNL A   1      38.232  31.538  36.753  1.00  0.00     0.134 A 
ATOM     77  C   UNL A   1      39.524  33.390  35.953  1.00  0.00     0.134 A 
ATOM     78  F   UNL A   1      37.778  30.280  36.644  1.00  0.00    -0.206 F 
ATOM     79  C   UNL A   1      37.794  32.303  37.835  1.00  0.00     0.040 A 
ATOM     80  C   UNL A   1      39.112  34.158  37.042  1.00  0.00     0.040 A 
ATOM     81  F   UNL A   1      40.361  33.951  35.068  1.00  0.00    -0.206 F 
ATOM     82  C   UNL A   1      38.241  33.616  37.985  1.00  0.00     0.006 A 
ENDBRANCH  58  75
ENDBRANCH  32  33
ENDBRANCH  25  27
ENDBRANCH  24  25
ENDBRANCH   1  24
TORSDOF 13
ENDMDL
MODEL 2
REMARK VINA RESULT:     -11.7      5.318     10.161
REMARK SMILES CC1([C@@H]2C[C@H](C(F)(F)F)n3nc(C(=O)OCCOC(=O)c4ccc(-c5c6nc(c(-c7c(F)cccc7F)c7ccc([nH]7)c(-c7c(F)cccc7F)c7nc(c(-c8c(F)cccc8F)c8ccc5[nH]8)C=C7)C=C6)cc4)cc3N2)CC1
REMARK SMILES IDX 17 1 16 2 15 3 13 4 14 5 12 6 3 7 4 8 77 9 5 10 76 11 10 13
REMARK SMILES IDX 75 14 11 15 2 16 1 17 78 18 79 19 6 20 7 21 8 22 9 23 18 24
REMARK SMILES IDX 19 25 20 26 21 27 22 28 74 29 23 30 73 31 24 32 25 33 26 34
REMARK SMILES IDX 67 35 27 36 72 37 66 38 68 39 28 40 71 41 65 42 64 43 29 45
REMARK SMILES IDX 55 46 38 47 54 48 39 49 42 50 53 51 69 52 40 53 41 54 52 56
REMARK SMILES IDX 70 57 43 58 30 59 31 60 36 61 32 62 33 63 35 64 37 65 34 66
REMARK SMILES IDX 56 67 57 68 62 69 58 70 59 71 61 72 63 73 60 74 44 75 45 76
REMARK SMILES IDX 50 77 46 78 47 79 49 80 51 81 48 82
REMARK H PARENT 77 12 68 44 42 55
REMARK Flexibility Score: inf
ROOT
ATOM      1  C   UNL A   1      34.299  33.715  31.396  1.00  0.00     0.275 C 
ENDROOT
BRANCH   1   2
ATOM      2  C   UNL A   1      34.401  34.159  29.932  1.00  0.00     0.275 C 
BRANCH   2   3
ATOM      3  O   UNL A   1      33.790  33.207  29.041  1.00  0.00    -0.457 OA
BRANCH   3   4
ATOM      4  C   UNL A   1      34.602  32.720  28.050  1.00  0.00     0.359 C 
ATOM      5  O   UNL A   1      35.585  33.315  27.629  1.00  0.00    -0.244 OA
BRANCH   4   6
ATOM      6  C   UNL A   1      34.210  31.370  27.604  1.00  0.00     0.172 A 
ATOM      7  C   UNL A   1      33.324  27.082  26.135  1.00  0.00     0.089 C 
ATOM      8  C   UNL A   1      31.927  27.638  26.485  1.00  0.00     0.062 C 
ATOM      9  N   UNL A   1      34.375  27.941  26.673  1.00  0.00    -0.367 N 
ATOM     10  C   UNL A   1      31.772  29.162  26.367  1.00  0.00     0.216 C 
ATOM     11  C   UNL A   1      34.192  29.246  26.946  1.00  0.00     0.126 A 
ATOM     12  H   UNL A   1      35.261  27.546  26.845  1.00  0.00     0.162 HD
ATOM     13  N   UNL A   1      32.970  29.838  26.812  1.00  0.00    -0.237 N 
ATOM     14  C   UNL A   1      35.038  30.233  27.384  1.00  0.00     0.084 A 
ATOM     15  N   UNL A   1      32.919  31.071  27.336  1.00  0.00    -0.163 NA
BRANCH   7  16
ATOM     16  C   UNL A   1      33.571  26.728  24.659  1.00  0.00    -0.012 C 
ATOM     17  C   UNL A   1      34.147  27.857  23.829  1.00  0.00     0.013 C 
ATOM     18  C   UNL A   1      32.512  25.907  23.925  1.00  0.00     0.009 C 
ATOM     19  C   UNL A   1      33.847  25.299  24.213  1.00  0.00     0.009 C 
ENDBRANCH   7  16
BRANCH  10  20
ATOM     20  C   UNL A   1      31.326  29.615  24.995  1.00  0.00     0.410 C 
ATOM     21  F   UNL A   1      30.539  28.654  24.438  1.00  0.00    -0.169 F 
ATOM     22  F   UNL A   1      30.575  30.735  25.030  1.00  0.00    -0.169 F 
ATOM     23  F   UNL A   1      32.328  29.833  24.129  1.00  0.00    -0.169 F 
ENDBRANCH  10  20
ENDBRANCH   4   6
ENDBRANCH   3   4
ENDBRANCH   2   3
ENDBRANCH   1   2
BRANCH   1  24
ATOM     24  O   UNL A   1      34.672  32.334  31.573  1.00  0.00    -0.458 OA
BRANCH  24  25
ATOM     25  C   UNL A   1      35.721  32.124  32.401  1.00  0.00     0.338 C 
ATOM     26  O   UNL A   1      35.778  32.373  33.595  1.00  0.00    -0.246 OA
BRANCH  25  27
ATOM     27  C   UNL A   1      36.798  31.429  31.680  1.00  0.00     0.060 A 
ATOM     28  C   UNL A   1      37.750  30.746  32.435  1.00  0.00     0.016 A 
ATOM     29  C   UNL A   1      36.951  31.544  30.299  1.00  0.00     0.016 A 
ATOM     30  C   UNL A   1      38.877  30.203  31.828  1.00  0.00     0.010 A 
ATOM     31  C   UNL A   1      38.076  30.978  29.684  1.00  0.00     0.010 A 
ATOM     32  C   UNL A   1      39.060  30.323  30.450  1.00  0.00    -0.014 A 
BRANCH  32  33
ATOM     33  C   UNL A   1      40.314  29.825  29.832  1.00  0.00     0.031 A 
ATOM     34  C   UNL A   1      41.487  30.749  29.678  1.00  0.00     0.074 A 
ATOM     35  C   UNL A   1      40.418  28.537  29.449  1.00  0.00     0.049 A 
ATOM     36  N   UNL A   1      42.609  30.565  29.030  1.00  0.00    -0.248 NA
ATOM     37  C   UNL A   1      41.382  32.061  30.338  1.00  0.00     0.031 C 
ATOM     38  C   UNL A   1      39.386  27.514  29.625  1.00  0.00     0.029 A 
ATOM     39  N   UNL A   1      41.445  27.871  28.829  1.00  0.00    -0.354 N 
ATOM     40  C   UNL A   1      43.322  31.749  29.164  1.00  0.00     0.074 A 
ATOM     41  C   UNL A   1      42.510  32.647  29.957  1.00  0.00     0.031 C 
ATOM     42  C   UNL A   1      39.833  26.351  29.126  1.00  0.00     0.029 A 
ATOM     43  C   UNL A   1      41.152  26.561  28.539  1.00  0.00     0.049 A 
ATOM     44  H   UNL A   1      42.308  28.291  28.613  1.00  0.00     0.167 HD
ATOM     45  C   UNL A   1      44.543  32.057  28.665  1.00  0.00     0.037 A 
ATOM     46  C   UNL A   1      41.850  25.645  27.841  1.00  0.00     0.037 A 
ATOM     47  C   UNL A   1      45.367  31.141  27.920  1.00  0.00     0.049 A 
ATOM     48  C   UNL A   1      43.177  26.031  27.247  1.00  0.00     0.074 A 
ATOM     49  C   UNL A   1      46.624  31.355  27.380  1.00  0.00     0.029 A 
ATOM     50  N   UNL A   1      45.020  29.832  27.622  1.00  0.00    -0.354 N 
ATOM     51  N   UNL A   1      43.824  27.167  27.337  1.00  0.00    -0.248 NA
ATOM     52  C   UNL A   1      43.864  25.011  26.440  1.00  0.00     0.031 C 
ATOM     53  C   UNL A   1      47.023  30.186  26.725  1.00  0.00     0.029 A 
ATOM     54  C   UNL A   1      46.033  29.231  26.895  1.00  0.00     0.049 A 
ATOM     55  H   UNL A   1      44.180  29.395  27.890  1.00  0.00     0.167 HD
ATOM     56  C   UNL A   1      45.004  26.991  26.628  1.00  0.00     0.074 A 
ATOM     57  C   UNL A   1      44.988  25.636  26.117  1.00  0.00     0.031 C 
ATOM     58  C   UNL A   1      46.011  27.872  26.418  1.00  0.00     0.037 A 
BRANCH  45  59
ATOM     59  C   UNL A   1      45.049  33.453  28.871  1.00  0.00     0.057 A 
ATOM     60  C   UNL A   1      45.881  33.796  29.942  1.00  0.00     0.134 A 
ATOM     61  C   UNL A   1      44.736  34.459  27.947  1.00  0.00     0.134 A 
ATOM     62  F   UNL A   1      46.209  32.882  30.868  1.00  0.00    -0.206 F 
ATOM     63  C   UNL A   1      46.373  35.094  30.096  1.00  0.00     0.040 A 
ATOM     64  C   UNL A   1      45.239  35.754  28.077  1.00  0.00     0.040 A 
ATOM     65  F   UNL A   1      43.948  34.194  26.893  1.00  0.00    -0.206 F 
ATOM     66  C   UNL A   1      46.059  36.075  29.157  1.00  0.00     0.006 A 
ENDBRANCH  45  59
BRANCH  46  67
ATOM     67  C   UNL A   1      41.292  24.286  27.626  1.00  0.00     0.057 A 
ATOM     68  C   UNL A   1      40.269  24.061  26.699  1.00  0.00     0.134 A 
ATOM     69  C   UNL A   1      41.751  23.184  28.360  1.00  0.00     0.134 A 
ATOM     70  F   UNL A   1      39.769  25.080  25.985  1.00  0.00    -0.206 F 
ATOM     71  C   UNL A   1      39.711  22.794  26.519  1.00  0.00     0.040 A 
ATOM     72  C   UNL A   1      41.222  21.908  28.171  1.00  0.00     0.040 A 
ATOM     73  F   UNL A   1      42.729  23.334  29.266  1.00  0.00    -0.206 F 
ATOM     74  C   UNL A   1      40.193  21.711  27.253  1.00  0.00     0.006 A 
ENDBRANCH  46  67
BRANCH  58  75
ATOM     75  C   UNL A   1      47.204  27.384  25.654  1.00  0.00     0.057 A 
ATOM     76  C   UNL A   1      48.257  26.707  26.281  1.00  0.00     0.134 A 
ATOM     77  C   UNL A   1      47.272  27.550  24.265  1.00  0.00     0.134 A 
ATOM     78  F   UNL A   1      48.256  26.529  27.610  1.00  0.00    -0.206 F 
ATOM     79  C   UNL A   1      49.346  26.224  25.553  1.00  0.00     0.040 A 
ATOM     80  C   UNL A   1      48.343  27.052  23.524  1.00  0.00     0.040 A 
ATOM     81  F   UNL A   1      46.290  28.182  23.606  1.00  0.00    -0.206 F 
ATOM     82  C   UNL A   1      49.386  26.390  24.168  1.00  0.00     0.006 A 
ENDBRANCH  58  75
ENDBRANCH  32  33
ENDBRANCH  25  27
ENDBRANCH  24  25
ENDBRANCH   1  24
TORSDOF 13
ENDMDL
MODEL 3
REMARK VINA RESULT:     -11.7      4.237      7.993
REMARK SMILES CC1([C@@H]2C[C@H](C(F)(F)F)n3nc(C(=O)OCCOC(=O)c4ccc(-c5c6nc(c(-c7c(F)cccc7F)c7ccc([nH]7)c(-c7c(F)cccc7F)c7nc(c(-c8c(F)cccc8F)c8ccc5[nH]8)C=C7)C=C6)cc4)cc3N2)CC1
REMARK SMILES IDX 17 1 16 2 15 3 13 4 14 5 12 6 3 7 4 8 77 9 5 10 76 11 10 13
REMARK SMILES IDX 75 14 11 15 2 16 1 17 78 18 79 19 6 20 7 21 8 22 9 23 18 24
REMARK SMILES IDX 19 25 20 26 21 27 22 28 74 29 23 30 73 31 24 32 25 33 26 34
REMARK SMILES IDX 67 35 27 36 72 37 66 38 68 39 28 40 71 41 65 42 64 43 29 45
REMARK SMILES IDX 55 46 38 47 54 48 39 49 42 50 53 51 69 52 40 53 41 54 52 56
REMARK SMILES IDX 70 57 43 58 30 59 31 60 36 61 32 62 33 63 35 64 37 65 34 66
REMARK SMILES IDX 56 67 57 68 62 69 58 70 59 71 61 72 63 73 60 74 44 75 45 76
REMARK SMILES IDX 50 77 46 78 47 79 49 80 51 81 48 82
REMARK H PARENT 77 12 68 44 42 55
REMARK Flexibility Score: inf
ROOT
ATOM      1  C   UNL A   1      36.513  20.246  24.973  1.00  0.00     0.275 C 
ENDROOT
BRANCH   1   2
ATOM      2  C   UNL A   1      35.015  20.456  25.228  1.00  0.00     0.275 C 
BRANCH   2   3
ATOM      3  O   UNL A   1      34.218  19.430  24.607  1.00  0.00    -0.457 OA
BRANCH   3   4
ATOM      4  C   UNL A   1      32.862  19.567  24.752  1.00  0.00     0.359 C 
ATOM      5  O   UNL A   1      32.137  18.688  25.196  1.00  0.00    -0.244 OA
BRANCH   4   6
ATOM      6  C   UNL A   1      32.386  20.915  24.391  1.00  0.00     0.172 A 
ATOM      7  C   UNL A   1      31.116  25.127  22.982  1.00  0.00     0.089 C 
ATOM      8  C   UNL A   1      30.310  24.925  24.284  1.00  0.00     0.062 C 
ATOM      9  N   UNL A   1      31.693  23.865  22.528  1.00  0.00    -0.367 N 
ATOM     10  C   UNL A   1      30.948  23.985  25.319  1.00  0.00     0.216 C 
ATOM     11  C   UNL A   1      31.945  22.831  23.351  1.00  0.00     0.126 A 
ATOM     12  H   UNL A   1      31.907  23.766  21.571  1.00  0.00     0.162 HD
ATOM     13  N   UNL A   1      31.598  22.869  24.669  1.00  0.00    -0.237 N 
ATOM     14  C   UNL A   1      32.532  21.607  23.155  1.00  0.00     0.084 A 
ATOM     15  N   UNL A   1      31.717  21.682  25.282  1.00  0.00    -0.163 NA
BRANCH   7  16
ATOM     16  C   UNL A   1      32.151  26.264  22.986  1.00  0.00    -0.012 C 
ATOM     17  C   UNL A   1      31.718  27.506  23.739  1.00  0.00     0.013 C 
ATOM     18  C   UNL A   1      32.902  26.565  21.690  1.00  0.00     0.009 C 
ATOM     19  C   UNL A   1      33.642  25.992  22.856  1.00  0.00     0.009 C 
ENDBRANCH   7  16
BRANCH  10  20
ATOM     20  C   UNL A   1      31.857  24.698  26.295  1.00  0.00     0.410 C 
ATOM     21  F   UNL A   1      31.905  23.997  27.461  1.00  0.00    -0.169 F 
ATOM     22  F   UNL A   1      33.131  24.782  25.860  1.00  0.00    -0.169 F 
ATOM     23  F   UNL A   1      31.462  25.940  26.616  1.00  0.00    -0.169 F 
ENDBRANCH  10  20
ENDBRANCH   4   6
ENDBRANCH   3   4
ENDBRANCH   2   3
ENDBRANCH   1   2
BRANCH   1  24
ATOM     24  O   UNL A   1      37.306  21.357  25.437  1.00  0.00    -0.458 OA
BRANCH  24  25
ATOM     25  C   UNL A   1      38.573  21.049  25.794  1.00  0.00     0.338 C 
ATOM     26  O   UNL A   1      39.168  20.006  25.572  1.00  0.00    -0.246 OA
BRANCH  25  27
ATOM     27  C   UNL A   1      39.216  22.215  26.419  1.00  0.00     0.060 A 
ATOM     28  C   UNL A   1      38.753  23.480  26.065  1.00  0.00     0.016 A 
ATOM     29  C   UNL A   1      40.335  22.083  27.240  1.00  0.00     0.016 A 
ATOM     30  C   UNL A   1      39.418  24.622  26.496  1.00  0.00     0.010 A 
ATOM     31  C   UNL A   1      40.993  23.235  27.693  1.00  0.00     0.010 A 
ATOM     32  C   UNL A   1      40.551  24.514  27.303  1.00  0.00    -0.014 A 
BRANCH  32  33
ATOM     33  C   UNL A   1      41.305  25.738  27.673  1.00  0.00     0.031 A 
ATOM     34  C   UNL A   1      40.648  26.790  28.520  1.00  0.00     0.074 A 
ATOM     35  C   UNL A   1      42.587  25.889  27.288  1.00  0.00     0.049 A 
ATOM     36  N   UNL A   1      41.068  27.992  28.823  1.00  0.00    -0.248 NA
ATOM     37  C   UNL A   1      39.341  26.444  29.103  1.00  0.00     0.031 C 
ATOM     38  C   UNL A   1      43.369  24.903  26.541  1.00  0.00     0.029 A 
ATOM     39  N   UNL A   1      43.457  26.933  27.474  1.00  0.00    -0.354 N 
ATOM     40  C   UNL A   1      40.059  28.562  29.589  1.00  0.00     0.074 A 
ATOM     41  C   UNL A   1      39.007  27.576  29.709  1.00  0.00     0.031 C 
ATOM     42  C   UNL A   1      44.604  25.389  26.333  1.00  0.00     0.029 A 
ATOM     43  C   UNL A   1      44.678  26.743  26.874  1.00  0.00     0.049 A 
ATOM     44  H   UNL A   1      43.229  27.741  27.988  1.00  0.00     0.167 HD
ATOM     45  C   UNL A   1      40.017  29.800  30.137  1.00  0.00     0.037 A 
ATOM     46  C   UNL A   1      45.724  27.581  26.738  1.00  0.00     0.037 A 
ATOM     47  C   UNL A   1      41.089  30.757  30.057  1.00  0.00     0.049 A 
ATOM     48  C   UNL A   1      45.628  28.970  27.305  1.00  0.00     0.074 A 
ATOM     49  C   UNL A   1      41.146  32.035  30.588  1.00  0.00     0.029 A 
ATOM     50  N   UNL A   1      42.297  30.536  29.414  1.00  0.00    -0.354 N 
ATOM     51  N   UNL A   1      44.652  29.520  27.987  1.00  0.00    -0.248 NA
ATOM     52  C   UNL A   1      46.773  29.863  27.071  1.00  0.00     0.031 C 
ATOM     53  C   UNL A   1      42.377  32.599  30.236  1.00  0.00     0.029 A 
ATOM     54  C   UNL A   1      43.102  31.657  29.523  1.00  0.00     0.049 A 
ATOM     55  H   UNL A   1      42.547  29.704  28.950  1.00  0.00     0.167 HD
ATOM     56  C   UNL A   1      45.076  30.806  28.289  1.00  0.00     0.074 A 
ATOM     57  C   UNL A   1      46.400  30.956  27.721  1.00  0.00     0.031 C 
ATOM     58  C   UNL A   1      44.427  31.778  28.975  1.00  0.00     0.037 A 
BRANCH  45  59
ATOM     59  C   UNL A   1      38.757  30.209  30.840  1.00  0.00     0.057 A 
ATOM     60  C   UNL A   1      38.557  29.983  32.206  1.00  0.00     0.134 A 
ATOM     61  C   UNL A   1      37.751  30.889  30.142  1.00  0.00     0.134 A 
ATOM     62  F   UNL A   1      39.477  29.327  32.929  1.00  0.00    -0.206 F 
ATOM     63  C   UNL A   1      37.392  30.405  32.851  1.00  0.00     0.040 A 
ATOM     64  C   UNL A   1      36.593  31.335  30.779  1.00  0.00     0.040 A 
ATOM     65  F   UNL A   1      37.884  31.143  28.831  1.00  0.00    -0.206 F 
ATOM     66  C   UNL A   1      36.410  31.091  32.139  1.00  0.00     0.006 A 
ENDBRANCH  45  59
BRANCH  46  67
ATOM     67  C   UNL A   1      46.936  27.148  25.998  1.00  0.00     0.057 A 
ATOM     68  C   UNL A   1      48.008  26.538  26.658  1.00  0.00     0.134 A 
ATOM     69  C   UNL A   1      47.063  27.356  24.619  1.00  0.00     0.134 A 
ATOM     70  F   UNL A   1      47.958  26.335  27.983  1.00  0.00    -0.206 F 
ATOM     71  C   UNL A   1      49.168  26.164  25.978  1.00  0.00     0.040 A 
ATOM     72  C   UNL A   1      48.204  26.963  23.921  1.00  0.00     0.040 A 
ATOM     73  F   UNL A   1      46.071  27.939  23.928  1.00  0.00    -0.206 F 
ATOM     74  C   UNL A   1      49.265  26.371  24.603  1.00  0.00     0.006 A 
ENDBRANCH  46  67
BRANCH  58  75
ATOM     75  C   UNL A   1      45.159  33.066  29.201  1.00  0.00     0.057 A 
ATOM     76  C   UNL A   1      45.032  34.152  28.328  1.00  0.00     0.134 A 
ATOM     77  C   UNL A   1      45.962  33.234  30.336  1.00  0.00     0.134 A 
ATOM     78  F   UNL A   1      44.288  34.048  27.217  1.00  0.00    -0.206 F 
ATOM     79  C   UNL A   1      45.689  35.360  28.570  1.00  0.00     0.040 A 
ATOM     80  C   UNL A   1      46.606  34.442  30.600  1.00  0.00     0.040 A 
ATOM     81  F   UNL A   1      46.118  32.232  31.215  1.00  0.00    -0.206 F 
ATOM     82  C   UNL A   1      46.473  35.509  29.713  1.00  0.00     0.006 A 
ENDBRANCH  58  75
ENDBRANCH  32  33
ENDBRANCH  25  27
ENDBRANCH  24  25
ENDBRANCH   1  24
TORSDOF 13
ENDMDL
