MODEL 1
REMARK VINA RESULT:     -11.1      0.000      0.000
REMARK SMILES CCNC(=O)N1[C@@H](C(=O)OCCOCCOC(=O)c2ccc(-c3c4nc(c(-c5c(F)cccc5F)c5ccc([nH]5)c(-c5c(F)cccc5F)c5nc(c(-c6c(F)cccc6F)c6ccc3[nH]6)C=C5)C=C4)cc2)CC[C@@H]2CCCC[C@H]21
REMARK SMILES IDX 13 1 12 2 11 3 10 4 8 5 9 6 7 7 6 8 80 9 73 10 75 11 79 12
REMARK SMILES IDX 74 13 76 14 78 15 77 16 4 17 3 18 5 20 2 21 1 22 14 23 15 24
REMARK SMILES IDX 16 25 17 26 18 27 19 28 20 29 72 30 21 31 71 32 22 33 23 34
REMARK SMILES IDX 24 35 65 36 25 37 70 38 64 39 66 40 26 41 69 42 63 43 62 44
REMARK SMILES IDX 27 46 53 47 36 48 52 49 37 50 40 51 51 52 67 53 38 54 39 55
REMARK SMILES IDX 50 57 68 58 41 59 28 60 29 61 34 62 30 63 31 64 33 65 35 66
REMARK SMILES IDX 32 67 54 68 55 69 60 70 56 71 57 72 59 73 61 74 58 75 42 76
REMARK SMILES IDX 43 77 48 78 44 79 45 80 47 81 49 82 46 83
REMARK H PARENT 3 19 66 45 40 56
REMARK Flexibility Score: inf
ROOT
ATOM      1  O   UNL A   1      36.199  21.627  24.771  1.00  0.00    -0.374 OA
ENDROOT
BRANCH   1   2
ATOM      2  C   UNL A   1      34.897  22.064  24.380  1.00  0.00     0.202 C 
BRANCH   2   3
ATOM      3  C   UNL A   1      34.859  23.280  23.456  1.00  0.00     0.261 C 
BRANCH   3   4
ATOM      4  O   UNL A   1      33.533  23.536  22.961  1.00  0.00    -0.462 OA
BRANCH   4   5
ATOM      5  C   UNL A   1      33.326  24.768  22.419  1.00  0.00     0.329 C 
ATOM      6  O   UNL A   1      33.162  24.995  21.225  1.00  0.00    -0.250 OA
BRANCH   5   7
ATOM      7  C   UNL A   1      33.329  25.867  23.489  1.00  0.00     0.197 C 
ATOM      8  N   UNL A   1      32.218  25.918  24.462  1.00  0.00    -0.308 N 
ATOM      9  C   UNL A   1      32.368  26.967  25.494  1.00  0.00     0.091 C 
ATOM     10  C   UNL A   1      33.593  27.236  22.849  1.00  0.00     0.038 C 
ATOM     11  C   UNL A   1      32.743  28.355  24.915  1.00  0.00     0.012 C 
ATOM     12  C   UNL A   1      31.181  27.126  26.466  1.00  0.00     0.025 C 
ATOM     13  C   UNL A   1      33.908  28.260  23.929  1.00  0.00     0.008 C 
ATOM     14  C   UNL A   1      33.105  29.325  26.051  1.00  0.00     0.006 C 
ATOM     15  C   UNL A   1      31.513  28.107  27.592  1.00  0.00     0.002 C 
ATOM     16  C   UNL A   1      31.968  29.463  27.057  1.00  0.00     0.000 C 
BRANCH   8  17
ATOM     17  C   UNL A   1      30.966  25.500  24.068  1.00  0.00     0.318 C 
ATOM     18  N   UNL A   1      30.541  24.290  24.541  1.00  0.00    -0.338 N 
ATOM     19  H   UNL A   1      29.654  24.011  24.221  1.00  0.00     0.165 HD
ATOM     20  O   UNL A   1      30.198  26.178  23.393  1.00  0.00    -0.249 OA
BRANCH  18  21
ATOM     21  C   UNL A   1      31.191  23.349  25.443  1.00  0.00     0.114 C 
ATOM     22  C   UNL A   1      30.488  23.214  26.778  1.00  0.00     0.027 C 
ENDBRANCH  18  21
ENDBRANCH   8  17
ENDBRANCH   5   7
ENDBRANCH   4   5
ENDBRANCH   3   4
ENDBRANCH   2   3
ENDBRANCH   1   2
BRANCH   1  23
ATOM     23  C   UNL A   1      36.361  20.226  24.994  1.00  0.00     0.202 C 
BRANCH  23  24
ATOM     24  C   UNL A   1      37.809  19.744  25.100  1.00  0.00     0.261 C 
BRANCH  24  25
ATOM     25  O   UNL A   1      38.708  20.859  25.253  1.00  0.00    -0.460 OA
BRANCH  25  26
ATOM     26  C   UNL A   1      39.704  20.658  26.145  1.00  0.00     0.338 C 
ATOM     27  O   UNL A   1      40.363  19.638  26.298  1.00  0.00    -0.246 OA
BRANCH  26  28
ATOM     28  C   UNL A   1      40.042  21.919  26.828  1.00  0.00     0.060 A 
ATOM     29  C   UNL A   1      39.298  23.053  26.474  1.00  0.00     0.016 A 
ATOM     30  C   UNL A   1      41.097  22.020  27.739  1.00  0.00     0.016 A 
ATOM     31  C   UNL A   1      39.657  24.305  26.961  1.00  0.00     0.010 A 
ATOM     32  C   UNL A   1      41.463  23.281  28.223  1.00  0.00     0.010 A 
ATOM     33  C   UNL A   1      40.776  24.431  27.794  1.00  0.00    -0.014 A 
BRANCH  33  34
ATOM     34  C   UNL A   1      41.335  25.782  28.038  1.00  0.00     0.031 A 
ATOM     35  C   UNL A   1      42.717  26.088  27.529  1.00  0.00     0.074 A 
ATOM     36  C   UNL A   1      40.608  26.734  28.648  1.00  0.00     0.049 A 
ATOM     37  N   UNL A   1      43.415  27.190  27.629  1.00  0.00    -0.248 NA
ATOM     38  C   UNL A   1      43.407  25.005  26.807  1.00  0.00     0.031 C 
ATOM     39  C   UNL A   1      39.244  26.568  29.145  1.00  0.00     0.029 A 
ATOM     40  N   UNL A   1      40.925  28.034  28.951  1.00  0.00    -0.354 N 
ATOM     41  C   UNL A   1      44.624  26.930  26.994  1.00  0.00     0.074 A 
ATOM     42  C   UNL A   1      44.577  25.561  26.532  1.00  0.00     0.031 C 
ATOM     43  C   UNL A   1      38.844  27.722  29.709  1.00  0.00     0.029 A 
ATOM     44  C   UNL A   1      39.933  28.695  29.633  1.00  0.00     0.049 A 
ATOM     45  H   UNL A   1      41.780  28.452  28.705  1.00  0.00     0.167 HD
ATOM     46  C   UNL A   1      45.673  27.763  26.806  1.00  0.00     0.037 A 
ATOM     47  C   UNL A   1      39.919  29.937  30.153  1.00  0.00     0.037 A 
ATOM     48  C   UNL A   1      45.712  29.128  27.254  1.00  0.00     0.049 A 
ATOM     49  C   UNL A   1      41.122  30.825  29.977  1.00  0.00     0.074 A 
ATOM     50  C   UNL A   1      46.721  30.061  27.087  1.00  0.00     0.029 A 
ATOM     51  N   UNL A   1      44.698  29.755  27.960  1.00  0.00    -0.354 N 
ATOM     52  N   UNL A   1      42.248  30.579  29.350  1.00  0.00    -0.248 NA
ATOM     53  C   UNL A   1      41.052  32.165  30.578  1.00  0.00     0.031 C 
ATOM     54  C   UNL A   1      46.334  31.241  27.733  1.00  0.00     0.029 A 
ATOM     55  C   UNL A   1      45.065  31.055  28.259  1.00  0.00     0.049 A 
ATOM     56  H   UNL A   1      43.842  29.336  28.211  1.00  0.00     0.167 HD
ATOM     57  C   UNL A   1      43.006  31.739  29.458  1.00  0.00     0.074 A 
ATOM     58  C   UNL A   1      42.207  32.693  30.198  1.00  0.00     0.031 C 
ATOM     59  C   UNL A   1      44.251  31.993  28.987  1.00  0.00     0.037 A 
BRANCH  46  60
ATOM     60  C   UNL A   1      46.879  27.214  26.104  1.00  0.00     0.057 A 
ATOM     61  C   UNL A   1      47.910  26.568  26.798  1.00  0.00     0.134 A 
ATOM     62  C   UNL A   1      46.987  27.289  24.710  1.00  0.00     0.134 A 
ATOM     63  F   UNL A   1      47.875  26.475  28.137  1.00  0.00    -0.206 F 
ATOM     64  C   UNL A   1      49.010  26.026  26.132  1.00  0.00     0.040 A 
ATOM     65  C   UNL A   1      48.070  26.733  24.030  1.00  0.00     0.040 A 
ATOM     66  F   UNL A   1      46.034  27.895  23.986  1.00  0.00    -0.206 F 
ATOM     67  C   UNL A   1      49.088  26.101  24.742  1.00  0.00     0.006 A 
ENDBRANCH  46  60
BRANCH  47  68
ATOM     68  C   UNL A   1      38.736  30.412  30.915  1.00  0.00     0.057 A 
ATOM     69  C   UNL A   1      38.593  30.145  32.282  1.00  0.00     0.134 A 
ATOM     70  C   UNL A   1      37.702  31.114  30.283  1.00  0.00     0.134 A 
ATOM     71  F   UNL A   1      39.536  29.455  32.938  1.00  0.00    -0.206 F 
ATOM     72  C   UNL A   1      37.455  30.542  32.988  1.00  0.00     0.040 A 
ATOM     73  C   UNL A   1      36.572  31.540  30.983  1.00  0.00     0.040 A 
ATOM     74  F   UNL A   1      37.778  31.398  28.975  1.00  0.00    -0.206 F 
ATOM     75  C   UNL A   1      36.442  31.245  32.338  1.00  0.00     0.006 A 
ENDBRANCH  47  68
BRANCH  59  76
ATOM     76  C   UNL A   1      44.812  33.364  29.227  1.00  0.00     0.057 A 
ATOM     77  C   UNL A   1      44.572  34.424  28.347  1.00  0.00     0.134 A 
ATOM     78  C   UNL A   1      45.564  33.633  30.379  1.00  0.00     0.134 A 
ATOM     79  F   UNL A   1      43.869  34.229  27.221  1.00  0.00    -0.206 F 
ATOM     80  C   UNL A   1      45.078  35.703  28.591  1.00  0.00     0.040 A 
ATOM     81  C   UNL A   1      46.052  34.912  30.647  1.00  0.00     0.040 A 
ATOM     82  F   UNL A   1      45.819  32.662  31.269  1.00  0.00    -0.206 F 
ATOM     83  C   UNL A   1      45.814  35.949  29.749  1.00  0.00     0.006 A 
ENDBRANCH  59  76
ENDBRANCH  33  34
ENDBRANCH  26  28
ENDBRANCH  25  26
ENDBRANCH  24  25
ENDBRANCH  23  24
ENDBRANCH   1  23
TORSDOF 16
ENDMDL
MODEL 2
REMARK VINA RESULT:     -10.9      3.885      7.084
REMARK SMILES CCNC(=O)N1[C@@H](C(=O)OCCOCCOC(=O)c2ccc(-c3c4nc(c(-c5c(F)cccc5F)c5ccc([nH]5)c(-c5c(F)cccc5F)c5nc(c(-c6c(F)cccc6F)c6ccc3[nH]6)C=C5)C=C4)cc2)CC[C@@H]2CCCC[C@H]21
REMARK SMILES IDX 13 1 12 2 11 3 10 4 8 5 9 6 7 7 6 8 80 9 73 10 75 11 79 12
REMARK SMILES IDX 74 13 76 14 78 15 77 16 4 17 3 18 5 20 2 21 1 22 14 23 15 24
REMARK SMILES IDX 16 25 17 26 18 27 19 28 20 29 72 30 21 31 71 32 22 33 23 34
REMARK SMILES IDX 24 35 65 36 25 37 70 38 64 39 66 40 26 41 69 42 63 43 62 44
REMARK SMILES IDX 27 46 53 47 36 48 52 49 37 50 40 51 51 52 67 53 38 54 39 55
REMARK SMILES IDX 50 57 68 58 41 59 28 60 29 61 34 62 30 63 31 64 33 65 35 66
REMARK SMILES IDX 32 67 54 68 55 69 60 70 56 71 57 72 59 73 61 74 58 75 42 76
REMARK SMILES IDX 43 77 48 78 44 79 45 80 47 81 49 82 46 83
REMARK H PARENT 3 19 66 45 40 56
REMARK Flexibility Score: inf
ROOT
ATOM      1  O   UNL A   1      31.724  28.422  25.974  1.00  0.00    -0.374 OA
ENDROOT
BRANCH   1   2
ATOM      2  C   UNL A   1      31.125  27.336  25.266  1.00  0.00     0.202 C 
BRANCH   2   3
ATOM      3  C   UNL A   1      30.447  26.277  26.133  1.00  0.00     0.261 C 
BRANCH   3   4
ATOM      4  O   UNL A   1      30.575  24.960  25.570  1.00  0.00    -0.462 OA
BRANCH   4   5
ATOM      5  C   UNL A   1      31.036  23.993  26.410  1.00  0.00     0.329 C 
ATOM      6  O   UNL A   1      30.360  23.408  27.251  1.00  0.00    -0.250 OA
BRANCH   5   7
ATOM      7  C   UNL A   1      32.528  23.715  26.192  1.00  0.00     0.197 C 
ATOM      8  N   UNL A   1      33.014  23.470  24.817  1.00  0.00    -0.308 N 
ATOM      9  C   UNL A   1      34.480  23.294  24.719  1.00  0.00     0.091 C 
ATOM     10  C   UNL A   1      33.023  22.645  27.174  1.00  0.00     0.038 C 
ATOM     11  C   UNL A   1      35.056  22.302  25.761  1.00  0.00     0.012 C 
ATOM     12  C   UNL A   1      35.019  22.930  23.321  1.00  0.00     0.025 C 
ATOM     13  C   UNL A   1      34.543  22.603  27.170  1.00  0.00     0.008 C 
ATOM     14  C   UNL A   1      36.592  22.349  25.749  1.00  0.00     0.006 C 
ATOM     15  C   UNL A   1      36.548  22.948  23.293  1.00  0.00     0.002 C 
ATOM     16  C   UNL A   1      37.152  22.043  24.365  1.00  0.00     0.000 C 
BRANCH   8  17
ATOM     17  C   UNL A   1      32.175  22.859  23.912  1.00  0.00     0.318 C 
ATOM     18  N   UNL A   1      31.674  23.641  22.910  1.00  0.00    -0.338 N 
ATOM     19  H   UNL A   1      31.059  23.180  22.295  1.00  0.00     0.165 HD
ATOM     20  O   UNL A   1      31.923  21.658  23.912  1.00  0.00    -0.249 OA
BRANCH  18  21
ATOM     21  C   UNL A   1      31.903  25.047  22.605  1.00  0.00     0.114 C 
ATOM     22  C   UNL A   1      32.902  25.264  21.488  1.00  0.00     0.027 C 
ENDBRANCH  18  21
ENDBRANCH   8  17
ENDBRANCH   5   7
ENDBRANCH   4   5
ENDBRANCH   3   4
ENDBRANCH   2   3
ENDBRANCH   1   2
BRANCH   1  23
ATOM     23  C   UNL A   1      31.900  29.638  25.247  1.00  0.00     0.202 C 
BRANCH  23  24
ATOM     24  C   UNL A   1      31.698  30.920  26.057  1.00  0.00     0.261 C 
BRANCH  24  25
ATOM     25  O   UNL A   1      32.469  30.882  27.272  1.00  0.00    -0.460 OA
BRANCH  25  26
ATOM     26  C   UNL A   1      33.247  31.969  27.477  1.00  0.00     0.338 C 
ATOM     27  O   UNL A   1      32.896  33.142  27.461  1.00  0.00    -0.246 OA
BRANCH  26  28
ATOM     28  C   UNL A   1      34.594  31.560  27.913  1.00  0.00     0.060 A 
ATOM     29  C   UNL A   1      34.793  30.197  28.168  1.00  0.00     0.016 A 
ATOM     30  C   UNL A   1      35.622  32.480  28.137  1.00  0.00     0.016 A 
ATOM     31  C   UNL A   1      35.988  29.756  28.726  1.00  0.00     0.010 A 
ATOM     32  C   UNL A   1      36.821  32.038  28.707  1.00  0.00     0.010 A 
ATOM     33  C   UNL A   1      36.986  30.684  29.050  1.00  0.00    -0.014 A 
BRANCH  33  34
ATOM     34  C   UNL A   1      38.101  30.256  29.928  1.00  0.00     0.031 A 
ATOM     35  C   UNL A   1      39.119  29.295  29.375  1.00  0.00     0.074 A 
ATOM     36  C   UNL A   1      38.239  30.756  31.167  1.00  0.00     0.049 A 
ATOM     37  N   UNL A   1      40.171  28.776  29.955  1.00  0.00    -0.248 NA
ATOM     38  C   UNL A   1      38.925  28.861  27.981  1.00  0.00     0.031 C 
ATOM     39  C   UNL A   1      37.342  31.725  31.794  1.00  0.00     0.029 A 
ATOM     40  N   UNL A   1      39.194  30.511  32.121  1.00  0.00    -0.354 N 
ATOM     41  C   UNL A   1      40.756  27.950  29.002  1.00  0.00     0.074 A 
ATOM     42  C   UNL A   1      39.933  28.017  27.815  1.00  0.00     0.031 C 
ATOM     43  C   UNL A   1      37.780  31.981  33.039  1.00  0.00     0.029 A 
ATOM     44  C   UNL A   1      38.972  31.176  33.302  1.00  0.00     0.049 A 
ATOM     45  H   UNL A   1      39.963  29.915  31.975  1.00  0.00     0.167 HD
ATOM     46  C   UNL A   1      41.885  27.212  29.105  1.00  0.00     0.037 A 
ATOM     47  C   UNL A   1      39.646  31.121  34.467  1.00  0.00     0.037 A 
ATOM     48  C   UNL A   1      42.710  27.157  30.281  1.00  0.00     0.049 A 
ATOM     49  C   UNL A   1      40.867  30.248  34.573  1.00  0.00     0.074 A 
ATOM     50  C   UNL A   1      43.889  26.458  30.475  1.00  0.00     0.029 A 
ATOM     51  N   UNL A   1      42.441  27.827  31.464  1.00  0.00    -0.354 N 
ATOM     52  N   UNL A   1      41.428  29.494  33.658  1.00  0.00    -0.248 NA
ATOM     53  C   UNL A   1      41.553  30.219  35.873  1.00  0.00     0.031 C 
ATOM     54  C   UNL A   1      44.309  26.671  31.793  1.00  0.00     0.029 A 
ATOM     55  C   UNL A   1      43.417  27.539  32.401  1.00  0.00     0.049 A 
ATOM     56  H   UNL A   1      41.670  28.420  31.615  1.00  0.00     0.167 HD
ATOM     57  C   UNL A   1      42.543  28.925  34.262  1.00  0.00     0.074 A 
ATOM     58  C   UNL A   1      42.588  29.431  35.618  1.00  0.00     0.031 C 
ATOM     59  C   UNL A   1      43.450  28.062  33.743  1.00  0.00     0.037 A 
BRANCH  46  60
ATOM     60  C   UNL A   1      42.283  26.380  27.923  1.00  0.00     0.057 A 
ATOM     61  C   UNL A   1      41.835  25.064  27.759  1.00  0.00     0.134 A 
ATOM     62  C   UNL A   1      43.086  26.921  26.911  1.00  0.00     0.134 A 
ATOM     63  F   UNL A   1      41.076  24.481  28.700  1.00  0.00    -0.206 F 
ATOM     64  C   UNL A   1      42.180  24.311  26.635  1.00  0.00     0.040 A 
ATOM     65  C   UNL A   1      43.419  26.187  25.773  1.00  0.00     0.040 A 
ATOM     66  F   UNL A   1      43.547  28.177  27.007  1.00  0.00    -0.206 F 
ATOM     67  C   UNL A   1      42.968  24.876  25.634  1.00  0.00     0.006 A 
ENDBRANCH  46  60
BRANCH  47  68
ATOM     68  C   UNL A   1      39.168  31.895  35.641  1.00  0.00     0.057 A 
ATOM     69  C   UNL A   1      38.274  31.342  36.566  1.00  0.00     0.134 A 
ATOM     70  C   UNL A   1      39.568  33.221  35.844  1.00  0.00     0.134 A 
ATOM     71  F   UNL A   1      37.834  30.086  36.412  1.00  0.00    -0.206 F 
ATOM     72  C   UNL A   1      37.780  32.087  37.639  1.00  0.00     0.040 A 
ATOM     73  C   UNL A   1      39.103  33.969  36.927  1.00  0.00     0.040 A 
ATOM     74  F   UNL A   1      40.420  33.809  34.992  1.00  0.00    -0.206 F 
ATOM     75  C   UNL A   1      38.198  33.404  37.824  1.00  0.00     0.006 A 
ENDBRANCH  47  68
BRANCH  59  76
ATOM     76  C   UNL A   1      44.583  27.638  34.629  1.00  0.00     0.057 A 
ATOM     77  C   UNL A   1      45.769  28.374  34.715  1.00  0.00     0.134 A 
ATOM     78  C   UNL A   1      44.465  26.501  35.441  1.00  0.00     0.134 A 
ATOM     79  F   UNL A   1      45.949  29.466  33.956  1.00  0.00    -0.206 F 
ATOM     80  C   UNL A   1      46.810  27.985  35.562  1.00  0.00     0.040 A 
ATOM     81  C   UNL A   1      45.486  26.116  36.309  1.00  0.00     0.040 A 
ATOM     82  F   UNL A   1      43.348  25.758  35.414  1.00  0.00    -0.206 F 
ATOM     83  C   UNL A   1      46.665  26.856  36.367  1.00  0.00     0.006 A 
ENDBRANCH  59  76
ENDBRANCH  33  34
ENDBRANCH  26  28
ENDBRANCH  25  26
ENDBRANCH  24  25
ENDBRANCH  23  24
ENDBRANCH   1  23
TORSDOF 16
ENDMDL
MODEL 3
REMARK VINA RESULT:     -10.9      0.597      6.235
REMARK SMILES CCNC(=O)N1[C@@H](C(=O)OCCOCCOC(=O)c2ccc(-c3c4nc(c(-c5c(F)cccc5F)c5ccc([nH]5)c(-c5c(F)cccc5F)c5nc(c(-c6c(F)cccc6F)c6ccc3[nH]6)C=C5)C=C4)cc2)CC[C@@H]2CCCC[C@H]21
REMARK SMILES IDX 13 1 12 2 11 3 10 4 8 5 9 6 7 7 6 8 80 9 73 10 75 11 79 12
REMARK SMILES IDX 74 13 76 14 78 15 77 16 4 17 3 18 5 20 2 21 1 22 14 23 15 24
REMARK SMILES IDX 16 25 17 26 18 27 19 28 20 29 72 30 21 31 71 32 22 33 23 34
REMARK SMILES IDX 24 35 65 36 25 37 70 38 64 39 66 40 26 41 69 42 63 43 62 44
REMARK SMILES IDX 27 46 53 47 36 48 52 49 37 50 40 51 51 52 67 53 38 54 39 55
REMARK SMILES IDX 50 57 68 58 41 59 28 60 29 61 34 62 30 63 31 64 33 65 35 66
REMARK SMILES IDX 32 67 54 68 55 69 60 70 56 71 57 72 59 73 61 74 58 75 42 76
REMARK SMILES IDX 43 77 48 78 44 79 45 80 47 81 49 82 46 83
REMARK H PARENT 3 19 66 45 40 56
REMARK Flexibility Score: inf
ROOT
ATOM      1  O   UNL A   1      34.262  21.614  24.532  1.00  0.00    -0.374 OA
ENDROOT
BRANCH   1   2
ATOM      2  C   UNL A   1      34.475  23.011  24.736  1.00  0.00     0.202 C 
BRANCH   2   3
ATOM      3  C   UNL A   1      34.814  23.815  23.482  1.00  0.00     0.261 C 
BRANCH   3   4
ATOM      4  O   UNL A   1      33.744  23.790  22.522  1.00  0.00    -0.462 OA
BRANCH   4   5
ATOM      5  C   UNL A   1      33.267  25.003  22.128  1.00  0.00     0.329 C 
ATOM      6  O   UNL A   1      32.849  25.265  21.005  1.00  0.00    -0.250 OA
BRANCH   5   7
ATOM      7  C   UNL A   1      33.317  26.030  23.266  1.00  0.00     0.197 C 
ATOM      8  N   UNL A   1      32.216  26.056  24.253  1.00  0.00    -0.308 N 
ATOM      9  C   UNL A   1      32.413  27.031  25.348  1.00  0.00     0.091 C 
ATOM     10  C   UNL A   1      33.623  27.428  22.712  1.00  0.00     0.038 C 
ATOM     11  C   UNL A   1      32.830  28.441  24.854  1.00  0.00     0.012 C 
ATOM     12  C   UNL A   1      31.241  27.169  26.340  1.00  0.00     0.025 C 
ATOM     13  C   UNL A   1      33.982  28.369  23.851  1.00  0.00     0.008 C 
ATOM     14  C   UNL A   1      33.236  29.323  26.046  1.00  0.00     0.006 C 
ATOM     15  C   UNL A   1      31.615  28.063  27.523  1.00  0.00     0.002 C 
ATOM     16  C   UNL A   1      32.112  29.434  27.070  1.00  0.00     0.000 C 
BRANCH   8  17
ATOM     17  C   UNL A   1      30.948  25.707  23.846  1.00  0.00     0.318 C 
ATOM     18  N   UNL A   1      30.464  24.509  24.292  1.00  0.00    -0.338 N 
ATOM     19  H   UNL A   1      29.566  24.280  23.964  1.00  0.00     0.165 HD
ATOM     20  O   UNL A   1      30.215  26.436  23.185  1.00  0.00    -0.249 OA
BRANCH  18  21
ATOM     21  C   UNL A   1      31.065  23.519  25.175  1.00  0.00     0.114 C 
ATOM     22  C   UNL A   1      30.357  23.394  26.507  1.00  0.00     0.027 C 
ENDBRANCH  18  21
ENDBRANCH   8  17
ENDBRANCH   5   7
ENDBRANCH   4   5
ENDBRANCH   3   4
ENDBRANCH   2   3
ENDBRANCH   1   2
BRANCH   1  23
ATOM     23  C   UNL A   1      35.395  20.763  24.711  1.00  0.00     0.202 C 
BRANCH  23  24
ATOM     24  C   UNL A   1      36.433  21.257  25.719  1.00  0.00     0.261 C 
BRANCH  24  25
ATOM     25  O   UNL A   1      37.683  21.543  25.065  1.00  0.00    -0.460 OA
BRANCH  25  26
ATOM     26  C   UNL A   1      38.780  21.203  25.779  1.00  0.00     0.338 C 
ATOM     27  O   UNL A   1      39.364  20.127  25.767  1.00  0.00    -0.246 OA
BRANCH  26  28
ATOM     28  C   UNL A   1      39.324  22.382  26.476  1.00  0.00     0.060 A 
ATOM     29  C   UNL A   1      38.807  23.631  26.110  1.00  0.00     0.016 A 
ATOM     30  C   UNL A   1      40.357  22.289  27.414  1.00  0.00     0.016 A 
ATOM     31  C   UNL A   1      39.375  24.798  26.612  1.00  0.00     0.010 A 
ATOM     32  C   UNL A   1      40.933  23.463  27.912  1.00  0.00     0.010 A 
ATOM     33  C   UNL A   1      40.476  24.719  27.472  1.00  0.00    -0.014 A 
BRANCH  33  34
ATOM     34  C   UNL A   1      41.265  25.945  27.737  1.00  0.00     0.031 A 
ATOM     35  C   UNL A   1      40.619  27.056  28.521  1.00  0.00     0.074 A 
ATOM     36  C   UNL A   1      42.545  26.046  27.342  1.00  0.00     0.049 A 
ATOM     37  N   UNL A   1      41.105  28.220  28.867  1.00  0.00    -0.248 NA
ATOM     38  C   UNL A   1      39.238  26.823  28.976  1.00  0.00     0.031 C 
ATOM     39  C   UNL A   1      43.290  25.020  26.615  1.00  0.00     0.029 A 
ATOM     40  N   UNL A   1      43.444  27.071  27.499  1.00  0.00    -0.354 N 
ATOM     41  C   UNL A   1      40.091  28.859  29.570  1.00  0.00     0.074 A 
ATOM     42  C   UNL A   1      38.953  27.966  29.582  1.00  0.00     0.031 C 
ATOM     43  C   UNL A   1      44.532  25.474  26.374  1.00  0.00     0.029 A 
ATOM     44  C   UNL A   1      44.659  26.830  26.907  1.00  0.00     0.049 A 
ATOM     45  H   UNL A   1      43.238  27.899  27.988  1.00  0.00     0.167 HD
ATOM     46  C   UNL A   1      40.110  30.076  30.161  1.00  0.00     0.037 A 
ATOM     47  C   UNL A   1      45.740  27.625  26.793  1.00  0.00     0.037 A 
ATOM     48  C   UNL A   1      41.247  30.956  30.160  1.00  0.00     0.049 A 
ATOM     49  C   UNL A   1      45.716  28.997  27.412  1.00  0.00     0.074 A 
ATOM     50  C   UNL A   1      41.374  32.200  30.754  1.00  0.00     0.029 A 
ATOM     51  N   UNL A   1      42.452  30.686  29.531  1.00  0.00    -0.354 N 
ATOM     52  N   UNL A   1      44.762  29.579  28.099  1.00  0.00    -0.248 NA
ATOM     53  C   UNL A   1      46.921  29.823  27.243  1.00  0.00     0.031 C 
ATOM     54  C   UNL A   1      42.643  32.701  30.445  1.00  0.00     0.029 A 
ATOM     55  C   UNL A   1      43.320  31.750  29.700  1.00  0.00     0.049 A 
ATOM     56  H   UNL A   1      42.659  29.859  29.037  1.00  0.00     0.167 HD
ATOM     57  C   UNL A   1      45.261  30.823  28.465  1.00  0.00     0.074 A 
ATOM     58  C   UNL A   1      46.606  30.907  27.937  1.00  0.00     0.031 C 
ATOM     59  C   UNL A   1      44.660  31.809  29.175  1.00  0.00     0.037 A 
BRANCH  46  60
ATOM     60  C   UNL A   1      38.856  30.540  30.839  1.00  0.00     0.057 A 
ATOM     61  C   UNL A   1      38.606  30.280  32.192  1.00  0.00     0.134 A 
ATOM     62  C   UNL A   1      37.910  31.300  30.140  1.00  0.00     0.134 A 
ATOM     63  F   UNL A   1      39.466  29.545  32.914  1.00  0.00    -0.206 F 
ATOM     64  C   UNL A   1      37.453  30.750  32.823  1.00  0.00     0.040 A 
ATOM     65  C   UNL A   1      36.765  31.794  30.765  1.00  0.00     0.040 A 
ATOM     66  F   UNL A   1      38.090  31.584  28.841  1.00  0.00    -0.206 F 
ATOM     67  C   UNL A   1      36.533  31.517  32.111  1.00  0.00     0.006 A 
ENDBRANCH  46  60
BRANCH  47  68
ATOM     68  C   UNL A   1      46.932  27.158  26.039  1.00  0.00     0.057 A 
ATOM     69  C   UNL A   1      48.016  26.555  26.688  1.00  0.00     0.134 A 
ATOM     70  C   UNL A   1      47.028  27.339  24.654  1.00  0.00     0.134 A 
ATOM     71  F   UNL A   1      47.994  26.378  28.017  1.00  0.00    -0.206 F 
ATOM     72  C   UNL A   1      49.161  26.166  25.989  1.00  0.00     0.040 A 
ATOM     73  C   UNL A   1      48.156  26.931  23.940  1.00  0.00     0.040 A 
ATOM     74  F   UNL A   1      46.025  27.913  23.975  1.00  0.00    -0.206 F 
ATOM     75  C   UNL A   1      49.231  26.351  24.609  1.00  0.00     0.006 A 
ENDBRANCH  47  68
BRANCH  59  76
ATOM     76  C   UNL A   1      45.463  33.046  29.452  1.00  0.00     0.057 A 
ATOM     77  C   UNL A   1      46.300  33.150  30.568  1.00  0.00     0.134 A 
ATOM     78  C   UNL A   1      45.430  34.129  28.562  1.00  0.00     0.134 A 
ATOM     79  F   UNL A   1      46.367  32.152  31.463  1.00  0.00    -0.206 F 
ATOM     80  C   UNL A   1      47.062  34.296  30.804  1.00  0.00     0.040 A 
ATOM     81  C   UNL A   1      46.206  35.269  28.773  1.00  0.00     0.040 A 
ATOM     82  F   UNL A   1      44.657  34.088  27.466  1.00  0.00    -0.206 F 
ATOM     83  C   UNL A   1      47.020  35.356  29.899  1.00  0.00     0.006 A 
ENDBRANCH  59  76
ENDBRANCH  33  34
ENDBRANCH  26  28
ENDBRANCH  25  26
ENDBRANCH  24  25
ENDBRANCH  23  24
ENDBRANCH   1  23
TORSDOF 16
ENDMDL
