MODEL 1
REMARK VINA RESULT:     -10.7      0.000      0.000
REMARK SMILES CCn1ccc([C@@H](C)NC(=O)c2cnn([C@H](C)C(=O)OCCOCCOC(=O)c3ccc(-c4c5nc(c(-c6c(F)cccc6F)c6ccc([nH]6)c(-c6c(F)cccc6F)c6nc(c(-c7c(F)cccc7F)c7ccc4[nH]7)C=C6)C=C5)cc3)c2)n1
REMARK SMILES IDX 21 1 20 2 18 3 19 4 16 5 17 6 15 7 12 8 13 9 83 10 14 11
REMARK SMILES IDX 10 12 9 13 11 15 7 16 8 17 6 18 3 19 4 20 84 21 5 22 2 23
REMARK SMILES IDX 1 24 22 25 23 26 24 27 25 28 26 29 27 30 28 31 29 32 30 33
REMARK SMILES IDX 82 34 31 35 81 36 32 37 33 38 34 39 75 40 35 41 80 42 74 43
REMARK SMILES IDX 76 44 36 45 79 46 73 47 72 48 37 50 63 51 46 52 62 53 47 54
REMARK SMILES IDX 50 55 61 56 77 57 48 58 49 59 60 61 78 62 51 63 38 64 39 65
REMARK SMILES IDX 44 66 40 67 41 68 43 69 45 70 42 71 64 72 65 73 70 74 66 75
REMARK SMILES IDX 67 76 69 77 71 78 68 79 52 80 53 81 58 82 54 83 55 84 57 85
REMARK SMILES IDX 59 86 56 87
REMARK H PARENT 9 14 76 49 50 60
REMARK Flexibility Score: inf
ROOT
ATOM      1  C   UNL A   1      33.953  30.888  27.956  1.00  0.00     0.261 C 
ENDROOT
BRANCH   1   2
ATOM      2  O   UNL A   1      33.748  30.301  26.663  1.00  0.00    -0.462 OA
BRANCH   2   3
ATOM      3  C   UNL A   1      32.576  29.626  26.503  1.00  0.00     0.330 C 
ATOM      4  O   UNL A   1      31.632  29.681  27.285  1.00  0.00    -0.250 OA
BRANCH   3   5
ATOM      5  C   UNL A   1      32.513  28.842  25.208  1.00  0.00     0.213 C 
ATOM      6  C   UNL A   1      33.816  28.636  24.437  1.00  0.00     0.046 C 
BRANCH   5   7
ATOM      7  N   UNL A   1      31.819  27.593  25.456  1.00  0.00    -0.258 N 
ATOM      8  C   UNL A   1      31.448  25.493  25.929  1.00  0.00     0.077 A 
ATOM      9  C   UNL A   1      30.396  26.070  25.185  1.00  0.00     0.149 A 
ATOM     10  C   UNL A   1      32.309  26.542  26.169  1.00  0.00     0.123 A 
ATOM     11  N   UNL A   1      30.603  27.363  24.924  1.00  0.00    -0.180 NA
BRANCH   8  12
ATOM     12  C   UNL A   1      31.655  24.135  26.361  1.00  0.00     0.254 C 
ATOM     13  N   UNL A   1      32.144  23.237  25.453  1.00  0.00    -0.344 N 
ATOM     14  H   UNL A   1      32.169  22.299  25.749  1.00  0.00     0.164 HD
ATOM     15  O   UNL A   1      31.449  23.779  27.519  1.00  0.00    -0.269 OA
BRANCH  13  16
ATOM     16  C   UNL A   1      32.634  23.488  24.100  1.00  0.00     0.130 C 
ATOM     17  C   UNL A   1      31.825  22.671  23.099  1.00  0.00     0.038 C 
BRANCH  16  18
ATOM     18  C   UNL A   1      34.106  23.178  24.042  1.00  0.00     0.084 A 
ATOM     19  N   UNL A   1      36.029  22.620  24.757  1.00  0.00    -0.273 N 
ATOM     20  C   UNL A   1      36.217  22.895  23.431  1.00  0.00     0.109 A 
ATOM     21  N   UNL A   1      34.752  22.776  25.147  1.00  0.00    -0.176 NA
ATOM     22  C   UNL A   1      34.989  23.262  22.937  1.00  0.00     0.047 A 
BRANCH  19  23
ATOM     23  C   UNL A   1      37.063  22.205  25.687  1.00  0.00     0.141 C 
ATOM     24  C   UNL A   1      38.044  23.288  26.113  1.00  0.00     0.029 C 
ENDBRANCH  19  23
ENDBRANCH  16  18
ENDBRANCH  13  16
ENDBRANCH   8  12
ENDBRANCH   5   7
ENDBRANCH   3   5
ENDBRANCH   2   3
ENDBRANCH   1   2
BRANCH   1  25
ATOM     25  C   UNL A   1      33.875  32.413  27.899  1.00  0.00     0.202 C 
BRANCH  25  26
ATOM     26  O   UNL A   1      33.918  33.137  29.128  1.00  0.00    -0.374 OA
BRANCH  26  27
ATOM     27  C   UNL A   1      34.325  34.500  29.157  1.00  0.00     0.202 C 
BRANCH  27  28
ATOM     28  C   UNL A   1      33.447  35.502  29.891  1.00  0.00     0.261 C 
BRANCH  28  29
ATOM     29  O   UNL A   1      32.698  34.886  30.927  1.00  0.00    -0.460 OA
BRANCH  29  30
ATOM     30  C   UNL A   1      32.900  35.438  32.147  1.00  0.00     0.338 C 
ATOM     31  O   UNL A   1      32.358  36.421  32.611  1.00  0.00    -0.246 OA
BRANCH  30  32
ATOM     32  C   UNL A   1      34.032  34.757  32.784  1.00  0.00     0.060 A 
ATOM     33  C   UNL A   1      35.200  35.515  32.882  1.00  0.00     0.016 A 
ATOM     34  C   UNL A   1      34.034  33.359  32.877  1.00  0.00     0.016 A 
ATOM     35  C   UNL A   1      36.397  34.856  32.760  1.00  0.00     0.010 A 
ATOM     36  C   UNL A   1      35.229  32.703  32.741  1.00  0.00     0.010 A 
ATOM     37  C   UNL A   1      36.377  33.468  32.575  1.00  0.00    -0.014 A 
BRANCH  37  38
ATOM     38  C   UNL A   1      37.637  32.809  32.327  1.00  0.00     0.031 A 
ATOM     39  C   UNL A   1      38.475  32.798  33.542  1.00  0.00     0.074 A 
ATOM     40  C   UNL A   1      37.932  32.223  31.153  1.00  0.00     0.049 A 
ATOM     41  N   UNL A   1      39.525  33.511  33.772  1.00  0.00    -0.248 NA
ATOM     42  C   UNL A   1      37.940  32.106  34.728  1.00  0.00     0.031 C 
ATOM     43  C   UNL A   1      37.054  31.978  30.006  1.00  0.00     0.029 A 
ATOM     44  N   UNL A   1      39.098  31.636  30.772  1.00  0.00    -0.354 N 
ATOM     45  C   UNL A   1      39.920  33.160  35.056  1.00  0.00     0.074 A 
ATOM     46  C   UNL A   1      38.795  32.509  35.667  1.00  0.00     0.031 C 
ATOM     47  C   UNL A   1      37.649  31.098  29.166  1.00  0.00     0.029 A 
ATOM     48  C   UNL A   1      38.994  30.829  29.642  1.00  0.00     0.049 A 
ATOM     49  H   UNL A   1      39.945  31.769  31.256  1.00  0.00     0.167 HD
ATOM     50  C   UNL A   1      41.240  33.132  35.380  1.00  0.00     0.037 A 
ATOM     51  C   UNL A   1      39.942  29.958  29.209  1.00  0.00     0.037 A 
ATOM     52  C   UNL A   1      42.012  33.922  34.451  1.00  0.00     0.049 A 
ATOM     53  C   UNL A   1      41.227  30.360  29.842  1.00  0.00     0.074 A 
ATOM     54  C   UNL A   1      42.027  35.251  34.077  1.00  0.00     0.029 A 
ATOM     55  N   UNL A   1      42.678  33.243  33.460  1.00  0.00    -0.354 N 
ATOM     56  N   UNL A   1      41.859  31.463  29.556  1.00  0.00    -0.248 NA
ATOM     57  C   UNL A   1      41.548  29.773  31.135  1.00  0.00     0.031 C 
ATOM     58  C   UNL A   1      42.299  35.243  32.677  1.00  0.00     0.029 A 
ATOM     59  C   UNL A   1      42.504  33.921  32.282  1.00  0.00     0.049 A 
ATOM     60  H   UNL A   1      43.192  32.412  33.577  1.00  0.00     0.167 HD
ATOM     61  C   UNL A   1      42.308  31.941  30.780  1.00  0.00     0.074 A 
ATOM     62  C   UNL A   1      42.150  30.820  31.706  1.00  0.00     0.031 C 
ATOM     63  C   UNL A   1      42.482  33.280  30.987  1.00  0.00     0.037 A 
BRANCH  50  64
ATOM     64  C   UNL A   1      41.856  32.041  36.225  1.00  0.00     0.057 A 
ATOM     65  C   UNL A   1      42.696  32.412  37.289  1.00  0.00     0.134 A 
ATOM     66  C   UNL A   1      41.915  30.675  35.870  1.00  0.00     0.134 A 
ATOM     67  F   UNL A   1      42.741  33.683  37.718  1.00  0.00    -0.206 F 
ATOM     68  C   UNL A   1      43.587  31.515  37.889  1.00  0.00     0.040 A 
ATOM     69  C   UNL A   1      42.762  29.760  36.498  1.00  0.00     0.040 A 
ATOM     70  F   UNL A   1      41.241  30.157  34.837  1.00  0.00    -0.206 F 
ATOM     71  C   UNL A   1      43.630  30.187  37.487  1.00  0.00     0.006 A 
ENDBRANCH  50  64
BRANCH  51  72
ATOM     72  C   UNL A   1      39.762  28.615  28.608  1.00  0.00     0.057 A 
ATOM     73  C   UNL A   1      40.344  28.290  27.372  1.00  0.00     0.134 A 
ATOM     74  C   UNL A   1      39.277  27.533  29.361  1.00  0.00     0.134 A 
ATOM     75  F   UNL A   1      40.879  29.248  26.601  1.00  0.00    -0.206 F 
ATOM     76  C   UNL A   1      40.460  26.966  26.925  1.00  0.00     0.040 A 
ATOM     77  C   UNL A   1      39.382  26.207  28.925  1.00  0.00     0.040 A 
ATOM     78  F   UNL A   1      38.770  27.716  30.589  1.00  0.00    -0.206 F 
ATOM     79  C   UNL A   1      39.988  25.917  27.709  1.00  0.00     0.006 A 
ENDBRANCH  51  72
BRANCH  63  80
ATOM     80  C   UNL A   1      42.434  34.184  29.785  1.00  0.00     0.057 A 
ATOM     81  C   UNL A   1      41.278  34.829  29.320  1.00  0.00     0.134 A 
ATOM     82  C   UNL A   1      43.640  34.524  29.163  1.00  0.00     0.134 A 
ATOM     83  F   UNL A   1      40.091  34.637  29.912  1.00  0.00    -0.206 F 
ATOM     84  C   UNL A   1      41.319  35.742  28.260  1.00  0.00     0.040 A 
ATOM     85  C   UNL A   1      43.700  35.458  28.128  1.00  0.00     0.040 A 
ATOM     86  F   UNL A   1      44.794  33.985  29.589  1.00  0.00    -0.206 F 
ATOM     87  C   UNL A   1      42.535  36.064  27.666  1.00  0.00     0.006 A 
ENDBRANCH  63  80
ENDBRANCH  37  38
ENDBRANCH  30  32
ENDBRANCH  29  30
ENDBRANCH  28  29
ENDBRANCH  27  28
ENDBRANCH  26  27
ENDBRANCH  25  26
ENDBRANCH   1  25
TORSDOF 19
ENDMDL
MODEL 2
REMARK VINA RESULT:      -9.2      4.226      8.385
REMARK SMILES CCn1ccc([C@@H](C)NC(=O)c2cnn([C@H](C)C(=O)OCCOCCOC(=O)c3ccc(-c4c5nc(c(-c6c(F)cccc6F)c6ccc([nH]6)c(-c6c(F)cccc6F)c6nc(c(-c7c(F)cccc7F)c7ccc4[nH]7)C=C6)C=C5)cc3)c2)n1
REMARK SMILES IDX 21 1 20 2 18 3 19 4 16 5 17 6 15 7 12 8 13 9 83 10 14 11
REMARK SMILES IDX 10 12 9 13 11 15 7 16 8 17 6 18 3 19 4 20 84 21 5 22 2 23
REMARK SMILES IDX 1 24 22 25 23 26 24 27 25 28 26 29 27 30 28 31 29 32 30 33
REMARK SMILES IDX 82 34 31 35 81 36 32 37 33 38 34 39 75 40 35 41 80 42 74 43
REMARK SMILES IDX 76 44 36 45 79 46 73 47 72 48 37 50 63 51 46 52 62 53 47 54
REMARK SMILES IDX 50 55 61 56 77 57 48 58 49 59 60 61 78 62 51 63 38 64 39 65
REMARK SMILES IDX 44 66 40 67 41 68 43 69 45 70 42 71 64 72 65 73 70 74 66 75
REMARK SMILES IDX 67 76 69 77 71 78 68 79 52 80 53 81 58 82 54 83 55 84 57 85
REMARK SMILES IDX 59 86 56 87
REMARK H PARENT 9 14 76 49 50 60
REMARK Flexibility Score: inf
ROOT
ATOM      1  C   UNL A   1      32.964  32.958  27.644  1.00  0.00     0.261 C 
ENDROOT
BRANCH   1   2
ATOM      2  O   UNL A   1      33.188  31.541  27.691  1.00  0.00    -0.462 OA
BRANCH   2   3
ATOM      3  C   UNL A   1      32.544  30.812  26.738  1.00  0.00     0.330 C 
ATOM      4  O   UNL A   1      31.416  31.059  26.321  1.00  0.00    -0.250 OA
BRANCH   3   5
ATOM      5  C   UNL A   1      33.391  29.691  26.172  1.00  0.00     0.213 C 
ATOM      6  C   UNL A   1      34.697  29.356  26.889  1.00  0.00     0.046 C 
BRANCH   5   7
ATOM      7  N   UNL A   1      32.552  28.524  25.988  1.00  0.00    -0.258 N 
ATOM      8  C   UNL A   1      31.159  27.100  25.089  1.00  0.00     0.077 A 
ATOM      9  C   UNL A   1      31.195  27.000  26.497  1.00  0.00     0.149 A 
ATOM     10  C   UNL A   1      32.127  28.033  24.790  1.00  0.00     0.123 A 
ATOM     11  N   UNL A   1      32.071  27.844  27.048  1.00  0.00    -0.180 NA
BRANCH   8  12
ATOM     12  C   UNL A   1      30.326  26.431  24.124  1.00  0.00     0.254 C 
ATOM     13  N   UNL A   1      30.937  25.743  23.111  1.00  0.00    -0.344 N 
ATOM     14  H   UNL A   1      30.340  25.392  22.412  1.00  0.00     0.164 HD
ATOM     15  O   UNL A   1      29.101  26.424  24.212  1.00  0.00    -0.269 OA
BRANCH  13  16
ATOM     16  C   UNL A   1      32.359  25.462  22.932  1.00  0.00     0.130 C 
ATOM     17  C   UNL A   1      32.752  25.700  21.478  1.00  0.00     0.038 C 
BRANCH  16  18
ATOM     18  C   UNL A   1      32.646  24.055  23.384  1.00  0.00     0.084 A 
ATOM     19  N   UNL A   1      33.605  22.490  24.457  1.00  0.00    -0.273 N 
ATOM     20  C   UNL A   1      32.693  21.856  23.658  1.00  0.00     0.109 A 
ATOM     21  N   UNL A   1      33.587  23.826  24.313  1.00  0.00    -0.176 NA
ATOM     22  C   UNL A   1      32.054  22.844  22.948  1.00  0.00     0.047 A 
BRANCH  19  23
ATOM     23  C   UNL A   1      34.521  21.836  25.373  1.00  0.00     0.141 C 
ATOM     24  C   UNL A   1      34.982  20.444  24.968  1.00  0.00     0.029 C 
ENDBRANCH  19  23
ENDBRANCH  16  18
ENDBRANCH  13  16
ENDBRANCH   8  12
ENDBRANCH   5   7
ENDBRANCH   3   5
ENDBRANCH   2   3
ENDBRANCH   1   2
BRANCH   1  25
ATOM     25  C   UNL A   1      33.953  33.712  28.530  1.00  0.00     0.202 C 
BRANCH  25  26
ATOM     26  O   UNL A   1      34.150  33.251  29.867  1.00  0.00    -0.374 OA
BRANCH  26  27
ATOM     27  C   UNL A   1      35.387  32.670  30.261  1.00  0.00     0.202 C 
BRANCH  27  28
ATOM     28  C   UNL A   1      36.199  31.919  29.217  1.00  0.00     0.261 C 
BRANCH  28  29
ATOM     29  O   UNL A   1      37.199  31.107  29.811  1.00  0.00    -0.460 OA
BRANCH  29  30
ATOM     30  C   UNL A   1      36.835  29.810  29.950  1.00  0.00     0.338 C 
ATOM     31  O   UNL A   1      35.926  29.368  30.625  1.00  0.00    -0.246 OA
BRANCH  30  32
ATOM     32  C   UNL A   1      37.837  28.970  29.286  1.00  0.00     0.060 A 
ATOM     33  C   UNL A   1      38.387  27.964  30.080  1.00  0.00     0.016 A 
ATOM     34  C   UNL A   1      38.461  29.432  28.120  1.00  0.00     0.016 A 
ATOM     35  C   UNL A   1      39.704  27.642  29.877  1.00  0.00     0.010 A 
ATOM     36  C   UNL A   1      39.782  29.121  27.926  1.00  0.00     0.010 A 
ATOM     37  C   UNL A   1      40.407  28.317  28.872  1.00  0.00    -0.014 A 
BRANCH  37  38
ATOM     38  C   UNL A   1      41.821  28.055  28.752  1.00  0.00     0.031 A 
ATOM     39  C   UNL A   1      42.064  26.790  28.030  1.00  0.00     0.074 A 
ATOM     40  C   UNL A   1      42.760  28.916  29.183  1.00  0.00     0.049 A 
ATOM     41  N   UNL A   1      42.460  25.670  28.530  1.00  0.00    -0.248 NA
ATOM     42  C   UNL A   1      41.567  26.695  26.646  1.00  0.00     0.031 C 
ATOM     43  C   UNL A   1      42.589  30.288  29.669  1.00  0.00     0.029 A 
ATOM     44  N   UNL A   1      44.110  28.758  29.192  1.00  0.00    -0.354 N 
ATOM     45  C   UNL A   1      42.497  24.792  27.455  1.00  0.00     0.074 A 
ATOM     46  C   UNL A   1      41.714  25.391  26.411  1.00  0.00     0.031 C 
ATOM     47  C   UNL A   1      43.794  30.904  29.705  1.00  0.00     0.029 A 
ATOM     48  C   UNL A   1      44.827  29.937  29.379  1.00  0.00     0.049 A 
ATOM     49  H   UNL A   1      44.546  27.882  29.076  1.00  0.00     0.167 HD
ATOM     50  C   UNL A   1      43.443  23.818  27.402  1.00  0.00     0.037 A 
ATOM     51  C   UNL A   1      46.164  30.081  29.190  1.00  0.00     0.037 A 
ATOM     52  C   UNL A   1      43.989  23.561  28.713  1.00  0.00     0.049 A 
ATOM     53  C   UNL A   1      46.760  28.719  29.226  1.00  0.00     0.074 A 
ATOM     54  C   UNL A   1      43.471  23.134  29.919  1.00  0.00     0.029 A 
ATOM     55  N   UNL A   1      45.203  24.132  29.005  1.00  0.00    -0.354 N 
ATOM     56  N   UNL A   1      46.813  27.981  30.300  1.00  0.00    -0.248 NA
ATOM     57  C   UNL A   1      46.853  27.995  27.966  1.00  0.00     0.031 C 
ATOM     58  C   UNL A   1      44.182  23.867  30.913  1.00  0.00     0.029 A 
ATOM     59  C   UNL A   1      45.142  24.650  30.272  1.00  0.00     0.049 A 
ATOM     60  H   UNL A   1      45.983  24.164  28.406  1.00  0.00     0.167 HD
ATOM     61  C   UNL A   1      46.500  26.701  29.864  1.00  0.00     0.074 A 
ATOM     62  C   UNL A   1      46.607  26.759  28.407  1.00  0.00     0.031 C 
ATOM     63  C   UNL A   1      45.899  25.805  30.701  1.00  0.00     0.037 A 
BRANCH  50  64
ATOM     64  C   UNL A   1      44.178  23.454  26.132  1.00  0.00     0.057 A 
ATOM     65  C   UNL A   1      44.191  22.108  25.729  1.00  0.00     0.134 A 
ATOM     66  C   UNL A   1      45.108  24.283  25.467  1.00  0.00     0.134 A 
ATOM     67  F   UNL A   1      43.362  21.214  26.290  1.00  0.00    -0.206 F 
ATOM     68  C   UNL A   1      45.117  21.611  24.804  1.00  0.00     0.040 A 
ATOM     69  C   UNL A   1      46.000  23.808  24.504  1.00  0.00     0.040 A 
ATOM     70  F   UNL A   1      45.287  25.573  25.769  1.00  0.00    -0.206 F 
ATOM     71  C   UNL A   1      46.032  22.459  24.196  1.00  0.00     0.006 A 
ENDBRANCH  50  64
BRANCH  51  72
ATOM     72  C   UNL A   1      46.902  31.234  28.620  1.00  0.00     0.057 A 
ATOM     73  C   UNL A   1      48.067  31.724  29.232  1.00  0.00     0.134 A 
ATOM     74  C   UNL A   1      46.659  31.685  27.312  1.00  0.00     0.134 A 
ATOM     75  F   UNL A   1      48.411  31.315  30.462  1.00  0.00    -0.206 F 
ATOM     76  C   UNL A   1      48.950  32.590  28.572  1.00  0.00     0.040 A 
ATOM     77  C   UNL A   1      47.530  32.553  26.644  1.00  0.00     0.040 A 
ATOM     78  F   UNL A   1      45.618  31.226  26.603  1.00  0.00    -0.206 F 
ATOM     79  C   UNL A   1      48.689  32.998  27.268  1.00  0.00     0.006 A 
ENDBRANCH  51  72
BRANCH  63  80
ATOM     80  C   UNL A   1      45.834  26.151  32.164  1.00  0.00     0.057 A 
ATOM     81  C   UNL A   1      44.722  26.729  32.796  1.00  0.00     0.134 A 
ATOM     82  C   UNL A   1      46.890  25.748  32.988  1.00  0.00     0.134 A 
ATOM     83  F   UNL A   1      43.626  27.063  32.102  1.00  0.00    -0.206 F 
ATOM     84  C   UNL A   1      44.683  26.929  34.181  1.00  0.00     0.040 A 
ATOM     85  C   UNL A   1      46.849  25.912  34.373  1.00  0.00     0.040 A 
ATOM     86  F   UNL A   1      47.965  25.141  32.459  1.00  0.00    -0.206 F 
ATOM     87  C   UNL A   1      45.747  26.513  34.974  1.00  0.00     0.006 A 
ENDBRANCH  63  80
ENDBRANCH  37  38
ENDBRANCH  30  32
ENDBRANCH  29  30
ENDBRANCH  28  29
ENDBRANCH  27  28
ENDBRANCH  26  27
ENDBRANCH  25  26
ENDBRANCH   1  25
TORSDOF 19
ENDMDL
MODEL 3
REMARK VINA RESULT:      -9.2      3.318      4.822
REMARK SMILES CCn1ccc([C@@H](C)NC(=O)c2cnn([C@H](C)C(=O)OCCOCCOC(=O)c3ccc(-c4c5nc(c(-c6c(F)cccc6F)c6ccc([nH]6)c(-c6c(F)cccc6F)c6nc(c(-c7c(F)cccc7F)c7ccc4[nH]7)C=C6)C=C5)cc3)c2)n1
REMARK SMILES IDX 21 1 20 2 18 3 19 4 16 5 17 6 15 7 12 8 13 9 83 10 14 11
REMARK SMILES IDX 10 12 9 13 11 15 7 16 8 17 6 18 3 19 4 20 84 21 5 22 2 23
REMARK SMILES IDX 1 24 22 25 23 26 24 27 25 28 26 29 27 30 28 31 29 32 30 33
REMARK SMILES IDX 82 34 31 35 81 36 32 37 33 38 34 39 75 40 35 41 80 42 74 43
REMARK SMILES IDX 76 44 36 45 79 46 73 47 72 48 37 50 63 51 46 52 62 53 47 54
REMARK SMILES IDX 50 55 61 56 77 57 48 58 49 59 60 61 78 62 51 63 38 64 39 65
REMARK SMILES IDX 44 66 40 67 41 68 43 69 45 70 42 71 64 72 65 73 70 74 66 75
REMARK SMILES IDX 67 76 69 77 71 78 68 79 52 80 53 81 58 82 54 83 55 84 57 85
REMARK SMILES IDX 59 86 56 87
REMARK H PARENT 9 14 76 49 50 60
REMARK Flexibility Score: inf
ROOT
ATOM      1  C   UNL A   1      33.484  30.083  27.356  1.00  0.00     0.261 C 
ENDROOT
BRANCH   1   2
ATOM      2  O   UNL A   1      33.544  29.786  25.953  1.00  0.00    -0.462 OA
BRANCH   2   3
ATOM      3  C   UNL A   1      32.342  29.700  25.319  1.00  0.00     0.330 C 
ATOM      4  O   UNL A   1      31.375  30.415  25.566  1.00  0.00    -0.250 OA
BRANCH   3   5
ATOM      5  C   UNL A   1      32.328  28.671  24.207  1.00  0.00     0.213 C 
ATOM      6  C   UNL A   1      33.667  28.275  23.588  1.00  0.00     0.046 C 
BRANCH   5   7
ATOM      7  N   UNL A   1      31.566  27.521  24.650  1.00  0.00    -0.258 N 
ATOM      8  C   UNL A   1      31.079  25.553  25.466  1.00  0.00     0.077 A 
ATOM      9  C   UNL A   1      30.067  26.047  24.615  1.00  0.00     0.149 A 
ATOM     10  C   UNL A   1      31.992  26.583  25.541  1.00  0.00     0.123 A 
ATOM     11  N   UNL A   1      30.344  27.265  24.142  1.00  0.00    -0.180 NA
BRANCH   8  12
ATOM     12  C   UNL A   1      31.209  24.280  26.126  1.00  0.00     0.254 C 
ATOM     13  N   UNL A   1      31.906  23.291  25.488  1.00  0.00    -0.344 N 
ATOM     14  H   UNL A   1      31.881  22.406  25.916  1.00  0.00     0.164 HD
ATOM     15  O   UNL A   1      30.757  24.078  27.250  1.00  0.00    -0.269 OA
BRANCH  13  16
ATOM     16  C   UNL A   1      32.681  23.377  24.253  1.00  0.00     0.130 C 
ATOM     17  C   UNL A   1      32.283  22.244  23.314  1.00  0.00     0.038 C 
BRANCH  16  18
ATOM     18  C   UNL A   1      34.149  23.360  24.588  1.00  0.00     0.084 A 
ATOM     19  N   UNL A   1      36.157  22.663  24.596  1.00  0.00    -0.273 N 
ATOM     20  C   UNL A   1      36.168  23.765  25.405  1.00  0.00     0.109 A 
ATOM     21  N   UNL A   1      34.943  22.405  24.081  1.00  0.00    -0.176 NA
ATOM     22  C   UNL A   1      34.880  24.241  25.422  1.00  0.00     0.047 A 
BRANCH  19  23
ATOM     23  C   UNL A   1      37.304  21.825  24.297  1.00  0.00     0.141 C 
ATOM     24  C   UNL A   1      37.335  20.472  24.992  1.00  0.00     0.029 C 
ENDBRANCH  19  23
ENDBRANCH  16  18
ENDBRANCH  13  16
ENDBRANCH   8  12
ENDBRANCH   5   7
ENDBRANCH   3   5
ENDBRANCH   2   3
ENDBRANCH   1   2
BRANCH   1  25
ATOM     25  C   UNL A   1      33.791  31.554  27.632  1.00  0.00     0.202 C 
BRANCH  25  26
ATOM     26  O   UNL A   1      35.124  32.017  27.417  1.00  0.00    -0.374 OA
BRANCH  26  27
ATOM     27  C   UNL A   1      36.074  32.019  28.476  1.00  0.00     0.202 C 
BRANCH  27  28
ATOM     28  C   UNL A   1      35.568  32.181  29.902  1.00  0.00     0.261 C 
BRANCH  28  29
ATOM     29  O   UNL A   1      36.633  32.349  30.823  1.00  0.00    -0.460 OA
BRANCH  29  30
ATOM     30  C   UNL A   1      36.339  31.931  32.077  1.00  0.00     0.338 C 
ATOM     31  O   UNL A   1      35.449  32.336  32.799  1.00  0.00    -0.246 OA
BRANCH  30  32
ATOM     32  C   UNL A   1      37.390  31.010  32.521  1.00  0.00     0.060 A 
ATOM     33  C   UNL A   1      38.679  31.543  32.530  1.00  0.00     0.016 A 
ATOM     34  C   UNL A   1      37.148  29.630  32.512  1.00  0.00     0.016 A 
ATOM     35  C   UNL A   1      39.717  30.703  32.216  1.00  0.00     0.010 A 
ATOM     36  C   UNL A   1      38.183  28.794  32.184  1.00  0.00     0.010 A 
ATOM     37  C   UNL A   1      39.426  29.363  31.935  1.00  0.00    -0.014 A 
BRANCH  37  38
ATOM     38  C   UNL A   1      40.511  28.522  31.488  1.00  0.00     0.031 A 
ATOM     39  C   UNL A   1      41.423  28.200  32.604  1.00  0.00     0.074 A 
ATOM     40  C   UNL A   1      40.596  28.051  30.232  1.00  0.00     0.049 A 
ATOM     41  N   UNL A   1      42.605  28.673  32.807  1.00  0.00    -0.248 NA
ATOM     42  C   UNL A   1      40.857  27.469  33.751  1.00  0.00     0.031 C 
ATOM     43  C   UNL A   1      39.600  28.121  29.159  1.00  0.00     0.029 A 
ATOM     44  N   UNL A   1      41.593  27.315  29.672  1.00  0.00    -0.354 N 
ATOM     45  C   UNL A   1      43.024  28.091  33.996  1.00  0.00     0.074 A 
ATOM     46  C   UNL A   1      41.844  27.583  34.639  1.00  0.00     0.031 C 
ATOM     47  C   UNL A   1      39.947  27.265  28.168  1.00  0.00     0.029 A 
ATOM     48  C   UNL A   1      41.248  26.695  28.473  1.00  0.00     0.049 A 
ATOM     49  H   UNL A   1      42.485  27.227  30.080  1.00  0.00     0.167 HD
ATOM     50  C   UNL A   1      44.334  27.781  34.180  1.00  0.00     0.037 A 
ATOM     51  C   UNL A   1      41.973  25.729  27.852  1.00  0.00     0.037 A 
ATOM     52  C   UNL A   1      45.170  28.531  33.274  1.00  0.00     0.049 A 
ATOM     53  C   UNL A   1      43.356  25.803  28.394  1.00  0.00     0.074 A 
ATOM     54  C   UNL A   1      45.413  29.872  33.053  1.00  0.00     0.029 A 
ATOM     55  N   UNL A   1      45.613  27.877  32.151  1.00  0.00    -0.354 N 
ATOM     56  N   UNL A   1      44.165  26.801  28.172  1.00  0.00    -0.248 NA
ATOM     57  C   UNL A   1      43.657  25.005  29.573  1.00  0.00     0.031 C 
ATOM     58  C   UNL A   1      45.569  29.997  31.641  1.00  0.00     0.029 A 
ATOM     59  C   UNL A   1      45.483  28.723  31.080  1.00  0.00     0.049 A 
ATOM     60  H   UNL A   1      45.964  26.958  32.120  1.00  0.00     0.167 HD
ATOM     61  C   UNL A   1      44.791  27.025  29.391  1.00  0.00     0.074 A 
ATOM     62  C   UNL A   1      44.492  25.841  30.195  1.00  0.00     0.031 C 
ATOM     63  C   UNL A   1      45.237  28.271  29.729  1.00  0.00     0.037 A 
BRANCH  50  64
ATOM     64  C   UNL A   1      44.791  26.496  34.830  1.00  0.00     0.057 A 
ATOM     65  C   UNL A   1      44.357  25.277  34.281  1.00  0.00     0.134 A 
ATOM     66  C   UNL A   1      45.369  26.397  36.115  1.00  0.00     0.134 A 
ATOM     67  F   UNL A   1      43.782  25.234  33.070  1.00  0.00    -0.206 F 
ATOM     68  C   UNL A   1      44.412  24.073  34.993  1.00  0.00     0.040 A 
ATOM     69  C   UNL A   1      45.476  25.192  36.812  1.00  0.00     0.040 A 
ATOM     70  F   UNL A   1      45.772  27.459  36.820  1.00  0.00    -0.206 F 
ATOM     71  C   UNL A   1      44.963  24.029  36.266  1.00  0.00     0.006 A 
ENDBRANCH  50  64
BRANCH  51  72
ATOM     72  C   UNL A   1      41.490  24.532  27.123  1.00  0.00     0.057 A 
ATOM     73  C   UNL A   1      42.309  23.868  26.196  1.00  0.00     0.134 A 
ATOM     74  C   UNL A   1      40.341  23.836  27.535  1.00  0.00     0.134 A 
ATOM     75  F   UNL A   1      43.453  24.429  25.777  1.00  0.00    -0.206 F 
ATOM     76  C   UNL A   1      42.016  22.580  25.727  1.00  0.00     0.040 A 
ATOM     77  C   UNL A   1      40.034  22.551  27.072  1.00  0.00     0.040 A 
ATOM     78  F   UNL A   1      39.526  24.339  28.474  1.00  0.00    -0.206 F 
ATOM     79  C   UNL A   1      40.880  21.911  26.175  1.00  0.00     0.006 A 
ENDBRANCH  51  72
BRANCH  63  80
ATOM     80  C   UNL A   1      45.272  29.317  28.649  1.00  0.00     0.057 A 
ATOM     81  C   UNL A   1      46.322  29.476  27.730  1.00  0.00     0.134 A 
ATOM     82  C   UNL A   1      44.131  30.100  28.445  1.00  0.00     0.134 A 
ATOM     83  F   UNL A   1      47.417  28.707  27.788  1.00  0.00    -0.206 F 
ATOM     84  C   UNL A   1      46.248  30.400  26.680  1.00  0.00     0.040 A 
ATOM     85  C   UNL A   1      44.032  31.000  27.384  1.00  0.00     0.040 A 
ATOM     86  F   UNL A   1      43.068  29.965  29.254  1.00  0.00    -0.206 F 
ATOM     87  C   UNL A   1      45.097  31.160  26.502  1.00  0.00     0.006 A 
ENDBRANCH  63  80
ENDBRANCH  37  38
ENDBRANCH  30  32
ENDBRANCH  29  30
ENDBRANCH  28  29
ENDBRANCH  27  28
ENDBRANCH  26  27
ENDBRANCH  25  26
ENDBRANCH   1  25
TORSDOF 19
ENDMDL
