MODEL 1
REMARK VINA RESULT:     -11.4      0.000      0.000
REMARK SMILES O=C(OCCOCCOC(=O)c1ccc(-c2c3nc(c(-c4c(F)cccc4F)c4ccc([nH]4)c(-c4c(F)cccc4F)c4nc(c(-c5c(F)cccc5F)c5ccc2[nH]5)C=C4)C=C3)cc1)c1ccc(CNC(=O)c2ccccc2I)cc1
REMARK SMILES IDX 5 1 4 2 3 3 2 4 1 5 66 6 67 7 82 8 68 9 81 10 69 11 70 12
REMARK SMILES IDX 71 13 72 14 73 16 74 17 75 18 79 19 76 20 78 21 80 22 77 23
REMARK SMILES IDX 6 24 7 25 8 26 9 27 10 28 11 29 12 30 13 31 65 32 14 33
REMARK SMILES IDX 64 34 15 35 16 36 17 37 58 38 18 39 63 40 57 41 59 42 19 43
REMARK SMILES IDX 62 44 56 45 55 46 20 48 46 49 29 50 45 51 30 52 33 53 44 54
REMARK SMILES IDX 60 55 31 56 32 57 43 59 61 60 34 61 21 62 22 63 27 64 23 65
REMARK SMILES IDX 24 66 26 67 28 68 25 69 47 70 48 71 53 72 49 73 50 74 52 75
REMARK SMILES IDX 54 76 51 77 35 78 36 79 41 80 37 81 38 82 40 83 42 84 39 85
REMARK H PARENT 71 15 59 47 33 58
REMARK Flexibility Score: inf
ROOT
ATOM      1  C   UNL A   1      43.320  19.300  25.294  1.00  0.00     0.202 C 
ENDROOT
BRANCH   1   2
ATOM      2  C   UNL A   1      42.173  19.398  26.298  1.00  0.00     0.261 C 
BRANCH   2   3
ATOM      3  O   UNL A   1      41.322  20.508  25.957  1.00  0.00    -0.460 OA
BRANCH   3   4
ATOM      4  C   UNL A   1      40.502  21.174  26.804  1.00  0.00     0.338 C 
ATOM      5  O   UNL A   1      40.763  21.239  28.002  1.00  0.00    -0.246 OA
BRANCH   4   6
ATOM      6  C   UNL A   1      39.297  21.878  26.304  1.00  0.00     0.060 A 
ATOM      7  C   UNL A   1      39.047  23.228  26.563  1.00  0.00     0.016 A 
ATOM      8  C   UNL A   1      38.451  21.183  25.435  1.00  0.00     0.016 A 
ATOM      9  C   UNL A   1      37.935  23.862  26.017  1.00  0.00     0.006 A 
ATOM     10  C   UNL A   1      37.348  21.826  24.865  1.00  0.00     0.006 A 
ATOM     11  C   UNL A   1      37.079  23.171  25.156  1.00  0.00    -0.029 A 
BRANCH  11  12
ATOM     12  C   UNL A   1      35.950  23.906  24.487  1.00  0.00     0.152 C 
BRANCH  12  13
ATOM     13  N   UNL A   1      34.669  23.616  25.099  1.00  0.00    -0.348 N 
ATOM     14  C   UNL A   1      33.599  24.434  25.351  1.00  0.00     0.252 C 
ATOM     15  H   UNL A   1      34.549  22.681  25.380  1.00  0.00     0.164 HD
ATOM     16  O   UNL A   1      32.615  23.986  25.935  1.00  0.00    -0.269 OA
BRANCH  14  17
ATOM     17  C   UNL A   1      33.641  25.876  25.029  1.00  0.00     0.053 A 
ATOM     18  C   UNL A   1      33.852  26.735  26.124  1.00  0.00     0.015 A 
ATOM     19  C   UNL A   1      33.408  26.427  23.762  1.00  0.00     0.026 A 
ATOM     20  C   UNL A   1      33.898  28.117  25.946  1.00  0.00     0.001 A 
ATOM     21  C   UNL A   1      33.497  27.815  23.583  1.00  0.00     0.015 A 
ATOM     22  I   UNL A   1      32.783  25.309  22.097  1.00  0.00    -0.043 I 
ATOM     23  C   UNL A   1      33.745  28.655  24.672  1.00  0.00     0.001 A 
ENDBRANCH  14  17
ENDBRANCH  12  13
ENDBRANCH  11  12
ENDBRANCH   4   6
ENDBRANCH   3   4
ENDBRANCH   2   3
ENDBRANCH   1   2
BRANCH   1  24
ATOM     24  O   UNL A   1      43.809  20.573  24.873  1.00  0.00    -0.374 OA
BRANCH  24  25
ATOM     25  C   UNL A   1      45.203  20.809  25.124  1.00  0.00     0.202 C 
BRANCH  25  26
ATOM     26  C   UNL A   1      45.347  22.027  26.041  1.00  0.00     0.261 C 
BRANCH  26  27
ATOM     27  O   UNL A   1      44.086  22.711  26.056  1.00  0.00    -0.460 OA
BRANCH  27  28
ATOM     28  C   UNL A   1      44.110  23.928  25.460  1.00  0.00     0.338 C 
ATOM     29  O   UNL A   1      44.468  24.186  24.322  1.00  0.00    -0.246 OA
BRANCH  28  30
ATOM     30  C   UNL A   1      43.426  24.890  26.353  1.00  0.00     0.060 A 
ATOM     31  C   UNL A   1      43.797  26.240  26.284  1.00  0.00     0.016 A 
ATOM     32  C   UNL A   1      42.399  24.484  27.214  1.00  0.00     0.016 A 
ATOM     33  C   UNL A   1      43.180  27.178  27.111  1.00  0.00     0.010 A 
ATOM     34  C   UNL A   1      41.780  25.419  28.037  1.00  0.00     0.010 A 
ATOM     35  C   UNL A   1      42.198  26.759  28.017  1.00  0.00    -0.014 A 
BRANCH  35  36
ATOM     36  C   UNL A   1      41.751  27.655  29.104  1.00  0.00     0.031 A 
ATOM     37  C   UNL A   1      42.486  27.582  30.412  1.00  0.00     0.074 A 
ATOM     38  C   UNL A   1      40.701  28.475  28.943  1.00  0.00     0.049 A 
ATOM     39  N   UNL A   1      42.230  28.182  31.544  1.00  0.00    -0.248 NA
ATOM     40  C   UNL A   1      43.661  26.695  30.451  1.00  0.00     0.031 C 
ATOM     41  C   UNL A   1      39.926  28.630  27.713  1.00  0.00     0.029 A 
ATOM     42  N   UNL A   1      40.092  29.317  29.836  1.00  0.00    -0.354 N 
ATOM     43  C   UNL A   1      43.205  27.739  32.428  1.00  0.00     0.074 A 
ATOM     44  C   UNL A   1      44.036  26.796  31.716  1.00  0.00     0.031 C 
ATOM     45  C   UNL A   1      38.930  29.506  27.935  1.00  0.00     0.029 A 
ATOM     46  C   UNL A   1      38.983  29.948  29.328  1.00  0.00     0.049 A 
ATOM     47  H   UNL A   1      40.419  29.458  30.754  1.00  0.00     0.167 HD
ATOM     48  C   UNL A   1      43.395  28.097  33.719  1.00  0.00     0.037 A 
ATOM     49  C   UNL A   1      38.105  30.769  29.933  1.00  0.00     0.037 A 
ATOM     50  C   UNL A   1      42.560  29.034  34.420  1.00  0.00     0.049 A 
ATOM     51  C   UNL A   1      38.311  31.118  31.384  1.00  0.00     0.074 A 
ATOM     52  C   UNL A   1      42.673  29.485  35.721  1.00  0.00     0.029 A 
ATOM     53  N   UNL A   1      41.449  29.656  33.871  1.00  0.00    -0.354 N 
ATOM     54  N   UNL A   1      39.256  30.725  32.204  1.00  0.00    -0.248 NA
ATOM     55  C   UNL A   1      37.328  32.026  31.993  1.00  0.00     0.031 C 
ATOM     56  C   UNL A   1      41.605  30.354  35.972  1.00  0.00     0.029 A 
ATOM     57  C   UNL A   1      40.855  30.476  34.813  1.00  0.00     0.049 A 
ATOM     58  H   UNL A   1      41.132  29.534  32.946  1.00  0.00     0.167 HD
ATOM     59  C   UNL A   1      39.000  31.358  33.415  1.00  0.00     0.074 A 
ATOM     60  C   UNL A   1      37.816  32.169  33.217  1.00  0.00     0.031 C 
ATOM     61  C   UNL A   1      39.682  31.280  34.584  1.00  0.00     0.037 A 
BRANCH  48  62
ATOM     62  C   UNL A   1      44.538  27.458  34.448  1.00  0.00     0.057 A 
ATOM     63  C   UNL A   1      45.795  28.072  34.535  1.00  0.00     0.134 A 
ATOM     64  C   UNL A   1      44.381  26.216  35.074  1.00  0.00     0.134 A 
ATOM     65  F   UNL A   1      46.017  29.253  33.937  1.00  0.00    -0.206 F 
ATOM     66  C   UNL A   1      46.860  27.463  35.201  1.00  0.00     0.040 A 
ATOM     67  C   UNL A   1      45.431  25.608  35.763  1.00  0.00     0.040 A 
ATOM     68  F   UNL A   1      43.205  25.572  35.025  1.00  0.00    -0.206 F 
ATOM     69  C   UNL A   1      46.677  26.230  35.823  1.00  0.00     0.006 A 
ENDBRANCH  48  62
BRANCH  49  70
ATOM     70  C   UNL A   1      36.954  31.320  29.176  1.00  0.00     0.057 A 
ATOM     71  C   UNL A   1      35.843  30.525  28.867  1.00  0.00     0.134 A 
ATOM     72  C   UNL A   1      36.940  32.647  28.728  1.00  0.00     0.134 A 
ATOM     73  F   UNL A   1      35.807  29.240  29.250  1.00  0.00    -0.206 F 
ATOM     74  C   UNL A   1      34.769  31.022  28.126  1.00  0.00     0.040 A 
ATOM     75  C   UNL A   1      35.863  33.165  28.007  1.00  0.00     0.040 A 
ATOM     76  F   UNL A   1      37.972  33.461  28.993  1.00  0.00    -0.206 F 
ATOM     77  C   UNL A   1      34.776  32.348  27.697  1.00  0.00     0.006 A 
ENDBRANCH  49  70
BRANCH  61  78
ATOM     78  C   UNL A   1      39.185  32.117  35.723  1.00  0.00     0.057 A 
ATOM     79  C   UNL A   1      39.573  33.452  35.883  1.00  0.00     0.134 A 
ATOM     80  C   UNL A   1      38.267  31.592  36.643  1.00  0.00     0.134 A 
ATOM     81  F   UNL A   1      40.458  34.009  35.043  1.00  0.00    -0.206 F 
ATOM     82  C   UNL A   1      39.081  34.232  36.931  1.00  0.00     0.040 A 
ATOM     83  C   UNL A   1      37.749  32.370  37.679  1.00  0.00     0.040 A 
ATOM     84  F   UNL A   1      37.846  30.323  36.537  1.00  0.00    -0.206 F 
ATOM     85  C   UNL A   1      38.161  33.692  37.829  1.00  0.00     0.006 A 
ENDBRANCH  61  78
ENDBRANCH  35  36
ENDBRANCH  28  30
ENDBRANCH  27  28
ENDBRANCH  26  27
ENDBRANCH  25  26
ENDBRANCH  24  25
ENDBRANCH   1  24
TORSDOF 17
ENDMDL
MODEL 2
REMARK VINA RESULT:     -11.2      1.160      1.808
REMARK SMILES O=C(OCCOCCOC(=O)c1ccc(-c2c3nc(c(-c4c(F)cccc4F)c4ccc([nH]4)c(-c4c(F)cccc4F)c4nc(c(-c5c(F)cccc5F)c5ccc2[nH]5)C=C4)C=C3)cc1)c1ccc(CNC(=O)c2ccccc2I)cc1
REMARK SMILES IDX 5 1 4 2 3 3 2 4 1 5 66 6 67 7 82 8 68 9 81 10 69 11 70 12
REMARK SMILES IDX 71 13 72 14 73 16 74 17 75 18 79 19 76 20 78 21 80 22 77 23
REMARK SMILES IDX 6 24 7 25 8 26 9 27 10 28 11 29 12 30 13 31 65 32 14 33
REMARK SMILES IDX 64 34 15 35 16 36 17 37 58 38 18 39 63 40 57 41 59 42 19 43
REMARK SMILES IDX 62 44 56 45 55 46 20 48 46 49 29 50 45 51 30 52 33 53 44 54
REMARK SMILES IDX 60 55 31 56 32 57 43 59 61 60 34 61 21 62 22 63 27 64 23 65
REMARK SMILES IDX 24 66 26 67 28 68 25 69 47 70 48 71 53 72 49 73 50 74 52 75
REMARK SMILES IDX 54 76 51 77 35 78 36 79 41 80 37 81 38 82 40 83 42 84 39 85
REMARK H PARENT 71 15 59 47 33 58
REMARK Flexibility Score: inf
ROOT
ATOM      1  C   UNL A   1      43.216  19.208  25.461  1.00  0.00     0.202 C 
ENDROOT
BRANCH   1   2
ATOM      2  C   UNL A   1      42.022  19.161  26.414  1.00  0.00     0.261 C 
BRANCH   2   3
ATOM      3  O   UNL A   1      41.020  20.101  25.985  1.00  0.00    -0.460 OA
BRANCH   3   4
ATOM      4  C   UNL A   1      40.402  21.019  26.764  1.00  0.00     0.338 C 
ATOM      5  O   UNL A   1      40.807  21.245  27.900  1.00  0.00    -0.246 OA
BRANCH   4   6
ATOM      6  C   UNL A   1      39.254  21.805  26.253  1.00  0.00     0.060 A 
ATOM      7  C   UNL A   1      38.219  21.235  25.507  1.00  0.00     0.016 A 
ATOM      8  C   UNL A   1      39.150  23.141  26.651  1.00  0.00     0.016 A 
ATOM      9  C   UNL A   1      37.127  22.000  25.105  1.00  0.00     0.006 A 
ATOM     10  C   UNL A   1      38.041  23.904  26.271  1.00  0.00     0.006 A 
ATOM     11  C   UNL A   1      37.023  23.339  25.490  1.00  0.00    -0.029 A 
BRANCH  11  12
ATOM     12  C   UNL A   1      35.781  24.114  25.143  1.00  0.00     0.152 C 
BRANCH  12  13
ATOM     13  N   UNL A   1      35.345  23.867  23.783  1.00  0.00    -0.348 N 
ATOM     14  C   UNL A   1      34.088  23.665  23.275  1.00  0.00     0.252 C 
ATOM     15  H   UNL A   1      36.069  23.838  23.117  1.00  0.00     0.164 HD
ATOM     16  O   UNL A   1      33.947  23.419  22.080  1.00  0.00    -0.269 OA
BRANCH  14  17
ATOM     17  C   UNL A   1      32.900  23.634  24.154  1.00  0.00     0.053 A 
ATOM     18  C   UNL A   1      32.316  24.885  24.427  1.00  0.00     0.015 A 
ATOM     19  C   UNL A   1      32.388  22.488  24.777  1.00  0.00     0.026 A 
ATOM     20  C   UNL A   1      31.197  24.983  25.253  1.00  0.00     0.001 A 
ATOM     21  C   UNL A   1      31.237  22.589  25.573  1.00  0.00     0.015 A 
ATOM     22  I   UNL A   1      33.319  20.607  24.716  1.00  0.00    -0.043 I 
ATOM     23  C   UNL A   1      30.644  23.832  25.807  1.00  0.00     0.001 A 
ENDBRANCH  14  17
ENDBRANCH  12  13
ENDBRANCH  11  12
ENDBRANCH   4   6
ENDBRANCH   3   4
ENDBRANCH   2   3
ENDBRANCH   1   2
BRANCH   1  24
ATOM     24  O   UNL A   1      43.547  20.532  25.042  1.00  0.00    -0.374 OA
BRANCH  24  25
ATOM     25  C   UNL A   1      44.952  20.817  24.961  1.00  0.00     0.202 C 
BRANCH  25  26
ATOM     26  C   UNL A   1      45.276  22.002  25.875  1.00  0.00     0.261 C 
BRANCH  26  27
ATOM     27  O   UNL A   1      44.079  22.780  26.018  1.00  0.00    -0.460 OA
BRANCH  27  28
ATOM     28  C   UNL A   1      44.157  24.019  25.475  1.00  0.00     0.338 C 
ATOM     29  O   UNL A   1      44.570  24.315  24.365  1.00  0.00    -0.246 OA
BRANCH  28  30
ATOM     30  C   UNL A   1      43.454  24.960  26.376  1.00  0.00     0.060 A 
ATOM     31  C   UNL A   1      43.765  26.323  26.285  1.00  0.00     0.016 A 
ATOM     32  C   UNL A   1      42.468  24.519  27.267  1.00  0.00     0.016 A 
ATOM     33  C   UNL A   1      43.129  27.242  27.120  1.00  0.00     0.010 A 
ATOM     34  C   UNL A   1      41.830  25.435  28.097  1.00  0.00     0.010 A 
ATOM     35  C   UNL A   1      42.189  26.792  28.054  1.00  0.00    -0.014 A 
BRANCH  35  36
ATOM     36  C   UNL A   1      41.732  27.679  29.144  1.00  0.00     0.031 A 
ATOM     37  C   UNL A   1      42.448  27.589  30.461  1.00  0.00     0.074 A 
ATOM     38  C   UNL A   1      40.688  28.506  28.977  1.00  0.00     0.049 A 
ATOM     39  N   UNL A   1      42.179  28.178  31.596  1.00  0.00    -0.248 NA
ATOM     40  C   UNL A   1      43.618  26.694  30.508  1.00  0.00     0.031 C 
ATOM     41  C   UNL A   1      39.931  28.678  27.738  1.00  0.00     0.029 A 
ATOM     42  N   UNL A   1      40.071  29.342  29.870  1.00  0.00    -0.354 N 
ATOM     43  C   UNL A   1      43.139  27.721  32.489  1.00  0.00     0.074 A 
ATOM     44  C   UNL A   1      43.975  26.780  31.779  1.00  0.00     0.031 C 
ATOM     45  C   UNL A   1      38.937  29.556  27.955  1.00  0.00     0.029 A 
ATOM     46  C   UNL A   1      38.972  29.983  29.353  1.00  0.00     0.049 A 
ATOM     47  H   UNL A   1      40.386  29.471  30.794  1.00  0.00     0.167 HD
ATOM     48  C   UNL A   1      43.313  28.065  33.786  1.00  0.00     0.037 A 
ATOM     49  C   UNL A   1      38.090  30.803  29.954  1.00  0.00     0.037 A 
ATOM     50  C   UNL A   1      42.473  28.998  34.484  1.00  0.00     0.049 A 
ATOM     51  C   UNL A   1      38.277  31.136  31.411  1.00  0.00     0.074 A 
ATOM     52  C   UNL A   1      42.569  29.435  35.792  1.00  0.00     0.029 A 
ATOM     53  N   UNL A   1      41.373  29.632  33.926  1.00  0.00    -0.354 N 
ATOM     54  N   UNL A   1      39.209  30.730  32.240  1.00  0.00    -0.248 NA
ATOM     55  C   UNL A   1      37.291  32.042  32.016  1.00  0.00     0.031 C 
ATOM     56  C   UNL A   1      41.502  30.307  36.037  1.00  0.00     0.029 A 
ATOM     57  C   UNL A   1      40.770  30.446  34.869  1.00  0.00     0.049 A 
ATOM     58  H   UNL A   1      41.068  29.521  32.997  1.00  0.00     0.167 HD
ATOM     59  C   UNL A   1      38.939  31.351  33.454  1.00  0.00     0.074 A 
ATOM     60  C   UNL A   1      37.763  32.171  33.248  1.00  0.00     0.031 C 
ATOM     61  C   UNL A   1      39.604  31.257  34.632  1.00  0.00     0.037 A 
BRANCH  48  62
ATOM     62  C   UNL A   1      44.442  27.412  34.524  1.00  0.00     0.057 A 
ATOM     63  C   UNL A   1      45.719  27.986  34.578  1.00  0.00     0.134 A 
ATOM     64  C   UNL A   1      44.251  26.197  35.193  1.00  0.00     0.134 A 
ATOM     65  F   UNL A   1      45.974  29.139  33.939  1.00  0.00    -0.206 F 
ATOM     66  C   UNL A   1      46.771  27.364  35.253  1.00  0.00     0.040 A 
ATOM     67  C   UNL A   1      45.288  25.577  35.891  1.00  0.00     0.040 A 
ATOM     68  F   UNL A   1      43.054  25.591  35.177  1.00  0.00    -0.206 F 
ATOM     69  C   UNL A   1      46.555  26.159  35.918  1.00  0.00     0.006 A 
ENDBRANCH  48  62
BRANCH  49  70
ATOM     70  C   UNL A   1      36.953  31.368  29.187  1.00  0.00     0.057 A 
ATOM     71  C   UNL A   1      35.837  30.585  28.865  1.00  0.00     0.134 A 
ATOM     72  C   UNL A   1      36.958  32.696  28.741  1.00  0.00     0.134 A 
ATOM     73  F   UNL A   1      35.783  29.300  29.245  1.00  0.00    -0.206 F 
ATOM     74  C   UNL A   1      34.776  31.096  28.114  1.00  0.00     0.040 A 
ATOM     75  C   UNL A   1      35.894  33.227  28.010  1.00  0.00     0.040 A 
ATOM     76  F   UNL A   1      37.996  33.499  29.019  1.00  0.00    -0.206 F 
ATOM     77  C   UNL A   1      34.801  32.423  27.688  1.00  0.00     0.006 A 
ENDBRANCH  49  70
BRANCH  61  78
ATOM     78  C   UNL A   1      39.095  32.086  35.773  1.00  0.00     0.057 A 
ATOM     79  C   UNL A   1      38.227  31.561  36.737  1.00  0.00     0.134 A 
ATOM     80  C   UNL A   1      39.520  33.411  35.933  1.00  0.00     0.134 A 
ATOM     81  F   UNL A   1      37.775  30.302  36.633  1.00  0.00    -0.206 F 
ATOM     82  C   UNL A   1      37.782  32.333  37.811  1.00  0.00     0.040 A 
ATOM     83  C   UNL A   1      39.103  34.184  37.016  1.00  0.00     0.040 A 
ATOM     84  F   UNL A   1      40.362  33.968  35.049  1.00  0.00    -0.206 F 
ATOM     85  C   UNL A   1      38.226  33.647  37.956  1.00  0.00     0.006 A 
ENDBRANCH  61  78
ENDBRANCH  35  36
ENDBRANCH  28  30
ENDBRANCH  27  28
ENDBRANCH  26  27
ENDBRANCH  25  26
ENDBRANCH  24  25
ENDBRANCH   1  24
TORSDOF 17
ENDMDL
MODEL 3
REMARK VINA RESULT:     -11.1      4.734     10.468
REMARK SMILES O=C(OCCOCCOC(=O)c1ccc(-c2c3nc(c(-c4c(F)cccc4F)c4ccc([nH]4)c(-c4c(F)cccc4F)c4nc(c(-c5c(F)cccc5F)c5ccc2[nH]5)C=C4)C=C3)cc1)c1ccc(CNC(=O)c2ccccc2I)cc1
REMARK SMILES IDX 5 1 4 2 3 3 2 4 1 5 66 6 67 7 82 8 68 9 81 10 69 11 70 12
REMARK SMILES IDX 71 13 72 14 73 16 74 17 75 18 79 19 76 20 78 21 80 22 77 23
REMARK SMILES IDX 6 24 7 25 8 26 9 27 10 28 11 29 12 30 13 31 65 32 14 33
REMARK SMILES IDX 64 34 15 35 16 36 17 37 58 38 18 39 63 40 57 41 59 42 19 43
REMARK SMILES IDX 62 44 56 45 55 46 20 48 46 49 29 50 45 51 30 52 33 53 44 54
REMARK SMILES IDX 60 55 31 56 32 57 43 59 61 60 34 61 21 62 22 63 27 64 23 65
REMARK SMILES IDX 24 66 26 67 28 68 25 69 47 70 48 71 53 72 49 73 50 74 52 75
REMARK SMILES IDX 54 76 51 77 35 78 36 79 41 80 37 81 38 82 40 83 42 84 39 85
REMARK H PARENT 71 15 59 47 33 58
REMARK Flexibility Score: inf
ROOT
ATOM      1  C   UNL A   1      33.061  35.580  29.899  1.00  0.00     0.202 C 
ENDROOT
BRANCH   1   2
ATOM      2  C   UNL A   1      33.398  34.902  28.571  1.00  0.00     0.261 C 
BRANCH   2   3
ATOM      3  O   UNL A   1      33.758  33.528  28.805  1.00  0.00    -0.460 OA
BRANCH   3   4
ATOM      4  C   UNL A   1      34.542  32.762  28.010  1.00  0.00     0.338 C 
ATOM      5  O   UNL A   1      35.632  33.176  27.627  1.00  0.00    -0.246 OA
BRANCH   4   6
ATOM      6  C   UNL A   1      34.127  31.394  27.619  1.00  0.00     0.060 A 
ATOM      7  C   UNL A   1      34.967  30.285  27.742  1.00  0.00     0.016 A 
ATOM      8  C   UNL A   1      32.797  31.201  27.235  1.00  0.00     0.016 A 
ATOM      9  C   UNL A   1      34.511  29.008  27.424  1.00  0.00     0.006 A 
ATOM     10  C   UNL A   1      32.329  29.917  26.940  1.00  0.00     0.006 A 
ATOM     11  C   UNL A   1      33.186  28.810  27.028  1.00  0.00    -0.029 A 
BRANCH  11  12
ATOM     12  C   UNL A   1      32.683  27.411  26.801  1.00  0.00     0.152 C 
BRANCH  12  13
ATOM     13  N   UNL A   1      32.575  27.090  25.392  1.00  0.00    -0.348 N 
ATOM     14  C   UNL A   1      32.994  25.986  24.697  1.00  0.00     0.252 C 
ATOM     15  H   UNL A   1      32.130  27.777  24.846  1.00  0.00     0.164 HD
ATOM     16  O   UNL A   1      32.844  25.941  23.478  1.00  0.00    -0.269 OA
BRANCH  14  17
ATOM     17  C   UNL A   1      33.719  24.885  25.366  1.00  0.00     0.053 A 
ATOM     18  C   UNL A   1      35.101  24.828  25.109  1.00  0.00     0.015 A 
ATOM     19  C   UNL A   1      33.125  23.884  26.145  1.00  0.00     0.026 A 
ATOM     20  C   UNL A   1      35.890  23.826  25.675  1.00  0.00     0.001 A 
ATOM     21  C   UNL A   1      33.930  22.904  26.744  1.00  0.00     0.015 A 
ATOM     22  I   UNL A   1      31.050  23.655  26.373  1.00  0.00    -0.043 I 
ATOM     23  C   UNL A   1      35.308  22.879  26.511  1.00  0.00     0.001 A 
ENDBRANCH  14  17
ENDBRANCH  12  13
ENDBRANCH  11  12
ENDBRANCH   4   6
ENDBRANCH   3   4
ENDBRANCH   2   3
ENDBRANCH   1   2
BRANCH   1  24
ATOM     24  O   UNL A   1      32.994  34.668  30.994  1.00  0.00    -0.374 OA
BRANCH  24  25
ATOM     25  C   UNL A   1      34.062  34.773  31.948  1.00  0.00     0.202 C 
BRANCH  25  26
ATOM     26  C   UNL A   1      34.175  33.457  32.721  1.00  0.00     0.261 C 
BRANCH  26  27
ATOM     27  O   UNL A   1      35.211  32.678  32.103  1.00  0.00    -0.460 OA
BRANCH  27  28
ATOM     28  C   UNL A   1      36.229  32.353  32.937  1.00  0.00     0.338 C 
ATOM     29  O   UNL A   1      36.265  32.491  34.149  1.00  0.00    -0.246 OA
BRANCH  28  30
ATOM     30  C   UNL A   1      37.236  31.598  32.157  1.00  0.00     0.060 A 
ATOM     31  C   UNL A   1      38.068  30.700  32.840  1.00  0.00     0.016 A 
ATOM     32  C   UNL A   1      37.332  31.731  30.766  1.00  0.00     0.016 A 
ATOM     33  C   UNL A   1      39.032  29.972  32.144  1.00  0.00     0.010 A 
ATOM     34  C   UNL A   1      38.291  31.002  30.070  1.00  0.00     0.010 A 
ATOM     35  C   UNL A   1      39.170  30.154  30.762  1.00  0.00    -0.014 A 
BRANCH  35  36
ATOM     36  C   UNL A   1      40.362  29.641  30.055  1.00  0.00     0.031 A 
ATOM     37  C   UNL A   1      41.486  30.603  29.798  1.00  0.00     0.074 A 
ATOM     38  C   UNL A   1      40.421  28.373  29.621  1.00  0.00     0.049 A 
ATOM     39  N   UNL A   1      42.587  30.433  29.115  1.00  0.00    -0.248 NA
ATOM     40  C   UNL A   1      41.337  31.950  30.377  1.00  0.00     0.031 C 
ATOM     41  C   UNL A   1      39.391  27.356  29.826  1.00  0.00     0.029 A 
ATOM     42  N   UNL A   1      41.390  27.732  28.893  1.00  0.00    -0.354 N 
ATOM     43  C   UNL A   1      43.255  31.649  29.177  1.00  0.00     0.074 A 
ATOM     44  C   UNL A   1      42.424  32.559  29.932  1.00  0.00     0.031 C 
ATOM     45  C   UNL A   1      39.777  26.219  29.221  1.00  0.00     0.029 A 
ATOM     46  C   UNL A   1      41.064  26.439  28.564  1.00  0.00     0.049 A 
ATOM     47  H   UNL A   1      42.238  28.158  28.631  1.00  0.00     0.167 HD
ATOM     48  C   UNL A   1      44.461  31.974  28.657  1.00  0.00     0.037 A 
ATOM     49  C   UNL A   1      41.728  25.550  27.801  1.00  0.00     0.037 A 
ATOM     50  C   UNL A   1      45.278  31.062  27.905  1.00  0.00     0.049 A 
ATOM     51  C   UNL A   1      43.048  25.949  27.195  1.00  0.00     0.074 A 
ATOM     52  C   UNL A   1      46.525  31.278  27.349  1.00  0.00     0.029 A 
ATOM     53  N   UNL A   1      44.918  29.759  27.597  1.00  0.00    -0.354 N 
ATOM     54  N   UNL A   1      43.691  27.088  27.288  1.00  0.00    -0.248 NA
ATOM     55  C   UNL A   1      43.734  24.938  26.378  1.00  0.00     0.031 C 
ATOM     56  C   UNL A   1      46.904  30.113  26.671  1.00  0.00     0.029 A 
ATOM     57  C   UNL A   1      45.912  29.161  26.843  1.00  0.00     0.049 A 
ATOM     58  H   UNL A   1      44.080  29.323  27.875  1.00  0.00     0.167 HD
ATOM     59  C   UNL A   1      44.869  26.923  26.568  1.00  0.00     0.074 A 
ATOM     60  C   UNL A   1      44.854  25.568  26.054  1.00  0.00     0.031 C 
ATOM     61  C   UNL A   1      45.874  27.807  26.353  1.00  0.00     0.037 A 
BRANCH  48  62
ATOM     62  C   UNL A   1      44.949  33.373  28.877  1.00  0.00     0.057 A 
ATOM     63  C   UNL A   1      45.697  33.727  30.008  1.00  0.00     0.134 A 
ATOM     64  C   UNL A   1      44.673  34.381  27.944  1.00  0.00     0.134 A 
ATOM     65  F   UNL A   1      45.977  32.812  30.950  1.00  0.00    -0.206 F 
ATOM     66  C   UNL A   1      46.134  35.036  30.215  1.00  0.00     0.040 A 
ATOM     67  C   UNL A   1      45.125  35.688  28.128  1.00  0.00     0.040 A 
ATOM     68  F   UNL A   1      43.958  34.111  26.841  1.00  0.00    -0.206 F 
ATOM     69  C   UNL A   1      45.853  36.020  29.269  1.00  0.00     0.006 A 
ENDBRANCH  48  62
BRANCH  49  70
ATOM     70  C   UNL A   1      41.162  24.199  27.566  1.00  0.00     0.057 A 
ATOM     71  C   UNL A   1      40.091  24.007  26.684  1.00  0.00     0.134 A 
ATOM     72  C   UNL A   1      41.664  23.070  28.226  1.00  0.00     0.134 A 
ATOM     73  F   UNL A   1      39.553  25.051  26.039  1.00  0.00    -0.206 F 
ATOM     74  C   UNL A   1      39.528  22.745  26.480  1.00  0.00     0.040 A 
ATOM     75  C   UNL A   1      41.126  21.800  28.014  1.00  0.00     0.040 A 
ATOM     76  F   UNL A   1      42.690  23.187  29.081  1.00  0.00    -0.206 F 
ATOM     77  C   UNL A   1      40.050  21.636  27.144  1.00  0.00     0.006 A 
ENDBRANCH  49  70
BRANCH  61  78
ATOM     78  C   UNL A   1      47.051  27.326  25.559  1.00  0.00     0.057 A 
ATOM     79  C   UNL A   1      47.165  27.570  24.186  1.00  0.00     0.134 A 
ATOM     80  C   UNL A   1      48.105  26.652  26.190  1.00  0.00     0.134 A 
ATOM     81  F   UNL A   1      46.184  28.201  23.522  1.00  0.00    -0.206 F 
ATOM     82  C   UNL A   1      48.279  27.142  23.462  1.00  0.00     0.040 A 
ATOM     83  C   UNL A   1      49.235  26.242  25.481  1.00  0.00     0.040 A 
ATOM     84  F   UNL A   1      48.061  26.398  27.506  1.00  0.00    -0.206 F 
ATOM     85  C   UNL A   1      49.321  26.482  24.112  1.00  0.00     0.006 A 
ENDBRANCH  61  78
ENDBRANCH  35  36
ENDBRANCH  28  30
ENDBRANCH  27  28
ENDBRANCH  26  27
ENDBRANCH  25  26
ENDBRANCH  24  25
ENDBRANCH   1  24
TORSDOF 17
ENDMDL
