MODEL 1
REMARK VINA RESULT:     -11.2      0.000      0.000
REMARK SMILES O=C(OCCOCCOC(=O)c1cc(-c2ccc(F)c(C(F)(F)F)c2)cnc1O)c1ccc(-c2c3nc(c(-c4c(F)cccc4F)c4ccc([nH]4)c(-c4c(F)cccc4F)c4nc(c(-c5c(F)cccc5F)c5ccc2[nH]5)C=C4)C=C3)cc1
REMARK SMILES IDX 6 1 5 2 4 3 3 4 2 5 1 6 30 7 31 8 83 9 32 10 82 11 33 12
REMARK SMILES IDX 34 13 35 14 76 15 36 16 81 17 75 18 77 19 37 20 80 21 74 22
REMARK SMILES IDX 73 23 38 25 64 26 47 27 63 28 48 29 51 30 62 31 78 32 49 33
REMARK SMILES IDX 50 34 61 36 79 37 52 38 39 39 40 40 45 41 41 42 42 43 44 44
REMARK SMILES IDX 46 45 43 46 65 47 66 48 71 49 67 50 68 51 70 52 72 53 69 54
REMARK SMILES IDX 53 55 54 56 59 57 55 58 56 59 58 60 60 61 57 62 7 63 8 64
REMARK SMILES IDX 9 65 10 66 11 67 12 68 13 69 28 70 14 71 27 72 26 73 29 74
REMARK SMILES IDX 15 76 16 77 25 78 17 79 20 80 18 81 19 82 21 83 22 84 23 85
REMARK SMILES IDX 24 86
REMARK H PARENT 77 24 51 35 29 75
REMARK Flexibility Score: inf
ROOT
ATOM      1  O   UNL A   1      34.207  34.826  31.709  1.00  0.00    -0.374 OA
ENDROOT
BRANCH   1   2
ATOM      2  C   UNL A   1      34.208  34.697  33.132  1.00  0.00     0.202 C 
BRANCH   2   3
ATOM      3  C   UNL A   1      34.403  33.264  33.635  1.00  0.00     0.261 C 
BRANCH   3   4
ATOM      4  O   UNL A   1      35.507  32.627  32.978  1.00  0.00    -0.460 OA
BRANCH   4   5
ATOM      5  C   UNL A   1      36.672  32.177  33.494  1.00  0.00     0.338 C 
ATOM      6  O   UNL A   1      36.792  32.193  34.719  1.00  0.00    -0.246 OA
BRANCH   5   7
ATOM      7  C   UNL A   1      37.852  31.699  32.692  1.00  0.00     0.060 A 
ATOM      8  C   UNL A   1      37.707  31.743  31.291  1.00  0.00     0.016 A 
ATOM      9  C   UNL A   1      39.039  31.160  33.195  1.00  0.00     0.016 A 
ATOM     10  C   UNL A   1      38.698  31.248  30.438  1.00  0.00     0.010 A 
ATOM     11  C   UNL A   1      40.037  30.675  32.356  1.00  0.00     0.010 A 
ATOM     12  C   UNL A   1      39.868  30.708  30.977  1.00  0.00    -0.014 A 
BRANCH  12  13
ATOM     13  C   UNL A   1      40.997  30.288  30.133  1.00  0.00     0.031 A 
ATOM     14  C   UNL A   1      42.058  31.261  29.728  1.00  0.00     0.074 A 
ATOM     15  C   UNL A   1      40.942  29.047  29.622  1.00  0.00     0.049 A 
ATOM     16  N   UNL A   1      43.144  31.047  29.034  1.00  0.00    -0.248 NA
ATOM     17  C   UNL A   1      41.860  32.663  30.126  1.00  0.00     0.031 C 
ATOM     18  C   UNL A   1      39.860  28.088  29.864  1.00  0.00     0.029 A 
ATOM     19  N   UNL A   1      41.794  28.389  28.783  1.00  0.00    -0.354 N 
ATOM     20  C   UNL A   1      43.771  32.282  28.926  1.00  0.00     0.074 A 
ATOM     21  C   UNL A   1      42.911  33.252  29.570  1.00  0.00     0.031 C 
ATOM     22  C   UNL A   1      40.127  26.952  29.205  1.00  0.00     0.029 A 
ATOM     23  C   UNL A   1      41.395  27.106  28.504  1.00  0.00     0.049 A 
ATOM     24  H   UNL A   1      42.613  28.793  28.416  1.00  0.00     0.167 HD
ATOM     25  C   UNL A   1      44.966  32.563  28.351  1.00  0.00     0.037 A 
ATOM     26  C   UNL A   1      42.013  26.154  27.787  1.00  0.00     0.037 A 
ATOM     27  C   UNL A   1      45.773  31.570  27.686  1.00  0.00     0.049 A 
ATOM     28  C   UNL A   1      43.356  26.475  27.203  1.00  0.00     0.074 A 
ATOM     29  C   UNL A   1      47.040  31.695  27.145  1.00  0.00     0.029 A 
ATOM     30  N   UNL A   1      45.368  30.261  27.453  1.00  0.00    -0.354 N 
ATOM     31  N   UNL A   1      44.027  27.602  27.242  1.00  0.00    -0.248 NA
ATOM     32  C   UNL A   1      44.040  25.383  26.504  1.00  0.00     0.031 C 
ATOM     33  C   UNL A   1      47.378  30.476  26.542  1.00  0.00     0.029 A 
ATOM     34  C   UNL A   1      46.345  29.575  26.751  1.00  0.00     0.049 A 
ATOM     35  H   UNL A   1      44.509  29.876  27.744  1.00  0.00     0.167 HD
ATOM     36  C   UNL A   1      45.225  27.353  26.593  1.00  0.00     0.074 A 
ATOM     37  C   UNL A   1      45.194  25.957  26.196  1.00  0.00     0.031 C 
ATOM     38  C   UNL A   1      46.263  28.193  26.347  1.00  0.00     0.037 A 
BRANCH  25  39
ATOM     39  C   UNL A   1      45.461  33.982  28.425  1.00  0.00     0.057 A 
ATOM     40  C   UNL A   1      45.177  34.903  27.409  1.00  0.00     0.134 A 
ATOM     41  C   UNL A   1      46.246  34.436  29.497  1.00  0.00     0.134 A 
ATOM     42  F   UNL A   1      44.437  34.542  26.349  1.00  0.00    -0.206 F 
ATOM     43  C   UNL A   1      45.649  36.218  27.456  1.00  0.00     0.040 A 
ATOM     44  C   UNL A   1      46.700  35.755  29.568  1.00  0.00     0.040 A 
ATOM     45  F   UNL A   1      46.554  33.613  30.510  1.00  0.00    -0.206 F 
ATOM     46  C   UNL A   1      46.406  36.650  28.543  1.00  0.00     0.006 A 
ENDBRANCH  25  39
BRANCH  26  47
ATOM     47  C   UNL A   1      41.421  24.799  27.702  1.00  0.00     0.057 A 
ATOM     48  C   UNL A   1      41.872  23.742  28.502  1.00  0.00     0.134 A 
ATOM     49  C   UNL A   1      40.418  24.521  26.768  1.00  0.00     0.134 A 
ATOM     50  F   UNL A   1      42.850  23.940  29.398  1.00  0.00    -0.206 F 
ATOM     51  C   UNL A   1      41.347  22.455  28.372  1.00  0.00     0.040 A 
ATOM     52  C   UNL A   1      39.868  23.245  26.643  1.00  0.00     0.040 A 
ATOM     53  F   UNL A   1      39.948  25.494  25.975  1.00  0.00    -0.206 F 
ATOM     54  C   UNL A   1      40.338  22.206  27.443  1.00  0.00     0.006 A 
ENDBRANCH  26  47
BRANCH  38  55
ATOM     55  C   UNL A   1      47.430  27.596  25.619  1.00  0.00     0.057 A 
ATOM     56  C   UNL A   1      48.476  26.992  26.324  1.00  0.00     0.134 A 
ATOM     57  C   UNL A   1      47.496  27.588  24.219  1.00  0.00     0.134 A 
ATOM     58  F   UNL A   1      48.475  26.975  27.665  1.00  0.00    -0.206 F 
ATOM     59  C   UNL A   1      49.542  26.384  25.661  1.00  0.00     0.040 A 
ATOM     60  C   UNL A   1      48.540  26.954  23.546  1.00  0.00     0.040 A 
ATOM     61  F   UNL A   1      46.512  28.135  23.487  1.00  0.00    -0.206 F 
ATOM     62  C   UNL A   1      49.568  26.351  24.268  1.00  0.00     0.006 A 
ENDBRANCH  38  55
ENDBRANCH  12  13
ENDBRANCH   5   7
ENDBRANCH   4   5
ENDBRANCH   3   4
ENDBRANCH   2   3
ENDBRANCH   1   2
BRANCH   1  63
ATOM     63  C   UNL A   1      33.480  35.952  31.200  1.00  0.00     0.202 C 
BRANCH  63  64
ATOM     64  C   UNL A   1      32.868  35.626  29.834  1.00  0.00     0.261 C 
BRANCH  64  65
ATOM     65  O   UNL A   1      33.305  34.319  29.416  1.00  0.00    -0.459 OA
BRANCH  65  66
ATOM     66  C   UNL A   1      34.070  34.299  28.289  1.00  0.00     0.343 C 
ATOM     67  O   UNL A   1      34.497  35.249  27.670  1.00  0.00    -0.246 OA
BRANCH  66  68
ATOM     68  C   UNL A   1      34.496  32.905  28.065  1.00  0.00     0.122 A 
ATOM     69  C   UNL A   1      33.510  31.966  27.728  1.00  0.00     0.031 A 
ATOM     70  C   UNL A   1      35.825  32.502  28.059  1.00  0.00     0.225 A 
ATOM     71  C   UNL A   1      33.882  30.675  27.344  1.00  0.00     0.001 A 
ATOM     72  N   UNL A   1      36.211  31.248  27.755  1.00  0.00    -0.221 NA
ATOM     73  C   UNL A   1      35.242  30.374  27.397  1.00  0.00     0.124 A 
BRANCH  70  74
ATOM     74  O   UNL A   1      36.870  33.334  28.332  1.00  0.00    -0.493 OA
ATOM     75  H   UNL A   1      36.913  34.179  27.929  1.00  0.00     0.295 HD
ENDBRANCH  70  74
BRANCH  71  76
ATOM     76  C   UNL A   1      32.916  29.689  26.863  1.00  0.00    -0.016 A 
ATOM     77  C   UNL A   1      32.615  28.548  27.618  1.00  0.00     0.012 A 
ATOM     78  C   UNL A   1      32.315  29.837  25.597  1.00  0.00     0.025 A 
ATOM     79  C   UNL A   1      31.766  27.564  27.110  1.00  0.00     0.040 A 
ATOM     80  C   UNL A   1      31.454  28.853  25.080  1.00  0.00     0.092 A 
ATOM     81  C   UNL A   1      31.202  27.720  25.847  1.00  0.00     0.135 A 
ATOM     82  F   UNL A   1      30.418  26.747  25.367  1.00  0.00    -0.206 F 
BRANCH  80  83
ATOM     83  C   UNL A   1      30.840  28.968  23.717  1.00  0.00     0.419 C 
ATOM     84  F   UNL A   1      30.387  27.776  23.243  1.00  0.00    -0.166 F 
ATOM     85  F   UNL A   1      29.787  29.828  23.666  1.00  0.00    -0.166 F 
ATOM     86  F   UNL A   1      31.723  29.422  22.780  1.00  0.00    -0.166 F 
ENDBRANCH  80  83
ENDBRANCH  71  76
ENDBRANCH  66  68
ENDBRANCH  65  66
ENDBRANCH  64  65
ENDBRANCH  63  64
ENDBRANCH   1  63
TORSDOF 17
ENDMDL
MODEL 2
REMARK VINA RESULT:     -11.2      4.815      7.751
REMARK SMILES O=C(OCCOCCOC(=O)c1cc(-c2ccc(F)c(C(F)(F)F)c2)cnc1O)c1ccc(-c2c3nc(c(-c4c(F)cccc4F)c4ccc([nH]4)c(-c4c(F)cccc4F)c4nc(c(-c5c(F)cccc5F)c5ccc2[nH]5)C=C4)C=C3)cc1
REMARK SMILES IDX 6 1 5 2 4 3 3 4 2 5 1 6 30 7 31 8 83 9 32 10 82 11 33 12
REMARK SMILES IDX 34 13 35 14 76 15 36 16 81 17 75 18 77 19 37 20 80 21 74 22
REMARK SMILES IDX 73 23 38 25 64 26 47 27 63 28 48 29 51 30 62 31 78 32 49 33
REMARK SMILES IDX 50 34 61 36 79 37 52 38 39 39 40 40 45 41 41 42 42 43 44 44
REMARK SMILES IDX 46 45 43 46 65 47 66 48 71 49 67 50 68 51 70 52 72 53 69 54
REMARK SMILES IDX 53 55 54 56 59 57 55 58 56 59 58 60 60 61 57 62 7 63 8 64
REMARK SMILES IDX 9 65 10 66 11 67 12 68 13 69 28 70 14 71 27 72 26 73 29 74
REMARK SMILES IDX 15 76 16 77 25 78 17 79 20 80 18 81 19 82 21 83 22 84 23 85
REMARK SMILES IDX 24 86
REMARK H PARENT 77 24 51 35 29 75
REMARK Flexibility Score: inf
ROOT
ATOM      1  O   UNL A   1      31.110  30.899  25.528  1.00  0.00    -0.374 OA
ENDROOT
BRANCH   1   2
ATOM      2  C   UNL A   1      31.029  32.193  26.129  1.00  0.00     0.202 C 
BRANCH   2   3
ATOM      3  C   UNL A   1      32.089  32.458  27.201  1.00  0.00     0.261 C 
BRANCH   3   4
ATOM      4  O   UNL A   1      32.147  33.849  27.545  1.00  0.00    -0.460 OA
BRANCH   4   5
ATOM      5  C   UNL A   1      32.948  34.485  28.427  1.00  0.00     0.338 C 
ATOM      6  O   UNL A   1      32.635  35.631  28.750  1.00  0.00    -0.246 OA
BRANCH   5   7
ATOM      7  C   UNL A   1      34.214  33.925  29.015  1.00  0.00     0.060 A 
ATOM      8  C   UNL A   1      34.053  33.032  30.093  1.00  0.00     0.016 A 
ATOM      9  C   UNL A   1      35.521  34.250  28.645  1.00  0.00     0.016 A 
ATOM     10  C   UNL A   1      35.154  32.510  30.780  1.00  0.00     0.010 A 
ATOM     11  C   UNL A   1      36.624  33.728  29.312  1.00  0.00     0.010 A 
ATOM     12  C   UNL A   1      36.446  32.864  30.386  1.00  0.00    -0.014 A 
BRANCH  12  13
ATOM     13  C   UNL A   1      37.641  32.252  30.985  1.00  0.00     0.031 A 
ATOM     14  C   UNL A   1      38.237  32.799  32.243  1.00  0.00     0.074 A 
ATOM     15  C   UNL A   1      38.254  31.293  30.272  1.00  0.00     0.049 A 
ATOM     16  N   UNL A   1      39.254  32.353  32.932  1.00  0.00    -0.248 NA
ATOM     17  C   UNL A   1      37.634  34.028  32.783  1.00  0.00     0.031 C 
ATOM     18  C   UNL A   1      37.804  30.804  28.965  1.00  0.00     0.029 A 
ATOM     19  N   UNL A   1      39.387  30.576  30.527  1.00  0.00    -0.354 N 
ATOM     20  C   UNL A   1      39.404  33.232  33.996  1.00  0.00     0.074 A 
ATOM     21  C   UNL A   1      38.414  34.275  33.827  1.00  0.00     0.031 C 
ATOM     22  C   UNL A   1      38.643  29.848  28.543  1.00  0.00     0.029 A 
ATOM     23  C   UNL A   1      39.679  29.659  29.550  1.00  0.00     0.049 A 
ATOM     24  H   UNL A   1      39.939  30.704  31.332  1.00  0.00     0.167 HD
ATOM     25  C   UNL A   1      40.282  33.153  35.025  1.00  0.00     0.037 A 
ATOM     26  C   UNL A   1      40.660  28.743  29.501  1.00  0.00     0.037 A 
ATOM     27  C   UNL A   1      41.277  32.115  35.133  1.00  0.00     0.049 A 
ATOM     28  C   UNL A   1      41.588  28.644  30.673  1.00  0.00     0.074 A 
ATOM     29  C   UNL A   1      42.166  31.862  36.163  1.00  0.00     0.029 A 
ATOM     30  N   UNL A   1      41.527  31.165  34.149  1.00  0.00    -0.354 N 
ATOM     31  N   UNL A   1      41.626  29.376  31.762  1.00  0.00    -0.248 NA
ATOM     32  C   UNL A   1      42.589  27.575  30.623  1.00  0.00     0.031 C 
ATOM     33  C   UNL A   1      42.984  30.790  35.778  1.00  0.00     0.029 A 
ATOM     34  C   UNL A   1      42.574  30.343  34.532  1.00  0.00     0.049 A 
ATOM     35  H   UNL A   1      41.032  31.088  33.301  1.00  0.00     0.167 HD
ATOM     36  C   UNL A   1      42.639  28.841  32.542  1.00  0.00     0.074 A 
ATOM     37  C   UNL A   1      43.169  27.708  31.807  1.00  0.00     0.031 C 
ATOM     38  C   UNL A   1      43.092  29.243  33.757  1.00  0.00     0.037 A 
BRANCH  25  39
ATOM     39  C   UNL A   1      40.198  34.204  36.099  1.00  0.00     0.057 A 
ATOM     40  C   UNL A   1      40.976  35.367  36.038  1.00  0.00     0.134 A 
ATOM     41  C   UNL A   1      39.361  34.053  37.215  1.00  0.00     0.134 A 
ATOM     42  F   UNL A   1      41.805  35.579  35.004  1.00  0.00    -0.206 F 
ATOM     43  C   UNL A   1      40.922  36.340  37.039  1.00  0.00     0.040 A 
ATOM     44  C   UNL A   1      39.278  35.031  38.209  1.00  0.00     0.040 A 
ATOM     45  F   UNL A   1      38.581  32.968  37.339  1.00  0.00    -0.206 F 
ATOM     46  C   UNL A   1      40.064  36.178  38.125  1.00  0.00     0.006 A 
ENDBRANCH  25  39
BRANCH  26  47
ATOM     47  C   UNL A   1      40.716  27.790  28.368  1.00  0.00     0.057 A 
ATOM     48  C   UNL A   1      41.441  28.066  27.203  1.00  0.00     0.134 A 
ATOM     49  C   UNL A   1      39.991  26.595  28.411  1.00  0.00     0.134 A 
ATOM     50  F   UNL A   1      42.136  29.207  27.091  1.00  0.00    -0.206 F 
ATOM     51  C   UNL A   1      41.440  27.186  26.119  1.00  0.00     0.040 A 
ATOM     52  C   UNL A   1      39.998  25.695  27.344  1.00  0.00     0.040 A 
ATOM     53  F   UNL A   1      39.277  26.278  29.501  1.00  0.00    -0.206 F 
ATOM     54  C   UNL A   1      40.720  25.994  26.191  1.00  0.00     0.006 A 
ENDBRANCH  26  47
BRANCH  38  55
ATOM     55  C   UNL A   1      44.212  28.431  34.338  1.00  0.00     0.057 A 
ATOM     56  C   UNL A   1      45.544  28.804  34.130  1.00  0.00     0.134 A 
ATOM     57  C   UNL A   1      43.967  27.303  35.132  1.00  0.00     0.134 A 
ATOM     58  F   UNL A   1      45.844  29.869  33.372  1.00  0.00    -0.206 F 
ATOM     59  C   UNL A   1      46.596  28.093  34.707  1.00  0.00     0.040 A 
ATOM     60  C   UNL A   1      45.009  26.604  35.741  1.00  0.00     0.040 A 
ATOM     61  F   UNL A   1      42.709  26.907  35.383  1.00  0.00    -0.206 F 
ATOM     62  C   UNL A   1      46.329  26.999  35.528  1.00  0.00     0.006 A 
ENDBRANCH  38  55
ENDBRANCH  12  13
ENDBRANCH   5   7
ENDBRANCH   4   5
ENDBRANCH   3   4
ENDBRANCH   2   3
ENDBRANCH   1   2
BRANCH   1  63
ATOM     63  C   UNL A   1      32.154  30.057  26.033  1.00  0.00     0.202 C 
BRANCH  63  64
ATOM     64  C   UNL A   1      32.053  28.652  25.430  1.00  0.00     0.261 C 
BRANCH  64  65
ATOM     65  O   UNL A   1      33.327  28.280  24.872  1.00  0.00    -0.459 OA
BRANCH  65  66
ATOM     66  C   UNL A   1      33.391  28.299  23.512  1.00  0.00     0.343 C 
ATOM     67  O   UNL A   1      33.786  29.199  22.804  1.00  0.00    -0.246 OA
BRANCH  66  68
ATOM     68  C   UNL A   1      33.105  26.933  23.035  1.00  0.00     0.122 A 
ATOM     69  C   UNL A   1      33.862  25.881  23.570  1.00  0.00     0.031 A 
ATOM     70  C   UNL A   1      32.058  26.625  22.177  1.00  0.00     0.225 A 
ATOM     71  C   UNL A   1      33.520  24.558  23.277  1.00  0.00     0.001 A 
ATOM     72  N   UNL A   1      31.741  25.365  21.825  1.00  0.00    -0.221 NA
ATOM     73  C   UNL A   1      32.465  24.368  22.385  1.00  0.00     0.124 A 
BRANCH  70  74
ATOM     74  O   UNL A   1      31.230  27.560  21.626  1.00  0.00    -0.493 OA
ATOM     75  H   UNL A   1      31.424  27.916  20.780  1.00  0.00     0.295 HD
ENDBRANCH  70  74
BRANCH  71  76
ATOM     76  C   UNL A   1      34.189  23.417  23.899  1.00  0.00    -0.016 A 
ATOM     77  C   UNL A   1      35.548  23.477  24.238  1.00  0.00     0.012 A 
ATOM     78  C   UNL A   1      33.494  22.210  24.112  1.00  0.00     0.025 A 
ATOM     79  C   UNL A   1      36.203  22.354  24.743  1.00  0.00     0.040 A 
ATOM     80  C   UNL A   1      34.146  21.075  24.625  1.00  0.00     0.092 A 
ATOM     81  C   UNL A   1      35.502  21.165  24.922  1.00  0.00     0.135 A 
ATOM     82  F   UNL A   1      36.161  20.090  25.376  1.00  0.00    -0.206 F 
BRANCH  80  83
ATOM     83  C   UNL A   1      33.437  19.768  24.816  1.00  0.00     0.419 C 
ATOM     84  F   UNL A   1      34.084  18.728  24.222  1.00  0.00    -0.166 F 
ATOM     85  F   UNL A   1      33.274  19.424  26.122  1.00  0.00    -0.166 F 
ATOM     86  F   UNL A   1      32.180  19.769  24.284  1.00  0.00    -0.166 F 
ENDBRANCH  80  83
ENDBRANCH  71  76
ENDBRANCH  66  68
ENDBRANCH  65  66
ENDBRANCH  64  65
ENDBRANCH  63  64
ENDBRANCH   1  63
TORSDOF 17
ENDMDL
MODEL 3
REMARK VINA RESULT:     -11.2      4.924      9.190
REMARK SMILES O=C(OCCOCCOC(=O)c1cc(-c2ccc(F)c(C(F)(F)F)c2)cnc1O)c1ccc(-c2c3nc(c(-c4c(F)cccc4F)c4ccc([nH]4)c(-c4c(F)cccc4F)c4nc(c(-c5c(F)cccc5F)c5ccc2[nH]5)C=C4)C=C3)cc1
REMARK SMILES IDX 6 1 5 2 4 3 3 4 2 5 1 6 30 7 31 8 83 9 32 10 82 11 33 12
REMARK SMILES IDX 34 13 35 14 76 15 36 16 81 17 75 18 77 19 37 20 80 21 74 22
REMARK SMILES IDX 73 23 38 25 64 26 47 27 63 28 48 29 51 30 62 31 78 32 49 33
REMARK SMILES IDX 50 34 61 36 79 37 52 38 39 39 40 40 45 41 41 42 42 43 44 44
REMARK SMILES IDX 46 45 43 46 65 47 66 48 71 49 67 50 68 51 70 52 72 53 69 54
REMARK SMILES IDX 53 55 54 56 59 57 55 58 56 59 58 60 60 61 57 62 7 63 8 64
REMARK SMILES IDX 9 65 10 66 11 67 12 68 13 69 28 70 14 71 27 72 26 73 29 74
REMARK SMILES IDX 15 76 16 77 25 78 17 79 20 80 18 81 19 82 21 83 22 84 23 85
REMARK SMILES IDX 24 86
REMARK H PARENT 77 24 51 35 29 75
REMARK Flexibility Score: inf
ROOT
ATOM      1  O   UNL A   1      31.115  30.488  25.298  1.00  0.00    -0.374 OA
ENDROOT
BRANCH   1   2
ATOM      2  C   UNL A   1      30.976  31.812  25.817  1.00  0.00     0.202 C 
BRANCH   2   3
ATOM      3  C   UNL A   1      31.852  32.105  27.038  1.00  0.00     0.261 C 
BRANCH   3   4
ATOM      4  O   UNL A   1      31.995  33.516  27.250  1.00  0.00    -0.460 OA
BRANCH   4   5
ATOM      5  C   UNL A   1      32.831  34.182  28.077  1.00  0.00     0.338 C 
ATOM      6  O   UNL A   1      32.529  35.337  28.375  1.00  0.00    -0.246 OA
BRANCH   5   7
ATOM      7  C   UNL A   1      34.122  33.643  28.628  1.00  0.00     0.060 A 
ATOM      8  C   UNL A   1      34.028  32.929  29.839  1.00  0.00     0.016 A 
ATOM      9  C   UNL A   1      35.401  33.835  28.099  1.00  0.00     0.016 A 
ATOM     10  C   UNL A   1      35.165  32.451  30.497  1.00  0.00     0.010 A 
ATOM     11  C   UNL A   1      36.539  33.355  28.738  1.00  0.00     0.010 A 
ATOM     12  C   UNL A   1      36.428  32.669  29.942  1.00  0.00    -0.014 A 
BRANCH  12  13
ATOM     13  C   UNL A   1      37.647  32.085  30.519  1.00  0.00     0.031 A 
ATOM     14  C   UNL A   1      38.248  30.839  29.948  1.00  0.00     0.074 A 
ATOM     15  C   UNL A   1      38.097  32.628  31.662  1.00  0.00     0.049 A 
ATOM     16  N   UNL A   1      39.344  30.222  30.300  1.00  0.00    -0.248 NA
ATOM     17  C   UNL A   1      37.504  30.181  28.863  1.00  0.00     0.031 C 
ATOM     18  C   UNL A   1      37.476  33.763  32.352  1.00  0.00     0.029 A 
ATOM     19  N   UNL A   1      39.157  32.291  32.454  1.00  0.00    -0.354 N 
ATOM     20  C   UNL A   1      39.434  29.112  29.470  1.00  0.00     0.074 A 
ATOM     21  C   UNL A   1      38.249  29.106  28.639  1.00  0.00     0.031 C 
ATOM     22  C   UNL A   1      38.184  34.044  33.455  1.00  0.00     0.029 A 
ATOM     23  C   UNL A   1      39.302  33.114  33.542  1.00  0.00     0.049 A 
ATOM     24  H   UNL A   1      39.758  31.535  32.263  1.00  0.00     0.167 HD
ATOM     25  C   UNL A   1      40.433  28.198  29.405  1.00  0.00     0.037 A 
ATOM     26  C   UNL A   1      40.260  33.128  34.482  1.00  0.00     0.037 A 
ATOM     27  C   UNL A   1      41.580  28.222  30.279  1.00  0.00     0.049 A 
ATOM     28  C   UNL A   1      41.380  32.138  34.361  1.00  0.00     0.074 A 
ATOM     29  C   UNL A   1      42.706  27.418  30.263  1.00  0.00     0.029 A 
ATOM     30  N   UNL A   1      41.729  29.095  31.351  1.00  0.00    -0.354 N 
ATOM     31  N   UNL A   1      41.550  31.189  33.472  1.00  0.00    -0.248 NA
ATOM     32  C   UNL A   1      42.453  32.243  35.353  1.00  0.00     0.031 C 
ATOM     33  C   UNL A   1      43.510  27.774  31.356  1.00  0.00     0.029 A 
ATOM     34  C   UNL A   1      42.911  28.832  32.022  1.00  0.00     0.049 A 
ATOM     35  H   UNL A   1      41.086  29.799  31.598  1.00  0.00     0.167 HD
ATOM     36  C   UNL A   1      42.763  30.594  33.780  1.00  0.00     0.074 A 
ATOM     37  C   UNL A   1      43.293  31.314  34.924  1.00  0.00     0.031 C 
ATOM     38  C   UNL A   1      43.390  29.552  33.176  1.00  0.00     0.037 A 
BRANCH  25  39
ATOM     39  C   UNL A   1      40.327  27.118  28.363  1.00  0.00     0.057 A 
ATOM     40  C   UNL A   1      40.977  27.236  27.128  1.00  0.00     0.134 A 
ATOM     41  C   UNL A   1      39.555  25.965  28.571  1.00  0.00     0.134 A 
ATOM     42  F   UNL A   1      41.729  28.313  26.853  1.00  0.00    -0.206 F 
ATOM     43  C   UNL A   1      40.869  26.249  26.144  1.00  0.00     0.040 A 
ATOM     44  C   UNL A   1      39.461  24.959  27.606  1.00  0.00     0.040 A 
ATOM     45  F   UNL A   1      38.908  25.779  29.732  1.00  0.00    -0.206 F 
ATOM     46  C   UNL A   1      40.116  25.102  26.386  1.00  0.00     0.006 A 
ENDBRANCH  25  39
BRANCH  26  47
ATOM     47  C   UNL A   1      40.253  34.184  35.521  1.00  0.00     0.057 A 
ATOM     48  C   UNL A   1      39.614  34.007  36.754  1.00  0.00     0.134 A 
ATOM     49  C   UNL A   1      40.845  35.427  35.273  1.00  0.00     0.134 A 
ATOM     50  F   UNL A   1      39.005  32.847  37.041  1.00  0.00    -0.206 F 
ATOM     51  C   UNL A   1      39.563  35.031  37.701  1.00  0.00     0.040 A 
ATOM     52  C   UNL A   1      40.821  36.451  36.219  1.00  0.00     0.040 A 
ATOM     53  F   UNL A   1      41.471  35.655  34.109  1.00  0.00    -0.206 F 
ATOM     54  C   UNL A   1      40.172  36.255  37.436  1.00  0.00     0.006 A 
ENDBRANCH  26  47
BRANCH  38  55
ATOM     55  C   UNL A   1      44.712  29.156  33.762  1.00  0.00     0.057 A 
ATOM     56  C   UNL A   1      44.786  28.176  34.757  1.00  0.00     0.134 A 
ATOM     57  C   UNL A   1      45.914  29.720  33.313  1.00  0.00     0.134 A 
ATOM     58  F   UNL A   1      43.671  27.604  35.235  1.00  0.00    -0.206 F 
ATOM     59  C   UNL A   1      46.011  27.756  35.274  1.00  0.00     0.040 A 
ATOM     60  C   UNL A   1      47.146  29.286  33.799  1.00  0.00     0.040 A 
ATOM     61  F   UNL A   1      45.909  30.652  32.346  1.00  0.00    -0.206 F 
ATOM     62  C   UNL A   1      47.197  28.301  34.784  1.00  0.00     0.006 A 
ENDBRANCH  38  55
ENDBRANCH  12  13
ENDBRANCH   5   7
ENDBRANCH   4   5
ENDBRANCH   3   4
ENDBRANCH   2   3
ENDBRANCH   1   2
BRANCH   1  63
ATOM     63  C   UNL A   1      32.093  29.674  25.957  1.00  0.00     0.202 C 
BRANCH  63  64
ATOM     64  C   UNL A   1      32.933  28.904  24.932  1.00  0.00     0.261 C 
BRANCH  64  65
ATOM     65  O   UNL A   1      33.089  27.542  25.371  1.00  0.00    -0.459 OA
BRANCH  65  66
ATOM     66  C   UNL A   1      32.584  26.601  24.525  1.00  0.00     0.343 C 
ATOM     67  O   UNL A   1      32.505  26.661  23.318  1.00  0.00    -0.246 OA
BRANCH  66  68
ATOM     68  C   UNL A   1      32.352  25.375  25.311  1.00  0.00     0.122 A 
ATOM     69  C   UNL A   1      33.091  24.231  24.974  1.00  0.00     0.031 A 
ATOM     70  C   UNL A   1      31.531  25.327  26.430  1.00  0.00     0.225 A 
ATOM     71  C   UNL A   1      33.030  23.099  25.790  1.00  0.00     0.001 A 
ATOM     72  N   UNL A   1      31.402  24.230  27.200  1.00  0.00    -0.221 NA
ATOM     73  C   UNL A   1      32.155  23.154  26.873  1.00  0.00     0.124 A 
BRANCH  70  74
ATOM     74  O   UNL A   1      30.795  26.385  26.875  1.00  0.00    -0.493 OA
ATOM     75  H   UNL A   1      29.876  26.285  27.029  1.00  0.00     0.295 HD
ENDBRANCH  70  74
BRANCH  71  76
ATOM     76  C   UNL A   1      33.869  21.922  25.564  1.00  0.00    -0.016 A 
ATOM     77  C   UNL A   1      35.266  22.011  25.636  1.00  0.00     0.012 A 
ATOM     78  C   UNL A   1      33.289  20.689  25.207  1.00  0.00     0.025 A 
ATOM     79  C   UNL A   1      36.063  20.908  25.325  1.00  0.00     0.040 A 
ATOM     80  C   UNL A   1      34.086  19.572  24.899  1.00  0.00     0.092 A 
ATOM     81  C   UNL A   1      35.469  19.707  24.952  1.00  0.00     0.135 A 
ATOM     82  F   UNL A   1      36.255  18.673  24.626  1.00  0.00    -0.206 F 
BRANCH  80  83
ATOM     83  C   UNL A   1      33.491  18.264  24.471  1.00  0.00     0.419 C 
ATOM     84  F   UNL A   1      33.904  17.878  23.234  1.00  0.00    -0.166 F 
ATOM     85  F   UNL A   1      33.782  17.234  25.312  1.00  0.00    -0.166 F 
ATOM     86  F   UNL A   1      32.128  18.302  24.408  1.00  0.00    -0.166 F 
ENDBRANCH  80  83
ENDBRANCH  71  76
ENDBRANCH  66  68
ENDBRANCH  65  66
ENDBRANCH  64  65
ENDBRANCH  63  64
ENDBRANCH   1  63
TORSDOF 17
ENDMDL
