MODEL 1
REMARK VINA RESULT:     -10.1      0.000      0.000
REMARK SMILES Cc1ccccc1[C@@H](C)NS(=O)(=O)CC(=O)OCCOCCOC(=O)c1ccc(-c2c3nc(c(-c4c(F)cccc4F)c4ccc([nH]4)c(-c4c(F)cccc4F)c4nc(c(-c5c(F)cccc5F)c5ccc2[nH]5)C=C4)C=C3)cc1
REMARK SMILES IDX 19 1 18 2 17 3 15 4 16 5 14 6 11 7 12 8 13 9 10 10 8 12 9 13
REMARK SMILES IDX 7 14 1 15 2 16 3 17 4 18 6 19 5 20 20 21 21 22 22 23 23 24
REMARK SMILES IDX 24 25 25 26 26 27 27 28 79 29 28 30 78 31 29 32 30 33 31 34
REMARK SMILES IDX 72 35 32 36 77 37 71 38 73 39 33 40 76 41 70 42 69 43 34 45
REMARK SMILES IDX 60 46 43 47 59 48 44 49 47 50 58 51 74 52 45 53 46 54 57 56
REMARK SMILES IDX 75 57 48 58 35 59 36 60 41 61 37 62 38 63 40 64 42 65 39 66
REMARK SMILES IDX 61 67 62 68 67 69 63 70 64 71 66 72 68 73 65 74 49 75 50 76
REMARK SMILES IDX 55 77 51 78 52 79 54 80 56 81 53 82
REMARK H PARENT 10 11 73 44 47 55
REMARK Flexibility Score: inf
ROOT
ATOM      1  C   UNL A   1      31.654  29.422  25.638  1.00  0.00     0.202 C 
ENDROOT
BRANCH   1   2
ATOM      2  C   UNL A   1      32.480  28.303  25.092  1.00  0.00     0.261 C 
BRANCH   2   3
ATOM      3  O   UNL A   1      32.429  27.114  25.882  1.00  0.00    -0.462 OA
BRANCH   3   4
ATOM      4  C   UNL A   1      31.412  26.247  25.649  1.00  0.00     0.322 C 
ATOM      5  O   UNL A   1      30.690  25.744  26.498  1.00  0.00    -0.251 OA
BRANCH   4   6
ATOM      6  C   UNL A   1      31.309  25.941  24.199  1.00  0.00     0.276 C 
BRANCH   6   7
ATOM      7  S   UNL A   1      32.583  24.786  23.728  1.00  0.00     0.223 S 
ATOM      8  O   UNL A   1      33.496  25.449  22.839  1.00  0.00    -0.212 OA
ATOM      9  O   UNL A   1      31.994  23.520  23.311  1.00  0.00    -0.212 OA
BRANCH   7  10
ATOM     10  N   UNL A   1      33.390  24.437  25.150  1.00  0.00    -0.207 NA
ATOM     11  H   UNL A   1      34.327  24.825  25.041  1.00  0.00     0.141 HD
BRANCH  10  12
ATOM     12  C   UNL A   1      33.577  23.062  25.662  1.00  0.00     0.096 C 
ATOM     13  C   UNL A   1      33.189  22.939  27.130  1.00  0.00     0.031 C 
BRANCH  12  14
ATOM     14  C   UNL A   1      35.025  22.584  25.491  1.00  0.00    -0.027 A 
ATOM     15  C   UNL A   1      34.403  20.139  24.884  1.00  0.00     0.044 C 
ATOM     16  C   UNL A   1      35.380  21.256  25.148  1.00  0.00    -0.046 A 
ATOM     17  C   UNL A   1      36.746  20.922  25.009  1.00  0.00     0.004 A 
ATOM     18  C   UNL A   1      37.749  21.874  25.169  1.00  0.00     0.000 A 
ATOM     19  C   UNL A   1      36.069  23.525  25.670  1.00  0.00     0.005 A 
ATOM     20  C   UNL A   1      37.410  23.178  25.496  1.00  0.00     0.000 A 
ENDBRANCH  12  14
ENDBRANCH  10  12
ENDBRANCH   7  10
ENDBRANCH   6   7
ENDBRANCH   4   6
ENDBRANCH   3   4
ENDBRANCH   2   3
ENDBRANCH   1   2
BRANCH   1  21
ATOM     21  O   UNL A   1      32.554  30.492  25.876  1.00  0.00    -0.374 OA
BRANCH  21  22
ATOM     22  C   UNL A   1      32.971  30.609  27.221  1.00  0.00     0.202 C 
BRANCH  22  23
ATOM     23  C   UNL A   1      33.619  31.937  27.617  1.00  0.00     0.261 C 
BRANCH  23  24
ATOM     24  O   UNL A   1      35.025  31.748  27.848  1.00  0.00    -0.460 OA
BRANCH  24  25
ATOM     25  C   UNL A   1      35.354  31.381  29.115  1.00  0.00     0.338 C 
ATOM     26  O   UNL A   1      35.180  32.060  30.115  1.00  0.00    -0.246 OA
BRANCH  25  27
ATOM     27  C   UNL A   1      36.244  30.185  29.072  1.00  0.00     0.060 A 
ATOM     28  C   UNL A   1      36.524  29.489  30.259  1.00  0.00     0.016 A 
ATOM     29  C   UNL A   1      37.065  30.018  27.963  1.00  0.00     0.016 A 
ATOM     30  C   UNL A   1      37.728  28.783  30.390  1.00  0.00     0.010 A 
ATOM     31  C   UNL A   1      38.309  29.456  28.151  1.00  0.00     0.010 A 
ATOM     32  C   UNL A   1      38.669  28.855  29.366  1.00  0.00    -0.014 A 
BRANCH  32  33
ATOM     33  C   UNL A   1      40.068  28.412  29.449  1.00  0.00     0.031 A 
ATOM     34  C   UNL A   1      40.415  27.113  28.824  1.00  0.00     0.074 A 
ATOM     35  C   UNL A   1      41.071  29.221  29.885  1.00  0.00     0.049 A 
ATOM     36  N   UNL A   1      41.493  26.467  29.090  1.00  0.00    -0.248 NA
ATOM     37  C   UNL A   1      39.582  26.417  27.845  1.00  0.00     0.031 C 
ATOM     38  C   UNL A   1      42.518  29.068  29.712  1.00  0.00     0.029 A 
ATOM     39  N   UNL A   1      41.000  30.390  30.655  1.00  0.00    -0.354 N 
ATOM     40  C   UNL A   1      41.656  25.491  28.136  1.00  0.00     0.074 A 
ATOM     41  C   UNL A   1      40.415  25.471  27.406  1.00  0.00     0.031 C 
ATOM     42  C   UNL A   1      43.160  29.835  30.617  1.00  0.00     0.029 A 
ATOM     43  C   UNL A   1      42.146  30.449  31.457  1.00  0.00     0.049 A 
ATOM     44  H   UNL A   1      40.271  31.053  30.635  1.00  0.00     0.167 HD
ATOM     45  C   UNL A   1      42.880  24.906  28.015  1.00  0.00     0.037 A 
ATOM     46  C   UNL A   1      42.046  30.478  32.810  1.00  0.00     0.037 A 
ATOM     47  C   UNL A   1      43.799  25.444  29.026  1.00  0.00     0.049 A 
ATOM     48  C   UNL A   1      42.695  29.234  33.329  1.00  0.00     0.074 A 
ATOM     49  C   UNL A   1      44.798  26.404  28.974  1.00  0.00     0.029 A 
ATOM     50  N   UNL A   1      43.492  25.279  30.378  1.00  0.00    -0.354 N 
ATOM     51  N   UNL A   1      42.843  28.167  32.588  1.00  0.00    -0.248 NA
ATOM     52  C   UNL A   1      43.334  29.108  34.632  1.00  0.00     0.031 C 
ATOM     53  C   UNL A   1      45.042  26.857  30.301  1.00  0.00     0.029 A 
ATOM     54  C   UNL A   1      44.209  26.162  31.166  1.00  0.00     0.049 A 
ATOM     55  H   UNL A   1      42.850  24.620  30.725  1.00  0.00     0.167 HD
ATOM     56  C   UNL A   1      43.658  27.285  33.222  1.00  0.00     0.074 A 
ATOM     57  C   UNL A   1      43.904  27.894  34.520  1.00  0.00     0.031 C 
ATOM     58  C   UNL A   1      44.093  26.141  32.622  1.00  0.00     0.037 A 
BRANCH  45  59
ATOM     59  C   UNL A   1      43.297  24.052  26.839  1.00  0.00     0.057 A 
ATOM     60  C   UNL A   1      43.164  22.650  26.879  1.00  0.00     0.134 A 
ATOM     61  C   UNL A   1      43.851  24.542  25.640  1.00  0.00     0.134 A 
ATOM     62  F   UNL A   1      42.586  22.026  27.912  1.00  0.00    -0.206 F 
ATOM     63  C   UNL A   1      43.620  21.807  25.854  1.00  0.00     0.040 A 
ATOM     64  C   UNL A   1      44.362  23.709  24.632  1.00  0.00     0.040 A 
ATOM     65  F   UNL A   1      43.867  25.849  25.355  1.00  0.00    -0.206 F 
ATOM     66  C   UNL A   1      44.250  22.333  24.737  1.00  0.00     0.006 A 
ENDBRANCH  45  59
BRANCH  46  67
ATOM     67  C   UNL A   1      40.805  31.187  33.253  1.00  0.00     0.057 A 
ATOM     68  C   UNL A   1      39.720  30.376  33.664  1.00  0.00     0.134 A 
ATOM     69  C   UNL A   1      40.820  32.494  33.748  1.00  0.00     0.134 A 
ATOM     70  F   UNL A   1      39.636  29.106  33.234  1.00  0.00    -0.206 F 
ATOM     71  C   UNL A   1      38.804  30.785  34.641  1.00  0.00     0.040 A 
ATOM     72  C   UNL A   1      39.891  32.920  34.715  1.00  0.00     0.040 A 
ATOM     73  F   UNL A   1      41.812  33.335  33.423  1.00  0.00    -0.206 F 
ATOM     74  C   UNL A   1      38.918  32.048  35.205  1.00  0.00     0.006 A 
ENDBRANCH  46  67
BRANCH  58  75
ATOM     75  C   UNL A   1      44.535  24.923  33.382  1.00  0.00     0.057 A 
ATOM     76  C   UNL A   1      45.867  24.481  33.420  1.00  0.00     0.134 A 
ATOM     77  C   UNL A   1      43.655  24.265  34.267  1.00  0.00     0.134 A 
ATOM     78  F   UNL A   1      46.839  25.097  32.735  1.00  0.00    -0.206 F 
ATOM     79  C   UNL A   1      46.277  23.415  34.222  1.00  0.00     0.040 A 
ATOM     80  C   UNL A   1      44.073  23.250  35.127  1.00  0.00     0.040 A 
ATOM     81  F   UNL A   1      42.362  24.602  34.370  1.00  0.00    -0.206 F 
ATOM     82  C   UNL A   1      45.384  22.805  35.091  1.00  0.00     0.006 A 
ENDBRANCH  58  75
ENDBRANCH  32  33
ENDBRANCH  25  27
ENDBRANCH  24  25
ENDBRANCH  23  24
ENDBRANCH  22  23
ENDBRANCH  21  22
ENDBRANCH   1  21
TORSDOF 18
ENDMDL
MODEL 2
REMARK VINA RESULT:     -10.1      1.201      2.199
REMARK SMILES Cc1ccccc1[C@@H](C)NS(=O)(=O)CC(=O)OCCOCCOC(=O)c1ccc(-c2c3nc(c(-c4c(F)cccc4F)c4ccc([nH]4)c(-c4c(F)cccc4F)c4nc(c(-c5c(F)cccc5F)c5ccc2[nH]5)C=C4)C=C3)cc1
REMARK SMILES IDX 19 1 18 2 17 3 15 4 16 5 14 6 11 7 12 8 13 9 10 10 8 12 9 13
REMARK SMILES IDX 7 14 1 15 2 16 3 17 4 18 6 19 5 20 20 21 21 22 22 23 23 24
REMARK SMILES IDX 24 25 25 26 26 27 27 28 79 29 28 30 78 31 29 32 30 33 31 34
REMARK SMILES IDX 72 35 32 36 77 37 71 38 73 39 33 40 76 41 70 42 69 43 34 45
REMARK SMILES IDX 60 46 43 47 59 48 44 49 47 50 58 51 74 52 45 53 46 54 57 56
REMARK SMILES IDX 75 57 48 58 35 59 36 60 41 61 37 62 38 63 40 64 42 65 39 66
REMARK SMILES IDX 61 67 62 68 67 69 63 70 64 71 66 72 68 73 65 74 49 75 50 76
REMARK SMILES IDX 55 77 51 78 52 79 54 80 56 81 53 82
REMARK H PARENT 10 11 73 44 47 55
REMARK Flexibility Score: inf
ROOT
ATOM      1  C   UNL A   1      31.785  28.802  25.847  1.00  0.00     0.202 C 
ENDROOT
BRANCH   1   2
ATOM      2  C   UNL A   1      31.306  28.673  24.438  1.00  0.00     0.261 C 
BRANCH   2   3
ATOM      3  O   UNL A   1      30.781  27.381  24.126  1.00  0.00    -0.462 OA
BRANCH   3   4
ATOM      4  C   UNL A   1      30.992  26.901  22.875  1.00  0.00     0.322 C 
ATOM      5  O   UNL A   1      30.651  27.443  21.833  1.00  0.00    -0.251 OA
BRANCH   4   6
ATOM      6  C   UNL A   1      31.668  25.580  22.929  1.00  0.00     0.276 C 
BRANCH   6   7
ATOM      7  S   UNL A   1      33.428  25.787  22.732  1.00  0.00     0.223 S 
ATOM      8  O   UNL A   1      33.966  26.322  23.950  1.00  0.00    -0.212 OA
ATOM      9  O   UNL A   1      33.722  26.468  21.477  1.00  0.00    -0.212 OA
BRANCH   7  10
ATOM     10  N   UNL A   1      34.020  24.237  22.528  1.00  0.00    -0.207 NA
ATOM     11  H   UNL A   1      33.223  23.670  22.237  1.00  0.00     0.141 HD
BRANCH  10  12
ATOM     12  C   UNL A   1      34.689  23.473  23.603  1.00  0.00     0.096 C 
ATOM     13  C   UNL A   1      36.154  23.201  23.287  1.00  0.00     0.031 C 
BRANCH  12  14
ATOM     14  C   UNL A   1      33.984  22.138  23.876  1.00  0.00    -0.027 A 
ATOM     15  C   UNL A   1      35.506  21.461  25.865  1.00  0.00     0.044 C 
ATOM     16  C   UNL A   1      34.374  21.236  24.896  1.00  0.00    -0.046 A 
ATOM     17  C   UNL A   1      33.651  20.034  25.066  1.00  0.00     0.004 A 
ATOM     18  C   UNL A   1      32.546  19.730  24.276  1.00  0.00     0.000 A 
ATOM     19  C   UNL A   1      32.870  21.789  23.072  1.00  0.00     0.005 A 
ATOM     20  C   UNL A   1      32.153  20.611  23.279  1.00  0.00     0.000 A 
ENDBRANCH  12  14
ENDBRANCH  10  12
ENDBRANCH   7  10
ENDBRANCH   6   7
ENDBRANCH   4   6
ENDBRANCH   3   4
ENDBRANCH   2   3
ENDBRANCH   1   2
BRANCH   1  21
ATOM     21  O   UNL A   1      32.205  30.149  25.995  1.00  0.00    -0.374 OA
BRANCH  21  22
ATOM     22  C   UNL A   1      32.900  30.409  27.197  1.00  0.00     0.202 C 
BRANCH  22  23
ATOM     23  C   UNL A   1      33.320  31.860  27.437  1.00  0.00     0.261 C 
BRANCH  23  24
ATOM     24  O   UNL A   1      34.738  31.929  27.667  1.00  0.00    -0.460 OA
BRANCH  24  25
ATOM     25  C   UNL A   1      35.130  31.611  28.930  1.00  0.00     0.338 C 
ATOM     26  O   UNL A   1      35.003  32.327  29.910  1.00  0.00    -0.246 OA
BRANCH  25  27
ATOM     27  C   UNL A   1      36.021  30.416  28.888  1.00  0.00     0.060 A 
ATOM     28  C   UNL A   1      36.278  29.704  30.071  1.00  0.00     0.016 A 
ATOM     29  C   UNL A   1      36.864  30.264  27.794  1.00  0.00     0.016 A 
ATOM     30  C   UNL A   1      37.480  28.997  30.216  1.00  0.00     0.010 A 
ATOM     31  C   UNL A   1      38.105  29.700  27.999  1.00  0.00     0.010 A 
ATOM     32  C   UNL A   1      38.441  29.083  29.213  1.00  0.00    -0.014 A 
BRANCH  32  33
ATOM     33  C   UNL A   1      39.838  28.639  29.318  1.00  0.00     0.031 A 
ATOM     34  C   UNL A   1      40.174  27.297  28.785  1.00  0.00     0.074 A 
ATOM     35  C   UNL A   1      40.848  29.472  29.689  1.00  0.00     0.049 A 
ATOM     36  N   UNL A   1      41.251  26.665  29.089  1.00  0.00    -0.248 NA
ATOM     37  C   UNL A   1      39.330  26.537  27.863  1.00  0.00     0.031 C 
ATOM     38  C   UNL A   1      42.294  29.299  29.517  1.00  0.00     0.029 A 
ATOM     39  N   UNL A   1      40.788  30.693  30.374  1.00  0.00    -0.354 N 
ATOM     40  C   UNL A   1      41.402  25.624  28.206  1.00  0.00     0.074 A 
ATOM     41  C   UNL A   1      40.156  25.558  27.488  1.00  0.00     0.031 C 
ATOM     42  C   UNL A   1      42.945  30.124  30.361  1.00  0.00     0.029 A 
ATOM     43  C   UNL A   1      41.941  30.803  31.162  1.00  0.00     0.049 A 
ATOM     44  H   UNL A   1      40.063  31.357  30.311  1.00  0.00     0.167 HD
ATOM     45  C   UNL A   1      42.622  25.024  28.119  1.00  0.00     0.037 A 
ATOM     46  C   UNL A   1      41.850  30.929  32.510  1.00  0.00     0.037 A 
ATOM     47  C   UNL A   1      43.551  25.628  29.083  1.00  0.00     0.049 A 
ATOM     48  C   UNL A   1      42.496  29.721  33.112  1.00  0.00     0.074 A 
ATOM     49  C   UNL A   1      44.554  26.576  28.956  1.00  0.00     0.029 A 
ATOM     50  N   UNL A   1      43.253  25.562  30.445  1.00  0.00    -0.354 N 
ATOM     51  N   UNL A   1      42.634  28.603  32.448  1.00  0.00    -0.248 NA
ATOM     52  C   UNL A   1      43.144  29.685  34.417  1.00  0.00     0.031 C 
ATOM     53  C   UNL A   1      44.810  27.121  30.246  1.00  0.00     0.029 A 
ATOM     54  C   UNL A   1      43.980  26.494  31.163  1.00  0.00     0.049 A 
ATOM     55  H   UNL A   1      42.609  24.933  30.843  1.00  0.00     0.167 HD
ATOM     56  C   UNL A   1      43.448  27.764  33.138  1.00  0.00     0.074 A 
ATOM     57  C   UNL A   1      43.706  28.462  34.388  1.00  0.00     0.031 C 
ATOM     58  C   UNL A   1      43.874  26.577  32.618  1.00  0.00     0.037 A 
BRANCH  45  59
ATOM     59  C   UNL A   1      43.026  24.086  27.004  1.00  0.00     0.057 A 
ATOM     60  C   UNL A   1      43.226  22.714  27.249  1.00  0.00     0.134 A 
ATOM     61  C   UNL A   1      43.252  24.469  25.667  1.00  0.00     0.134 A 
ATOM     62  F   UNL A   1      42.981  22.169  28.447  1.00  0.00    -0.206 F 
ATOM     63  C   UNL A   1      43.690  21.820  26.272  1.00  0.00     0.040 A 
ATOM     64  C   UNL A   1      43.769  23.600  24.694  1.00  0.00     0.040 A 
ATOM     65  F   UNL A   1      42.923  25.686  25.219  1.00  0.00    -0.206 F 
ATOM     66  C   UNL A   1      43.993  22.267  24.996  1.00  0.00     0.006 A 
ENDBRANCH  45  59
BRANCH  46  67
ATOM     67  C   UNL A   1      40.616  31.675  32.910  1.00  0.00     0.057 A 
ATOM     68  C   UNL A   1      40.643  33.081  32.753  1.00  0.00     0.134 A 
ATOM     69  C   UNL A   1      39.352  31.080  32.935  1.00  0.00     0.134 A 
ATOM     70  F   UNL A   1      41.821  33.727  32.716  1.00  0.00    -0.206 F 
ATOM     71  C   UNL A   1      39.493  33.827  32.465  1.00  0.00     0.040 A 
ATOM     72  C   UNL A   1      38.189  31.827  32.667  1.00  0.00     0.040 A 
ATOM     73  F   UNL A   1      39.225  29.754  33.070  1.00  0.00    -0.206 F 
ATOM     74  C   UNL A   1      38.264  33.188  32.375  1.00  0.00     0.006 A 
ENDBRANCH  46  67
BRANCH  58  75
ATOM     75  C   UNL A   1      44.315  25.415  33.460  1.00  0.00     0.057 A 
ATOM     76  C   UNL A   1      43.486  24.790  34.405  1.00  0.00     0.134 A 
ATOM     77  C   UNL A   1      45.536  24.759  33.201  1.00  0.00     0.134 A 
ATOM     78  F   UNL A   1      42.243  25.224  34.656  1.00  0.00    -0.206 F 
ATOM     79  C   UNL A   1      43.874  23.641  35.096  1.00  0.00     0.040 A 
ATOM     80  C   UNL A   1      45.900  23.569  33.832  1.00  0.00     0.040 A 
ATOM     81  F   UNL A   1      46.415  25.216  32.298  1.00  0.00    -0.206 F 
ATOM     82  C   UNL A   1      45.077  23.017  34.800  1.00  0.00     0.006 A 
ENDBRANCH  58  75
ENDBRANCH  32  33
ENDBRANCH  25  27
ENDBRANCH  24  25
ENDBRANCH  23  24
ENDBRANCH  22  23
ENDBRANCH  21  22
ENDBRANCH   1  21
TORSDOF 18
ENDMDL
MODEL 3
REMARK VINA RESULT:      -9.9      3.195      8.569
REMARK SMILES Cc1ccccc1[C@@H](C)NS(=O)(=O)CC(=O)OCCOCCOC(=O)c1ccc(-c2c3nc(c(-c4c(F)cccc4F)c4ccc([nH]4)c(-c4c(F)cccc4F)c4nc(c(-c5c(F)cccc5F)c5ccc2[nH]5)C=C4)C=C3)cc1
REMARK SMILES IDX 19 1 18 2 17 3 15 4 16 5 14 6 11 7 12 8 13 9 10 10 8 12 9 13
REMARK SMILES IDX 7 14 1 15 2 16 3 17 4 18 6 19 5 20 20 21 21 22 22 23 23 24
REMARK SMILES IDX 24 25 25 26 26 27 27 28 79 29 28 30 78 31 29 32 30 33 31 34
REMARK SMILES IDX 72 35 32 36 77 37 71 38 73 39 33 40 76 41 70 42 69 43 34 45
REMARK SMILES IDX 60 46 43 47 59 48 44 49 47 50 58 51 74 52 45 53 46 54 57 56
REMARK SMILES IDX 75 57 48 58 35 59 36 60 41 61 37 62 38 63 40 64 42 65 39 66
REMARK SMILES IDX 61 67 62 68 67 69 63 70 64 71 66 72 68 73 65 74 49 75 50 76
REMARK SMILES IDX 55 77 51 78 52 79 54 80 56 81 53 82
REMARK H PARENT 10 11 73 44 47 55
REMARK Flexibility Score: inf
ROOT
ATOM      1  C   UNL A   1      35.753  20.848  25.241  1.00  0.00     0.202 C 
ENDROOT
BRANCH   1   2
ATOM      2  C   UNL A   1      34.964  22.058  25.622  1.00  0.00     0.261 C 
BRANCH   2   3
ATOM      3  O   UNL A   1      33.681  22.129  24.996  1.00  0.00    -0.462 OA
BRANCH   3   4
ATOM      4  C   UNL A   1      32.712  21.296  25.453  1.00  0.00     0.322 C 
ATOM      5  O   UNL A   1      32.852  20.109  25.713  1.00  0.00    -0.251 OA
BRANCH   4   6
ATOM      6  C   UNL A   1      31.416  22.012  25.559  1.00  0.00     0.276 C 
BRANCH   6   7
ATOM      7  S   UNL A   1      31.463  23.158  26.924  1.00  0.00     0.223 S 
ATOM      8  O   UNL A   1      32.377  22.657  27.912  1.00  0.00    -0.212 OA
ATOM      9  O   UNL A   1      30.111  23.515  27.336  1.00  0.00    -0.212 OA
BRANCH   7  10
ATOM     10  N   UNL A   1      32.099  24.563  26.280  1.00  0.00    -0.207 NA
ATOM     11  H   UNL A   1      32.844  24.849  26.915  1.00  0.00     0.141 HD
BRANCH  10  12
ATOM     12  C   UNL A   1      31.296  25.779  26.025  1.00  0.00     0.096 C 
ATOM     13  C   UNL A   1      30.714  25.797  24.618  1.00  0.00     0.031 C 
BRANCH  12  14
ATOM     14  C   UNL A   1      32.117  27.058  26.238  1.00  0.00    -0.027 A 
ATOM     15  C   UNL A   1      33.909  26.498  24.448  1.00  0.00     0.044 C 
ATOM     16  C   UNL A   1      33.301  27.362  25.523  1.00  0.00    -0.046 A 
ATOM     17  C   UNL A   1      33.978  28.572  25.794  1.00  0.00     0.004 A 
ATOM     18  C   UNL A   1      33.491  29.488  26.723  1.00  0.00     0.000 A 
ATOM     19  C   UNL A   1      31.659  27.998  27.195  1.00  0.00     0.005 A 
ATOM     20  C   UNL A   1      32.328  29.202  27.422  1.00  0.00     0.000 A 
ENDBRANCH  12  14
ENDBRANCH  10  12
ENDBRANCH   7  10
ENDBRANCH   6   7
ENDBRANCH   4   6
ENDBRANCH   3   4
ENDBRANCH   2   3
ENDBRANCH   1   2
BRANCH   1  21
ATOM     21  O   UNL A   1      36.986  21.330  24.731  1.00  0.00    -0.374 OA
BRANCH  21  22
ATOM     22  C   UNL A   1      37.747  22.070  25.663  1.00  0.00     0.202 C 
BRANCH  22  23
ATOM     23  C   UNL A   1      39.166  21.566  25.932  1.00  0.00     0.261 C 
BRANCH  23  24
ATOM     24  O   UNL A   1      39.765  22.329  26.993  1.00  0.00    -0.460 OA
BRANCH  24  25
ATOM     25  C   UNL A   1      40.689  23.242  26.593  1.00  0.00     0.338 C 
ATOM     26  O   UNL A   1      41.853  22.996  26.321  1.00  0.00    -0.246 OA
BRANCH  25  27
ATOM     27  C   UNL A   1      40.171  24.618  26.846  1.00  0.00     0.060 A 
ATOM     28  C   UNL A   1      40.823  25.718  26.265  1.00  0.00     0.016 A 
ATOM     29  C   UNL A   1      39.320  24.810  27.928  1.00  0.00     0.016 A 
ATOM     30  C   UNL A   1      40.770  26.972  26.890  1.00  0.00     0.010 A 
ATOM     31  C   UNL A   1      39.400  26.000  28.616  1.00  0.00     0.010 A 
ATOM     32  C   UNL A   1      40.140  27.086  28.127  1.00  0.00    -0.014 A 
BRANCH  32  33
ATOM     33  C   UNL A   1      40.226  28.240  29.034  1.00  0.00     0.031 A 
ATOM     34  C   UNL A   1      39.253  29.342  28.837  1.00  0.00     0.074 A 
ATOM     35  C   UNL A   1      41.008  28.243  30.146  1.00  0.00     0.049 A 
ATOM     36  N   UNL A   1      39.410  30.518  29.330  1.00  0.00    -0.248 NA
ATOM     37  C   UNL A   1      38.016  29.226  28.066  1.00  0.00     0.031 C 
ATOM     38  C   UNL A   1      40.953  29.136  31.308  1.00  0.00     0.029 A 
ATOM     39  N   UNL A   1      42.104  27.430  30.466  1.00  0.00    -0.354 N 
ATOM     40  C   UNL A   1      38.214  31.187  29.232  1.00  0.00     0.074 A 
ATOM     41  C   UNL A   1      37.387  30.356  28.397  1.00  0.00     0.031 C 
ATOM     42  C   UNL A   1      42.123  29.072  31.976  1.00  0.00     0.029 A 
ATOM     43  C   UNL A   1      43.001  28.193  31.224  1.00  0.00     0.049 A 
ATOM     44  H   UNL A   1      42.222  26.488  30.203  1.00  0.00     0.167 HD
ATOM     45  C   UNL A   1      38.043  32.313  29.979  1.00  0.00     0.037 A 
ATOM     46  C   UNL A   1      44.271  28.403  30.792  1.00  0.00     0.037 A 
ATOM     47  C   UNL A   1      39.267  32.610  30.733  1.00  0.00     0.049 A 
ATOM     48  C   UNL A   1      44.424  29.875  30.564  1.00  0.00     0.074 A 
ATOM     49  C   UNL A   1      39.640  32.386  32.049  1.00  0.00     0.029 A 
ATOM     50  N   UNL A   1      40.450  32.860  30.035  1.00  0.00    -0.354 N 
ATOM     51  N   UNL A   1      43.396  30.654  30.351  1.00  0.00    -0.248 NA
ATOM     52  C   UNL A   1      45.676  30.610  30.677  1.00  0.00     0.031 C 
ATOM     53  C   UNL A   1      41.060  32.442  32.120  1.00  0.00     0.029 A 
ATOM     54  C   UNL A   1      41.555  32.720  30.855  1.00  0.00     0.049 A 
ATOM     55  H   UNL A   1      40.492  33.105  29.083  1.00  0.00     0.167 HD
ATOM     56  C   UNL A   1      43.793  31.951  30.410  1.00  0.00     0.074 A 
ATOM     57  C   UNL A   1      45.237  31.878  30.568  1.00  0.00     0.031 C 
ATOM     58  C   UNL A   1      42.904  32.984  30.357  1.00  0.00     0.037 A 
BRANCH  45  59
ATOM     59  C   UNL A   1      36.705  32.979  30.211  1.00  0.00     0.057 A 
ATOM     60  C   UNL A   1      36.032  33.636  29.163  1.00  0.00     0.134 A 
ATOM     61  C   UNL A   1      36.028  33.026  31.446  1.00  0.00     0.134 A 
ATOM     62  F   UNL A   1      36.498  33.622  27.908  1.00  0.00    -0.206 F 
ATOM     63  C   UNL A   1      34.836  34.347  29.346  1.00  0.00     0.040 A 
ATOM     64  C   UNL A   1      34.862  33.779  31.656  1.00  0.00     0.040 A 
ATOM     65  F   UNL A   1      36.424  32.294  32.493  1.00  0.00    -0.206 F 
ATOM     66  C   UNL A   1      34.262  34.448  30.602  1.00  0.00     0.006 A 
ENDBRANCH  45  59
BRANCH  46  67
ATOM     67  C   UNL A   1      44.783  27.237  30.007  1.00  0.00     0.057 A 
ATOM     68  C   UNL A   1      44.803  27.378  28.598  1.00  0.00     0.134 A 
ATOM     69  C   UNL A   1      45.662  26.295  30.545  1.00  0.00     0.134 A 
ATOM     70  F   UNL A   1      43.989  28.266  28.004  1.00  0.00    -0.206 F 
ATOM     71  C   UNL A   1      45.758  26.745  27.793  1.00  0.00     0.040 A 
ATOM     72  C   UNL A   1      46.612  25.638  29.740  1.00  0.00     0.040 A 
ATOM     73  F   UNL A   1      45.723  26.097  31.869  1.00  0.00    -0.206 F 
ATOM     74  C   UNL A   1      46.700  25.906  28.374  1.00  0.00     0.006 A 
ENDBRANCH  46  67
BRANCH  58  75
ATOM     75  C   UNL A   1      43.269  34.369  29.907  1.00  0.00     0.057 A 
ATOM     76  C   UNL A   1      43.405  34.730  28.557  1.00  0.00     0.134 A 
ATOM     77  C   UNL A   1      43.302  35.441  30.824  1.00  0.00     0.134 A 
ATOM     78  F   UNL A   1      43.263  33.838  27.567  1.00  0.00    -0.206 F 
ATOM     79  C   UNL A   1      43.633  36.047  28.155  1.00  0.00     0.040 A 
ATOM     80  C   UNL A   1      43.453  36.768  30.425  1.00  0.00     0.040 A 
ATOM     81  F   UNL A   1      43.148  35.257  32.143  1.00  0.00    -0.206 F 
ATOM     82  C   UNL A   1      43.642  37.074  29.087  1.00  0.00     0.006 A 
ENDBRANCH  58  75
ENDBRANCH  32  33
ENDBRANCH  25  27
ENDBRANCH  24  25
ENDBRANCH  23  24
ENDBRANCH  22  23
ENDBRANCH  21  22
ENDBRANCH   1  21
TORSDOF 18
ENDMDL
