MODEL 1
REMARK VINA RESULT:     -11.4      0.000      0.000
REMARK SMILES O=C(Cc1ccc(-c2ccc(Cl)cc2)cc1)OCCOCCOC(=O)c1ccc(-c2c3nc(c(-c4c(F)cccc4F)c4ccc([nH]4)c(-c4c(F)cccc4F)c4nc(c(-c5c(F)cccc5F)c5ccc2[nH]5)C=C4)C=C3)cc1
REMARK SMILES IDX 20 1 19 2 18 3 17 4 2 5 1 6 3 7 4 8 5 9 16 10 6 11 15 12
REMARK SMILES IDX 7 13 8 14 9 15 14 16 10 17 13 18 11 19 12 20 21 21 22 22
REMARK SMILES IDX 23 23 24 24 25 25 26 26 27 27 79 28 28 29 78 30 29 31 30 32
REMARK SMILES IDX 31 33 72 34 32 35 77 36 71 37 73 38 33 39 76 40 70 41 69 42
REMARK SMILES IDX 34 44 60 45 43 46 59 47 44 48 47 49 58 50 74 51 45 52 46 53
REMARK SMILES IDX 57 55 75 56 48 57 35 58 36 59 41 60 37 61 38 62 40 63 42 64
REMARK SMILES IDX 39 65 61 66 62 67 67 68 63 69 64 70 66 71 68 72 65 73 49 74
REMARK SMILES IDX 50 75 55 76 51 77 52 78 54 79 56 80 53 81
REMARK H PARENT 73 43 47 54
REMARK Flexibility Score: inf
ROOT
ATOM      1  O   UNL A   1      46.520  20.204  25.360  1.00  0.00    -0.374 OA
ENDROOT
BRANCH   1   2
ATOM      2  C   UNL A   1      45.798  18.993  25.190  1.00  0.00     0.202 C 
BRANCH   2   3
ATOM      3  C   UNL A   1      44.508  19.029  24.373  1.00  0.00     0.261 C 
BRANCH   3   4
ATOM      4  O   UNL A   1      43.372  18.394  24.980  1.00  0.00    -0.463 OA
BRANCH   4   5
ATOM      5  C   UNL A   1      43.028  18.464  26.289  1.00  0.00     0.310 C 
ATOM      6  O   UNL A   1      43.024  17.433  26.964  1.00  0.00    -0.252 OA
BRANCH   5   7
ATOM      7  C   UNL A   1      42.562  19.772  26.892  1.00  0.00     0.158 C 
BRANCH   7   8
ATOM      8  C   UNL A   1      41.220  20.272  26.431  1.00  0.00    -0.037 A 
ATOM      9  C   UNL A   1      40.859  21.610  26.646  1.00  0.00     0.005 A 
ATOM     10  C   UNL A   1      40.310  19.402  25.821  1.00  0.00     0.005 A 
ATOM     11  C   UNL A   1      39.589  22.062  26.283  1.00  0.00     0.009 A 
ATOM     12  C   UNL A   1      39.037  19.850  25.486  1.00  0.00     0.009 A 
ATOM     13  C   UNL A   1      38.664  21.185  25.702  1.00  0.00    -0.018 A 
BRANCH  13  14
ATOM     14  C   UNL A   1      37.356  21.639  25.235  1.00  0.00    -0.018 A 
ATOM     15  C   UNL A   1      36.339  20.698  25.011  1.00  0.00     0.010 A 
ATOM     16  C   UNL A   1      37.056  23.005  25.118  1.00  0.00     0.010 A 
ATOM     17  C   UNL A   1      35.039  21.112  24.722  1.00  0.00     0.021 A 
ATOM     18  C   UNL A   1      35.755  23.420  24.823  1.00  0.00     0.021 A 
ATOM     19  C   UNL A   1      34.751  22.471  24.641  1.00  0.00     0.041 A 
ATOM     20  Cl  UNL A   1      33.135  22.982  24.344  1.00  0.00    -0.084 Cl
ENDBRANCH  13  14
ENDBRANCH   7   8
ENDBRANCH   5   7
ENDBRANCH   4   5
ENDBRANCH   3   4
ENDBRANCH   2   3
ENDBRANCH   1   2
BRANCH   1  21
ATOM     21  C   UNL A   1      45.900  21.419  24.924  1.00  0.00     0.202 C 
BRANCH  21  22
ATOM     22  C   UNL A   1      45.393  22.385  25.997  1.00  0.00     0.261 C 
BRANCH  22  23
ATOM     23  O   UNL A   1      44.337  23.224  25.498  1.00  0.00    -0.460 OA
BRANCH  23  24
ATOM     24  C   UNL A   1      44.664  24.526  25.366  1.00  0.00     0.338 C 
ATOM     25  O   UNL A   1      45.539  25.002  24.650  1.00  0.00    -0.246 OA
BRANCH  24  26
ATOM     26  C   UNL A   1      43.675  25.369  26.057  1.00  0.00     0.060 A 
ATOM     27  C   UNL A   1      43.974  26.732  26.191  1.00  0.00     0.016 A 
ATOM     28  C   UNL A   1      42.531  24.827  26.649  1.00  0.00     0.016 A 
ATOM     29  C   UNL A   1      43.195  27.535  27.013  1.00  0.00     0.010 A 
ATOM     30  C   UNL A   1      41.751  25.634  27.479  1.00  0.00     0.010 A 
ATOM     31  C   UNL A   1      42.127  26.968  27.718  1.00  0.00    -0.014 A 
BRANCH  31  32
ATOM     32  C   UNL A   1      41.593  27.696  28.891  1.00  0.00     0.031 A 
ATOM     33  C   UNL A   1      42.325  27.562  30.201  1.00  0.00     0.074 A 
ATOM     34  C   UNL A   1      40.536  28.517  28.776  1.00  0.00     0.049 A 
ATOM     35  N   UNL A   1      42.074  28.118  31.357  1.00  0.00    -0.248 NA
ATOM     36  C   UNL A   1      43.502  26.674  30.206  1.00  0.00     0.031 C 
ATOM     37  C   UNL A   1      39.784  28.760  27.547  1.00  0.00     0.029 A 
ATOM     38  N   UNL A   1      39.920  29.304  29.714  1.00  0.00    -0.354 N 
ATOM     39  C   UNL A   1      43.049  27.638  32.225  1.00  0.00     0.074 A 
ATOM     40  C   UNL A   1      43.875  26.720  31.475  1.00  0.00     0.031 C 
ATOM     41  C   UNL A   1      38.804  29.642  27.806  1.00  0.00     0.029 A 
ATOM     42  C   UNL A   1      38.848  30.003  29.223  1.00  0.00     0.049 A 
ATOM     43  H   UNL A   1      40.219  29.361  30.651  1.00  0.00     0.167 HD
ATOM     44  C   UNL A   1      43.244  27.945  33.528  1.00  0.00     0.037 A 
ATOM     45  C   UNL A   1      37.999  30.836  29.854  1.00  0.00     0.037 A 
ATOM     46  C   UNL A   1      42.425  28.869  34.264  1.00  0.00     0.049 A 
ATOM     47  C   UNL A   1      38.208  31.124  31.316  1.00  0.00     0.074 A 
ATOM     48  C   UNL A   1      42.542  29.267  35.584  1.00  0.00     0.029 A 
ATOM     49  N   UNL A   1      41.328  29.538  33.739  1.00  0.00    -0.354 N 
ATOM     50  N   UNL A   1      39.145  30.684  32.123  1.00  0.00    -0.248 NA
ATOM     51  C   UNL A   1      37.248  32.036  31.953  1.00  0.00     0.031 C 
ATOM     52  C   UNL A   1      41.487  30.139  35.871  1.00  0.00     0.029 A 
ATOM     53  C   UNL A   1      40.748  30.332  34.713  1.00  0.00     0.049 A 
ATOM     54  H   UNL A   1      41.011  29.459  32.810  1.00  0.00     0.167 HD
ATOM     55  C   UNL A   1      38.912  31.299  33.348  1.00  0.00     0.074 A 
ATOM     56  C   UNL A   1      37.749  32.145  33.174  1.00  0.00     0.031 C 
ATOM     57  C   UNL A   1      39.600  31.179  34.511  1.00  0.00     0.037 A 
BRANCH  44  58
ATOM     58  C   UNL A   1      44.367  27.247  34.242  1.00  0.00     0.057 A 
ATOM     59  C   UNL A   1      45.658  27.788  34.314  1.00  0.00     0.134 A 
ATOM     60  C   UNL A   1      44.148  26.018  34.875  1.00  0.00     0.134 A 
ATOM     61  F   UNL A   1      45.941  28.953  33.711  1.00  0.00    -0.206 F 
ATOM     62  C   UNL A   1      46.696  27.118  34.963  1.00  0.00     0.040 A 
ATOM     63  C   UNL A   1      45.171  25.351  35.553  1.00  0.00     0.040 A 
ATOM     64  F   UNL A   1      42.937  25.442  34.847  1.00  0.00    -0.206 F 
ATOM     65  C   UNL A   1      46.451  25.899  35.592  1.00  0.00     0.006 A 
ENDBRANCH  44  58
BRANCH  45  66
ATOM     66  C   UNL A   1      36.883  31.469  29.105  1.00  0.00     0.057 A 
ATOM     67  C   UNL A   1      36.956  32.801  28.685  1.00  0.00     0.134 A 
ATOM     68  C   UNL A   1      35.710  30.763  28.811  1.00  0.00     0.134 A 
ATOM     69  F   UNL A   1      38.045  33.536  28.955  1.00  0.00    -0.206 F 
ATOM     70  C   UNL A   1      35.896  33.416  28.017  1.00  0.00     0.040 A 
ATOM     71  C   UNL A   1      34.653  31.357  28.120  1.00  0.00     0.040 A 
ATOM     72  F   UNL A   1      35.580  29.481  29.182  1.00  0.00    -0.206 F 
ATOM     73  C   UNL A   1      34.742  32.691  27.728  1.00  0.00     0.006 A 
ENDBRANCH  45  66
BRANCH  57  74
ATOM     74  C   UNL A   1      39.152  32.032  35.663  1.00  0.00     0.057 A 
ATOM     75  C   UNL A   1      38.290  31.551  36.657  1.00  0.00     0.134 A 
ATOM     76  C   UNL A   1      39.614  33.349  35.788  1.00  0.00     0.134 A 
ATOM     77  F   UNL A   1      37.804  30.303  36.591  1.00  0.00    -0.206 F 
ATOM     78  C   UNL A   1      37.876  32.363  37.716  1.00  0.00     0.040 A 
ATOM     79  C   UNL A   1      39.233  34.157  36.859  1.00  0.00     0.040 A 
ATOM     80  F   UNL A   1      40.453  33.867  34.879  1.00  0.00    -0.206 F 
ATOM     81  C   UNL A   1      38.352  33.668  37.821  1.00  0.00     0.006 A 
ENDBRANCH  57  74
ENDBRANCH  31  32
ENDBRANCH  24  26
ENDBRANCH  23  24
ENDBRANCH  22  23
ENDBRANCH  21  22
ENDBRANCH   1  21
TORSDOF 16
ENDMDL
MODEL 2
REMARK VINA RESULT:     -11.2      5.809     11.841
REMARK SMILES O=C(Cc1ccc(-c2ccc(Cl)cc2)cc1)OCCOCCOC(=O)c1ccc(-c2c3nc(c(-c4c(F)cccc4F)c4ccc([nH]4)c(-c4c(F)cccc4F)c4nc(c(-c5c(F)cccc5F)c5ccc2[nH]5)C=C4)C=C3)cc1
REMARK SMILES IDX 20 1 19 2 18 3 17 4 2 5 1 6 3 7 4 8 5 9 16 10 6 11 15 12
REMARK SMILES IDX 7 13 8 14 9 15 14 16 10 17 13 18 11 19 12 20 21 21 22 22
REMARK SMILES IDX 23 23 24 24 25 25 26 26 27 27 79 28 28 29 78 30 29 31 30 32
REMARK SMILES IDX 31 33 72 34 32 35 77 36 71 37 73 38 33 39 76 40 70 41 69 42
REMARK SMILES IDX 34 44 60 45 43 46 59 47 44 48 47 49 58 50 74 51 45 52 46 53
REMARK SMILES IDX 57 55 75 56 48 57 35 58 36 59 41 60 37 61 38 62 40 63 42 64
REMARK SMILES IDX 39 65 61 66 62 67 67 68 63 69 64 70 66 71 68 72 65 73 49 74
REMARK SMILES IDX 50 75 55 76 51 77 52 78 54 79 56 80 53 81
REMARK H PARENT 73 43 47 54
REMARK Flexibility Score: inf
ROOT
ATOM      1  O   UNL A   1      34.487  36.569  33.048  1.00  0.00    -0.374 OA
ENDROOT
BRANCH   1   2
ATOM      2  C   UNL A   1      33.075  36.593  32.900  1.00  0.00     0.202 C 
BRANCH   2   3
ATOM      3  C   UNL A   1      32.486  36.277  31.526  1.00  0.00     0.261 C 
BRANCH   3   4
ATOM      4  O   UNL A   1      33.368  35.608  30.612  1.00  0.00    -0.463 OA
BRANCH   4   5
ATOM      5  C   UNL A   1      33.284  35.641  29.260  1.00  0.00     0.310 C 
ATOM      6  O   UNL A   1      32.314  36.188  28.733  1.00  0.00    -0.252 OA
BRANCH   5   7
ATOM      7  C   UNL A   1      34.317  34.934  28.409  1.00  0.00     0.158 C 
BRANCH   7   8
ATOM      8  C   UNL A   1      34.035  33.492  28.087  1.00  0.00    -0.037 A 
ATOM      9  C   UNL A   1      35.008  32.514  28.337  1.00  0.00     0.005 A 
ATOM     10  C   UNL A   1      32.819  33.120  27.504  1.00  0.00     0.005 A 
ATOM     11  C   UNL A   1      34.778  31.185  27.977  1.00  0.00     0.009 A 
ATOM     12  C   UNL A   1      32.605  31.800  27.123  1.00  0.00     0.009 A 
ATOM     13  C   UNL A   1      33.574  30.816  27.363  1.00  0.00    -0.018 A 
BRANCH  13  14
ATOM     14  C   UNL A   1      33.264  29.423  27.046  1.00  0.00    -0.018 A 
ATOM     15  C   UNL A   1      32.069  28.859  27.518  1.00  0.00     0.010 A 
ATOM     16  C   UNL A   1      34.075  28.672  26.183  1.00  0.00     0.010 A 
ATOM     17  C   UNL A   1      31.667  27.591  27.100  1.00  0.00     0.021 A 
ATOM     18  C   UNL A   1      33.678  27.399  25.768  1.00  0.00     0.021 A 
ATOM     19  C   UNL A   1      32.469  26.871  26.218  1.00  0.00     0.041 A 
ATOM     20  Cl  UNL A   1      31.946  25.331  25.657  1.00  0.00    -0.084 Cl
ENDBRANCH  13  14
ENDBRANCH   7   8
ENDBRANCH   5   7
ENDBRANCH   4   5
ENDBRANCH   3   4
ENDBRANCH   2   3
ENDBRANCH   1   2
BRANCH   1  21
ATOM     21  C   UNL A   1      35.082  35.379  33.578  1.00  0.00     0.202 C 
BRANCH  21  22
ATOM     22  C   UNL A   1      36.109  34.649  32.710  1.00  0.00     0.261 C 
BRANCH  22  23
ATOM     23  O   UNL A   1      35.808  33.248  32.598  1.00  0.00    -0.460 OA
BRANCH  23  24
ATOM     24  C   UNL A   1      36.603  32.438  33.327  1.00  0.00     0.338 C 
ATOM     25  O   UNL A   1      36.641  32.342  34.550  1.00  0.00    -0.246 OA
BRANCH  24  26
ATOM     26  C   UNL A   1      37.309  31.494  32.447  1.00  0.00     0.060 A 
ATOM     27  C   UNL A   1      38.278  30.669  33.034  1.00  0.00     0.016 A 
ATOM     28  C   UNL A   1      37.104  31.483  31.065  1.00  0.00     0.016 A 
ATOM     29  C   UNL A   1      39.126  29.916  32.233  1.00  0.00     0.010 A 
ATOM     30  C   UNL A   1      37.959  30.729  30.259  1.00  0.00     0.010 A 
ATOM     31  C   UNL A   1      39.016  30.006  30.840  1.00  0.00    -0.014 A 
BRANCH  31  32
ATOM     32  C   UNL A   1      40.164  29.566  30.015  1.00  0.00     0.031 A 
ATOM     33  C   UNL A   1      41.296  30.536  29.804  1.00  0.00     0.074 A 
ATOM     34  C   UNL A   1      40.234  28.314  29.535  1.00  0.00     0.049 A 
ATOM     35  N   UNL A   1      42.417  30.381  29.148  1.00  0.00    -0.248 NA
ATOM     36  C   UNL A   1      41.140  31.869  30.414  1.00  0.00     0.031 C 
ATOM     37  C   UNL A   1      39.219  27.279  29.720  1.00  0.00     0.029 A 
ATOM     38  N   UNL A   1      41.213  27.702  28.796  1.00  0.00    -0.354 N 
ATOM     39  C   UNL A   1      43.089  31.593  29.257  1.00  0.00     0.074 A 
ATOM     40  C   UNL A   1      42.238  32.487  30.009  1.00  0.00     0.031 C 
ATOM     41  C   UNL A   1      39.631  26.154  29.111  1.00  0.00     0.029 A 
ATOM     42  C   UNL A   1      40.924  26.401  28.475  1.00  0.00     0.049 A 
ATOM     43  H   UNL A   1      42.044  28.155  28.522  1.00  0.00     0.167 HD
ATOM     44  C   UNL A   1      44.310  31.928  28.781  1.00  0.00     0.037 A 
ATOM     45  C   UNL A   1      41.628  25.516  27.743  1.00  0.00     0.037 A 
ATOM     46  C   UNL A   1      45.155  31.028  28.044  1.00  0.00     0.049 A 
ATOM     47  C   UNL A   1      42.963  25.928  27.183  1.00  0.00     0.074 A 
ATOM     48  C   UNL A   1      46.419  31.255  27.529  1.00  0.00     0.029 A 
ATOM     49  N   UNL A   1      44.815  29.724  27.713  1.00  0.00    -0.354 N 
ATOM     50  N   UNL A   1      43.601  27.068  27.309  1.00  0.00    -0.248 NA
ATOM     51  C   UNL A   1      43.683  24.923  26.389  1.00  0.00     0.031 C 
ATOM     52  C   UNL A   1      46.823  30.105  26.843  1.00  0.00     0.029 A 
ATOM     53  C   UNL A   1      45.837  29.140  26.983  1.00  0.00     0.049 A 
ATOM     54  H   UNL A   1      43.972  29.280  27.960  1.00  0.00     0.167 HD
ATOM     55  C   UNL A   1      44.813  26.903  26.649  1.00  0.00     0.074 A 
ATOM     56  C   UNL A   1      44.821  25.551  26.129  1.00  0.00     0.031 C 
ATOM     57  C   UNL A   1      45.830  27.786  26.491  1.00  0.00     0.037 A 
BRANCH  44  58
ATOM     58  C   UNL A   1      44.783  33.334  29.018  1.00  0.00     0.057 A 
ATOM     59  C   UNL A   1      44.502  34.377  28.125  1.00  0.00     0.134 A 
ATOM     60  C   UNL A   1      45.524  33.648  30.163  1.00  0.00     0.134 A 
ATOM     61  F   UNL A   1      43.814  34.140  26.998  1.00  0.00    -0.206 F 
ATOM     62  C   UNL A   1      44.966  35.674  28.348  1.00  0.00     0.040 A 
ATOM     63  C   UNL A   1      45.970  34.948  30.412  1.00  0.00     0.040 A 
ATOM     64  F   UNL A   1      45.829  32.699  31.061  1.00  0.00    -0.206 F 
ATOM     65  C   UNL A   1      45.696  35.964  29.499  1.00  0.00     0.006 A 
ENDBRANCH  44  58
BRANCH  45  66
ATOM     66  C   UNL A   1      41.093  24.151  27.509  1.00  0.00     0.057 A 
ATOM     67  C   UNL A   1      40.047  23.927  26.608  1.00  0.00     0.134 A 
ATOM     68  C   UNL A   1      41.601  23.042  28.197  1.00  0.00     0.134 A 
ATOM     69  F   UNL A   1      39.504  24.951  25.934  1.00  0.00    -0.206 F 
ATOM     70  C   UNL A   1      39.510  22.652  26.412  1.00  0.00     0.040 A 
ATOM     71  C   UNL A   1      41.092  21.759  27.992  1.00  0.00     0.040 A 
ATOM     72  F   UNL A   1      42.607  23.190  29.071  1.00  0.00    -0.206 F 
ATOM     73  C   UNL A   1      40.038  21.563  27.102  1.00  0.00     0.006 A 
ENDBRANCH  45  66
BRANCH  57  74
ATOM     74  C   UNL A   1      47.060  27.295  25.783  1.00  0.00     0.057 A 
ATOM     75  C   UNL A   1      47.267  27.505  24.414  1.00  0.00     0.134 A 
ATOM     76  C   UNL A   1      48.063  26.623  26.494  1.00  0.00     0.134 A 
ATOM     77  F   UNL A   1      46.342  28.133  23.674  1.00  0.00    -0.206 F 
ATOM     78  C   UNL A   1      48.413  27.033  23.771  1.00  0.00     0.040 A 
ATOM     79  C   UNL A   1      49.226  26.175  25.869  1.00  0.00     0.040 A 
ATOM     80  F   UNL A   1      47.933  26.401  27.811  1.00  0.00    -0.206 F 
ATOM     81  C   UNL A   1      49.399  26.370  24.500  1.00  0.00     0.006 A 
ENDBRANCH  57  74
ENDBRANCH  31  32
ENDBRANCH  24  26
ENDBRANCH  23  24
ENDBRANCH  22  23
ENDBRANCH  21  22
ENDBRANCH   1  21
TORSDOF 16
ENDMDL
MODEL 3
REMARK VINA RESULT:     -11.0      1.625      2.966
REMARK SMILES O=C(Cc1ccc(-c2ccc(Cl)cc2)cc1)OCCOCCOC(=O)c1ccc(-c2c3nc(c(-c4c(F)cccc4F)c4ccc([nH]4)c(-c4c(F)cccc4F)c4nc(c(-c5c(F)cccc5F)c5ccc2[nH]5)C=C4)C=C3)cc1
REMARK SMILES IDX 20 1 19 2 18 3 17 4 2 5 1 6 3 7 4 8 5 9 16 10 6 11 15 12
REMARK SMILES IDX 7 13 8 14 9 15 14 16 10 17 13 18 11 19 12 20 21 21 22 22
REMARK SMILES IDX 23 23 24 24 25 25 26 26 27 27 79 28 28 29 78 30 29 31 30 32
REMARK SMILES IDX 31 33 72 34 32 35 77 36 71 37 73 38 33 39 76 40 70 41 69 42
REMARK SMILES IDX 34 44 60 45 43 46 59 47 44 48 47 49 58 50 74 51 45 52 46 53
REMARK SMILES IDX 57 55 75 56 48 57 35 58 36 59 41 60 37 61 38 62 40 63 42 64
REMARK SMILES IDX 39 65 61 66 62 67 67 68 63 69 64 70 66 71 68 72 65 73 49 74
REMARK SMILES IDX 50 75 55 76 51 77 52 78 54 79 56 80 53 81
REMARK H PARENT 73 43 47 54
REMARK Flexibility Score: inf
ROOT
ATOM      1  O   UNL A   1      43.025  20.381  25.348  1.00  0.00    -0.374 OA
ENDROOT
BRANCH   1   2
ATOM      2  C   UNL A   1      41.943  19.983  26.177  1.00  0.00     0.202 C 
BRANCH   2   3
ATOM      3  C   UNL A   1      41.320  21.026  27.103  1.00  0.00     0.261 C 
BRANCH   3   4
ATOM      4  O   UNL A   1      39.888  21.115  27.064  1.00  0.00    -0.463 OA
BRANCH   4   5
ATOM      5  C   UNL A   1      39.163  21.899  26.229  1.00  0.00     0.310 C 
ATOM      6  O   UNL A   1      39.320  23.120  26.267  1.00  0.00    -0.252 OA
BRANCH   5   7
ATOM      7  C   UNL A   1      38.108  21.294  25.329  1.00  0.00     0.158 C 
BRANCH   7   8
ATOM      8  C   UNL A   1      36.956  22.190  24.964  1.00  0.00    -0.037 A 
ATOM      9  C   UNL A   1      36.685  22.471  23.617  1.00  0.00     0.005 A 
ATOM     10  C   UNL A   1      36.171  22.778  25.962  1.00  0.00     0.005 A 
ATOM     11  C   UNL A   1      35.661  23.357  23.276  1.00  0.00     0.009 A 
ATOM     12  C   UNL A   1      35.170  23.680  25.618  1.00  0.00     0.009 A 
ATOM     13  C   UNL A   1      34.895  23.973  24.275  1.00  0.00    -0.018 A 
BRANCH  13  14
ATOM     14  C   UNL A   1      33.764  24.840  23.955  1.00  0.00    -0.018 A 
ATOM     15  C   UNL A   1      33.899  26.230  24.097  1.00  0.00     0.010 A 
ATOM     16  C   UNL A   1      32.584  24.327  23.397  1.00  0.00     0.010 A 
ATOM     17  C   UNL A   1      32.899  27.092  23.649  1.00  0.00     0.021 A 
ATOM     18  C   UNL A   1      31.578  25.188  22.953  1.00  0.00     0.021 A 
ATOM     19  C   UNL A   1      31.748  26.567  23.069  1.00  0.00     0.041 A 
ATOM     20  Cl  UNL A   1      30.540  27.632  22.463  1.00  0.00    -0.084 Cl
ENDBRANCH  13  14
ENDBRANCH   7   8
ENDBRANCH   5   7
ENDBRANCH   4   5
ENDBRANCH   3   4
ENDBRANCH   2   3
ENDBRANCH   1   2
BRANCH   1  21
ATOM     21  C   UNL A   1      43.784  21.528  25.744  1.00  0.00     0.202 C 
BRANCH  21  22
ATOM     22  C   UNL A   1      44.484  22.334  24.647  1.00  0.00     0.261 C 
BRANCH  22  23
ATOM     23  O   UNL A   1      43.830  23.593  24.416  1.00  0.00    -0.460 OA
BRANCH  23  24
ATOM     24  C   UNL A   1      44.443  24.659  24.973  1.00  0.00     0.338 C 
ATOM     25  O   UNL A   1      45.597  25.031  24.787  1.00  0.00    -0.246 OA
BRANCH  24  26
ATOM     26  C   UNL A   1      43.465  25.477  25.708  1.00  0.00     0.060 A 
ATOM     27  C   UNL A   1      43.738  26.847  25.832  1.00  0.00     0.016 A 
ATOM     28  C   UNL A   1      42.362  24.908  26.348  1.00  0.00     0.016 A 
ATOM     29  C   UNL A   1      42.977  27.630  26.689  1.00  0.00     0.010 A 
ATOM     30  C   UNL A   1      41.600  25.695  27.213  1.00  0.00     0.010 A 
ATOM     31  C   UNL A   1      41.954  27.037  27.439  1.00  0.00    -0.014 A 
BRANCH  31  32
ATOM     32  C   UNL A   1      41.456  27.751  28.635  1.00  0.00     0.031 A 
ATOM     33  C   UNL A   1      42.228  27.605  29.920  1.00  0.00     0.074 A 
ATOM     34  C   UNL A   1      40.393  28.570  28.563  1.00  0.00     0.049 A 
ATOM     35  N   UNL A   1      42.012  28.148  31.090  1.00  0.00    -0.248 NA
ATOM     36  C   UNL A   1      43.406  26.720  29.880  1.00  0.00     0.031 C 
ATOM     37  C   UNL A   1      39.603  28.823  27.360  1.00  0.00     0.029 A 
ATOM     38  N   UNL A   1      39.804  29.345  29.527  1.00  0.00    -0.354 N 
ATOM     39  C   UNL A   1      43.014  27.662  31.922  1.00  0.00     0.074 A 
ATOM     40  C   UNL A   1      43.818  26.754  31.137  1.00  0.00     0.031 C 
ATOM     41  C   UNL A   1      38.629  29.700  27.659  1.00  0.00     0.029 A 
ATOM     42  C   UNL A   1      38.716  30.046  29.077  1.00  0.00     0.049 A 
ATOM     43  H   UNL A   1      40.132  29.392  30.455  1.00  0.00     0.167 HD
ATOM     44  C   UNL A   1      43.249  27.955  33.222  1.00  0.00     0.037 A 
ATOM     45  C   UNL A   1      37.884  30.869  29.743  1.00  0.00     0.037 A 
ATOM     46  C   UNL A   1      42.450  28.869  33.993  1.00  0.00     0.049 A 
ATOM     47  C   UNL A   1      38.138  31.143  31.201  1.00  0.00     0.074 A 
ATOM     48  C   UNL A   1      42.607  29.253  35.312  1.00  0.00     0.029 A 
ATOM     49  N   UNL A   1      41.336  29.540  33.509  1.00  0.00    -0.354 N 
ATOM     50  N   UNL A   1      39.100  30.697  31.974  1.00  0.00    -0.248 NA
ATOM     51  C   UNL A   1      37.195  32.045  31.877  1.00  0.00     0.031 C 
ATOM     52  C   UNL A   1      41.559  30.119  35.641  1.00  0.00     0.029 A 
ATOM     53  C   UNL A   1      40.784  30.322  34.509  1.00  0.00     0.049 A 
ATOM     54  H   UNL A   1      40.990  29.470  32.589  1.00  0.00     0.167 HD
ATOM     55  C   UNL A   1      38.905  31.297  33.213  1.00  0.00     0.074 A 
ATOM     56  C   UNL A   1      37.734  32.142  33.084  1.00  0.00     0.031 C 
ATOM     57  C   UNL A   1      39.629  31.168  34.352  1.00  0.00     0.037 A 
BRANCH  44  58
ATOM     58  C   UNL A   1      44.395  27.253  33.893  1.00  0.00     0.057 A 
ATOM     59  C   UNL A   1      44.242  26.013  34.529  1.00  0.00     0.134 A 
ATOM     60  C   UNL A   1      45.673  27.824  33.894  1.00  0.00     0.134 A 
ATOM     61  F   UNL A   1      43.039  25.420  34.583  1.00  0.00    -0.206 F 
ATOM     62  C   UNL A   1      45.312  25.382  35.167  1.00  0.00     0.040 A 
ATOM     63  C   UNL A   1      46.757  27.189  34.503  1.00  0.00     0.040 A 
ATOM     64  F   UNL A   1      45.891  29.008  33.304  1.00  0.00    -0.206 F 
ATOM     65  C   UNL A   1      46.576  25.968  35.148  1.00  0.00     0.006 A 
ENDBRANCH  44  58
BRANCH  45  66
ATOM     66  C   UNL A   1      36.744  31.507  29.036  1.00  0.00     0.057 A 
ATOM     67  C   UNL A   1      36.793  32.849  28.646  1.00  0.00     0.134 A 
ATOM     68  C   UNL A   1      35.572  30.795  28.754  1.00  0.00     0.134 A 
ATOM     69  F   UNL A   1      37.881  33.590  28.906  1.00  0.00    -0.206 F 
ATOM     70  C   UNL A   1      35.710  33.468  28.017  1.00  0.00     0.040 A 
ATOM     71  C   UNL A   1      34.492  31.393  28.103  1.00  0.00     0.040 A 
ATOM     72  F   UNL A   1      35.463  29.504  29.099  1.00  0.00    -0.206 F 
ATOM     73  C   UNL A   1      34.557  32.737  27.740  1.00  0.00     0.006 A 
ENDBRANCH  45  66
BRANCH  57  74
ATOM     74  C   UNL A   1      39.214  32.007  35.526  1.00  0.00     0.057 A 
ATOM     75  C   UNL A   1      39.644  33.329  35.689  1.00  0.00     0.134 A 
ATOM     76  C   UNL A   1      38.345  31.485  36.495  1.00  0.00     0.134 A 
ATOM     77  F   UNL A   1      40.484  33.885  34.803  1.00  0.00    -0.206 F 
ATOM     78  C   UNL A   1      39.255  34.091  36.792  1.00  0.00     0.040 A 
ATOM     79  C   UNL A   1      37.925  32.247  37.584  1.00  0.00     0.040 A 
ATOM     80  F   UNL A   1      37.884  30.230  36.392  1.00  0.00    -0.206 F 
ATOM     81  C   UNL A   1      38.388  33.552  37.741  1.00  0.00     0.006 A 
ENDBRANCH  57  74
ENDBRANCH  31  32
ENDBRANCH  24  26
ENDBRANCH  23  24
ENDBRANCH  22  23
ENDBRANCH  21  22
ENDBRANCH   1  21
TORSDOF 16
ENDMDL
