MODEL 1
REMARK VINA RESULT:     -10.3      0.000      0.000
REMARK SMILES O=C(CCc1c[nH]c2ccccc12)N[C@@H](CO)C(=O)OCCOCCOC(=O)c1ccc(-c2c3nc(c(-c4c(F)cccc4F)c4ccc([nH]4)c(-c4c(F)cccc4F)c4nc(c(-c5c(F)cccc5F)c5ccc2[nH]5)C=C4)C=C3)cc1
REMARK SMILES IDX 22 1 21 2 20 3 18 4 19 5 15 6 14 7 1 8 2 9 3 11 4 12 5 13
REMARK SMILES IDX 6 14 13 15 7 16 8 17 12 18 9 20 11 21 10 22 16 23 17 24
REMARK SMILES IDX 23 26 24 27 25 28 26 29 27 30 28 31 29 32 30 33 82 34 31 35
REMARK SMILES IDX 81 36 32 37 33 38 34 39 75 40 35 41 80 42 74 43 76 44 36 45
REMARK SMILES IDX 79 46 73 47 72 48 37 50 63 51 46 52 62 53 47 54 50 55 61 56
REMARK SMILES IDX 77 57 48 58 49 59 60 61 78 62 51 63 38 64 39 65 44 66 40 67
REMARK SMILES IDX 41 68 43 69 45 70 42 71 64 72 65 73 70 74 66 75 67 76 69 77
REMARK SMILES IDX 71 78 68 79 52 80 53 81 58 82 54 83 55 84 57 85 59 86 56 87
REMARK H PARENT 14 10 7 19 17 25 76 49 50 60
REMARK Flexibility Score: inf
ROOT
ATOM      1  C   UNL A   1      41.265  21.251  26.561  1.00  0.00     0.202 C 
ENDROOT
BRANCH   1   2
ATOM      2  C   UNL A   1      40.276  22.132  25.797  1.00  0.00     0.261 C 
BRANCH   2   3
ATOM      3  O   UNL A   1      39.024  22.159  26.501  1.00  0.00    -0.462 OA
BRANCH   3   4
ATOM      4  C   UNL A   1      38.286  23.293  26.355  1.00  0.00     0.331 C 
ATOM      5  O   UNL A   1      38.692  24.426  26.588  1.00  0.00    -0.250 OA
BRANCH   4   6
ATOM      6  C   UNL A   1      36.877  22.996  25.829  1.00  0.00     0.218 C 
BRANCH   6   7
ATOM      7  N   UNL A   1      36.330  23.952  24.844  1.00  0.00    -0.341 N 
ATOM      8  O   UNL A   1      34.248  23.905  25.722  1.00  0.00    -0.275 OA
ATOM      9  C   UNL A   1      34.995  24.254  24.807  1.00  0.00     0.221 C 
ATOM     10  H   UNL A   1      36.939  24.381  24.199  1.00  0.00     0.164 HD
BRANCH   9  11
ATOM     11  C   UNL A   1      34.417  24.888  23.545  1.00  0.00     0.105 C 
BRANCH  11  12
ATOM     12  C   UNL A   1      33.144  25.704  23.651  1.00  0.00     0.047 C 
BRANCH  12  13
ATOM     13  C   UNL A   1      33.234  27.162  24.006  1.00  0.00    -0.022 A 
ATOM     14  C   UNL A   1      33.515  28.143  23.067  1.00  0.00     0.087 A 
ATOM     15  C   UNL A   1      32.975  27.861  25.235  1.00  0.00     0.003 A 
ATOM     16  N   UNL A   1      33.317  29.362  23.647  1.00  0.00    -0.361 N 
ATOM     17  C   UNL A   1      32.783  29.200  24.899  1.00  0.00     0.046 A 
ATOM     18  C   UNL A   1      32.774  27.506  26.581  1.00  0.00     0.010 A 
ATOM     19  H   UNL A   1      33.525  30.229  23.229  1.00  0.00     0.166 HD
ATOM     20  C   UNL A   1      32.174  30.126  25.752  1.00  0.00     0.026 A 
ATOM     21  C   UNL A   1      32.162  28.414  27.453  1.00  0.00     0.001 A 
ATOM     22  C   UNL A   1      31.815  29.687  27.024  1.00  0.00     0.002 A 
ENDBRANCH  12  13
ENDBRANCH  11  12
ENDBRANCH   9  11
ENDBRANCH   6   7
BRANCH   6  23
ATOM     23  C   UNL A   1      36.889  21.568  25.263  1.00  0.00     0.193 C 
BRANCH  23  24
ATOM     24  O   UNL A   1      35.568  21.019  25.239  1.00  0.00    -0.394 OA
ATOM     25  H   UNL A   1      34.976  21.581  25.762  1.00  0.00     0.210 HD
ENDBRANCH  23  24
ENDBRANCH   6  23
ENDBRANCH   4   6
ENDBRANCH   3   4
ENDBRANCH   2   3
ENDBRANCH   1   2
BRANCH   1  26
ATOM     26  O   UNL A   1      42.310  20.690  25.760  1.00  0.00    -0.374 OA
BRANCH  26  27
ATOM     27  C   UNL A   1      43.598  21.293  25.895  1.00  0.00     0.202 C 
BRANCH  27  28
ATOM     28  C   UNL A   1      44.072  22.131  24.704  1.00  0.00     0.261 C 
BRANCH  28  29
ATOM     29  O   UNL A   1      43.441  23.422  24.656  1.00  0.00    -0.460 OA
BRANCH  29  30
ATOM     30  C   UNL A   1      44.222  24.452  25.048  1.00  0.00     0.338 C 
ATOM     31  O   UNL A   1      45.343  24.738  24.638  1.00  0.00    -0.246 OA
BRANCH  30  32
ATOM     32  C   UNL A   1      43.483  25.317  25.981  1.00  0.00     0.060 A 
ATOM     33  C   UNL A   1      43.881  26.651  26.118  1.00  0.00     0.016 A 
ATOM     34  C   UNL A   1      42.456  24.808  26.771  1.00  0.00     0.016 A 
ATOM     35  C   UNL A   1      43.273  27.471  27.072  1.00  0.00     0.010 A 
ATOM     36  C   UNL A   1      41.820  25.643  27.697  1.00  0.00     0.010 A 
ATOM     37  C   UNL A   1      42.249  26.969  27.888  1.00  0.00    -0.014 A 
BRANCH  37  38
ATOM     38  C   UNL A   1      41.732  27.765  29.039  1.00  0.00     0.031 A 
ATOM     39  C   UNL A   1      42.426  27.659  30.376  1.00  0.00     0.074 A 
ATOM     40  C   UNL A   1      40.661  28.573  28.915  1.00  0.00     0.049 A 
ATOM     41  N   UNL A   1      42.105  28.193  31.528  1.00  0.00    -0.248 NA
ATOM     42  C   UNL A   1      43.624  26.806  30.428  1.00  0.00     0.031 C 
ATOM     43  C   UNL A   1      39.882  28.770  27.694  1.00  0.00     0.029 A 
ATOM     44  N   UNL A   1      40.039  29.376  29.841  1.00  0.00    -0.354 N 
ATOM     45  C   UNL A   1      43.040  27.716  32.439  1.00  0.00     0.074 A 
ATOM     46  C   UNL A   1      43.895  26.795  31.722  1.00  0.00     0.031 C 
ATOM     47  C   UNL A   1      38.892  29.645  27.943  1.00  0.00     0.029 A 
ATOM     48  C   UNL A   1      38.946  30.046  29.348  1.00  0.00     0.049 A 
ATOM     49  H   UNL A   1      40.350  29.464  30.771  1.00  0.00     0.167 HD
ATOM     50  C   UNL A   1      43.202  28.035  33.745  1.00  0.00     0.037 A 
ATOM     51  C   UNL A   1      38.079  30.880  29.958  1.00  0.00     0.037 A 
ATOM     52  C   UNL A   1      42.389  28.987  34.454  1.00  0.00     0.049 A 
ATOM     53  C   UNL A   1      38.271  31.221  31.412  1.00  0.00     0.074 A 
ATOM     54  C   UNL A   1      42.512  29.422  35.762  1.00  0.00     0.029 A 
ATOM     55  N   UNL A   1      41.303  29.655  33.909  1.00  0.00    -0.354 N 
ATOM     56  N   UNL A   1      39.189  30.798  32.248  1.00  0.00    -0.248 NA
ATOM     57  C   UNL A   1      37.311  32.163  32.007  1.00  0.00     0.031 C 
ATOM     58  C   UNL A   1      41.471  30.318  36.023  1.00  0.00     0.029 A 
ATOM     59  C   UNL A   1      40.733  30.482  34.862  1.00  0.00     0.049 A 
ATOM     60  H   UNL A   1      40.985  29.557  32.983  1.00  0.00     0.167 HD
ATOM     61  C   UNL A   1      38.932  31.440  33.455  1.00  0.00     0.074 A 
ATOM     62  C   UNL A   1      37.782  32.293  33.239  1.00  0.00     0.031 C 
ATOM     63  C   UNL A   1      39.590  31.333  34.635  1.00  0.00     0.037 A 
BRANCH  50  64
ATOM     64  C   UNL A   1      44.307  27.336  34.490  1.00  0.00     0.057 A 
ATOM     65  C   UNL A   1      45.605  27.863  34.564  1.00  0.00     0.134 A 
ATOM     66  C   UNL A   1      44.069  26.117  35.138  1.00  0.00     0.134 A 
ATOM     67  F   UNL A   1      45.904  29.020  33.955  1.00  0.00    -0.206 F 
ATOM     68  C   UNL A   1      46.635  27.179  35.211  1.00  0.00     0.040 A 
ATOM     69  C   UNL A   1      45.083  25.442  35.819  1.00  0.00     0.040 A 
ATOM     70  F   UNL A   1      42.849  25.560  35.116  1.00  0.00    -0.206 F 
ATOM     71  C   UNL A   1      46.374  25.966  35.845  1.00  0.00     0.006 A 
ENDBRANCH  50  64
BRANCH  51  72
ATOM     72  C   UNL A   1      36.946  31.459  29.190  1.00  0.00     0.057 A 
ATOM     73  C   UNL A   1      36.985  32.776  28.717  1.00  0.00     0.134 A 
ATOM     74  C   UNL A   1      35.794  30.711  28.919  1.00  0.00     0.134 A 
ATOM     75  F   UNL A   1      38.050  33.552  28.964  1.00  0.00    -0.206 F 
ATOM     76  C   UNL A   1      35.913  33.333  28.015  1.00  0.00     0.040 A 
ATOM     77  C   UNL A   1      34.727  31.246  28.196  1.00  0.00     0.040 A 
ATOM     78  F   UNL A   1      35.697  29.442  29.342  1.00  0.00    -0.206 F 
ATOM     79  C   UNL A   1      34.782  32.564  27.748  1.00  0.00     0.006 A 
ENDBRANCH  51  72
BRANCH  63  80
ATOM     80  C   UNL A   1      39.110  32.179  35.780  1.00  0.00     0.057 A 
ATOM     81  C   UNL A   1      38.273  31.668  36.780  1.00  0.00     0.134 A 
ATOM     82  C   UNL A   1      39.535  33.508  35.910  1.00  0.00     0.134 A 
ATOM     83  F   UNL A   1      37.821  30.407  36.711  1.00  0.00    -0.206 F 
ATOM     84  C   UNL A   1      37.857  32.456  37.856  1.00  0.00     0.040 A 
ATOM     85  C   UNL A   1      39.149  34.296  36.996  1.00  0.00     0.040 A 
ATOM     86  F   UNL A   1      40.347  34.056  34.995  1.00  0.00    -0.206 F 
ATOM     87  C   UNL A   1      38.302  33.772  37.970  1.00  0.00     0.006 A 
ENDBRANCH  63  80
ENDBRANCH  37  38
ENDBRANCH  30  32
ENDBRANCH  29  30
ENDBRANCH  28  29
ENDBRANCH  27  28
ENDBRANCH  26  27
ENDBRANCH   1  26
TORSDOF 20
ENDMDL
MODEL 2
REMARK VINA RESULT:     -10.1      1.322      2.389
REMARK SMILES O=C(CCc1c[nH]c2ccccc12)N[C@@H](CO)C(=O)OCCOCCOC(=O)c1ccc(-c2c3nc(c(-c4c(F)cccc4F)c4ccc([nH]4)c(-c4c(F)cccc4F)c4nc(c(-c5c(F)cccc5F)c5ccc2[nH]5)C=C4)C=C3)cc1
REMARK SMILES IDX 22 1 21 2 20 3 18 4 19 5 15 6 14 7 1 8 2 9 3 11 4 12 5 13
REMARK SMILES IDX 6 14 13 15 7 16 8 17 12 18 9 20 11 21 10 22 16 23 17 24
REMARK SMILES IDX 23 26 24 27 25 28 26 29 27 30 28 31 29 32 30 33 82 34 31 35
REMARK SMILES IDX 81 36 32 37 33 38 34 39 75 40 35 41 80 42 74 43 76 44 36 45
REMARK SMILES IDX 79 46 73 47 72 48 37 50 63 51 46 52 62 53 47 54 50 55 61 56
REMARK SMILES IDX 77 57 48 58 49 59 60 61 78 62 51 63 38 64 39 65 44 66 40 67
REMARK SMILES IDX 41 68 43 69 45 70 42 71 64 72 65 73 70 74 66 75 67 76 69 77
REMARK SMILES IDX 71 78 68 79 52 80 53 81 58 82 54 83 55 84 57 85 59 86 56 87
REMARK H PARENT 14 10 7 19 17 25 76 49 50 60
REMARK Flexibility Score: inf
ROOT
ATOM      1  C   UNL A   1      41.350  20.751  26.173  1.00  0.00     0.202 C 
ENDROOT
BRANCH   1   2
ATOM      2  C   UNL A   1      40.100  21.431  26.732  1.00  0.00     0.261 C 
BRANCH   2   3
ATOM      3  O   UNL A   1      39.676  22.461  25.825  1.00  0.00    -0.462 OA
BRANCH   3   4
ATOM      4  C   UNL A   1      38.580  23.172  26.206  1.00  0.00     0.331 C 
ATOM      5  O   UNL A   1      38.611  24.188  26.892  1.00  0.00    -0.250 OA
BRANCH   4   6
ATOM      6  C   UNL A   1      37.284  22.573  25.650  1.00  0.00     0.218 C 
BRANCH   6   7
ATOM      7  N   UNL A   1      36.223  22.277  26.634  1.00  0.00    -0.341 N 
ATOM      8  O   UNL A   1      35.177  20.789  25.293  1.00  0.00    -0.275 OA
ATOM      9  C   UNL A   1      35.166  21.464  26.323  1.00  0.00     0.221 C 
ATOM     10  H   UNL A   1      36.276  22.674  27.535  1.00  0.00     0.164 HD
BRANCH   9  11
ATOM     11  C   UNL A   1      33.909  21.526  27.185  1.00  0.00     0.105 C 
BRANCH  11  12
ATOM     12  C   UNL A   1      33.120  22.820  27.241  1.00  0.00     0.047 C 
BRANCH  12  13
ATOM     13  C   UNL A   1      33.046  23.687  26.015  1.00  0.00    -0.022 A 
ATOM     14  C   UNL A   1      33.364  25.037  26.035  1.00  0.00     0.087 A 
ATOM     15  C   UNL A   1      32.771  23.372  24.641  1.00  0.00     0.003 A 
ATOM     16  N   UNL A   1      33.406  25.488  24.748  1.00  0.00    -0.361 N 
ATOM     17  C   UNL A   1      33.257  24.436  23.882  1.00  0.00     0.046 A 
ATOM     18  C   UNL A   1      32.265  22.265  23.936  1.00  0.00     0.010 A 
ATOM     19  H   UNL A   1      33.525  26.428  24.480  1.00  0.00     0.166 HD
ATOM     20  C   UNL A   1      33.492  24.354  22.506  1.00  0.00     0.026 A 
ATOM     21  C   UNL A   1      32.490  22.158  22.558  1.00  0.00     0.001 A 
ATOM     22  C   UNL A   1      33.148  23.165  21.866  1.00  0.00     0.002 A 
ENDBRANCH  12  13
ENDBRANCH  11  12
ENDBRANCH   9  11
ENDBRANCH   6   7
BRANCH   6  23
ATOM     23  C   UNL A   1      36.772  23.521  24.555  1.00  0.00     0.193 C 
BRANCH  23  24
ATOM     24  O   UNL A   1      36.525  22.809  23.339  1.00  0.00    -0.394 OA
ATOM     25  H   UNL A   1      36.782  21.880  23.452  1.00  0.00     0.210 HD
ENDBRANCH  23  24
ENDBRANCH   6  23
ENDBRANCH   4   6
ENDBRANCH   3   4
ENDBRANCH   2   3
ENDBRANCH   1   2
BRANCH   1  26
ATOM     26  O   UNL A   1      42.579  21.427  26.456  1.00  0.00    -0.374 OA
BRANCH  26  27
ATOM     27  C   UNL A   1      43.701  21.053  25.656  1.00  0.00     0.202 C 
BRANCH  27  28
ATOM     28  C   UNL A   1      44.160  22.085  24.621  1.00  0.00     0.261 C 
BRANCH  28  29
ATOM     29  O   UNL A   1      43.430  23.320  24.718  1.00  0.00    -0.460 OA
BRANCH  29  30
ATOM     30  C   UNL A   1      44.181  24.402  25.024  1.00  0.00     0.338 C 
ATOM     31  O   UNL A   1      45.265  24.719  24.543  1.00  0.00    -0.246 OA
BRANCH  30  32
ATOM     32  C   UNL A   1      43.450  25.274  25.957  1.00  0.00     0.060 A 
ATOM     33  C   UNL A   1      43.876  26.597  26.112  1.00  0.00     0.016 A 
ATOM     34  C   UNL A   1      42.403  24.780  26.731  1.00  0.00     0.016 A 
ATOM     35  C   UNL A   1      43.274  27.421  27.067  1.00  0.00     0.010 A 
ATOM     36  C   UNL A   1      41.775  25.619  27.658  1.00  0.00     0.010 A 
ATOM     37  C   UNL A   1      42.230  26.934  27.867  1.00  0.00    -0.014 A 
BRANCH  37  38
ATOM     38  C   UNL A   1      41.718  27.729  29.019  1.00  0.00     0.031 A 
ATOM     39  C   UNL A   1      42.413  27.619  30.355  1.00  0.00     0.074 A 
ATOM     40  C   UNL A   1      40.650  28.541  28.897  1.00  0.00     0.049 A 
ATOM     41  N   UNL A   1      42.096  28.153  31.508  1.00  0.00    -0.248 NA
ATOM     42  C   UNL A   1      43.608  26.762  30.404  1.00  0.00     0.031 C 
ATOM     43  C   UNL A   1      39.869  28.743  27.678  1.00  0.00     0.029 A 
ATOM     44  N   UNL A   1      40.032  29.346  29.826  1.00  0.00    -0.354 N 
ATOM     45  C   UNL A   1      43.031  27.671  32.417  1.00  0.00     0.074 A 
ATOM     46  C   UNL A   1      43.881  26.749  31.698  1.00  0.00     0.031 C 
ATOM     47  C   UNL A   1      38.882  29.620  27.930  1.00  0.00     0.029 A 
ATOM     48  C   UNL A   1      38.940  30.019  29.335  1.00  0.00     0.049 A 
ATOM     49  H   UNL A   1      40.344  29.431  30.756  1.00  0.00     0.167 HD
ATOM     50  C   UNL A   1      43.195  27.988  33.724  1.00  0.00     0.037 A 
ATOM     51  C   UNL A   1      38.077  30.855  29.947  1.00  0.00     0.037 A 
ATOM     52  C   UNL A   1      42.386  28.941  34.435  1.00  0.00     0.049 A 
ATOM     53  C   UNL A   1      38.271  31.194  31.402  1.00  0.00     0.074 A 
ATOM     54  C   UNL A   1      42.512  29.374  35.743  1.00  0.00     0.029 A 
ATOM     55  N   UNL A   1      41.302  29.614  33.893  1.00  0.00    -0.354 N 
ATOM     56  N   UNL A   1      39.189  30.766  32.236  1.00  0.00    -0.248 NA
ATOM     57  C   UNL A   1      37.315  32.138  31.999  1.00  0.00     0.031 C 
ATOM     58  C   UNL A   1      41.474  30.273  36.008  1.00  0.00     0.029 A 
ATOM     59  C   UNL A   1      40.736  30.442  34.847  1.00  0.00     0.049 A 
ATOM     60  H   UNL A   1      40.982  29.518  32.967  1.00  0.00     0.167 HD
ATOM     61  C   UNL A   1      38.936  31.407  33.445  1.00  0.00     0.074 A 
ATOM     62  C   UNL A   1      37.789  32.264  33.231  1.00  0.00     0.031 C 
ATOM     63  C   UNL A   1      39.596  31.296  34.624  1.00  0.00     0.037 A 
BRANCH  50  64
ATOM     64  C   UNL A   1      44.298  27.284  34.466  1.00  0.00     0.057 A 
ATOM     65  C   UNL A   1      44.094  26.060  35.119  1.00  0.00     0.134 A 
ATOM     66  C   UNL A   1      45.581  27.842  34.533  1.00  0.00     0.134 A 
ATOM     67  F   UNL A   1      42.885  25.476  35.106  1.00  0.00    -0.206 F 
ATOM     68  C   UNL A   1      45.109  25.443  35.851  1.00  0.00     0.040 A 
ATOM     69  C   UNL A   1      46.615  27.217  35.232  1.00  0.00     0.040 A 
ATOM     70  F   UNL A   1      45.851  29.007  33.924  1.00  0.00    -0.206 F 
ATOM     71  C   UNL A   1      46.376  26.020  35.905  1.00  0.00     0.006 A 
ENDBRANCH  50  64
BRANCH  51  72
ATOM     72  C   UNL A   1      36.945  31.440  29.182  1.00  0.00     0.057 A 
ATOM     73  C   UNL A   1      36.986  32.758  28.713  1.00  0.00     0.134 A 
ATOM     74  C   UNL A   1      35.791  30.694  28.909  1.00  0.00     0.134 A 
ATOM     75  F   UNL A   1      38.053  33.531  28.963  1.00  0.00    -0.206 F 
ATOM     76  C   UNL A   1      35.915  33.319  28.014  1.00  0.00     0.040 A 
ATOM     77  C   UNL A   1      34.724  31.234  28.188  1.00  0.00     0.040 A 
ATOM     78  F   UNL A   1      35.691  29.425  29.328  1.00  0.00    -0.206 F 
ATOM     79  C   UNL A   1      34.782  32.554  27.744  1.00  0.00     0.006 A 
ENDBRANCH  51  72
BRANCH  63  80
ATOM     80  C   UNL A   1      39.120  32.142  35.770  1.00  0.00     0.057 A 
ATOM     81  C   UNL A   1      38.253  31.644  36.750  1.00  0.00     0.134 A 
ATOM     82  C   UNL A   1      39.578  33.458  35.923  1.00  0.00     0.134 A 
ATOM     83  F   UNL A   1      37.768  30.395  36.659  1.00  0.00    -0.206 F 
ATOM     84  C   UNL A   1      37.840  32.430  37.829  1.00  0.00     0.040 A 
ATOM     85  C   UNL A   1      39.196  34.244  37.011  1.00  0.00     0.040 A 
ATOM     86  F   UNL A   1      40.419  33.994  35.027  1.00  0.00    -0.206 F 
ATOM     87  C   UNL A   1      38.320  33.732  37.965  1.00  0.00     0.006 A 
ENDBRANCH  63  80
ENDBRANCH  37  38
ENDBRANCH  30  32
ENDBRANCH  29  30
ENDBRANCH  28  29
ENDBRANCH  27  28
ENDBRANCH  26  27
ENDBRANCH   1  26
TORSDOF 20
ENDMDL
MODEL 3
REMARK VINA RESULT:     -10.0      5.400     10.696
REMARK SMILES O=C(CCc1c[nH]c2ccccc12)N[C@@H](CO)C(=O)OCCOCCOC(=O)c1ccc(-c2c3nc(c(-c4c(F)cccc4F)c4ccc([nH]4)c(-c4c(F)cccc4F)c4nc(c(-c5c(F)cccc5F)c5ccc2[nH]5)C=C4)C=C3)cc1
REMARK SMILES IDX 22 1 21 2 20 3 18 4 19 5 15 6 14 7 1 8 2 9 3 11 4 12 5 13
REMARK SMILES IDX 6 14 13 15 7 16 8 17 12 18 9 20 11 21 10 22 16 23 17 24
REMARK SMILES IDX 23 26 24 27 25 28 26 29 27 30 28 31 29 32 30 33 82 34 31 35
REMARK SMILES IDX 81 36 32 37 33 38 34 39 75 40 35 41 80 42 74 43 76 44 36 45
REMARK SMILES IDX 79 46 73 47 72 48 37 50 63 51 46 52 62 53 47 54 50 55 61 56
REMARK SMILES IDX 77 57 48 58 49 59 60 61 78 62 51 63 38 64 39 65 44 66 40 67
REMARK SMILES IDX 41 68 43 69 45 70 42 71 64 72 65 73 70 74 66 75 67 76 69 77
REMARK SMILES IDX 71 78 68 79 52 80 53 81 58 82 54 83 55 84 57 85 59 86 56 87
REMARK H PARENT 14 10 7 19 17 25 76 49 50 60
REMARK Flexibility Score: inf
ROOT
ATOM      1  C   UNL A   1      34.403  36.674  32.893  1.00  0.00     0.202 C 
ENDROOT
BRANCH   1   2
ATOM      2  C   UNL A   1      33.159  36.350  32.064  1.00  0.00     0.261 C 
BRANCH   2   3
ATOM      3  O   UNL A   1      33.434  35.222  31.220  1.00  0.00    -0.462 OA
BRANCH   3   4
ATOM      4  C   UNL A   1      33.119  35.375  29.905  1.00  0.00     0.331 C 
ATOM      5  O   UNL A   1      32.203  36.072  29.482  1.00  0.00    -0.250 OA
BRANCH   4   6
ATOM      6  C   UNL A   1      34.069  34.591  28.992  1.00  0.00     0.218 C 
BRANCH   6   7
ATOM      7  N   UNL A   1      33.796  33.147  28.847  1.00  0.00    -0.341 N 
ATOM      8  O   UNL A   1      35.660  32.759  27.628  1.00  0.00    -0.275 OA
ATOM      9  C   UNL A   1      34.583  32.347  28.063  1.00  0.00     0.221 C 
ATOM     10  H   UNL A   1      33.031  32.750  29.324  1.00  0.00     0.164 HD
BRANCH   9  11
ATOM     11  C   UNL A   1      34.039  30.997  27.605  1.00  0.00     0.105 C 
BRANCH  11  12
ATOM     12  C   UNL A   1      32.580  30.892  27.207  1.00  0.00     0.047 C 
BRANCH  12  13
ATOM     13  C   UNL A   1      32.188  29.956  26.097  1.00  0.00    -0.022 A 
ATOM     14  C   UNL A   1      31.373  30.345  25.045  1.00  0.00     0.087 A 
ATOM     15  C   UNL A   1      32.591  28.609  25.801  1.00  0.00     0.003 A 
ATOM     16  N   UNL A   1      31.379  29.353  24.108  1.00  0.00    -0.361 N 
ATOM     17  C   UNL A   1      32.284  28.387  24.459  1.00  0.00     0.046 A 
ATOM     18  C   UNL A   1      33.276  27.583  26.477  1.00  0.00     0.010 A 
ATOM     19  H   UNL A   1      30.817  29.334  23.299  1.00  0.00     0.166 HD
ATOM     20  C   UNL A   1      32.828  27.339  23.710  1.00  0.00     0.026 A 
ATOM     21  C   UNL A   1      33.834  26.525  25.749  1.00  0.00     0.001 A 
ATOM     22  C   UNL A   1      33.660  26.439  24.375  1.00  0.00     0.002 A 
ENDBRANCH  12  13
ENDBRANCH  11  12
ENDBRANCH   9  11
ENDBRANCH   6   7
BRANCH   6  23
ATOM     23  C   UNL A   1      34.073  35.292  27.624  1.00  0.00     0.193 C 
BRANCH  23  24
ATOM     24  O   UNL A   1      34.775  36.536  27.692  1.00  0.00    -0.394 OA
ATOM     25  H   UNL A   1      35.031  36.812  26.798  1.00  0.00     0.210 HD
ENDBRANCH  23  24
ENDBRANCH   6  23
ENDBRANCH   4   6
ENDBRANCH   3   4
ENDBRANCH   2   3
ENDBRANCH   1   2
BRANCH   1  26
ATOM     26  O   UNL A   1      34.648  35.780  33.983  1.00  0.00    -0.374 OA
BRANCH  26  27
ATOM     27  C   UNL A   1      35.607  34.748  33.747  1.00  0.00     0.202 C 
BRANCH  27  28
ATOM     28  C   UNL A   1      35.173  33.330  34.130  1.00  0.00     0.261 C 
BRANCH  28  29
ATOM     29  O   UNL A   1      36.059  32.326  33.607  1.00  0.00    -0.460 OA
BRANCH  29  30
ATOM     30  C   UNL A   1      35.901  32.057  32.292  1.00  0.00     0.338 C 
ATOM     31  O   UNL A   1      34.871  32.142  31.631  1.00  0.00    -0.246 OA
BRANCH  30  32
ATOM     32  C   UNL A   1      37.206  31.761  31.679  1.00  0.00     0.060 A 
ATOM     33  C   UNL A   1      37.361  31.958  30.303  1.00  0.00     0.016 A 
ATOM     34  C   UNL A   1      38.247  31.223  32.431  1.00  0.00     0.016 A 
ATOM     35  C   UNL A   1      38.549  31.585  29.670  1.00  0.00     0.010 A 
ATOM     36  C   UNL A   1      39.451  30.889  31.802  1.00  0.00     0.010 A 
ATOM     37  C   UNL A   1      39.601  31.026  30.409  1.00  0.00    -0.014 A 
BRANCH  37  38
ATOM     38  C   UNL A   1      40.789  30.442  29.724  1.00  0.00     0.031 A 
ATOM     39  C   UNL A   1      41.990  31.320  29.459  1.00  0.00     0.074 A 
ATOM     40  C   UNL A   1      40.817  29.153  29.335  1.00  0.00     0.049 A 
ATOM     41  N   UNL A   1      43.095  31.049  28.810  1.00  0.00    -0.248 NA
ATOM     42  C   UNL A   1      41.917  32.700  29.962  1.00  0.00     0.031 C 
ATOM     43  C   UNL A   1      39.734  28.188  29.511  1.00  0.00     0.029 A 
ATOM     44  N   UNL A   1      41.803  28.435  28.698  1.00  0.00    -0.354 N 
ATOM     45  C   UNL A   1      43.828  32.230  28.804  1.00  0.00     0.074 A 
ATOM     46  C   UNL A   1      43.013  33.235  29.449  1.00  0.00     0.031 C 
ATOM     47  C   UNL A   1      40.116  27.002  29.003  1.00  0.00     0.029 A 
ATOM     48  C   UNL A   1      41.458  27.132  28.438  1.00  0.00     0.049 A 
ATOM     49  H   UNL A   1      42.675  28.821  28.453  1.00  0.00     0.167 HD
ATOM     50  C   UNL A   1      45.079  32.458  28.338  1.00  0.00     0.037 A 
ATOM     51  C   UNL A   1      42.139  26.153  27.807  1.00  0.00     0.037 A 
ATOM     52  C   UNL A   1      45.917  31.453  27.740  1.00  0.00     0.049 A 
ATOM     53  C   UNL A   1      43.527  26.424  27.290  1.00  0.00     0.074 A 
ATOM     54  C   UNL A   1      47.220  31.572  27.291  1.00  0.00     0.029 A 
ATOM     55  N   UNL A   1      45.533  30.140  27.513  1.00  0.00    -0.354 N 
ATOM     56  N   UNL A   1      44.225  27.534  27.334  1.00  0.00    -0.248 NA
ATOM     57  C   UNL A   1      44.227  25.304  26.643  1.00  0.00     0.031 C 
ATOM     58  C   UNL A   1      47.609  30.344  26.748  1.00  0.00     0.029 A 
ATOM     59  C   UNL A   1      46.567  29.445  26.909  1.00  0.00     0.049 A 
ATOM     60  H   UNL A   1      44.656  29.759  27.747  1.00  0.00     0.167 HD
ATOM     61  C   UNL A   1      45.451  27.239  26.746  1.00  0.00     0.074 A 
ATOM     62  C   UNL A   1      45.407  25.842  26.368  1.00  0.00     0.031 C 
ATOM     63  C   UNL A   1      46.516  28.052  26.540  1.00  0.00     0.037 A 
BRANCH  50  64
ATOM     64  C   UNL A   1      45.610  33.860  28.457  1.00  0.00     0.057 A 
ATOM     65  C   UNL A   1      46.319  34.295  29.587  1.00  0.00     0.134 A 
ATOM     66  C   UNL A   1      45.405  34.789  27.429  1.00  0.00     0.134 A 
ATOM     67  F   UNL A   1      46.539  33.461  30.614  1.00  0.00    -0.206 F 
ATOM     68  C   UNL A   1      46.759  35.614  29.710  1.00  0.00     0.040 A 
ATOM     69  C   UNL A   1      45.872  36.102  27.526  1.00  0.00     0.040 A 
ATOM     70  F   UNL A   1      44.744  34.440  26.316  1.00  0.00    -0.206 F 
ATOM     71  C   UNL A   1      46.540  36.520  28.675  1.00  0.00     0.006 A 
ENDBRANCH  50  64
BRANCH  51  72
ATOM     72  C   UNL A   1      41.517  24.815  27.631  1.00  0.00     0.057 A 
ATOM     73  C   UNL A   1      40.533  24.590  26.660  1.00  0.00     0.134 A 
ATOM     74  C   UNL A   1      41.886  23.730  28.438  1.00  0.00     0.134 A 
ATOM     75  F   UNL A   1      40.120  25.593  25.873  1.00  0.00    -0.206 F 
ATOM     76  C   UNL A   1      39.929  23.340  26.507  1.00  0.00     0.040 A 
ATOM     77  C   UNL A   1      41.309  22.470  28.278  1.00  0.00     0.040 A 
ATOM     78  F   UNL A   1      42.824  23.880  29.384  1.00  0.00    -0.206 F 
ATOM     79  C   UNL A   1      40.322  22.274  27.314  1.00  0.00     0.006 A 
ENDBRANCH  51  72
BRANCH  63  80
ATOM     80  C   UNL A   1      47.738  27.451  25.905  1.00  0.00     0.057 A 
ATOM     81  C   UNL A   1      48.756  26.863  26.666  1.00  0.00     0.134 A 
ATOM     82  C   UNL A   1      47.871  27.415  24.511  1.00  0.00     0.134 A 
ATOM     83  F   UNL A   1      48.696  26.872  28.006  1.00  0.00    -0.206 F 
ATOM     84  C   UNL A   1      49.874  26.281  26.063  1.00  0.00     0.040 A 
ATOM     85  C   UNL A   1      48.969  26.811  23.896  1.00  0.00     0.040 A 
ATOM     86  F   UNL A   1      46.927  27.950  23.723  1.00  0.00    -0.206 F 
ATOM     87  C   UNL A   1      49.978  26.247  24.673  1.00  0.00     0.006 A 
ENDBRANCH  63  80
ENDBRANCH  37  38
ENDBRANCH  30  32
ENDBRANCH  29  30
ENDBRANCH  28  29
ENDBRANCH  27  28
ENDBRANCH  26  27
ENDBRANCH   1  26
TORSDOF 20
ENDMDL
