MODEL 1
REMARK VINA RESULT:     -11.3      0.000      0.000
REMARK SMILES O=CN1CC[NH+](C[C@@H](CC(=O)Nc2ccc(C(F)(F)F)nc2)C(=O)OCCOCCOC(=O)c2ccc(-c3c4nc(c(-c5c(F)cccc5F)c5ccc([nH]5)c(-c5c(F)cccc5F)c5nc(c(-c6c(F)cccc6F)c6ccc3[nH]6)C=C5)C=C4)cc2)CC1
REMARK SMILES IDX 27 1 26 2 25 3 23 4 24 5 8 6 7 7 6 8 1 9 2 10 3 11 4 12
REMARK SMILES IDX 89 13 5 14 88 15 9 17 10 18 11 19 12 20 13 22 14 23 22 24
REMARK SMILES IDX 15 25 21 26 16 27 17 28 18 29 19 30 20 31 28 32 29 33 30 34
REMARK SMILES IDX 31 35 32 36 33 37 34 38 35 39 87 40 36 41 86 42 37 43 38 44
REMARK SMILES IDX 39 45 80 46 40 47 85 48 79 49 81 50 41 51 84 52 78 53 77 54
REMARK SMILES IDX 42 56 68 57 51 58 67 59 52 60 55 61 66 62 82 63 53 64 54 65
REMARK SMILES IDX 65 67 83 68 56 69 43 70 44 71 49 72 45 73 46 74 48 75 50 76
REMARK SMILES IDX 47 77 69 78 70 79 75 80 71 81 72 82 74 83 76 84 73 85 57 86
REMARK SMILES IDX 58 87 63 88 59 89 60 90 62 91 64 92 61 93
REMARK H PARENT 6 16 12 21 81 55 55 66
REMARK Flexibility Score: inf
ROOT
ATOM      1  C   UNL A   1      33.120  29.767  26.285  1.00  0.00     0.202 C 
ENDROOT
BRANCH   1   2
ATOM      2  C   UNL A   1      32.978  28.623  25.282  1.00  0.00     0.261 C 
BRANCH   2   3
ATOM      3  O   UNL A   1      33.880  27.538  25.574  1.00  0.00    -0.463 OA
BRANCH   3   4
ATOM      4  C   UNL A   1      33.310  26.321  25.741  1.00  0.00     0.315 C 
ATOM      5  O   UNL A   1      32.250  26.115  26.318  1.00  0.00    -0.252 OA
BRANCH   4   6
ATOM      6  C   UNL A   1      34.083  25.211  25.046  1.00  0.00     0.163 C 
BRANCH   6   7
ATOM      7  C   UNL A   1      33.757  23.879  25.741  1.00  0.00     0.278 C 
BRANCH   7   8
ATOM      8  N   UNL A   1      34.738  22.805  25.989  1.00  0.00    -0.331 N 
ATOM      9  O   UNL A   1      32.535  18.534  24.258  1.00  0.00    -0.279 OA
ATOM     10  C   UNL A   1      32.738  19.047  25.348  1.00  0.00     0.340 C 
ATOM     11  N   UNL A   1      33.424  20.222  25.570  1.00  0.00    -0.334 N 
ATOM     12  C   UNL A   1      33.405  20.839  26.888  1.00  0.00     0.180 C 
ATOM     13  C   UNL A   1      33.870  21.021  24.427  1.00  0.00     0.180 C 
ATOM     14  C   UNL A   1      34.532  21.859  27.092  1.00  0.00     0.284 C 
ATOM     15  C   UNL A   1      35.008  22.003  24.771  1.00  0.00     0.284 C 
ATOM     16  H   UNL A   1      35.523  23.382  26.290  1.00  0.00     0.348 HD
ENDBRANCH   7   8
ENDBRANCH   6   7
BRANCH   6  17
ATOM     17  C   UNL A   1      34.059  25.350  23.522  1.00  0.00     0.121 C 
BRANCH  17  18
ATOM     18  C   UNL A   1      33.204  24.474  22.614  1.00  0.00     0.225 C 
ATOM     19  O   UNL A   1      33.722  23.571  21.951  1.00  0.00    -0.275 OA
ATOM     20  N   UNL A   1      31.836  24.507  22.696  1.00  0.00    -0.325 N 
ATOM     21  H   UNL A   1      31.375  23.636  22.697  1.00  0.00     0.169 HD
BRANCH  20  22
ATOM     22  C   UNL A   1      31.023  25.642  22.777  1.00  0.00     0.059 A 
ATOM     23  C   UNL A   1      30.038  25.732  23.751  1.00  0.00     0.030 A 
ATOM     24  C   UNL A   1      31.274  26.766  22.004  1.00  0.00     0.137 A 
ATOM     25  C   UNL A   1      29.233  26.871  23.811  1.00  0.00     0.035 A 
ATOM     26  N   UNL A   1      30.511  27.886  22.036  1.00  0.00    -0.250 NA
ATOM     27  C   UNL A   1      29.455  27.911  22.905  1.00  0.00     0.144 A 
BRANCH  27  28
ATOM     28  C   UNL A   1      28.492  29.093  22.891  1.00  0.00     0.433 C 
ATOM     29  F   UNL A   1      28.879  30.099  23.728  1.00  0.00    -0.165 F 
ATOM     30  F   UNL A   1      28.329  29.665  21.663  1.00  0.00    -0.165 F 
ATOM     31  F   UNL A   1      27.231  28.749  23.298  1.00  0.00    -0.165 F 
ENDBRANCH  27  28
ENDBRANCH  20  22
ENDBRANCH  17  18
ENDBRANCH   6  17
ENDBRANCH   4   6
ENDBRANCH   3   4
ENDBRANCH   2   3
ENDBRANCH   1   2
BRANCH   1  32
ATOM     32  O   UNL A   1      31.909  30.272  26.842  1.00  0.00    -0.374 OA
BRANCH  32  33
ATOM     33  C   UNL A   1      31.388  31.476  26.288  1.00  0.00     0.202 C 
BRANCH  33  34
ATOM     34  C   UNL A   1      31.510  32.732  27.161  1.00  0.00     0.261 C 
BRANCH  34  35
ATOM     35  O   UNL A   1      32.777  33.392  26.975  1.00  0.00    -0.460 OA
BRANCH  35  36
ATOM     36  C   UNL A   1      33.367  33.810  28.124  1.00  0.00     0.338 C 
ATOM     37  O   UNL A   1      32.903  34.563  28.961  1.00  0.00    -0.246 OA
BRANCH  36  38
ATOM     38  C   UNL A   1      34.629  33.078  28.340  1.00  0.00     0.060 A 
ATOM     39  C   UNL A   1      34.532  31.725  28.691  1.00  0.00     0.016 A 
ATOM     40  C   UNL A   1      35.870  33.717  28.309  1.00  0.00     0.016 A 
ATOM     41  C   UNL A   1      35.667  31.022  29.083  1.00  0.00     0.010 A 
ATOM     42  C   UNL A   1      37.010  33.010  28.708  1.00  0.00     0.010 A 
ATOM     43  C   UNL A   1      36.903  31.676  29.143  1.00  0.00    -0.014 A 
BRANCH  43  44
ATOM     44  C   UNL A   1      38.031  31.013  29.844  1.00  0.00     0.031 A 
ATOM     45  C   UNL A   1      38.266  31.322  31.297  1.00  0.00     0.074 A 
ATOM     46  C   UNL A   1      38.801  30.110  29.215  1.00  0.00     0.049 A 
ATOM     47  N   UNL A   1      39.184  30.863  32.108  1.00  0.00    -0.248 NA
ATOM     48  C   UNL A   1      37.342  32.285  31.917  1.00  0.00     0.031 C 
ATOM     49  C   UNL A   1      38.653  29.697  27.822  1.00  0.00     0.029 A 
ATOM     50  N   UNL A   1      39.867  29.378  29.676  1.00  0.00    -0.354 N 
ATOM     51  C   UNL A   1      38.953  31.484  33.330  1.00  0.00     0.074 A 
ATOM     52  C   UNL A   1      37.835  32.384  33.141  1.00  0.00     0.031 C 
ATOM     53  C   UNL A   1      39.603  28.790  27.536  1.00  0.00     0.029 A 
ATOM     54  C   UNL A   1      40.438  28.581  28.718  1.00  0.00     0.049 A 
ATOM     55  H   UNL A   1      40.189  29.421  30.605  1.00  0.00     0.167 HD
ATOM     56  C   UNL A   1      39.601  31.313  34.506  1.00  0.00     0.037 A 
ATOM     57  C   UNL A   1      41.524  27.787  28.782  1.00  0.00     0.037 A 
ATOM     58  C   UNL A   1      40.715  30.419  34.693  1.00  0.00     0.049 A 
ATOM     59  C   UNL A   1      42.269  27.650  30.081  1.00  0.00     0.074 A 
ATOM     60  C   UNL A   1      41.428  30.157  35.849  1.00  0.00     0.029 A 
ATOM     61  N   UNL A   1      41.282  29.647  33.689  1.00  0.00    -0.354 N 
ATOM     62  N   UNL A   1      42.028  28.220  31.237  1.00  0.00    -0.248 NA
ATOM     63  C   UNL A   1      43.432  26.751  30.088  1.00  0.00     0.031 C 
ATOM     64  C   UNL A   1      42.462  29.269  35.533  1.00  0.00     0.029 A 
ATOM     65  C   UNL A   1      42.356  28.930  34.193  1.00  0.00     0.049 A 
ATOM     66  H   UNL A   1      40.968  29.612  32.758  1.00  0.00     0.167 HD
ATOM     67  C   UNL A   1      42.990  27.733  32.114  1.00  0.00     0.074 A 
ATOM     68  C   UNL A   1      43.813  26.812  31.357  1.00  0.00     0.031 C 
ATOM     69  C   UNL A   1      43.171  28.020  33.427  1.00  0.00     0.037 A 
BRANCH  56  70
ATOM     70  C   UNL A   1      39.139  32.145  35.669  1.00  0.00     0.057 A 
ATOM     71  C   UNL A   1      38.240  31.652  36.626  1.00  0.00     0.134 A 
ATOM     72  C   UNL A   1      39.591  33.460  35.827  1.00  0.00     0.134 A 
ATOM     73  F   UNL A   1      37.755  30.404  36.526  1.00  0.00    -0.206 F 
ATOM     74  C   UNL A   1      37.776  32.452  37.672  1.00  0.00     0.040 A 
ATOM     75  C   UNL A   1      39.158  34.260  36.887  1.00  0.00     0.040 A 
ATOM     76  F   UNL A   1      40.456  33.993  34.953  1.00  0.00    -0.206 F 
ATOM     77  C   UNL A   1      38.238  33.760  37.806  1.00  0.00     0.006 A 
ENDBRANCH  56  70
BRANCH  57  78
ATOM     78  C   UNL A   1      41.970  27.065  27.564  1.00  0.00     0.057 A 
ATOM     79  C   UNL A   1      41.564  25.752  27.303  1.00  0.00     0.134 A 
ATOM     80  C   UNL A   1      42.798  27.685  26.620  1.00  0.00     0.134 A 
ATOM     81  F   UNL A   1      40.789  25.098  28.181  1.00  0.00    -0.206 F 
ATOM     82  C   UNL A   1      41.967  25.079  26.148  1.00  0.00     0.040 A 
ATOM     83  C   UNL A   1      43.190  27.033  25.450  1.00  0.00     0.040 A 
ATOM     84  F   UNL A   1      43.220  28.943  26.812  1.00  0.00    -0.206 F 
ATOM     85  C   UNL A   1      42.775  25.724  25.214  1.00  0.00     0.006 A 
ENDBRANCH  57  78
BRANCH  69  86
ATOM     86  C   UNL A   1      44.286  27.307  34.141  1.00  0.00     0.057 A 
ATOM     87  C   UNL A   1      44.107  26.051  34.733  1.00  0.00     0.134 A 
ATOM     88  C   UNL A   1      45.568  27.872  34.202  1.00  0.00     0.134 A 
ATOM     89  F   UNL A   1      42.903  25.459  34.721  1.00  0.00    -0.206 F 
ATOM     90  C   UNL A   1      45.155  25.393  35.381  1.00  0.00     0.040 A 
ATOM     91  C   UNL A   1      46.630  27.212  34.822  1.00  0.00     0.040 A 
ATOM     92  F   UNL A   1      45.813  29.069  33.646  1.00  0.00    -0.206 F 
ATOM     93  C   UNL A   1      46.423  25.971  35.420  1.00  0.00     0.006 A 
ENDBRANCH  69  86
ENDBRANCH  43  44
ENDBRANCH  36  38
ENDBRANCH  35  36
ENDBRANCH  34  35
ENDBRANCH  33  34
ENDBRANCH  32  33
ENDBRANCH   1  32
TORSDOF 20
ENDMDL
MODEL 2
REMARK VINA RESULT:     -11.3      1.439      2.234
REMARK SMILES O=CN1CC[NH+](C[C@@H](CC(=O)Nc2ccc(C(F)(F)F)nc2)C(=O)OCCOCCOC(=O)c2ccc(-c3c4nc(c(-c5c(F)cccc5F)c5ccc([nH]5)c(-c5c(F)cccc5F)c5nc(c(-c6c(F)cccc6F)c6ccc3[nH]6)C=C5)C=C4)cc2)CC1
REMARK SMILES IDX 27 1 26 2 25 3 23 4 24 5 8 6 7 7 6 8 1 9 2 10 3 11 4 12
REMARK SMILES IDX 89 13 5 14 88 15 9 17 10 18 11 19 12 20 13 22 14 23 22 24
REMARK SMILES IDX 15 25 21 26 16 27 17 28 18 29 19 30 20 31 28 32 29 33 30 34
REMARK SMILES IDX 31 35 32 36 33 37 34 38 35 39 87 40 36 41 86 42 37 43 38 44
REMARK SMILES IDX 39 45 80 46 40 47 85 48 79 49 81 50 41 51 84 52 78 53 77 54
REMARK SMILES IDX 42 56 68 57 51 58 67 59 52 60 55 61 66 62 82 63 53 64 54 65
REMARK SMILES IDX 65 67 83 68 56 69 43 70 44 71 49 72 45 73 46 74 48 75 50 76
REMARK SMILES IDX 47 77 69 78 70 79 75 80 71 81 72 82 74 83 76 84 73 85 57 86
REMARK SMILES IDX 58 87 63 88 59 89 60 90 62 91 64 92 61 93
REMARK H PARENT 6 16 12 21 81 55 55 66
REMARK Flexibility Score: inf
ROOT
ATOM      1  C   UNL A   1      31.949  29.994  25.641  1.00  0.00     0.202 C 
ENDROOT
BRANCH   1   2
ATOM      2  C   UNL A   1      33.043  28.968  25.350  1.00  0.00     0.261 C 
BRANCH   2   3
ATOM      3  O   UNL A   1      33.238  28.064  26.454  1.00  0.00    -0.463 OA
BRANCH   3   4
ATOM      4  C   UNL A   1      32.187  27.266  26.761  1.00  0.00     0.315 C 
ATOM      5  O   UNL A   1      31.424  27.440  27.703  1.00  0.00    -0.252 OA
BRANCH   4   6
ATOM      6  C   UNL A   1      31.980  26.153  25.745  1.00  0.00     0.163 C 
BRANCH   6   7
ATOM      7  C   UNL A   1      32.997  25.036  26.028  1.00  0.00     0.278 C 
BRANCH   7   8
ATOM      8  N   UNL A   1      32.883  23.655  25.522  1.00  0.00    -0.331 N 
ATOM      9  O   UNL A   1      37.622  21.756  25.692  1.00  0.00    -0.279 OA
ATOM     10  C   UNL A   1      36.872  22.192  24.830  1.00  0.00     0.340 C 
ATOM     11  N   UNL A   1      35.574  22.612  25.031  1.00  0.00    -0.334 N 
ATOM     12  C   UNL A   1      34.865  23.314  23.971  1.00  0.00     0.180 C 
ATOM     13  C   UNL A   1      35.039  22.669  26.392  1.00  0.00     0.180 C 
ATOM     14  C   UNL A   1      33.344  23.323  24.169  1.00  0.00     0.284 C 
ATOM     15  C   UNL A   1      33.498  22.670  26.445  1.00  0.00     0.284 C 
ATOM     16  H   UNL A   1      31.867  23.596  25.468  1.00  0.00     0.348 HD
ENDBRANCH   7   8
ENDBRANCH   6   7
BRANCH   6  17
ATOM     17  C   UNL A   1      30.498  25.851  25.508  1.00  0.00     0.121 C 
BRANCH  17  18
ATOM     18  C   UNL A   1      29.948  25.357  24.174  1.00  0.00     0.225 C 
ATOM     19  O   UNL A   1      30.319  24.277  23.708  1.00  0.00    -0.275 OA
ATOM     20  N   UNL A   1      28.870  25.972  23.592  1.00  0.00    -0.325 N 
ATOM     21  H   UNL A   1      28.168  25.381  23.233  1.00  0.00     0.169 HD
BRANCH  20  22
ATOM     22  C   UNL A   1      28.657  27.347  23.451  1.00  0.00     0.059 A 
ATOM     23  C   UNL A   1      29.715  28.194  23.153  1.00  0.00     0.030 A 
ATOM     24  C   UNL A   1      27.377  27.882  23.445  1.00  0.00     0.137 A 
ATOM     25  C   UNL A   1      29.483  29.565  23.024  1.00  0.00     0.035 A 
ATOM     26  N   UNL A   1      27.117  29.208  23.325  1.00  0.00    -0.250 NA
ATOM     27  C   UNL A   1      28.181  30.052  23.169  1.00  0.00     0.144 A 
BRANCH  27  28
ATOM     28  C   UNL A   1      27.954  31.560  23.155  1.00  0.00     0.433 C 
ATOM     29  F   UNL A   1      29.025  32.259  23.629  1.00  0.00    -0.165 F 
ATOM     30  F   UNL A   1      27.685  32.072  21.919  1.00  0.00    -0.165 F 
ATOM     31  F   UNL A   1      26.899  31.940  23.940  1.00  0.00    -0.165 F 
ENDBRANCH  27  28
ENDBRANCH  20  22
ENDBRANCH  17  18
ENDBRANCH   6  17
ENDBRANCH   4   6
ENDBRANCH   3   4
ENDBRANCH   2   3
ENDBRANCH   1   2
BRANCH   1  32
ATOM     32  O   UNL A   1      32.231  30.946  26.663  1.00  0.00    -0.374 OA
BRANCH  32  33
ATOM     33  C   UNL A   1      31.387  32.091  26.740  1.00  0.00     0.202 C 
BRANCH  33  34
ATOM     34  C   UNL A   1      32.093  33.443  26.910  1.00  0.00     0.261 C 
BRANCH  34  35
ATOM     35  O   UNL A   1      32.214  33.812  28.298  1.00  0.00    -0.460 OA
BRANCH  35  36
ATOM     36  C   UNL A   1      33.308  34.562  28.586  1.00  0.00     0.338 C 
ATOM     37  O   UNL A   1      33.341  35.754  28.832  1.00  0.00    -0.246 OA
BRANCH  36  38
ATOM     38  C   UNL A   1      34.490  33.695  28.745  1.00  0.00     0.060 A 
ATOM     39  C   UNL A   1      34.282  32.425  29.299  1.00  0.00     0.016 A 
ATOM     40  C   UNL A   1      35.781  34.145  28.463  1.00  0.00     0.016 A 
ATOM     41  C   UNL A   1      35.368  31.626  29.641  1.00  0.00     0.010 A 
ATOM     42  C   UNL A   1      36.874  33.342  28.812  1.00  0.00     0.010 A 
ATOM     43  C   UNL A   1      36.670  32.103  29.447  1.00  0.00    -0.014 A 
BRANCH  43  44
ATOM     44  C   UNL A   1      37.799  31.384  30.088  1.00  0.00     0.031 A 
ATOM     45  C   UNL A   1      38.101  31.650  31.538  1.00  0.00     0.074 A 
ATOM     46  C   UNL A   1      38.512  30.470  29.409  1.00  0.00     0.049 A 
ATOM     47  N   UNL A   1      39.033  31.139  32.302  1.00  0.00    -0.248 NA
ATOM     48  C   UNL A   1      37.237  32.629  32.215  1.00  0.00     0.031 C 
ATOM     49  C   UNL A   1      38.296  30.096  28.014  1.00  0.00     0.029 A 
ATOM     50  N   UNL A   1      39.567  29.690  29.812  1.00  0.00    -0.354 N 
ATOM     51  C   UNL A   1      38.871  31.738  33.545  1.00  0.00     0.074 A 
ATOM     52  C   UNL A   1      37.779  32.681  33.420  1.00  0.00     0.031 C 
ATOM     53  C   UNL A   1      39.200  29.163  27.670  1.00  0.00     0.029 A 
ATOM     54  C   UNL A   1      40.072  28.897  28.814  1.00  0.00     0.049 A 
ATOM     55  H   UNL A   1      39.926  29.699  30.728  1.00  0.00     0.167 HD
ATOM     56  C   UNL A   1      39.557  31.516  34.691  1.00  0.00     0.037 A 
ATOM     57  C   UNL A   1      41.130  28.063  28.817  1.00  0.00     0.037 A 
ATOM     58  C   UNL A   1      40.644  30.579  34.813  1.00  0.00     0.049 A 
ATOM     59  C   UNL A   1      41.919  27.869  30.083  1.00  0.00     0.074 A 
ATOM     60  C   UNL A   1      41.392  30.265  35.934  1.00  0.00     0.029 A 
ATOM     61  N   UNL A   1      41.145  29.812  33.771  1.00  0.00    -0.354 N 
ATOM     62  N   UNL A   1      41.743  28.419  31.260  1.00  0.00    -0.248 NA
ATOM     63  C   UNL A   1      43.048  26.930  30.023  1.00  0.00     0.031 C 
ATOM     64  C   UNL A   1      42.380  29.348  35.558  1.00  0.00     0.029 A 
ATOM     65  C   UNL A   1      42.210  29.046  34.216  1.00  0.00     0.049 A 
ATOM     66  H   UNL A   1      40.793  29.810  32.852  1.00  0.00     0.167 HD
ATOM     67  C   UNL A   1      42.720  27.878  32.087  1.00  0.00     0.074 A 
ATOM     68  C   UNL A   1      43.480  26.947  31.278  1.00  0.00     0.031 C 
ATOM     69  C   UNL A   1      42.962  28.126  33.398  1.00  0.00     0.037 A 
BRANCH  56  70
ATOM     70  C   UNL A   1      39.170  32.335  35.890  1.00  0.00     0.057 A 
ATOM     71  C   UNL A   1      38.282  31.857  36.863  1.00  0.00     0.134 A 
ATOM     72  C   UNL A   1      39.685  33.625  36.067  1.00  0.00     0.134 A 
ATOM     73  F   UNL A   1      37.739  30.634  36.747  1.00  0.00    -0.206 F 
ATOM     74  C   UNL A   1      37.888  32.647  37.944  1.00  0.00     0.040 A 
ATOM     75  C   UNL A   1      39.323  34.414  37.160  1.00  0.00     0.040 A 
ATOM     76  F   UNL A   1      40.544  34.143  35.177  1.00  0.00    -0.206 F 
ATOM     77  C   UNL A   1      38.412  33.930  38.097  1.00  0.00     0.006 A 
ENDBRANCH  56  70
BRANCH  57  78
ATOM     78  C   UNL A   1      41.503  27.356  27.566  1.00  0.00     0.057 A 
ATOM     79  C   UNL A   1      42.319  27.957  26.602  1.00  0.00     0.134 A 
ATOM     80  C   UNL A   1      41.066  26.048  27.319  1.00  0.00     0.134 A 
ATOM     81  F   UNL A   1      42.751  29.215  26.773  1.00  0.00    -0.206 F 
ATOM     82  C   UNL A   1      42.686  27.285  25.435  1.00  0.00     0.040 A 
ATOM     83  C   UNL A   1      41.444  25.356  26.168  1.00  0.00     0.040 A 
ATOM     84  F   UNL A   1      40.282  25.417  28.205  1.00  0.00    -0.206 F 
ATOM     85  C   UNL A   1      42.255  25.977  25.220  1.00  0.00     0.006 A 
ENDBRANCH  57  78
BRANCH  69  86
ATOM     86  C   UNL A   1      44.077  27.358  34.051  1.00  0.00     0.057 A 
ATOM     87  C   UNL A   1      45.384  27.858  34.120  1.00  0.00     0.134 A 
ATOM     88  C   UNL A   1      43.829  26.116  34.653  1.00  0.00     0.134 A 
ATOM     89  F   UNL A   1      45.692  29.035  33.555  1.00  0.00    -0.206 F 
ATOM     90  C   UNL A   1      46.408  27.141  34.743  1.00  0.00     0.040 A 
ATOM     91  C   UNL A   1      44.839  25.403  35.302  1.00  0.00     0.040 A 
ATOM     92  F   UNL A   1      42.598  25.583  34.633  1.00  0.00    -0.206 F 
ATOM     93  C   UNL A   1      46.134  25.913  35.342  1.00  0.00     0.006 A 
ENDBRANCH  69  86
ENDBRANCH  43  44
ENDBRANCH  36  38
ENDBRANCH  35  36
ENDBRANCH  34  35
ENDBRANCH  33  34
ENDBRANCH  32  33
ENDBRANCH   1  32
TORSDOF 20
ENDMDL
MODEL 3
REMARK VINA RESULT:     -11.2      2.539      3.513
REMARK SMILES O=CN1CC[NH+](C[C@@H](CC(=O)Nc2ccc(C(F)(F)F)nc2)C(=O)OCCOCCOC(=O)c2ccc(-c3c4nc(c(-c5c(F)cccc5F)c5ccc([nH]5)c(-c5c(F)cccc5F)c5nc(c(-c6c(F)cccc6F)c6ccc3[nH]6)C=C5)C=C4)cc2)CC1
REMARK SMILES IDX 27 1 26 2 25 3 23 4 24 5 8 6 7 7 6 8 1 9 2 10 3 11 4 12
REMARK SMILES IDX 89 13 5 14 88 15 9 17 10 18 11 19 12 20 13 22 14 23 22 24
REMARK SMILES IDX 15 25 21 26 16 27 17 28 18 29 19 30 20 31 28 32 29 33 30 34
REMARK SMILES IDX 31 35 32 36 33 37 34 38 35 39 87 40 36 41 86 42 37 43 38 44
REMARK SMILES IDX 39 45 80 46 40 47 85 48 79 49 81 50 41 51 84 52 78 53 77 54
REMARK SMILES IDX 42 56 68 57 51 58 67 59 52 60 55 61 66 62 82 63 53 64 54 65
REMARK SMILES IDX 65 67 83 68 56 69 43 70 44 71 49 72 45 73 46 74 48 75 50 76
REMARK SMILES IDX 47 77 69 78 70 79 75 80 71 81 72 82 74 83 76 84 73 85 57 86
REMARK SMILES IDX 58 87 63 88 59 89 60 90 62 91 64 92 61 93
REMARK H PARENT 6 16 12 21 81 55 55 66
REMARK Flexibility Score: inf
ROOT
ATOM      1  C   UNL A   1      32.645  28.880  26.948  1.00  0.00     0.202 C 
ENDROOT
BRANCH   1   2
ATOM      2  C   UNL A   1      32.400  28.096  25.660  1.00  0.00     0.261 C 
BRANCH   2   3
ATOM      3  O   UNL A   1      33.593  27.433  25.199  1.00  0.00    -0.463 OA
BRANCH   3   4
ATOM      4  C   UNL A   1      33.561  26.079  25.211  1.00  0.00     0.315 C 
ATOM      5  O   UNL A   1      33.085  25.395  26.108  1.00  0.00    -0.252 OA
BRANCH   4   6
ATOM      6  C   UNL A   1      34.107  25.468  23.930  1.00  0.00     0.163 C 
BRANCH   6   7
ATOM      7  C   UNL A   1      34.806  24.144  24.278  1.00  0.00     0.278 C 
BRANCH   7   8
ATOM      8  N   UNL A   1      35.656  23.935  25.466  1.00  0.00    -0.331 N 
ATOM      9  O   UNL A   1      38.221  19.614  24.551  1.00  0.00    -0.279 OA
ATOM     10  C   UNL A   1      37.261  19.948  25.230  1.00  0.00     0.340 C 
ATOM     11  N   UNL A   1      36.772  21.231  25.355  1.00  0.00    -0.334 N 
ATOM     12  C   UNL A   1      35.494  21.461  26.013  1.00  0.00     0.180 C 
ATOM     13  C   UNL A   1      37.345  22.303  24.539  1.00  0.00     0.180 C 
ATOM     14  C   UNL A   1      35.299  22.915  26.459  1.00  0.00     0.284 C 
ATOM     15  C   UNL A   1      37.077  23.712  25.103  1.00  0.00     0.284 C 
ATOM     16  H   UNL A   1      35.481  24.823  25.936  1.00  0.00     0.348 HD
ENDBRANCH   7   8
ENDBRANCH   6   7
BRANCH   6  17
ATOM     17  C   UNL A   1      33.117  25.574  22.767  1.00  0.00     0.121 C 
BRANCH  17  18
ATOM     18  C   UNL A   1      31.610  25.418  22.935  1.00  0.00     0.225 C 
ATOM     19  O   UNL A   1      30.884  26.414  23.001  1.00  0.00    -0.275 OA
ATOM     20  N   UNL A   1      31.011  24.195  22.774  1.00  0.00    -0.325 N 
ATOM     21  H   UNL A   1      30.186  24.178  22.237  1.00  0.00     0.169 HD
BRANCH  20  22
ATOM     22  C   UNL A   1      31.442  22.970  23.292  1.00  0.00     0.059 A 
ATOM     23  C   UNL A   1      31.394  22.729  24.658  1.00  0.00     0.030 A 
ATOM     24  C   UNL A   1      31.777  21.912  22.459  1.00  0.00     0.137 A 
ATOM     25  C   UNL A   1      31.837  21.502  25.155  1.00  0.00     0.035 A 
ATOM     26  N   UNL A   1      32.213  20.710  22.909  1.00  0.00    -0.250 NA
ATOM     27  C   UNL A   1      32.293  20.529  24.262  1.00  0.00     0.144 A 
BRANCH  27  28
ATOM     28  C   UNL A   1      32.895  19.243  24.819  1.00  0.00     0.433 C 
ATOM     29  F   UNL A   1      32.152  18.139  24.516  1.00  0.00    -0.165 F 
ATOM     30  F   UNL A   1      34.158  18.982  24.376  1.00  0.00    -0.165 F 
ATOM     31  F   UNL A   1      32.986  19.253  26.184  1.00  0.00    -0.165 F 
ENDBRANCH  27  28
ENDBRANCH  20  22
ENDBRANCH  17  18
ENDBRANCH   6  17
ENDBRANCH   4   6
ENDBRANCH   3   4
ENDBRANCH   2   3
ENDBRANCH   1   2
BRANCH   1  32
ATOM     32  O   UNL A   1      31.719  29.924  27.238  1.00  0.00    -0.374 OA
BRANCH  32  33
ATOM     33  C   UNL A   1      31.746  31.073  26.396  1.00  0.00     0.202 C 
BRANCH  33  34
ATOM     34  C   UNL A   1      31.528  32.425  27.087  1.00  0.00     0.261 C 
BRANCH  34  35
ATOM     35  O   UNL A   1      32.640  33.318  26.880  1.00  0.00    -0.460 OA
BRANCH  35  36
ATOM     36  C   UNL A   1      33.226  33.761  28.021  1.00  0.00     0.338 C 
ATOM     37  O   UNL A   1      32.749  34.512  28.853  1.00  0.00    -0.246 OA
BRANCH  36  38
ATOM     38  C   UNL A   1      34.505  33.060  28.238  1.00  0.00     0.060 A 
ATOM     39  C   UNL A   1      34.443  31.694  28.539  1.00  0.00     0.016 A 
ATOM     40  C   UNL A   1      35.726  33.738  28.254  1.00  0.00     0.016 A 
ATOM     41  C   UNL A   1      35.592  31.012  28.930  1.00  0.00     0.010 A 
ATOM     42  C   UNL A   1      36.880  33.052  28.652  1.00  0.00     0.010 A 
ATOM     43  C   UNL A   1      36.806  31.701  29.038  1.00  0.00    -0.014 A 
BRANCH  43  44
ATOM     44  C   UNL A   1      37.939  31.048  29.738  1.00  0.00     0.031 A 
ATOM     45  C   UNL A   1      38.177  31.366  31.189  1.00  0.00     0.074 A 
ATOM     46  C   UNL A   1      38.713  30.145  29.112  1.00  0.00     0.049 A 
ATOM     47  N   UNL A   1      39.101  30.916  32.000  1.00  0.00    -0.248 NA
ATOM     48  C   UNL A   1      37.250  32.327  31.807  1.00  0.00     0.031 C 
ATOM     49  C   UNL A   1      38.563  29.725  27.721  1.00  0.00     0.029 A 
ATOM     50  N   UNL A   1      39.784  29.422  29.573  1.00  0.00    -0.354 N 
ATOM     51  C   UNL A   1      38.870  31.542  33.219  1.00  0.00     0.074 A 
ATOM     52  C   UNL A   1      37.746  32.434  33.029  1.00  0.00     0.031 C 
ATOM     53  C   UNL A   1      39.516  28.822  27.437  1.00  0.00     0.029 A 
ATOM     54  C   UNL A   1      40.357  28.624  28.617  1.00  0.00     0.049 A 
ATOM     55  H   UNL A   1      40.110  29.472  30.501  1.00  0.00     0.167 HD
ATOM     56  C   UNL A   1      39.523  31.381  34.394  1.00  0.00     0.037 A 
ATOM     57  C   UNL A   1      41.448  27.836  28.681  1.00  0.00     0.037 A 
ATOM     58  C   UNL A   1      40.643  30.494  34.581  1.00  0.00     0.049 A 
ATOM     59  C   UNL A   1      42.197  27.710  29.979  1.00  0.00     0.074 A 
ATOM     60  C   UNL A   1      41.362  30.242  35.736  1.00  0.00     0.029 A 
ATOM     61  N   UNL A   1      41.211  29.720  33.580  1.00  0.00    -0.354 N 
ATOM     62  N   UNL A   1      41.957  28.285  31.133  1.00  0.00    -0.248 NA
ATOM     63  C   UNL A   1      43.365  26.818  29.986  1.00  0.00     0.031 C 
ATOM     64  C   UNL A   1      42.400  29.358  35.421  1.00  0.00     0.029 A 
ATOM     65  C   UNL A   1      42.291  29.012  34.084  1.00  0.00     0.049 A 
ATOM     66  H   UNL A   1      40.894  29.678  32.649  1.00  0.00     0.167 HD
ATOM     67  C   UNL A   1      42.925  27.808  32.009  1.00  0.00     0.074 A 
ATOM     68  C   UNL A   1      43.750  26.888  31.254  1.00  0.00     0.031 C 
ATOM     69  C   UNL A   1      43.109  28.102  33.320  1.00  0.00     0.037 A 
BRANCH  56  70
ATOM     70  C   UNL A   1      39.060  32.215  35.554  1.00  0.00     0.057 A 
ATOM     71  C   UNL A   1      39.461  33.549  35.719  1.00  0.00     0.134 A 
ATOM     72  C   UNL A   1      38.211  31.674  36.527  1.00  0.00     0.134 A 
ATOM     73  F   UNL A   1      40.288  34.126  34.833  1.00  0.00    -0.206 F 
ATOM     74  C   UNL A   1      39.069  34.297  36.831  1.00  0.00     0.040 A 
ATOM     75  C   UNL A   1      37.786  32.422  37.626  1.00  0.00     0.040 A 
ATOM     76  F   UNL A   1      37.784  30.406  36.428  1.00  0.00    -0.206 F 
ATOM     77  C   UNL A   1      38.225  33.735  37.786  1.00  0.00     0.006 A 
ENDBRANCH  56  70
BRANCH  57  78
ATOM     78  C   UNL A   1      41.894  27.110  27.466  1.00  0.00     0.057 A 
ATOM     79  C   UNL A   1      42.722  27.716  26.516  1.00  0.00     0.134 A 
ATOM     80  C   UNL A   1      41.516  25.781  27.239  1.00  0.00     0.134 A 
ATOM     81  F   UNL A   1      43.100  28.995  26.667  1.00  0.00    -0.206 F 
ATOM     82  C   UNL A   1      43.159  27.029  25.382  1.00  0.00     0.040 A 
ATOM     83  C   UNL A   1      41.963  25.074  26.123  1.00  0.00     0.040 A 
ATOM     84  F   UNL A   1      40.723  25.144  28.113  1.00  0.00    -0.206 F 
ATOM     85  C   UNL A   1      42.785  25.700  25.188  1.00  0.00     0.006 A 
ENDBRANCH  57  78
BRANCH  69  86
ATOM     86  C   UNL A   1      44.230  27.400  34.034  1.00  0.00     0.057 A 
ATOM     87  C   UNL A   1      45.506  27.965  34.151  1.00  0.00     0.134 A 
ATOM     88  C   UNL A   1      44.017  26.157  34.645  1.00  0.00     0.134 A 
ATOM     89  F   UNL A   1      45.781  29.147  33.580  1.00  0.00    -0.206 F 
ATOM     90  C   UNL A   1      46.536  27.309  34.829  1.00  0.00     0.040 A 
ATOM     91  C   UNL A   1      45.030  25.504  35.350  1.00  0.00     0.040 A 
ATOM     92  F   UNL A   1      42.815  25.563  34.581  1.00  0.00    -0.206 F 
ATOM     93  C   UNL A   1      46.296  26.078  35.437  1.00  0.00     0.006 A 
ENDBRANCH  69  86
ENDBRANCH  43  44
ENDBRANCH  36  38
ENDBRANCH  35  36
ENDBRANCH  34  35
ENDBRANCH  33  34
ENDBRANCH  32  33
ENDBRANCH   1  32
TORSDOF 20
ENDMDL
