MODEL 1
REMARK VINA RESULT:     -11.0      0.000      0.000
REMARK SMILES CC(C)CN(C)c1cc2c(cc1Cl)C=C(C(=O)OCCOCCOC(=O)c1ccc(-c3c4nc(c(-c5c(F)cccc5F)c5ccc([nH]5)c(-c5c(F)cccc5F)c5nc(c(-c6c(F)cccc6F)c6ccc3[nH]6)C=C5)C=C4)cc1)[C@H](C(F)(F)F)O2
REMARK SMILES IDX 20 1 19 2 18 3 16 4 17 5 15 6 7 7 8 8 12 9 9 10 11 11 13 12
REMARK SMILES IDX 10 13 86 14 14 15 81 16 5 17 6 18 4 19 2 20 1 21 3 22 82 23
REMARK SMILES IDX 83 24 84 25 85 26 21 27 22 28 23 29 24 30 25 31 26 32 27 33
REMARK SMILES IDX 28 34 80 35 29 36 79 37 30 38 31 39 32 40 73 41 33 42 78 43
REMARK SMILES IDX 72 44 74 45 34 46 77 47 71 48 70 49 35 51 61 52 44 53 60 54
REMARK SMILES IDX 45 55 48 56 59 57 75 58 46 59 47 60 58 62 76 63 49 64 36 65
REMARK SMILES IDX 37 66 42 67 38 68 39 69 41 70 43 71 40 72 62 73 63 74 68 75
REMARK SMILES IDX 64 76 65 77 67 78 69 79 66 80 50 81 51 82 56 83 52 84 53 85
REMARK SMILES IDX 55 86 57 87 54 88
REMARK H PARENT 74 50 48 61
REMARK Flexibility Score: inf
ROOT
ATOM      1  C   UNL A   1      39.748  21.573  26.416  1.00  0.00     0.202 C 
ENDROOT
BRANCH   1   2
ATOM      2  C   UNL A   1      38.762  21.150  25.327  1.00  0.00     0.261 C 
BRANCH   2   3
ATOM      3  O   UNL A   1      37.414  21.422  25.750  1.00  0.00    -0.460 OA
BRANCH   3   4
ATOM      4  C   UNL A   1      36.486  20.650  25.160  1.00  0.00     0.338 C 
ATOM      5  O   UNL A   1      36.652  19.489  24.811  1.00  0.00    -0.246 OA
BRANCH   4   6
ATOM      6  C   UNL A   1      35.180  21.338  25.064  1.00  0.00     0.087 C 
ATOM      7  C   UNL A   1      32.172  25.376  24.852  1.00  0.00     0.059 A 
ATOM      8  C   UNL A   1      31.993  24.041  25.278  1.00  0.00     0.074 A 
ATOM      9  C   UNL A   1      33.446  25.731  24.365  1.00  0.00     0.065 A 
ATOM     10  C   UNL A   1      33.026  23.100  25.178  1.00  0.00     0.130 A 
ATOM     11  C   UNL A   1      34.422  24.766  24.139  1.00  0.00     0.034 A 
ATOM     12  Cl  UNL A   1      33.944  27.373  24.130  1.00  0.00    -0.082 Cl
ATOM     13  C   UNL A   1      34.208  23.453  24.546  1.00  0.00     0.019 A 
ATOM     14  O   UNL A   1      32.832  21.880  25.765  1.00  0.00    -0.475 OA
ATOM     15  C   UNL A   1      35.294  22.513  24.435  1.00  0.00     0.027 C 
ATOM     16  C   UNL A   1      33.907  20.875  25.732  1.00  0.00     0.316 C 
BRANCH   7  17
ATOM     17  N   UNL A   1      31.128  26.307  24.925  1.00  0.00    -0.373 N 
ATOM     18  C   UNL A   1      30.448  26.409  26.212  1.00  0.00     0.143 C 
BRANCH  17  19
ATOM     19  C   UNL A   1      30.315  26.538  23.707  1.00  0.00     0.119 C 
BRANCH  19  20
ATOM     20  C   UNL A   1      29.951  28.023  23.487  1.00  0.00     0.002 C 
ATOM     21  C   UNL A   1      30.916  28.724  22.524  1.00  0.00     0.009 C 
ATOM     22  C   UNL A   1      28.525  28.196  22.958  1.00  0.00     0.009 C 
ENDBRANCH  19  20
ENDBRANCH  17  19
ENDBRANCH   7  17
BRANCH  16  23
ATOM     23  C   UNL A   1      33.265  19.598  25.146  1.00  0.00     0.430 C 
ATOM     24  F   UNL A   1      32.092  19.864  24.524  1.00  0.00    -0.167 F 
ATOM     25  F   UNL A   1      34.054  18.951  24.264  1.00  0.00    -0.167 F 
ATOM     26  F   UNL A   1      32.999  18.700  26.131  1.00  0.00    -0.167 F 
ENDBRANCH  16  23
ENDBRANCH   4   6
ENDBRANCH   3   4
ENDBRANCH   2   3
ENDBRANCH   1   2
BRANCH   1  27
ATOM     27  O   UNL A   1      40.928  22.241  25.971  1.00  0.00    -0.374 OA
BRANCH  27  28
ATOM     28  C   UNL A   1      42.144  21.487  25.954  1.00  0.00     0.202 C 
BRANCH  28  29
ATOM     29  C   UNL A   1      43.355  22.136  25.272  1.00  0.00     0.261 C 
BRANCH  29  30
ATOM     30  O   UNL A   1      43.071  23.486  24.865  1.00  0.00    -0.460 OA
BRANCH  30  31
ATOM     31  C   UNL A   1      43.960  24.420  25.282  1.00  0.00     0.338 C 
ATOM     32  O   UNL A   1      45.045  24.680  24.782  1.00  0.00    -0.246 OA
BRANCH  31  33
ATOM     33  C   UNL A   1      43.328  25.267  26.315  1.00  0.00     0.060 A 
ATOM     34  C   UNL A   1      42.297  24.795  27.128  1.00  0.00     0.016 A 
ATOM     35  C   UNL A   1      43.796  26.581  26.460  1.00  0.00     0.016 A 
ATOM     36  C   UNL A   1      41.765  25.630  28.116  1.00  0.00     0.010 A 
ATOM     37  C   UNL A   1      43.265  27.412  27.445  1.00  0.00     0.010 A 
ATOM     38  C   UNL A   1      42.262  26.934  28.300  1.00  0.00    -0.014 A 
BRANCH  38  39
ATOM     39  C   UNL A   1      41.836  27.734  29.475  1.00  0.00     0.031 A 
ATOM     40  C   UNL A   1      42.543  27.644  30.795  1.00  0.00     0.074 A 
ATOM     41  C   UNL A   1      40.763  28.536  29.341  1.00  0.00     0.049 A 
ATOM     42  N   UNL A   1      42.330  28.331  31.891  1.00  0.00    -0.248 NA
ATOM     43  C   UNL A   1      43.620  26.650  30.907  1.00  0.00     0.031 C 
ATOM     44  C   UNL A   1      39.957  28.667  28.125  1.00  0.00     0.029 A 
ATOM     45  N   UNL A   1      40.164  29.392  30.231  1.00  0.00    -0.354 N 
ATOM     46  C   UNL A   1      43.251  27.866  32.819  1.00  0.00     0.074 A 
ATOM     47  C   UNL A   1      43.996  26.804  32.171  1.00  0.00     0.031 C 
ATOM     48  C   UNL A   1      38.990  29.575  28.335  1.00  0.00     0.029 A 
ATOM     49  C   UNL A   1      39.087  30.064  29.705  1.00  0.00     0.049 A 
ATOM     50  H   UNL A   1      40.477  29.514  31.157  1.00  0.00     0.167 HD
ATOM     51  C   UNL A   1      43.463  28.294  34.089  1.00  0.00     0.037 A 
ATOM     52  C   UNL A   1      38.268  30.973  30.266  1.00  0.00     0.037 A 
ATOM     53  C   UNL A   1      42.706  29.339  34.735  1.00  0.00     0.049 A 
ATOM     54  C   UNL A   1      38.503  31.393  31.691  1.00  0.00     0.074 A 
ATOM     55  C   UNL A   1      42.890  29.886  35.994  1.00  0.00     0.029 A 
ATOM     56  N   UNL A   1      41.604  29.978  34.184  1.00  0.00    -0.354 N 
ATOM     57  N   UNL A   1      39.452  31.030  32.518  1.00  0.00    -0.248 NA
ATOM     58  C   UNL A   1      37.552  32.360  32.256  1.00  0.00     0.031 C 
ATOM     59  C   UNL A   1      41.863  30.806  36.230  1.00  0.00     0.029 A 
ATOM     60  C   UNL A   1      41.074  30.881  35.095  1.00  0.00     0.049 A 
ATOM     61  H   UNL A   1      41.250  29.814  33.280  1.00  0.00     0.167 HD
ATOM     62  C   UNL A   1      39.230  31.745  33.688  1.00  0.00     0.074 A 
ATOM     63  C   UNL A   1      38.073  32.582  33.452  1.00  0.00     0.031 C 
ATOM     64  C   UNL A   1      39.920  31.710  34.855  1.00  0.00     0.037 A 
BRANCH  51  65
ATOM     65  C   UNL A   1      44.556  27.629  34.876  1.00  0.00     0.057 A 
ATOM     66  C   UNL A   1      44.280  26.519  35.687  1.00  0.00     0.134 A 
ATOM     67  C   UNL A   1      45.867  28.122  34.884  1.00  0.00     0.134 A 
ATOM     68  F   UNL A   1      43.043  26.003  35.739  1.00  0.00    -0.206 F 
ATOM     69  C   UNL A   1      45.267  25.928  36.477  1.00  0.00     0.040 A 
ATOM     70  C   UNL A   1      46.869  27.522  35.650  1.00  0.00     0.040 A 
ATOM     71  F   UNL A   1      46.201  29.179  34.128  1.00  0.00    -0.206 F 
ATOM     72  C   UNL A   1      46.569  26.426  36.455  1.00  0.00     0.006 A 
ENDBRANCH  51  65
BRANCH  52  73
ATOM     73  C   UNL A   1      37.147  31.558  29.490  1.00  0.00     0.057 A 
ATOM     74  C   UNL A   1      37.258  32.813  28.879  1.00  0.00     0.134 A 
ATOM     75  C   UNL A   1      35.958  30.846  29.287  1.00  0.00     0.134 A 
ATOM     76  F   UNL A   1      38.366  33.549  29.041  1.00  0.00    -0.206 F 
ATOM     77  C   UNL A   1      36.234  33.333  28.087  1.00  0.00     0.040 A 
ATOM     78  C   UNL A   1      34.939  31.340  28.471  1.00  0.00     0.040 A 
ATOM     79  F   UNL A   1      35.799  29.629  29.831  1.00  0.00    -0.206 F 
ATOM     80  C   UNL A   1      35.076  32.588  27.868  1.00  0.00     0.006 A 
ENDBRANCH  52  73
BRANCH  64  81
ATOM     81  C   UNL A   1      39.456  32.629  35.949  1.00  0.00     0.057 A 
ATOM     82  C   UNL A   1      38.483  32.213  36.867  1.00  0.00     0.134 A 
ATOM     83  C   UNL A   1      39.975  33.923  36.103  1.00  0.00     0.134 A 
ATOM     84  F   UNL A   1      37.937  30.992  36.776  1.00  0.00    -0.206 F 
ATOM     85  C   UNL A   1      38.047  33.047  37.898  1.00  0.00     0.040 A 
ATOM     86  C   UNL A   1      39.572  34.752  37.152  1.00  0.00     0.040 A 
ATOM     87  F   UNL A   1      40.922  34.380  35.270  1.00  0.00    -0.206 F 
ATOM     88  C   UNL A   1      38.601  34.316  38.051  1.00  0.00     0.006 A 
ENDBRANCH  64  81
ENDBRANCH  38  39
ENDBRANCH  31  33
ENDBRANCH  30  31
ENDBRANCH  29  30
ENDBRANCH  28  29
ENDBRANCH  27  28
ENDBRANCH   1  27
TORSDOF 18
ENDMDL
MODEL 2
REMARK VINA RESULT:     -10.9      5.492      9.658
REMARK SMILES CC(C)CN(C)c1cc2c(cc1Cl)C=C(C(=O)OCCOCCOC(=O)c1ccc(-c3c4nc(c(-c5c(F)cccc5F)c5ccc([nH]5)c(-c5c(F)cccc5F)c5nc(c(-c6c(F)cccc6F)c6ccc3[nH]6)C=C5)C=C4)cc1)[C@H](C(F)(F)F)O2
REMARK SMILES IDX 20 1 19 2 18 3 16 4 17 5 15 6 7 7 8 8 12 9 9 10 11 11 13 12
REMARK SMILES IDX 10 13 86 14 14 15 81 16 5 17 6 18 4 19 2 20 1 21 3 22 82 23
REMARK SMILES IDX 83 24 84 25 85 26 21 27 22 28 23 29 24 30 25 31 26 32 27 33
REMARK SMILES IDX 28 34 80 35 29 36 79 37 30 38 31 39 32 40 73 41 33 42 78 43
REMARK SMILES IDX 72 44 74 45 34 46 77 47 71 48 70 49 35 51 61 52 44 53 60 54
REMARK SMILES IDX 45 55 48 56 59 57 75 58 46 59 47 60 58 62 76 63 49 64 36 65
REMARK SMILES IDX 37 66 42 67 38 68 39 69 41 70 43 71 40 72 62 73 63 74 68 75
REMARK SMILES IDX 64 76 65 77 67 78 69 79 66 80 50 81 51 82 56 83 52 84 53 85
REMARK SMILES IDX 55 86 57 87 54 88
REMARK H PARENT 74 50 48 61
REMARK Flexibility Score: inf
ROOT
ATOM      1  C   UNL A   1      46.367  22.262  24.570  1.00  0.00     0.202 C 
ENDROOT
BRANCH   1   2
ATOM      2  C   UNL A   1      45.666  23.614  24.704  1.00  0.00     0.261 C 
BRANCH   2   3
ATOM      3  O   UNL A   1      46.477  24.514  25.480  1.00  0.00    -0.460 OA
BRANCH   3   4
ATOM      4  C   UNL A   1      47.351  25.232  24.754  1.00  0.00     0.338 C 
ATOM      5  O   UNL A   1      47.743  24.941  23.632  1.00  0.00    -0.246 OA
BRANCH   4   6
ATOM      6  C   UNL A   1      47.723  26.492  25.433  1.00  0.00     0.087 C 
ATOM      7  C   UNL A   1      46.818  31.066  27.349  1.00  0.00     0.059 A 
ATOM      8  C   UNL A   1      47.968  30.429  26.831  1.00  0.00     0.074 A 
ATOM      9  C   UNL A   1      45.623  30.319  27.368  1.00  0.00     0.065 A 
ATOM     10  C   UNL A   1      47.930  29.098  26.396  1.00  0.00     0.130 A 
ATOM     11  C   UNL A   1      45.620  28.961  27.067  1.00  0.00     0.034 A 
ATOM     12  Cl  UNL A   1      44.068  31.031  27.637  1.00  0.00    -0.082 Cl
ATOM     13  C   UNL A   1      46.775  28.354  26.583  1.00  0.00     0.019 A 
ATOM     14  O   UNL A   1      49.034  28.609  25.753  1.00  0.00    -0.475 OA
ATOM     15  C   UNL A   1      46.699  26.987  26.139  1.00  0.00     0.027 C 
ATOM     16  C   UNL A   1      49.024  27.232  25.232  1.00  0.00     0.316 C 
BRANCH   7  17
ATOM     17  N   UNL A   1      46.866  32.387  27.811  1.00  0.00    -0.373 N 
ATOM     18  C   UNL A   1      46.020  33.344  27.105  1.00  0.00     0.143 C 
BRANCH  17  19
ATOM     19  C   UNL A   1      48.150  32.888  28.356  1.00  0.00     0.119 C 
BRANCH  19  20
ATOM     20  C   UNL A   1      48.340  32.577  29.857  1.00  0.00     0.002 C 
ATOM     21  C   UNL A   1      49.810  32.346  30.225  1.00  0.00     0.009 C 
ATOM     22  C   UNL A   1      47.784  33.690  30.751  1.00  0.00     0.009 C 
ENDBRANCH  19  20
ENDBRANCH  17  19
ENDBRANCH   7  17
BRANCH  16  23
ATOM     23  C   UNL A   1      50.281  26.555  25.821  1.00  0.00     0.430 C 
ATOM     24  F   UNL A   1      49.960  25.566  26.689  1.00  0.00    -0.167 F 
ATOM     25  F   UNL A   1      51.100  26.026  24.889  1.00  0.00    -0.167 F 
ATOM     26  F   UNL A   1      51.034  27.456  26.506  1.00  0.00    -0.167 F 
ENDBRANCH  16  23
ENDBRANCH   4   6
ENDBRANCH   3   4
ENDBRANCH   2   3
ENDBRANCH   1   2
BRANCH   1  27
ATOM     27  O   UNL A   1      45.968  21.252  25.495  1.00  0.00    -0.374 OA
BRANCH  27  28
ATOM     28  C   UNL A   1      45.868  19.912  25.004  1.00  0.00     0.202 C 
BRANCH  28  29
ATOM     29  C   UNL A   1      44.598  19.130  25.368  1.00  0.00     0.261 C 
BRANCH  29  30
ATOM     30  O   UNL A   1      43.424  19.736  24.800  1.00  0.00    -0.460 OA
BRANCH  30  31
ATOM     31  C   UNL A   1      42.345  19.795  25.617  1.00  0.00     0.338 C 
ATOM     32  O   UNL A   1      41.580  18.884  25.895  1.00  0.00    -0.246 OA
BRANCH  31  33
ATOM     33  C   UNL A   1      42.347  21.089  26.332  1.00  0.00     0.060 A 
ATOM     34  C   UNL A   1      42.163  21.169  27.713  1.00  0.00     0.016 A 
ATOM     35  C   UNL A   1      42.540  22.254  25.576  1.00  0.00     0.016 A 
ATOM     36  C   UNL A   1      42.215  22.418  28.341  1.00  0.00     0.010 A 
ATOM     37  C   UNL A   1      42.593  23.498  26.203  1.00  0.00     0.010 A 
ATOM     38  C   UNL A   1      42.456  23.588  27.595  1.00  0.00    -0.014 A 
BRANCH  38  39
ATOM     39  C   UNL A   1      42.713  24.874  28.290  1.00  0.00     0.031 A 
ATOM     40  C   UNL A   1      44.055  25.209  28.872  1.00  0.00     0.074 A 
ATOM     41  C   UNL A   1      41.690  25.741  28.419  1.00  0.00     0.049 A 
ATOM     42  N   UNL A   1      44.449  26.319  29.446  1.00  0.00    -0.248 NA
ATOM     43  C   UNL A   1      45.085  24.163  28.813  1.00  0.00     0.031 C 
ATOM     44  C   UNL A   1      40.324  25.505  27.946  1.00  0.00     0.029 A 
ATOM     45  N   UNL A   1      41.637  26.990  28.983  1.00  0.00    -0.354 N 
ATOM     46  C   UNL A   1      45.773  26.115  29.806  1.00  0.00     0.074 A 
ATOM     47  C   UNL A   1      46.103  24.755  29.426  1.00  0.00     0.031 C 
ATOM     48  C   UNL A   1      39.576  26.588  28.210  1.00  0.00     0.029 A 
ATOM     49  C   UNL A   1      40.397  27.578  28.897  1.00  0.00     0.049 A 
ATOM     50  H   UNL A   1      42.412  27.425  29.406  1.00  0.00     0.167 HD
ATOM     51  C   UNL A   1      46.636  26.985  30.387  1.00  0.00     0.037 A 
ATOM     52  C   UNL A   1      39.971  28.780  29.327  1.00  0.00     0.037 A 
ATOM     53  C   UNL A   1      46.297  28.331  30.781  1.00  0.00     0.049 A 
ATOM     54  C   UNL A   1      40.942  29.703  30.008  1.00  0.00     0.074 A 
ATOM     55  C   UNL A   1      47.121  29.308  31.316  1.00  0.00     0.029 A 
ATOM     56  N   UNL A   1      45.026  28.884  30.706  1.00  0.00    -0.354 N 
ATOM     57  N   UNL A   1      42.222  29.541  30.235  1.00  0.00    -0.248 NA
ATOM     58  C   UNL A   1      40.406  30.984  30.486  1.00  0.00     0.031 C 
ATOM     59  C   UNL A   1      46.337  30.425  31.626  1.00  0.00     0.029 A 
ATOM     60  C   UNL A   1      45.036  30.171  31.225  1.00  0.00     0.049 A 
ATOM     61  H   UNL A   1      44.233  28.429  30.340  1.00  0.00     0.167 HD
ATOM     62  C   UNL A   1      42.649  30.710  30.854  1.00  0.00     0.074 A 
ATOM     63  C   UNL A   1      41.496  31.581  30.940  1.00  0.00     0.031 C 
ATOM     64  C   UNL A   1      43.884  31.032  31.312  1.00  0.00     0.037 A 
BRANCH  51  65
ATOM     65  C   UNL A   1      48.038  26.510  30.645  1.00  0.00     0.057 A 
ATOM     66  C   UNL A   1      48.343  25.769  31.795  1.00  0.00     0.134 A 
ATOM     67  C   UNL A   1      49.099  26.839  29.790  1.00  0.00     0.134 A 
ATOM     68  F   UNL A   1      47.379  25.431  32.664  1.00  0.00    -0.206 F 
ATOM     69  C   UNL A   1      49.650  25.376  32.086  1.00  0.00     0.040 A 
ATOM     70  C   UNL A   1      50.407  26.428  30.058  1.00  0.00     0.040 A 
ATOM     71  F   UNL A   1      48.877  27.543  28.670  1.00  0.00    -0.206 F 
ATOM     72  C   UNL A   1      50.686  25.700  31.212  1.00  0.00     0.006 A 
ENDBRANCH  51  65
BRANCH  52  73
ATOM     73  C   UNL A   1      38.559  29.194  29.129  1.00  0.00     0.057 A 
ATOM     74  C   UNL A   1      38.091  29.616  27.880  1.00  0.00     0.134 A 
ATOM     75  C   UNL A   1      37.629  29.115  30.173  1.00  0.00     0.134 A 
ATOM     76  F   UNL A   1      38.931  29.722  26.841  1.00  0.00    -0.206 F 
ATOM     77  C   UNL A   1      36.748  29.935  27.673  1.00  0.00     0.040 A 
ATOM     78  C   UNL A   1      36.278  29.400  29.972  1.00  0.00     0.040 A 
ATOM     79  F   UNL A   1      38.014  28.699  31.390  1.00  0.00    -0.206 F 
ATOM     80  C   UNL A   1      35.834  29.811  28.717  1.00  0.00     0.006 A 
ENDBRANCH  52  73
BRANCH  64  81
ATOM     81  C   UNL A   1      44.052  32.397  31.916  1.00  0.00     0.057 A 
ATOM     82  C   UNL A   1      44.235  33.522  31.101  1.00  0.00     0.134 A 
ATOM     83  C   UNL A   1      44.024  32.605  33.303  1.00  0.00     0.134 A 
ATOM     84  F   UNL A   1      44.278  33.397  29.766  1.00  0.00    -0.206 F 
ATOM     85  C   UNL A   1      44.380  34.801  31.641  1.00  0.00     0.040 A 
ATOM     86  C   UNL A   1      44.134  33.884  33.853  1.00  0.00     0.040 A 
ATOM     87  F   UNL A   1      43.836  31.575  34.142  1.00  0.00    -0.206 F 
ATOM     88  C   UNL A   1      44.317  34.987  33.021  1.00  0.00     0.006 A 
ENDBRANCH  64  81
ENDBRANCH  38  39
ENDBRANCH  31  33
ENDBRANCH  30  31
ENDBRANCH  29  30
ENDBRANCH  28  29
ENDBRANCH  27  28
ENDBRANCH   1  27
TORSDOF 18
ENDMDL
MODEL 3
REMARK VINA RESULT:     -10.9      5.016     10.173
REMARK SMILES CC(C)CN(C)c1cc2c(cc1Cl)C=C(C(=O)OCCOCCOC(=O)c1ccc(-c3c4nc(c(-c5c(F)cccc5F)c5ccc([nH]5)c(-c5c(F)cccc5F)c5nc(c(-c6c(F)cccc6F)c6ccc3[nH]6)C=C5)C=C4)cc1)[C@H](C(F)(F)F)O2
REMARK SMILES IDX 20 1 19 2 18 3 16 4 17 5 15 6 7 7 8 8 12 9 9 10 11 11 13 12
REMARK SMILES IDX 10 13 86 14 14 15 81 16 5 17 6 18 4 19 2 20 1 21 3 22 82 23
REMARK SMILES IDX 83 24 84 25 85 26 21 27 22 28 23 29 24 30 25 31 26 32 27 33
REMARK SMILES IDX 28 34 80 35 29 36 79 37 30 38 31 39 32 40 73 41 33 42 78 43
REMARK SMILES IDX 72 44 74 45 34 46 77 47 71 48 70 49 35 51 61 52 44 53 60 54
REMARK SMILES IDX 45 55 48 56 59 57 75 58 46 59 47 60 58 62 76 63 49 64 36 65
REMARK SMILES IDX 37 66 42 67 38 68 39 69 41 70 43 71 40 72 62 73 63 74 68 75
REMARK SMILES IDX 64 76 65 77 67 78 69 79 66 80 50 81 51 82 56 83 52 84 53 85
REMARK SMILES IDX 55 86 57 87 54 88
REMARK H PARENT 74 50 48 61
REMARK Flexibility Score: inf
ROOT
ATOM      1  C   UNL A   1      33.751  34.558  30.094  1.00  0.00     0.202 C 
ENDROOT
BRANCH   1   2
ATOM      2  C   UNL A   1      34.308  33.820  28.878  1.00  0.00     0.261 C 
BRANCH   2   3
ATOM      3  O   UNL A   1      33.758  32.491  28.812  1.00  0.00    -0.460 OA
BRANCH   3   4
ATOM      4  C   UNL A   1      32.991  32.267  27.732  1.00  0.00     0.338 C 
ATOM      5  O   UNL A   1      32.269  33.095  27.194  1.00  0.00    -0.246 OA
BRANCH   4   6
ATOM      6  C   UNL A   1      33.191  30.904  27.191  1.00  0.00     0.087 C 
ATOM      7  C   UNL A   1      31.731  26.660  24.898  1.00  0.00     0.059 A 
ATOM      8  C   UNL A   1      32.743  26.972  25.833  1.00  0.00     0.074 A 
ATOM      9  C   UNL A   1      30.909  27.720  24.463  1.00  0.00     0.065 A 
ATOM     10  C   UNL A   1      32.948  28.285  26.274  1.00  0.00     0.130 A 
ATOM     11  C   UNL A   1      31.202  29.038  24.795  1.00  0.00     0.034 A 
ATOM     12  Cl  UNL A   1      29.425  27.473  23.605  1.00  0.00    -0.082 Cl
ATOM     13  C   UNL A   1      32.222  29.317  25.699  1.00  0.00     0.019 A 
ATOM     14  O   UNL A   1      33.830  28.480  27.301  1.00  0.00    -0.475 OA
ATOM     15  C   UNL A   1      32.401  30.677  26.136  1.00  0.00     0.027 C 
ATOM     16  C   UNL A   1      34.042  29.835  27.835  1.00  0.00     0.316 C 
BRANCH   7  17
ATOM     17  N   UNL A   1      31.548  25.351  24.435  1.00  0.00    -0.373 N 
ATOM     18  C   UNL A   1      30.781  24.465  25.306  1.00  0.00     0.143 C 
BRANCH  17  19
ATOM     19  C   UNL A   1      32.630  24.740  23.628  1.00  0.00     0.119 C 
BRANCH  19  20
ATOM     20  C   UNL A   1      33.455  23.691  24.406  1.00  0.00     0.002 C 
ATOM     21  C   UNL A   1      33.541  22.351  23.667  1.00  0.00     0.009 C 
ATOM     22  C   UNL A   1      34.877  24.177  24.699  1.00  0.00     0.009 C 
ENDBRANCH  19  20
ENDBRANCH  17  19
ENDBRANCH   7  17
BRANCH  16  23
ATOM     23  C   UNL A   1      35.568  30.069  27.785  1.00  0.00     0.430 C 
ATOM     24  F   UNL A   1      35.872  31.337  27.419  1.00  0.00    -0.167 F 
ATOM     25  F   UNL A   1      36.192  29.824  28.955  1.00  0.00    -0.167 F 
ATOM     26  F   UNL A   1      36.149  29.243  26.876  1.00  0.00    -0.167 F 
ENDBRANCH  16  23
ENDBRANCH   4   6
ENDBRANCH   3   4
ENDBRANCH   2   3
ENDBRANCH   1   2
BRANCH   1  27
ATOM     27  O   UNL A   1      34.696  34.909  31.104  1.00  0.00    -0.374 OA
BRANCH  27  28
ATOM     28  C   UNL A   1      34.315  34.688  32.466  1.00  0.00     0.202 C 
BRANCH  28  29
ATOM     29  C   UNL A   1      34.068  33.235  32.892  1.00  0.00     0.261 C 
BRANCH  29  30
ATOM     30  O   UNL A   1      35.069  32.351  32.358  1.00  0.00    -0.460 OA
BRANCH  30  31
ATOM     31  C   UNL A   1      36.232  32.300  33.051  1.00  0.00     0.338 C 
ATOM     32  O   UNL A   1      36.391  32.529  34.241  1.00  0.00    -0.246 OA
BRANCH  31  33
ATOM     33  C   UNL A   1      37.277  31.689  32.203  1.00  0.00     0.060 A 
ATOM     34  C   UNL A   1      37.415  32.013  30.852  1.00  0.00     0.016 A 
ATOM     35  C   UNL A   1      38.140  30.757  32.798  1.00  0.00     0.016 A 
ATOM     36  C   UNL A   1      38.449  31.432  30.110  1.00  0.00     0.010 A 
ATOM     37  C   UNL A   1      39.170  30.180  32.056  1.00  0.00     0.010 A 
ATOM     38  C   UNL A   1      39.349  30.533  30.711  1.00  0.00    -0.014 A 
BRANCH  38  39
ATOM     39  C   UNL A   1      40.557  30.084  29.975  1.00  0.00     0.031 A 
ATOM     40  C   UNL A   1      41.713  31.002  29.711  1.00  0.00     0.074 A 
ATOM     41  C   UNL A   1      40.584  28.820  29.511  1.00  0.00     0.049 A 
ATOM     42  N   UNL A   1      42.863  30.735  29.142  1.00  0.00    -0.248 NA
ATOM     43  C   UNL A   1      41.559  32.403  30.127  1.00  0.00     0.031 C 
ATOM     44  C   UNL A   1      39.497  27.849  29.654  1.00  0.00     0.029 A 
ATOM     45  N   UNL A   1      41.556  28.134  28.828  1.00  0.00    -0.354 N 
ATOM     46  C   UNL A   1      43.577  31.925  29.143  1.00  0.00     0.074 A 
ATOM     47  C   UNL A   1      42.711  32.930  29.728  1.00  0.00     0.031 C 
ATOM     48  C   UNL A   1      39.876  26.683  29.106  1.00  0.00     0.029 A 
ATOM     49  C   UNL A   1      41.213  26.833  28.546  1.00  0.00     0.049 A 
ATOM     50  H   UNL A   1      42.417  28.534  28.567  1.00  0.00     0.167 HD
ATOM     51  C   UNL A   1      44.841  32.154  28.707  1.00  0.00     0.037 A 
ATOM     52  C   UNL A   1      41.901  25.870  27.904  1.00  0.00     0.037 A 
ATOM     53  C   UNL A   1      45.692  31.154  28.108  1.00  0.00     0.049 A 
ATOM     54  C   UNL A   1      43.283  26.171  27.394  1.00  0.00     0.074 A 
ATOM     55  C   UNL A   1      47.009  31.276  27.696  1.00  0.00     0.029 A 
ATOM     56  N   UNL A   1      45.303  29.856  27.811  1.00  0.00    -0.354 N 
ATOM     57  N   UNL A   1      43.990  27.268  27.507  1.00  0.00    -0.248 NA
ATOM     58  C   UNL A   1      43.966  25.089  26.672  1.00  0.00     0.031 C 
ATOM     59  C   UNL A   1      47.394  30.075  27.091  1.00  0.00     0.029 A 
ATOM     60  C   UNL A   1      46.341  29.181  27.182  1.00  0.00     0.049 A 
ATOM     61  H   UNL A   1      44.421  29.470  28.015  1.00  0.00     0.167 HD
ATOM     62  C   UNL A   1      45.209  26.998  26.898  1.00  0.00     0.074 A 
ATOM     63  C   UNL A   1      45.154  25.626  26.442  1.00  0.00     0.031 C 
ATOM     64  C   UNL A   1      46.278  27.815  26.728  1.00  0.00     0.037 A 
BRANCH  51  65
ATOM     65  C   UNL A   1      45.387  33.546  28.852  1.00  0.00     0.057 A 
ATOM     66  C   UNL A   1      45.296  34.465  27.797  1.00  0.00     0.134 A 
ATOM     67  C   UNL A   1      46.061  33.959  30.009  1.00  0.00     0.134 A 
ATOM     68  F   UNL A   1      44.677  34.132  26.654  1.00  0.00    -0.206 F 
ATOM     69  C   UNL A   1      45.855  35.740  27.888  1.00  0.00     0.040 A 
ATOM     70  C   UNL A   1      46.601  35.242  30.121  1.00  0.00     0.040 A 
ATOM     71  F   UNL A   1      46.182  33.132  31.058  1.00  0.00    -0.206 F 
ATOM     72  C   UNL A   1      46.505  36.134  29.056  1.00  0.00     0.006 A 
ENDBRANCH  51  65
BRANCH  52  73
ATOM     73  C   UNL A   1      41.307  24.525  27.706  1.00  0.00     0.057 A 
ATOM     74  C   UNL A   1      40.319  24.298  26.740  1.00  0.00     0.134 A 
ATOM     75  C   UNL A   1      41.759  23.419  28.436  1.00  0.00     0.134 A 
ATOM     76  F   UNL A   1      39.836  25.315  26.012  1.00  0.00    -0.206 F 
ATOM     77  C   UNL A   1      39.812  23.020  26.500  1.00  0.00     0.040 A 
ATOM     78  C   UNL A   1      41.284  22.131  28.185  1.00  0.00     0.040 A 
ATOM     79  F   UNL A   1      42.718  23.570  29.364  1.00  0.00    -0.206 F 
ATOM     80  C   UNL A   1      40.307  21.929  27.213  1.00  0.00     0.006 A 
ENDBRANCH  52  73
BRANCH  64  81
ATOM     81  C   UNL A   1      47.483  27.228  26.049  1.00  0.00     0.057 A 
ATOM     82  C   UNL A   1      47.615  27.285  24.655  1.00  0.00     0.134 A 
ATOM     83  C   UNL A   1      48.518  26.614  26.769  1.00  0.00     0.134 A 
ATOM     84  F   UNL A   1      46.661  27.851  23.901  1.00  0.00    -0.206 F 
ATOM     85  C   UNL A   1      48.733  26.758  24.005  1.00  0.00     0.040 A 
ATOM     86  C   UNL A   1      49.655  26.114  26.132  1.00  0.00     0.040 A 
ATOM     87  F   UNL A   1      48.464  26.540  28.108  1.00  0.00    -0.206 F 
ATOM     88  C   UNL A   1      49.763  26.181  24.744  1.00  0.00     0.006 A 
ENDBRANCH  64  81
ENDBRANCH  38  39
ENDBRANCH  31  33
ENDBRANCH  30  31
ENDBRANCH  29  30
ENDBRANCH  28  29
ENDBRANCH  27  28
ENDBRANCH   1  27
TORSDOF 18
ENDMDL
