MODEL 1
REMARK VINA RESULT:     -11.0      0.000      0.000
REMARK SMILES O=C(OCCOCCOC(=O)[C@@H]1C[N@@H+](CCOc2ccc(F)cc2)C[C@H]1C1CC1)c1ccc(-c2c3nc(c(-c4c(F)cccc4F)c4ccc([nH]4)c(-c4c(F)cccc4F)c4nc(c(-c5c(F)cccc5F)c5ccc2[nH]5)C=C4)C=C3)cc1
REMARK SMILES IDX 7 1 6 2 5 3 4 4 3 5 2 6 1 7 30 8 31 9 83 10 32 11 82 12
REMARK SMILES IDX 33 13 34 14 35 15 76 16 36 17 81 18 75 19 77 20 37 21 80 22
REMARK SMILES IDX 74 23 73 24 38 26 64 27 47 28 63 29 48 30 51 31 62 32 78 33
REMARK SMILES IDX 49 34 50 35 61 37 79 38 52 39 39 40 40 41 45 42 41 43 42 44
REMARK SMILES IDX 44 45 46 46 43 47 65 48 66 49 71 50 67 51 68 52 70 53 72 54
REMARK SMILES IDX 69 55 53 56 54 57 59 58 55 59 56 60 58 61 60 62 57 63 8 64
REMARK SMILES IDX 9 65 10 66 11 67 12 68 13 69 26 70 14 71 25 72 27 74 28 75
REMARK SMILES IDX 29 76 15 77 16 78 17 79 18 80 19 81 24 82 20 83 23 84 21 85
REMARK SMILES IDX 22 86
REMARK H PARENT 77 25 51 36 14 73
REMARK Flexibility Score: inf
ROOT
ATOM      1  C   UNL A   1      33.508  28.871  23.022  1.00  0.00     0.202 C 
ENDROOT
BRANCH   1   2
ATOM      2  O   UNL A   1      33.213  29.329  24.350  1.00  0.00    -0.374 OA
BRANCH   2   3
ATOM      3  C   UNL A   1      31.819  29.460  24.653  1.00  0.00     0.202 C 
BRANCH   3   4
ATOM      4  C   UNL A   1      31.404  30.640  25.543  1.00  0.00     0.261 C 
BRANCH   4   5
ATOM      5  O   UNL A   1      32.107  30.638  26.792  1.00  0.00    -0.460 OA
BRANCH   5   6
ATOM      6  C   UNL A   1      33.008  31.547  27.232  1.00  0.00     0.338 C 
ATOM      7  O   UNL A   1      32.766  32.741  27.073  1.00  0.00    -0.246 OA
BRANCH   6   8
ATOM      8  C   UNL A   1      34.281  31.175  27.921  1.00  0.00     0.060 A 
ATOM      9  C   UNL A   1      34.686  29.872  28.222  1.00  0.00     0.016 A 
ATOM     10  C   UNL A   1      35.162  32.226  28.219  1.00  0.00     0.016 A 
ATOM     11  C   UNL A   1      35.878  29.614  28.874  1.00  0.00     0.010 A 
ATOM     12  C   UNL A   1      36.389  31.975  28.834  1.00  0.00     0.010 A 
ATOM     13  C   UNL A   1      36.733  30.664  29.177  1.00  0.00    -0.014 A 
BRANCH  13  14
ATOM     14  C   UNL A   1      37.949  30.357  29.934  1.00  0.00     0.031 A 
ATOM     15  C   UNL A   1      39.016  29.567  29.255  1.00  0.00     0.074 A 
ATOM     16  C   UNL A   1      38.112  30.892  31.155  1.00  0.00     0.049 A 
ATOM     17  N   UNL A   1      40.103  29.053  29.756  1.00  0.00    -0.248 NA
ATOM     18  C   UNL A   1      38.844  29.331  27.809  1.00  0.00     0.031 C 
ATOM     19  C   UNL A   1      37.172  31.809  31.806  1.00  0.00     0.029 A 
ATOM     20  N   UNL A   1      39.130  30.761  32.058  1.00  0.00    -0.354 N 
ATOM     21  C   UNL A   1      40.719  28.395  28.704  1.00  0.00     0.074 A 
ATOM     22  C   UNL A   1      39.908  28.594  27.526  1.00  0.00     0.031 C 
ATOM     23  C   UNL A   1      37.661  32.160  33.005  1.00  0.00     0.029 A 
ATOM     24  C   UNL A   1      38.896  31.423  33.239  1.00  0.00     0.049 A 
ATOM     25  H   UNL A   1      39.948  30.243  31.880  1.00  0.00     0.167 HD
ATOM     26  C   UNL A   1      41.856  27.667  28.748  1.00  0.00     0.037 A 
ATOM     27  C   UNL A   1      39.580  31.374  34.396  1.00  0.00     0.037 A 
ATOM     28  C   UNL A   1      42.628  27.508  29.948  1.00  0.00     0.049 A 
ATOM     29  C   UNL A   1      40.784  30.474  34.450  1.00  0.00     0.074 A 
ATOM     30  C   UNL A   1      43.763  26.750  30.153  1.00  0.00     0.029 A 
ATOM     31  N   UNL A   1      42.330  28.134  31.152  1.00  0.00    -0.354 N 
ATOM     32  N   UNL A   1      41.324  29.768  33.483  1.00  0.00    -0.248 NA
ATOM     33  C   UNL A   1      41.448  30.324  35.750  1.00  0.00     0.031 C 
ATOM     34  C   UNL A   1      44.128  26.885  31.495  1.00  0.00     0.029 A 
ATOM     35  C   UNL A   1      43.243  27.758  32.115  1.00  0.00     0.049 A 
ATOM     36  H   UNL A   1      41.578  28.753  31.296  1.00  0.00     0.167 HD
ATOM     37  C   UNL A   1      42.384  29.083  34.055  1.00  0.00     0.074 A 
ATOM     38  C   UNL A   1      42.428  29.480  35.450  1.00  0.00     0.031 C 
ATOM     39  C   UNL A   1      43.237  28.193  33.491  1.00  0.00     0.037 A 
BRANCH  26  40
ATOM     40  C   UNL A   1      42.262  26.941  27.506  1.00  0.00     0.057 A 
ATOM     41  C   UNL A   1      43.154  27.537  26.605  1.00  0.00     0.134 A 
ATOM     42  C   UNL A   1      41.783  25.663  27.194  1.00  0.00     0.134 A 
ATOM     43  F   UNL A   1      43.662  28.753  26.854  1.00  0.00    -0.206 F 
ATOM     44  C   UNL A   1      43.546  26.893  25.431  1.00  0.00     0.040 A 
ATOM     45  C   UNL A   1      42.181  25.001  26.030  1.00  0.00     0.040 A 
ATOM     46  F   UNL A   1      40.952  25.026  28.033  1.00  0.00    -0.206 F 
ATOM     47  C   UNL A   1      43.059  25.619  25.141  1.00  0.00     0.006 A 
ENDBRANCH  26  40
BRANCH  27  48
ATOM     48  C   UNL A   1      39.085  32.108  35.588  1.00  0.00     0.057 A 
ATOM     49  C   UNL A   1      39.487  33.427  35.849  1.00  0.00     0.134 A 
ATOM     50  C   UNL A   1      38.222  31.510  36.511  1.00  0.00     0.134 A 
ATOM     51  F   UNL A   1      40.313  34.064  35.006  1.00  0.00    -0.206 F 
ATOM     52  C   UNL A   1      39.073  34.111  36.993  1.00  0.00     0.040 A 
ATOM     53  C   UNL A   1      37.778  32.192  37.647  1.00  0.00     0.040 A 
ATOM     54  F   UNL A   1      37.784  30.258  36.312  1.00  0.00    -0.206 F 
ATOM     55  C   UNL A   1      38.212  33.494  37.896  1.00  0.00     0.006 A 
ENDBRANCH  27  48
BRANCH  39  56
ATOM     56  C   UNL A   1      44.277  27.591  34.378  1.00  0.00     0.057 A 
ATOM     57  C   UNL A   1      43.999  26.435  35.115  1.00  0.00     0.134 A 
ATOM     58  C   UNL A   1      45.500  28.235  34.596  1.00  0.00     0.134 A 
ATOM     59  F   UNL A   1      42.836  25.786  34.954  1.00  0.00    -0.206 F 
ATOM     60  C   UNL A   1      44.896  25.952  36.065  1.00  0.00     0.040 A 
ATOM     61  C   UNL A   1      46.413  27.750  35.529  1.00  0.00     0.040 A 
ATOM     62  F   UNL A   1      45.817  29.343  33.909  1.00  0.00    -0.206 F 
ATOM     63  C   UNL A   1      46.106  26.613  36.277  1.00  0.00     0.006 A 
ENDBRANCH  39  56
ENDBRANCH  13  14
ENDBRANCH   6   8
ENDBRANCH   5   6
ENDBRANCH   4   5
ENDBRANCH   3   4
ENDBRANCH   2   3
ENDBRANCH   1   2
BRANCH   1  64
ATOM     64  C   UNL A   1      33.865  27.389  23.026  1.00  0.00     0.261 C 
BRANCH  64  65
ATOM     65  O   UNL A   1      33.781  26.930  21.668  1.00  0.00    -0.463 OA
BRANCH  65  66
ATOM     66  C   UNL A   1      32.847  25.971  21.456  1.00  0.00     0.315 C 
ATOM     67  O   UNL A   1      32.350  25.725  20.366  1.00  0.00    -0.252 OA
BRANCH  66  68
ATOM     68  C   UNL A   1      32.535  25.175  22.704  1.00  0.00     0.163 C 
ATOM     69  C   UNL A   1      32.933  23.706  22.683  1.00  0.00     0.278 C 
ATOM     70  C   UNL A   1      31.014  25.156  22.908  1.00  0.00     0.067 C 
ATOM     71  N   UNL A   1      31.989  23.025  23.576  1.00  0.00    -0.331 N 
ATOM     72  C   UNL A   1      30.715  23.706  23.356  1.00  0.00     0.267 C 
ATOM     73  H   UNL A   1      31.901  22.034  23.355  1.00  0.00     0.348 HD
BRANCH  70  74
ATOM     74  C   UNL A   1      30.477  26.182  23.876  1.00  0.00    -0.001 C 
ATOM     75  C   UNL A   1      29.506  27.282  23.493  1.00  0.00     0.004 C 
ATOM     76  C   UNL A   1      29.049  26.157  24.368  1.00  0.00     0.004 C 
ENDBRANCH  70  74
BRANCH  71  77
ATOM     77  C   UNL A   1      32.436  22.898  24.980  1.00  0.00     0.304 C 
BRANCH  77  78
ATOM     78  C   UNL A   1      32.739  21.526  25.634  1.00  0.00     0.290 C 
BRANCH  78  79
ATOM     79  O   UNL A   1      31.948  20.479  25.037  1.00  0.00    -0.488 OA
BRANCH  79  80
ATOM     80  C   UNL A   1      32.667  19.498  24.414  1.00  0.00     0.119 A 
ATOM     81  C   UNL A   1      32.087  18.924  23.278  1.00  0.00     0.049 A 
ATOM     82  C   UNL A   1      33.909  19.053  24.869  1.00  0.00     0.049 A 
ATOM     83  C   UNL A   1      32.677  17.808  22.684  1.00  0.00     0.043 A 
ATOM     84  C   UNL A   1      34.508  17.944  24.261  1.00  0.00     0.043 A 
ATOM     85  C   UNL A   1      33.871  17.315  23.195  1.00  0.00     0.123 A 
ATOM     86  F   UNL A   1      34.402  16.202  22.671  1.00  0.00    -0.207 F 
ENDBRANCH  79  80
ENDBRANCH  78  79
ENDBRANCH  77  78
ENDBRANCH  71  77
ENDBRANCH  66  68
ENDBRANCH  65  66
ENDBRANCH  64  65
ENDBRANCH   1  64
TORSDOF 19
ENDMDL
MODEL 2
REMARK VINA RESULT:     -11.0      1.007      2.275
REMARK SMILES O=C(OCCOCCOC(=O)[C@@H]1C[N@@H+](CCOc2ccc(F)cc2)C[C@H]1C1CC1)c1ccc(-c2c3nc(c(-c4c(F)cccc4F)c4ccc([nH]4)c(-c4c(F)cccc4F)c4nc(c(-c5c(F)cccc5F)c5ccc2[nH]5)C=C4)C=C3)cc1
REMARK SMILES IDX 7 1 6 2 5 3 4 4 3 5 2 6 1 7 30 8 31 9 83 10 32 11 82 12
REMARK SMILES IDX 33 13 34 14 35 15 76 16 36 17 81 18 75 19 77 20 37 21 80 22
REMARK SMILES IDX 74 23 73 24 38 26 64 27 47 28 63 29 48 30 51 31 62 32 78 33
REMARK SMILES IDX 49 34 50 35 61 37 79 38 52 39 39 40 40 41 45 42 41 43 42 44
REMARK SMILES IDX 44 45 46 46 43 47 65 48 66 49 71 50 67 51 68 52 70 53 72 54
REMARK SMILES IDX 69 55 53 56 54 57 59 58 55 59 56 60 58 61 60 62 57 63 8 64
REMARK SMILES IDX 9 65 10 66 11 67 12 68 13 69 26 70 14 71 25 72 27 74 28 75
REMARK SMILES IDX 29 76 15 77 16 78 17 79 18 80 19 81 24 82 20 83 23 84 21 85
REMARK SMILES IDX 22 86
REMARK H PARENT 77 25 51 36 14 73
REMARK Flexibility Score: inf
ROOT
ATOM      1  C   UNL A   1      33.260  28.966  23.448  1.00  0.00     0.202 C 
ENDROOT
BRANCH   1   2
ATOM      2  O   UNL A   1      33.179  28.612  24.837  1.00  0.00    -0.374 OA
BRANCH   2   3
ATOM      3  C   UNL A   1      31.908  28.851  25.453  1.00  0.00     0.202 C 
BRANCH   3   4
ATOM      4  C   UNL A   1      31.874  29.833  26.632  1.00  0.00     0.261 C 
BRANCH   4   5
ATOM      5  O   UNL A   1      32.599  31.036  26.343  1.00  0.00    -0.460 OA
BRANCH   5   6
ATOM      6  C   UNL A   1      33.282  31.815  27.213  1.00  0.00     0.338 C 
ATOM      7  O   UNL A   1      32.848  32.937  27.467  1.00  0.00    -0.246 OA
BRANCH   6   8
ATOM      8  C   UNL A   1      34.533  31.376  27.902  1.00  0.00     0.060 A 
ATOM      9  C   UNL A   1      34.812  30.071  28.318  1.00  0.00     0.016 A 
ATOM     10  C   UNL A   1      35.530  32.350  28.073  1.00  0.00     0.016 A 
ATOM     11  C   UNL A   1      35.993  29.750  28.961  1.00  0.00     0.010 A 
ATOM     12  C   UNL A   1      36.745  32.028  28.676  1.00  0.00     0.010 A 
ATOM     13  C   UNL A   1      36.963  30.727  29.137  1.00  0.00    -0.014 A 
BRANCH  13  14
ATOM     14  C   UNL A   1      38.168  30.364  29.888  1.00  0.00     0.031 A 
ATOM     15  C   UNL A   1      39.190  29.520  29.206  1.00  0.00     0.074 A 
ATOM     16  C   UNL A   1      38.364  30.896  31.106  1.00  0.00     0.049 A 
ATOM     17  N   UNL A   1      40.254  28.956  29.704  1.00  0.00    -0.248 NA
ATOM     18  C   UNL A   1      38.998  29.286  27.763  1.00  0.00     0.031 C 
ATOM     19  C   UNL A   1      37.474  31.861  31.757  1.00  0.00     0.029 A 
ATOM     20  N   UNL A   1      39.380  30.720  32.003  1.00  0.00    -0.354 N 
ATOM     21  C   UNL A   1      40.831  28.263  28.651  1.00  0.00     0.074 A 
ATOM     22  C   UNL A   1      40.023  28.497  27.477  1.00  0.00     0.031 C 
ATOM     23  C   UNL A   1      37.987  32.193  32.952  1.00  0.00     0.029 A 
ATOM     24  C   UNL A   1      39.186  31.398  33.182  1.00  0.00     0.049 A 
ATOM     25  H   UNL A   1      40.171  30.162  31.823  1.00  0.00     0.167 HD
ATOM     26  C   UNL A   1      41.931  27.481  28.693  1.00  0.00     0.037 A 
ATOM     27  C   UNL A   1      39.874  31.320  34.336  1.00  0.00     0.037 A 
ATOM     28  C   UNL A   1      42.702  27.290  29.888  1.00  0.00     0.049 A 
ATOM     29  C   UNL A   1      41.033  30.363  34.387  1.00  0.00     0.074 A 
ATOM     30  C   UNL A   1      43.799  26.478  30.090  1.00  0.00     0.029 A 
ATOM     31  N   UNL A   1      42.442  27.935  31.091  1.00  0.00    -0.354 N 
ATOM     32  N   UNL A   1      41.531  29.626  33.420  1.00  0.00    -0.248 NA
ATOM     33  C   UNL A   1      41.697  30.186  35.683  1.00  0.00     0.031 C 
ATOM     34  C   UNL A   1      44.179  26.602  31.430  1.00  0.00     0.029 A 
ATOM     35  C   UNL A   1      43.342  27.519  32.051  1.00  0.00     0.049 A 
ATOM     36  H   UNL A   1      41.722  28.591  31.237  1.00  0.00     0.167 HD
ATOM     37  C   UNL A   1      42.560  28.893  33.988  1.00  0.00     0.074 A 
ATOM     38  C   UNL A   1      42.632  29.294  35.382  1.00  0.00     0.031 C 
ATOM     39  C   UNL A   1      43.365  27.960  33.424  1.00  0.00     0.037 A 
BRANCH  26  40
ATOM     40  C   UNL A   1      42.294  26.730  27.451  1.00  0.00     0.057 A 
ATOM     41  C   UNL A   1      41.825  25.424  27.260  1.00  0.00     0.134 A 
ATOM     42  C   UNL A   1      43.097  27.284  26.448  1.00  0.00     0.134 A 
ATOM     43  F   UNL A   1      41.038  24.842  28.177  1.00  0.00    -0.206 F 
ATOM     44  C   UNL A   1      42.153  24.690  26.120  1.00  0.00     0.040 A 
ATOM     45  C   UNL A   1      43.419  26.565  25.294  1.00  0.00     0.040 A 
ATOM     46  F   UNL A   1      43.550  28.543  26.557  1.00  0.00    -0.206 F 
ATOM     47  C   UNL A   1      42.952  25.261  25.131  1.00  0.00     0.006 A 
ENDBRANCH  26  40
BRANCH  27  48
ATOM     48  C   UNL A   1      39.423  32.083  35.527  1.00  0.00     0.057 A 
ATOM     49  C   UNL A   1      38.469  31.555  36.410  1.00  0.00     0.134 A 
ATOM     50  C   UNL A   1      39.907  33.364  35.804  1.00  0.00     0.134 A 
ATOM     51  F   UNL A   1      37.961  30.330  36.207  1.00  0.00    -0.206 F 
ATOM     52  C   UNL A   1      37.995  32.281  37.504  1.00  0.00     0.040 A 
ATOM     53  C   UNL A   1      39.463  34.093  36.911  1.00  0.00     0.040 A 
ATOM     54  F   UNL A   1      40.836  33.920  35.011  1.00  0.00    -0.206 F 
ATOM     55  C   UNL A   1      38.496  33.555  37.759  1.00  0.00     0.006 A 
ENDBRANCH  27  48
BRANCH  39  56
ATOM     56  C   UNL A   1      44.380  27.313  34.308  1.00  0.00     0.057 A 
ATOM     57  C   UNL A   1      45.672  27.839  34.411  1.00  0.00     0.134 A 
ATOM     58  C   UNL A   1      44.109  26.099  34.948  1.00  0.00     0.134 A 
ATOM     59  F   UNL A   1      45.989  28.993  33.805  1.00  0.00    -0.206 F 
ATOM     60  C   UNL A   1      46.675  27.161  35.101  1.00  0.00     0.040 A 
ATOM     61  C   UNL A   1      45.098  25.422  35.658  1.00  0.00     0.040 A 
ATOM     62  F   UNL A   1      42.884  25.556  34.886  1.00  0.00    -0.206 F 
ATOM     63  C   UNL A   1      46.389  25.946  35.724  1.00  0.00     0.006 A 
ENDBRANCH  39  56
ENDBRANCH  13  14
ENDBRANCH   6   8
ENDBRANCH   5   6
ENDBRANCH   4   5
ENDBRANCH   3   4
ENDBRANCH   2   3
ENDBRANCH   1   2
BRANCH   1  64
ATOM     64  C   UNL A   1      32.742  27.834  22.569  1.00  0.00     0.261 C 
BRANCH  64  65
ATOM     65  O   UNL A   1      33.581  26.694  22.807  1.00  0.00    -0.463 OA
BRANCH  65  66
ATOM     66  C   UNL A   1      33.335  25.636  21.997  1.00  0.00     0.315 C 
ATOM     67  O   UNL A   1      33.275  25.702  20.777  1.00  0.00    -0.252 OA
BRANCH  66  68
ATOM     68  C   UNL A   1      33.219  24.334  22.759  1.00  0.00     0.163 C 
ATOM     69  C   UNL A   1      31.807  23.846  23.050  1.00  0.00     0.278 C 
ATOM     70  C   UNL A   1      33.853  24.516  24.145  1.00  0.00     0.067 C 
ATOM     71  N   UNL A   1      31.903  23.062  24.287  1.00  0.00    -0.331 N 
ATOM     72  C   UNL A   1      32.889  23.772  25.098  1.00  0.00     0.267 C 
ATOM     73  H   UNL A   1      31.011  23.014  24.778  1.00  0.00     0.348 HD
BRANCH  70  74
ATOM     74  C   UNL A   1      35.279  24.037  24.274  1.00  0.00    -0.001 C 
ATOM     75  C   UNL A   1      35.668  22.674  24.813  1.00  0.00     0.004 C 
ATOM     76  C   UNL A   1      35.861  22.983  23.361  1.00  0.00     0.004 C 
ENDBRANCH  70  74
BRANCH  71  77
ATOM     77  C   UNL A   1      32.127  21.613  24.093  1.00  0.00     0.304 C 
BRANCH  77  78
ATOM     78  C   UNL A   1      32.613  20.688  25.238  1.00  0.00     0.290 C 
BRANCH  78  79
ATOM     79  O   UNL A   1      32.036  19.372  25.125  1.00  0.00    -0.488 OA
BRANCH  79  80
ATOM     80  C   UNL A   1      32.942  18.355  25.004  1.00  0.00     0.119 A 
ATOM     81  C   UNL A   1      32.532  17.097  25.456  1.00  0.00     0.049 A 
ATOM     82  C   UNL A   1      34.224  18.530  24.482  1.00  0.00     0.049 A 
ATOM     83  C   UNL A   1      33.449  16.048  25.522  1.00  0.00     0.043 A 
ATOM     84  C   UNL A   1      35.138  17.472  24.532  1.00  0.00     0.043 A 
ATOM     85  C   UNL A   1      34.750  16.252  25.079  1.00  0.00     0.123 A 
ATOM     86  F   UNL A   1      35.651  15.268  25.207  1.00  0.00    -0.207 F 
ENDBRANCH  79  80
ENDBRANCH  78  79
ENDBRANCH  77  78
ENDBRANCH  71  77
ENDBRANCH  66  68
ENDBRANCH  65  66
ENDBRANCH  64  65
ENDBRANCH   1  64
TORSDOF 19
ENDMDL
MODEL 3
REMARK VINA RESULT:     -11.0      3.970      7.584
REMARK SMILES O=C(OCCOCCOC(=O)[C@@H]1C[N@@H+](CCOc2ccc(F)cc2)C[C@H]1C1CC1)c1ccc(-c2c3nc(c(-c4c(F)cccc4F)c4ccc([nH]4)c(-c4c(F)cccc4F)c4nc(c(-c5c(F)cccc5F)c5ccc2[nH]5)C=C4)C=C3)cc1
REMARK SMILES IDX 7 1 6 2 5 3 4 4 3 5 2 6 1 7 30 8 31 9 83 10 32 11 82 12
REMARK SMILES IDX 33 13 34 14 35 15 76 16 36 17 81 18 75 19 77 20 37 21 80 22
REMARK SMILES IDX 74 23 73 24 38 26 64 27 47 28 63 29 48 30 51 31 62 32 78 33
REMARK SMILES IDX 49 34 50 35 61 37 79 38 52 39 39 40 40 41 45 42 41 43 42 44
REMARK SMILES IDX 44 45 46 46 43 47 65 48 66 49 71 50 67 51 68 52 70 53 72 54
REMARK SMILES IDX 69 55 53 56 54 57 59 58 55 59 56 60 58 61 60 62 57 63 8 64
REMARK SMILES IDX 9 65 10 66 11 67 12 68 13 69 26 70 14 71 25 72 27 74 28 75
REMARK SMILES IDX 29 76 15 77 16 78 17 79 18 80 19 81 24 82 20 83 23 84 21 85
REMARK SMILES IDX 22 86
REMARK H PARENT 77 25 51 36 14 73
REMARK Flexibility Score: inf
ROOT
ATOM      1  C   UNL A   1      31.777  32.303  26.909  1.00  0.00     0.202 C 
ENDROOT
BRANCH   1   2
ATOM      2  O   UNL A   1      32.342  33.422  27.610  1.00  0.00    -0.374 OA
BRANCH   2   3
ATOM      3  C   UNL A   1      33.718  33.278  27.979  1.00  0.00     0.202 C 
BRANCH   3   4
ATOM      4  C   UNL A   1      34.091  33.599  29.433  1.00  0.00     0.261 C 
BRANCH   4   5
ATOM      5  O   UNL A   1      34.338  32.410  30.194  1.00  0.00    -0.460 OA
BRANCH   5   6
ATOM      6  C   UNL A   1      35.348  32.185  31.067  1.00  0.00     0.338 C 
ATOM      7  O   UNL A   1      35.205  32.536  32.236  1.00  0.00    -0.246 OA
BRANCH   6   8
ATOM      8  C   UNL A   1      36.628  31.514  30.688  1.00  0.00     0.060 A 
ATOM      9  C   UNL A   1      37.509  30.893  31.578  1.00  0.00     0.016 A 
ATOM     10  C   UNL A   1      36.919  31.447  29.316  1.00  0.00     0.016 A 
ATOM     11  C   UNL A   1      38.682  30.302  31.145  1.00  0.00     0.010 A 
ATOM     12  C   UNL A   1      38.075  30.812  28.863  1.00  0.00     0.010 A 
ATOM     13  C   UNL A   1      38.965  30.257  29.787  1.00  0.00    -0.014 A 
BRANCH  13  14
ATOM     14  C   UNL A   1      40.252  29.690  29.377  1.00  0.00     0.031 A 
ATOM     15  C   UNL A   1      41.454  30.570  29.427  1.00  0.00     0.074 A 
ATOM     16  C   UNL A   1      40.326  28.380  29.087  1.00  0.00     0.049 A 
ATOM     17  N   UNL A   1      42.657  30.343  28.982  1.00  0.00    -0.248 NA
ATOM     18  C   UNL A   1      41.284  31.882  30.079  1.00  0.00     0.031 C 
ATOM     19  C   UNL A   1      39.212  27.432  29.179  1.00  0.00     0.029 A 
ATOM     20  N   UNL A   1      41.382  27.616  28.677  1.00  0.00    -0.354 N 
ATOM     21  C   UNL A   1      43.374  31.498  29.255  1.00  0.00     0.074 A 
ATOM     22  C   UNL A   1      42.488  32.416  29.931  1.00  0.00     0.031 C 
ATOM     23  C   UNL A   1      39.647  26.210  28.837  1.00  0.00     0.029 A 
ATOM     24  C   UNL A   1      41.039  26.311  28.417  1.00  0.00     0.049 A 
ATOM     25  H   UNL A   1      42.297  27.965  28.577  1.00  0.00     0.167 HD
ATOM     26  C   UNL A   1      44.660  31.756  28.934  1.00  0.00     0.037 A 
ATOM     27  C   UNL A   1      41.763  25.335  27.840  1.00  0.00     0.037 A 
ATOM     28  C   UNL A   1      45.500  30.802  28.267  1.00  0.00     0.049 A 
ATOM     29  C   UNL A   1      43.159  25.680  27.396  1.00  0.00     0.074 A 
ATOM     30  C   UNL A   1      46.798  30.951  27.825  1.00  0.00     0.029 A 
ATOM     31  N   UNL A   1      45.104  29.508  27.951  1.00  0.00    -0.354 N 
ATOM     32  N   UNL A   1      43.818  26.804  27.563  1.00  0.00    -0.248 NA
ATOM     33  C   UNL A   1      43.896  24.653  26.651  1.00  0.00     0.031 C 
ATOM     34  C   UNL A   1      47.176  29.757  27.204  1.00  0.00     0.029 A 
ATOM     35  C   UNL A   1      46.125  28.853  27.293  1.00  0.00     0.049 A 
ATOM     36  H   UNL A   1      44.227  29.116  28.164  1.00  0.00     0.167 HD
ATOM     37  C   UNL A   1      45.042  26.626  26.939  1.00  0.00     0.074 A 
ATOM     38  C   UNL A   1      45.045  25.274  26.412  1.00  0.00     0.031 C 
ATOM     39  C   UNL A   1      46.069  27.500  26.795  1.00  0.00     0.037 A 
BRANCH  26  40
ATOM     40  C   UNL A   1      45.184  33.127  29.221  1.00  0.00     0.057 A 
ATOM     41  C   UNL A   1      45.903  33.371  30.397  1.00  0.00     0.134 A 
ATOM     42  C   UNL A   1      44.985  34.203  28.348  1.00  0.00     0.134 A 
ATOM     43  F   UNL A   1      46.142  32.378  31.268  1.00  0.00    -0.206 F 
ATOM     44  C   UNL A   1      46.396  34.640  30.702  1.00  0.00     0.040 A 
ATOM     45  C   UNL A   1      45.488  35.475  28.634  1.00  0.00     0.040 A 
ATOM     46  F   UNL A   1      44.332  34.027  27.189  1.00  0.00    -0.206 F 
ATOM     47  C   UNL A   1      46.190  35.697  29.818  1.00  0.00     0.006 A 
ENDBRANCH  26  40
BRANCH  27  48
ATOM     48  C   UNL A   1      41.150  24.010  27.568  1.00  0.00     0.057 A 
ATOM     49  C   UNL A   1      41.542  22.868  28.282  1.00  0.00     0.134 A 
ATOM     50  C   UNL A   1      40.180  23.841  26.577  1.00  0.00     0.134 A 
ATOM     51  F   UNL A   1      42.467  22.956  29.250  1.00  0.00    -0.206 F 
ATOM     52  C   UNL A   1      41.014  21.606  28.002  1.00  0.00     0.040 A 
ATOM     53  C   UNL A   1      39.622  22.589  26.303  1.00  0.00     0.040 A 
ATOM     54  F   UNL A   1      39.746  24.895  25.870  1.00  0.00    -0.206 F 
ATOM     55  C   UNL A   1      40.047  21.465  27.011  1.00  0.00     0.006 A 
ENDBRANCH  27  48
BRANCH  39  56
ATOM     56  C   UNL A   1      47.266  27.024  26.040  1.00  0.00     0.057 A 
ATOM     57  C   UNL A   1      48.325  26.399  26.708  1.00  0.00     0.134 A 
ATOM     58  C   UNL A   1      47.418  27.305  24.678  1.00  0.00     0.134 A 
ATOM     59  F   UNL A   1      48.236  26.120  28.017  1.00  0.00    -0.206 F 
ATOM     60  C   UNL A   1      49.514  26.094  26.048  1.00  0.00     0.040 A 
ATOM     61  C   UNL A   1      48.595  26.986  24.004  1.00  0.00     0.040 A 
ATOM     62  F   UNL A   1      46.429  27.895  23.991  1.00  0.00    -0.206 F 
ATOM     63  C   UNL A   1      49.652  26.392  24.693  1.00  0.00     0.006 A 
ENDBRANCH  39  56
ENDBRANCH  13  14
ENDBRANCH   6   8
ENDBRANCH   5   6
ENDBRANCH   4   5
ENDBRANCH   3   4
ENDBRANCH   2   3
ENDBRANCH   1   2
BRANCH   1  64
ATOM     64  C   UNL A   1      32.653  31.066  27.069  1.00  0.00     0.261 C 
BRANCH  64  65
ATOM     65  O   UNL A   1      32.355  30.191  25.971  1.00  0.00    -0.463 OA
BRANCH  65  66
ATOM     66  C   UNL A   1      31.835  28.993  26.333  1.00  0.00     0.315 C 
ATOM     67  O   UNL A   1      31.513  28.699  27.476  1.00  0.00    -0.252 OA
BRANCH  66  68
ATOM     68  C   UNL A   1      31.615  28.073  25.153  1.00  0.00     0.163 C 
ATOM     69  C   UNL A   1      32.764  27.136  24.804  1.00  0.00     0.278 C 
ATOM     70  C   UNL A   1      31.424  28.927  23.892  1.00  0.00     0.067 C 
ATOM     71  N   UNL A   1      32.655  26.893  23.361  1.00  0.00    -0.331 N 
ATOM     72  C   UNL A   1      32.220  28.171  22.802  1.00  0.00     0.267 C 
ATOM     73  H   UNL A   1      33.548  26.616  22.953  1.00  0.00     0.348 HD
BRANCH  70  74
ATOM     74  C   UNL A   1      29.990  29.178  23.490  1.00  0.00    -0.001 C 
ATOM     75  C   UNL A   1      29.373  30.558  23.370  1.00  0.00     0.004 C 
ATOM     76  C   UNL A   1      29.619  29.743  22.139  1.00  0.00     0.004 C 
ENDBRANCH  70  74
BRANCH  71  77
ATOM     77  C   UNL A   1      31.862  25.702  22.986  1.00  0.00     0.304 C 
BRANCH  77  78
ATOM     78  C   UNL A   1      32.381  24.257  23.202  1.00  0.00     0.290 C 
BRANCH  78  79
ATOM     79  O   UNL A   1      33.756  24.131  22.788  1.00  0.00    -0.488 OA
BRANCH  79  80
ATOM     80  C   UNL A   1      34.495  23.237  23.511  1.00  0.00     0.119 A 
ATOM     81  C   UNL A   1      35.884  23.319  23.372  1.00  0.00     0.049 A 
ATOM     82  C   UNL A   1      33.928  22.267  24.338  1.00  0.00     0.049 A 
ATOM     83  C   UNL A   1      36.699  22.341  23.943  1.00  0.00     0.043 A 
ATOM     84  C   UNL A   1      34.749  21.296  24.925  1.00  0.00     0.043 A 
ATOM     85  C   UNL A   1      36.121  21.326  24.696  1.00  0.00     0.123 A 
ATOM     86  F   UNL A   1      36.894  20.347  25.186  1.00  0.00    -0.207 F 
ENDBRANCH  79  80
ENDBRANCH  78  79
ENDBRANCH  77  78
ENDBRANCH  71  77
ENDBRANCH  66  68
ENDBRANCH  65  66
ENDBRANCH  64  65
ENDBRANCH   1  64
TORSDOF 19
ENDMDL
