MODEL 1
REMARK VINA RESULT:      -9.7      0.000      0.000
REMARK SMILES CSCC(=O)Nc1cc(C(F)(F)F)ccc1C(=O)OCCOCCOC(=O)c1ccc(-c2c3nc(c(-c4c(F)cccc4F)c4ccc([nH]4)c(-c4c(F)cccc4F)c4nc(c(-c5c(F)cccc5F)c5ccc2[nH]5)C=C4)C=C3)cc1
REMARK SMILES IDX 21 1 20 2 19 3 17 4 18 5 16 6 7 7 8 8 9 9 15 10 14 11 6 12
REMARK SMILES IDX 4 13 5 14 3 16 2 17 1 18 10 19 11 20 12 21 13 22 22 23 23 24
REMARK SMILES IDX 24 25 25 26 26 27 27 28 28 29 29 30 81 31 30 32 80 33 31 34
REMARK SMILES IDX 32 35 33 36 74 37 34 38 79 39 73 40 75 41 35 42 78 43 72 44
REMARK SMILES IDX 71 45 36 47 62 48 45 49 61 50 46 51 49 52 60 53 76 54 47 55
REMARK SMILES IDX 48 56 59 58 77 59 50 60 37 61 38 62 43 63 39 64 40 65 42 66
REMARK SMILES IDX 44 67 41 68 63 69 64 70 69 71 65 72 66 73 68 74 70 75 67 76
REMARK SMILES IDX 51 77 52 78 57 79 53 80 54 81 56 82 58 83 55 84
REMARK H PARENT 6 15 75 46 49 57
REMARK Flexibility Score: inf
ROOT
ATOM      1  C   UNL A   1      33.863  23.645  23.680  1.00  0.00     0.202 C 
ENDROOT
BRANCH   1   2
ATOM      2  C   UNL A   1      32.845  24.247  22.706  1.00  0.00     0.261 C 
BRANCH   2   3
ATOM      3  O   UNL A   1      32.328  25.566  22.895  1.00  0.00    -0.460 OA
BRANCH   3   4
ATOM      4  C   UNL A   1      33.122  26.636  22.699  1.00  0.00     0.340 C 
ATOM      5  O   UNL A   1      33.717  26.927  21.676  1.00  0.00    -0.246 OA
BRANCH   4   6
ATOM      6  C   UNL A   1      33.047  27.487  23.910  1.00  0.00     0.083 A 
ATOM      7  C   UNL A   1      32.515  28.791  23.915  1.00  0.00     0.056 A 
ATOM      8  C   UNL A   1      32.836  29.635  24.993  1.00  0.00     0.040 A 
ATOM      9  C   UNL A   1      33.546  29.160  26.114  1.00  0.00     0.058 A 
ATOM     10  C   UNL A   1      33.712  26.992  25.043  1.00  0.00     0.018 A 
ATOM     11  C   UNL A   1      33.947  27.819  26.141  1.00  0.00     0.014 A 
BRANCH   7  12
ATOM     12  N   UNL A   1      31.784  29.383  22.863  1.00  0.00    -0.325 N 
ATOM     13  C   UNL A   1      30.435  29.563  22.683  1.00  0.00     0.234 C 
ATOM     14  O   UNL A   1      29.996  29.434  21.531  1.00  0.00    -0.274 OA
ATOM     15  H   UNL A   1      32.339  29.728  22.127  1.00  0.00     0.169 HD
BRANCH  13  16
ATOM     16  C   UNL A   1      29.565  30.249  23.733  1.00  0.00     0.169 C 
BRANCH  16  17
ATOM     17  S   UNL A   1      28.099  31.187  23.273  1.00  0.00    -0.155 SA
ATOM     18  C   UNL A   1      28.812  32.733  22.624  1.00  0.00     0.085 C 
ENDBRANCH  16  17
ENDBRANCH  13  16
ENDBRANCH   7  12
BRANCH   9  19
ATOM     19  C   UNL A   1      33.893  30.092  27.254  1.00  0.00     0.416 C 
ATOM     20  F   UNL A   1      34.360  29.420  28.342  1.00  0.00    -0.166 F 
ATOM     21  F   UNL A   1      34.862  30.988  26.922  1.00  0.00    -0.166 F 
ATOM     22  F   UNL A   1      32.835  30.828  27.695  1.00  0.00    -0.166 F 
ENDBRANCH   9  19
ENDBRANCH   4   6
ENDBRANCH   3   4
ENDBRANCH   2   3
ENDBRANCH   1   2
BRANCH   1  23
ATOM     23  O   UNL A   1      34.913  22.766  23.327  1.00  0.00    -0.374 OA
BRANCH  23  24
ATOM     24  C   UNL A   1      35.787  22.213  24.283  1.00  0.00     0.202 C 
BRANCH  24  25
ATOM     25  C   UNL A   1      36.215  23.076  25.475  1.00  0.00     0.261 C 
BRANCH  25  26
ATOM     26  O   UNL A   1      37.419  23.834  25.305  1.00  0.00    -0.460 OA
BRANCH  26  27
ATOM     27  C   UNL A   1      38.514  23.312  25.907  1.00  0.00     0.338 C 
ATOM     28  O   UNL A   1      38.965  22.187  25.781  1.00  0.00    -0.246 OA
BRANCH  27  29
ATOM     29  C   UNL A   1      39.182  24.362  26.699  1.00  0.00     0.060 A 
ATOM     30  C   UNL A   1      38.899  24.447  28.068  1.00  0.00     0.016 A 
ATOM     31  C   UNL A   1      40.022  25.297  26.088  1.00  0.00     0.016 A 
ATOM     32  C   UNL A   1      39.426  25.489  28.827  1.00  0.00     0.010 A 
ATOM     33  C   UNL A   1      40.529  26.358  26.845  1.00  0.00     0.010 A 
ATOM     34  C   UNL A   1      40.200  26.478  28.206  1.00  0.00    -0.014 A 
BRANCH  34  35
ATOM     35  C   UNL A   1      40.482  27.738  28.932  1.00  0.00     0.031 A 
ATOM     36  C   UNL A   1      41.812  27.882  29.619  1.00  0.00     0.074 A 
ATOM     37  C   UNL A   1      39.591  28.745  28.957  1.00  0.00     0.049 A 
ATOM     38  N   UNL A   1      42.263  28.854  30.369  1.00  0.00    -0.248 NA
ATOM     39  C   UNL A   1      42.763  26.773  29.436  1.00  0.00     0.031 C 
ATOM     40  C   UNL A   1      38.296  28.743  28.281  1.00  0.00     0.029 A 
ATOM     41  N   UNL A   1      39.645  29.962  29.587  1.00  0.00    -0.354 N 
ATOM     42  C   UNL A   1      43.540  28.469  30.757  1.00  0.00     0.074 A 
ATOM     43  C   UNL A   1      43.786  27.165  30.181  1.00  0.00     0.031 C 
ATOM     44  C   UNL A   1      37.667  29.901  28.547  1.00  0.00     0.029 A 
ATOM     45  C   UNL A   1      38.499  30.705  29.442  1.00  0.00     0.049 A 
ATOM     46  H   UNL A   1      40.430  30.274  30.094  1.00  0.00     0.167 HD
ATOM     47  C   UNL A   1      44.428  29.144  31.524  1.00  0.00     0.037 A 
ATOM     48  C   UNL A   1      38.154  31.883  29.997  1.00  0.00     0.037 A 
ATOM     49  C   UNL A   1      44.176  30.441  32.093  1.00  0.00     0.049 A 
ATOM     50  C   UNL A   1      39.129  32.580  30.911  1.00  0.00     0.074 A 
ATOM     51  C   UNL A   1      45.014  31.218  32.871  1.00  0.00     0.029 A 
ATOM     52  N   UNL A   1      42.990  31.147  31.951  1.00  0.00    -0.354 N 
ATOM     53  N   UNL A   1      40.339  32.217  31.266  1.00  0.00    -0.248 NA
ATOM     54  C   UNL A   1      38.690  33.852  31.505  1.00  0.00     0.031 C 
ATOM     55  C   UNL A   1      44.314  32.366  33.253  1.00  0.00     0.029 A 
ATOM     56  C   UNL A   1      43.063  32.337  32.655  1.00  0.00     0.049 A 
ATOM     57  H   UNL A   1      42.212  30.847  31.428  1.00  0.00     0.167 HD
ATOM     58  C   UNL A   1      40.815  33.225  32.095  1.00  0.00     0.074 A 
ATOM     59  C   UNL A   1      39.768  34.222  32.181  1.00  0.00     0.031 C 
ATOM     60  C   UNL A   1      42.012  33.322  32.725  1.00  0.00     0.037 A 
BRANCH  47  61
ATOM     61  C   UNL A   1      45.736  28.472  31.825  1.00  0.00     0.057 A 
ATOM     62  C   UNL A   1      46.873  28.655  31.027  1.00  0.00     0.134 A 
ATOM     63  C   UNL A   1      45.866  27.648  32.951  1.00  0.00     0.134 A 
ATOM     64  F   UNL A   1      46.814  29.419  29.925  1.00  0.00    -0.206 F 
ATOM     65  C   UNL A   1      48.083  28.025  31.323  1.00  0.00     0.040 A 
ATOM     66  C   UNL A   1      47.078  27.035  33.273  1.00  0.00     0.040 A 
ATOM     67  F   UNL A   1      44.819  27.430  33.760  1.00  0.00    -0.206 F 
ATOM     68  C   UNL A   1      48.190  27.219  32.454  1.00  0.00     0.006 A 
ENDBRANCH  47  61
BRANCH  48  69
ATOM     69  C   UNL A   1      36.814  32.467  29.730  1.00  0.00     0.057 A 
ATOM     70  C   UNL A   1      36.628  33.437  28.737  1.00  0.00     0.134 A 
ATOM     71  C   UNL A   1      35.691  32.084  30.473  1.00  0.00     0.134 A 
ATOM     72  F   UNL A   1      37.668  33.865  28.008  1.00  0.00    -0.206 F 
ATOM     73  C   UNL A   1      35.378  34.016  28.505  1.00  0.00     0.040 A 
ATOM     74  C   UNL A   1      34.430  32.633  30.232  1.00  0.00     0.040 A 
ATOM     75  F   UNL A   1      35.801  31.162  31.440  1.00  0.00    -0.206 F 
ATOM     76  C   UNL A   1      34.273  33.608  29.250  1.00  0.00     0.006 A 
ENDBRANCH  48  69
BRANCH  60  77
ATOM     77  C   UNL A   1      42.274  34.563  33.530  1.00  0.00     0.057 A 
ATOM     78  C   UNL A   1      42.035  34.621  34.908  1.00  0.00     0.134 A 
ATOM     79  C   UNL A   1      42.822  35.700  32.921  1.00  0.00     0.134 A 
ATOM     80  F   UNL A   1      41.503  33.570  35.551  1.00  0.00    -0.206 F 
ATOM     81  C   UNL A   1      42.309  35.773  35.647  1.00  0.00     0.040 A 
ATOM     82  C   UNL A   1      43.129  36.847  33.655  1.00  0.00     0.040 A 
ATOM     83  F   UNL A   1      43.088  35.709  31.605  1.00  0.00    -0.206 F 
ATOM     84  C   UNL A   1      42.866  36.887  35.022  1.00  0.00     0.006 A 
ENDBRANCH  60  77
ENDBRANCH  34  35
ENDBRANCH  27  29
ENDBRANCH  26  27
ENDBRANCH  25  26
ENDBRANCH  24  25
ENDBRANCH  23  24
ENDBRANCH   1  23
TORSDOF 18
ENDMDL
MODEL 2
REMARK VINA RESULT:      -9.6      4.560      8.850
REMARK SMILES CSCC(=O)Nc1cc(C(F)(F)F)ccc1C(=O)OCCOCCOC(=O)c1ccc(-c2c3nc(c(-c4c(F)cccc4F)c4ccc([nH]4)c(-c4c(F)cccc4F)c4nc(c(-c5c(F)cccc5F)c5ccc2[nH]5)C=C4)C=C3)cc1
REMARK SMILES IDX 21 1 20 2 19 3 17 4 18 5 16 6 7 7 8 8 9 9 15 10 14 11 6 12
REMARK SMILES IDX 4 13 5 14 3 16 2 17 1 18 10 19 11 20 12 21 13 22 22 23 23 24
REMARK SMILES IDX 24 25 25 26 26 27 27 28 28 29 29 30 81 31 30 32 80 33 31 34
REMARK SMILES IDX 32 35 33 36 74 37 34 38 79 39 73 40 75 41 35 42 78 43 72 44
REMARK SMILES IDX 71 45 36 47 62 48 45 49 61 50 46 51 49 52 60 53 76 54 47 55
REMARK SMILES IDX 48 56 59 58 77 59 50 60 37 61 38 62 43 63 39 64 40 65 42 66
REMARK SMILES IDX 44 67 41 68 63 69 64 70 69 71 65 72 66 73 68 74 70 75 67 76
REMARK SMILES IDX 51 77 52 78 57 79 53 80 54 81 56 82 58 83 55 84
REMARK H PARENT 6 15 75 46 49 57
REMARK Flexibility Score: inf
ROOT
ATOM      1  C   UNL A   1      33.052  35.958  30.818  1.00  0.00     0.202 C 
ENDROOT
BRANCH   1   2
ATOM      2  C   UNL A   1      33.223  35.909  29.296  1.00  0.00     0.261 C 
BRANCH   2   3
ATOM      3  O   UNL A   1      33.905  34.827  28.659  1.00  0.00    -0.460 OA
BRANCH   3   4
ATOM      4  C   UNL A   1      33.206  33.881  28.005  1.00  0.00     0.340 C 
ATOM      5  O   UNL A   1      32.068  33.976  27.580  1.00  0.00    -0.246 OA
BRANCH   4   6
ATOM      6  C   UNL A   1      34.109  32.730  27.765  1.00  0.00     0.083 A 
ATOM      7  C   UNL A   1      33.655  31.435  27.453  1.00  0.00     0.056 A 
ATOM      8  C   UNL A   1      34.546  30.359  27.622  1.00  0.00     0.040 A 
ATOM      9  C   UNL A   1      35.899  30.571  27.954  1.00  0.00     0.058 A 
ATOM     10  C   UNL A   1      35.465  32.953  28.047  1.00  0.00     0.018 A 
ATOM     11  C   UNL A   1      36.355  31.883  28.128  1.00  0.00     0.014 A 
BRANCH   7  12
ATOM     12  N   UNL A   1      32.331  31.091  27.101  1.00  0.00    -0.325 N 
ATOM     13  C   UNL A   1      31.797  30.620  25.927  1.00  0.00     0.234 C 
ATOM     14  O   UNL A   1      30.671  31.035  25.614  1.00  0.00    -0.274 OA
ATOM     15  H   UNL A   1      31.676  31.210  27.826  1.00  0.00     0.169 HD
BRANCH  13  16
ATOM     16  C   UNL A   1      32.351  29.383  25.226  1.00  0.00     0.169 C 
BRANCH  16  17
ATOM     17  S   UNL A   1      31.263  28.135  24.521  1.00  0.00    -0.155 SA
ATOM     18  C   UNL A   1      31.252  28.581  22.754  1.00  0.00     0.085 C 
ENDBRANCH  16  17
ENDBRANCH  13  16
ENDBRANCH   7  12
BRANCH   9  19
ATOM     19  C   UNL A   1      36.833  29.397  28.148  1.00  0.00     0.416 C 
ATOM     20  F   UNL A   1      36.994  29.080  29.462  1.00  0.00    -0.166 F 
ATOM     21  F   UNL A   1      36.385  28.264  27.542  1.00  0.00    -0.166 F 
ATOM     22  F   UNL A   1      38.087  29.613  27.660  1.00  0.00    -0.166 F 
ENDBRANCH   9  19
ENDBRANCH   4   6
ENDBRANCH   3   4
ENDBRANCH   2   3
ENDBRANCH   1   2
BRANCH   1  23
ATOM     23  O   UNL A   1      33.265  34.873  31.700  1.00  0.00    -0.374 OA
BRANCH  23  24
ATOM     24  C   UNL A   1      34.553  34.393  32.006  1.00  0.00     0.202 C 
BRANCH  24  25
ATOM     25  C   UNL A   1      34.805  32.882  31.964  1.00  0.00     0.261 C 
BRANCH  25  26
ATOM     26  O   UNL A   1      35.575  32.341  33.044  1.00  0.00    -0.460 OA
BRANCH  26  27
ATOM     27  C   UNL A   1      36.845  32.805  33.131  1.00  0.00     0.338 C 
ATOM     28  O   UNL A   1      37.272  33.661  33.885  1.00  0.00    -0.246 OA
BRANCH  27  29
ATOM     29  C   UNL A   1      37.709  32.033  32.218  1.00  0.00     0.060 A 
ATOM     30  C   UNL A   1      38.325  30.873  32.703  1.00  0.00     0.016 A 
ATOM     31  C   UNL A   1      37.966  32.484  30.921  1.00  0.00     0.016 A 
ATOM     32  C   UNL A   1      39.230  30.178  31.906  1.00  0.00     0.010 A 
ATOM     33  C   UNL A   1      38.895  31.801  30.131  1.00  0.00     0.010 A 
ATOM     34  C   UNL A   1      39.558  30.669  30.637  1.00  0.00    -0.014 A 
BRANCH  34  35
ATOM     35  C   UNL A   1      40.743  30.123  29.933  1.00  0.00     0.031 A 
ATOM     36  C   UNL A   1      41.911  31.039  29.688  1.00  0.00     0.074 A 
ATOM     37  C   UNL A   1      40.795  28.838  29.545  1.00  0.00     0.049 A 
ATOM     38  N   UNL A   1      43.024  30.817  29.040  1.00  0.00    -0.248 NA
ATOM     39  C   UNL A   1      41.805  32.395  30.254  1.00  0.00     0.031 C 
ATOM     40  C   UNL A   1      39.750  27.843  29.778  1.00  0.00     0.029 A 
ATOM     41  N   UNL A   1      41.770  28.154  28.864  1.00  0.00    -0.354 N 
ATOM     42  C   UNL A   1      43.742  32.004  29.106  1.00  0.00     0.074 A 
ATOM     43  C   UNL A   1      42.931  32.953  29.838  1.00  0.00     0.031 C 
ATOM     44  C   UNL A   1      40.135  26.676  29.232  1.00  0.00     0.029 A 
ATOM     45  C   UNL A   1      41.431  26.854  28.579  1.00  0.00     0.049 A 
ATOM     46  H   UNL A   1      42.631  28.557  28.605  1.00  0.00     0.167 HD
ATOM     47  C   UNL A   1      44.968  32.277  28.603  1.00  0.00     0.037 A 
ATOM     48  C   UNL A   1      42.082  25.930  27.847  1.00  0.00     0.037 A 
ATOM     49  C   UNL A   1      45.769  31.327  27.877  1.00  0.00     0.049 A 
ATOM     50  C   UNL A   1      43.411  26.281  27.230  1.00  0.00     0.074 A 
ATOM     51  C   UNL A   1      47.032  31.498  27.339  1.00  0.00     0.029 A 
ATOM     52  N   UNL A   1      45.377  30.031  27.579  1.00  0.00    -0.354 N 
ATOM     53  N   UNL A   1      44.090  27.402  27.305  1.00  0.00    -0.248 NA
ATOM     54  C   UNL A   1      44.066  25.240  26.424  1.00  0.00     0.031 C 
ATOM     55  C   UNL A   1      47.378  30.326  26.661  1.00  0.00     0.029 A 
ATOM     56  C   UNL A   1      46.361  29.400  26.836  1.00  0.00     0.049 A 
ATOM     57  H   UNL A   1      44.526  29.620  27.855  1.00  0.00     0.167 HD
ATOM     58  C   UNL A   1      45.261  27.190  26.586  1.00  0.00     0.074 A 
ATOM     59  C   UNL A   1      45.206  25.830  26.092  1.00  0.00     0.031 C 
ATOM     60  C   UNL A   1      46.291  28.042  26.358  1.00  0.00     0.037 A 
BRANCH  47  61
ATOM     61  C   UNL A   1      45.499  33.670  28.785  1.00  0.00     0.057 A 
ATOM     62  C   UNL A   1      45.237  34.696  27.868  1.00  0.00     0.134 A 
ATOM     63  C   UNL A   1      46.264  33.995  29.913  1.00  0.00     0.134 A 
ATOM     64  F   UNL A   1      44.525  34.451  26.758  1.00  0.00    -0.206 F 
ATOM     65  C   UNL A   1      45.736  35.987  28.054  1.00  0.00     0.040 A 
ATOM     66  C   UNL A   1      46.744  35.288  30.125  1.00  0.00     0.040 A 
ATOM     67  F   UNL A   1      46.551  33.062  30.833  1.00  0.00    -0.206 F 
ATOM     68  C   UNL A   1      46.484  36.288  29.190  1.00  0.00     0.006 A 
ENDBRANCH  47  61
BRANCH  48  69
ATOM     69  C   UNL A   1      41.476  24.591  27.630  1.00  0.00     0.057 A 
ATOM     70  C   UNL A   1      40.463  24.394  26.684  1.00  0.00     0.134 A 
ATOM     71  C   UNL A   1      41.881  23.478  28.378  1.00  0.00     0.134 A 
ATOM     72  F   UNL A   1      40.013  25.424  25.953  1.00  0.00    -0.206 F 
ATOM     73  C   UNL A   1      39.864  23.146  26.501  1.00  0.00     0.040 A 
ATOM     74  C   UNL A   1      41.311  22.218  28.186  1.00  0.00     0.040 A 
ATOM     75  F   UNL A   1      42.845  23.598  29.303  1.00  0.00    -0.206 F 
ATOM     76  C   UNL A   1      40.294  22.051  27.249  1.00  0.00     0.006 A 
ENDBRANCH  48  69
BRANCH  60  77
ATOM     77  C   UNL A   1      47.462  27.519  25.575  1.00  0.00     0.057 A 
ATOM     78  C   UNL A   1      48.549  26.889  26.192  1.00  0.00     0.134 A 
ATOM     79  C   UNL A   1      47.475  27.607  24.176  1.00  0.00     0.134 A 
ATOM     80  F   UNL A   1      48.604  26.781  27.528  1.00  0.00    -0.206 F 
ATOM     81  C   UNL A   1      49.618  26.385  25.448  1.00  0.00     0.040 A 
ATOM     82  C   UNL A   1      48.522  27.078  23.420  1.00  0.00     0.040 A 
ATOM     83  F   UNL A   1      46.459  28.188  23.519  1.00  0.00    -0.206 F 
ATOM     84  C   UNL A   1      49.602  26.471  24.057  1.00  0.00     0.006 A 
ENDBRANCH  60  77
ENDBRANCH  34  35
ENDBRANCH  27  29
ENDBRANCH  26  27
ENDBRANCH  25  26
ENDBRANCH  24  25
ENDBRANCH  23  24
ENDBRANCH   1  23
TORSDOF 18
ENDMDL
MODEL 3
REMARK VINA RESULT:      -9.4      3.492      7.093
REMARK SMILES CSCC(=O)Nc1cc(C(F)(F)F)ccc1C(=O)OCCOCCOC(=O)c1ccc(-c2c3nc(c(-c4c(F)cccc4F)c4ccc([nH]4)c(-c4c(F)cccc4F)c4nc(c(-c5c(F)cccc5F)c5ccc2[nH]5)C=C4)C=C3)cc1
REMARK SMILES IDX 21 1 20 2 19 3 17 4 18 5 16 6 7 7 8 8 9 9 15 10 14 11 6 12
REMARK SMILES IDX 4 13 5 14 3 16 2 17 1 18 10 19 11 20 12 21 13 22 22 23 23 24
REMARK SMILES IDX 24 25 25 26 26 27 27 28 28 29 29 30 81 31 30 32 80 33 31 34
REMARK SMILES IDX 32 35 33 36 74 37 34 38 79 39 73 40 75 41 35 42 78 43 72 44
REMARK SMILES IDX 71 45 36 47 62 48 45 49 61 50 46 51 49 52 60 53 76 54 47 55
REMARK SMILES IDX 48 56 59 58 77 59 50 60 37 61 38 62 43 63 39 64 40 65 42 66
REMARK SMILES IDX 44 67 41 68 63 69 64 70 69 71 65 72 66 73 68 74 70 75 67 76
REMARK SMILES IDX 51 77 52 78 57 79 53 80 54 81 56 82 58 83 55 84
REMARK H PARENT 6 15 75 46 49 57
REMARK Flexibility Score: inf
ROOT
ATOM      1  C   UNL A   1      32.903  29.112  27.518  1.00  0.00     0.202 C 
ENDROOT
BRANCH   1   2
ATOM      2  C   UNL A   1      33.912  28.455  26.570  1.00  0.00     0.261 C 
BRANCH   2   3
ATOM      3  O   UNL A   1      33.619  27.220  25.915  1.00  0.00    -0.460 OA
BRANCH   3   4
ATOM      4  C   UNL A   1      33.932  27.054  24.616  1.00  0.00     0.340 C 
ATOM      5  O   UNL A   1      34.186  27.931  23.808  1.00  0.00    -0.246 OA
BRANCH   4   6
ATOM      6  C   UNL A   1      34.047  25.600  24.355  1.00  0.00     0.083 A 
ATOM      7  C   UNL A   1      33.555  24.974  23.194  1.00  0.00     0.056 A 
ATOM      8  C   UNL A   1      33.370  23.580  23.217  1.00  0.00     0.040 A 
ATOM      9  C   UNL A   1      33.798  22.800  24.310  1.00  0.00     0.058 A 
ATOM     10  C   UNL A   1      34.519  24.827  25.426  1.00  0.00     0.018 A 
ATOM     11  C   UNL A   1      34.408  23.437  25.398  1.00  0.00     0.014 A 
BRANCH   7  12
ATOM     12  N   UNL A   1      33.101  25.638  22.033  1.00  0.00    -0.325 N 
ATOM     13  C   UNL A   1      31.844  26.030  21.644  1.00  0.00     0.234 C 
ATOM     14  O   UNL A   1      31.570  25.931  20.439  1.00  0.00    -0.274 OA
ATOM     15  H   UNL A   1      33.812  25.858  21.388  1.00  0.00     0.169 HD
BRANCH  13  16
ATOM     16  C   UNL A   1      30.954  26.890  22.537  1.00  0.00     0.169 C 
BRANCH  16  17
ATOM     17  S   UNL A   1      29.723  26.153  23.624  1.00  0.00    -0.155 SA
ATOM     18  C   UNL A   1      30.410  26.491  25.278  1.00  0.00     0.085 C 
ENDBRANCH  16  17
ENDBRANCH  13  16
ENDBRANCH   7  12
BRANCH   9  19
ATOM     19  C   UNL A   1      33.573  21.304  24.319  1.00  0.00     0.416 C 
ATOM     20  F   UNL A   1      32.785  20.898  23.286  1.00  0.00    -0.166 F 
ATOM     21  F   UNL A   1      34.732  20.599  24.206  1.00  0.00    -0.166 F 
ATOM     22  F   UNL A   1      32.967  20.852  25.451  1.00  0.00    -0.166 F 
ENDBRANCH   9  19
ENDBRANCH   4   6
ENDBRANCH   3   4
ENDBRANCH   2   3
ENDBRANCH   1   2
BRANCH   1  23
ATOM     23  O   UNL A   1      31.731  29.797  27.120  1.00  0.00    -0.374 OA
BRANCH  23  24
ATOM     24  C   UNL A   1      31.771  30.951  26.314  1.00  0.00     0.202 C 
BRANCH  24  25
ATOM     25  C   UNL A   1      31.580  32.319  26.978  1.00  0.00     0.261 C 
BRANCH  25  26
ATOM     26  O   UNL A   1      32.651  33.256  26.813  1.00  0.00    -0.460 OA
BRANCH  26  27
ATOM     27  C   UNL A   1      33.114  33.805  27.961  1.00  0.00     0.338 C 
ATOM     28  O   UNL A   1      32.573  34.650  28.651  1.00  0.00    -0.246 OA
BRANCH  27  29
ATOM     29  C   UNL A   1      34.378  33.145  28.342  1.00  0.00     0.060 A 
ATOM     30  C   UNL A   1      34.331  31.814  28.774  1.00  0.00     0.016 A 
ATOM     31  C   UNL A   1      35.584  33.849  28.339  1.00  0.00     0.016 A 
ATOM     32  C   UNL A   1      35.486  31.191  29.242  1.00  0.00     0.010 A 
ATOM     33  C   UNL A   1      36.738  33.232  28.834  1.00  0.00     0.010 A 
ATOM     34  C   UNL A   1      36.681  31.915  29.323  1.00  0.00    -0.014 A 
BRANCH  34  35
ATOM     35  C   UNL A   1      37.809  31.365  30.112  1.00  0.00     0.031 A 
ATOM     36  C   UNL A   1      38.718  30.365  29.452  1.00  0.00     0.074 A 
ATOM     37  C   UNL A   1      38.040  31.766  31.373  1.00  0.00     0.049 A 
ATOM     38  N   UNL A   1      39.724  29.696  29.952  1.00  0.00    -0.248 NA
ATOM     39  C   UNL A   1      38.452  30.080  28.032  1.00  0.00     0.031 C 
ATOM     40  C   UNL A   1      37.263  32.770  32.096  1.00  0.00     0.029 A 
ATOM     41  N   UNL A   1      38.996  31.364  32.271  1.00  0.00    -0.354 N 
ATOM     42  C   UNL A   1      40.201  28.902  28.916  1.00  0.00     0.074 A 
ATOM     43  C   UNL A   1      39.361  29.154  27.765  1.00  0.00     0.031 C 
ATOM     44  C   UNL A   1      37.765  32.895  33.337  1.00  0.00     0.029 A 
ATOM     45  C   UNL A   1      38.870  31.952  33.506  1.00  0.00     0.049 A 
ATOM     46  H   UNL A   1      39.705  30.716  32.052  1.00  0.00     0.167 HD
ATOM     47  C   UNL A   1      41.246  28.042  28.924  1.00  0.00     0.037 A 
ATOM     48  C   UNL A   1      39.551  31.726  34.647  1.00  0.00     0.037 A 
ATOM     49  C   UNL A   1      42.077  27.798  30.073  1.00  0.00     0.049 A 
ATOM     50  C   UNL A   1      40.661  30.707  34.653  1.00  0.00     0.074 A 
ATOM     51  C   UNL A   1      43.170  26.959  30.182  1.00  0.00     0.029 A 
ATOM     52  N   UNL A   1      41.897  28.387  31.315  1.00  0.00    -0.354 N 
ATOM     53  N   UNL A   1      41.114  29.968  33.668  1.00  0.00    -0.248 NA
ATOM     54  C   UNL A   1      41.354  30.488  35.931  1.00  0.00     0.031 C 
ATOM     55  C   UNL A   1      43.614  26.992  31.507  1.00  0.00     0.029 A 
ATOM     56  C   UNL A   1      42.840  27.906  32.207  1.00  0.00     0.049 A 
ATOM     57  H   UNL A   1      41.202  29.050  31.532  1.00  0.00     0.167 HD
ATOM     58  C   UNL A   1      42.161  29.223  34.197  1.00  0.00     0.074 A 
ATOM     59  C   UNL A   1      42.284  29.608  35.588  1.00  0.00     0.031 C 
ATOM     60  C   UNL A   1      42.952  28.306  33.588  1.00  0.00     0.037 A 
BRANCH  47  61
ATOM     61  C   UNL A   1      41.521  27.273  27.664  1.00  0.00     0.057 A 
ATOM     62  C   UNL A   1      42.366  27.761  26.659  1.00  0.00     0.134 A 
ATOM     63  C   UNL A   1      40.951  26.008  27.468  1.00  0.00     0.134 A 
ATOM     64  F   UNL A   1      42.932  28.972  26.775  1.00  0.00    -0.206 F 
ATOM     65  C   UNL A   1      42.613  27.031  25.495  1.00  0.00     0.040 A 
ATOM     66  C   UNL A   1      41.214  25.256  26.322  1.00  0.00     0.040 A 
ATOM     67  F   UNL A   1      40.134  25.478  28.391  1.00  0.00    -0.206 F 
ATOM     68  C   UNL A   1      42.043  25.771  25.328  1.00  0.00     0.006 A 
ENDBRANCH  47  61
BRANCH  48  69
ATOM     69  C   UNL A   1      39.186  32.458  35.887  1.00  0.00     0.057 A 
ATOM     70  C   UNL A   1      39.721  33.720  36.173  1.00  0.00     0.134 A 
ATOM     71  C   UNL A   1      38.308  31.904  36.828  1.00  0.00     0.134 A 
ATOM     72  F   UNL A   1      40.586  34.294  35.325  1.00  0.00    -0.206 F 
ATOM     73  C   UNL A   1      39.409  34.397  37.354  1.00  0.00     0.040 A 
ATOM     74  C   UNL A   1      37.965  32.582  37.999  1.00  0.00     0.040 A 
ATOM     75  F   UNL A   1      37.762  30.697  36.617  1.00  0.00    -0.206 F 
ATOM     76  C   UNL A   1      38.523  33.830  38.269  1.00  0.00     0.006 A 
ENDBRANCH  48  69
BRANCH  60  77
ATOM     77  C   UNL A   1      44.049  27.683  34.405  1.00  0.00     0.057 A 
ATOM     78  C   UNL A   1      43.879  26.466  35.075  1.00  0.00     0.134 A 
ATOM     79  C   UNL A   1      45.309  28.291  34.479  1.00  0.00     0.134 A 
ATOM     80  F   UNL A   1      42.695  25.836  35.052  1.00  0.00    -0.206 F 
ATOM     81  C   UNL A   1      44.916  25.886  35.808  1.00  0.00     0.040 A 
ATOM     82  C   UNL A   1      46.363  27.706  35.183  1.00  0.00     0.040 A 
ATOM     83  F   UNL A   1      45.545  29.454  33.851  1.00  0.00    -0.206 F 
ATOM     84  C   UNL A   1      46.165  26.503  35.857  1.00  0.00     0.006 A 
ENDBRANCH  60  77
ENDBRANCH  34  35
ENDBRANCH  27  29
ENDBRANCH  26  27
ENDBRANCH  25  26
ENDBRANCH  24  25
ENDBRANCH  23  24
ENDBRANCH   1  23
TORSDOF 18
ENDMDL
