MODEL 1
REMARK VINA RESULT:     -10.9      0.000      0.000
REMARK SMILES O=C(OCCOCCOC(=O)c1ncccc1-c1cc(Cl)cc(Cl)c1)c1ccc(-c2c3nc(c(-c4c(F)cccc4F)c4ccc([nH]4)c(-c4c(F)cccc4F)c4nc(c(-c5c(F)cccc5F)c5ccc2[nH]5)C=C4)C=C3)cc1
REMARK SMILES IDX 5 1 4 2 3 3 2 4 1 5 26 6 27 7 79 8 28 9 78 10 29 11 30 12
REMARK SMILES IDX 31 13 72 14 32 15 77 16 71 17 73 18 33 19 76 20 70 21 69 22
REMARK SMILES IDX 34 24 60 25 43 26 59 27 44 28 47 29 58 30 74 31 45 32 46 33
REMARK SMILES IDX 57 35 75 36 48 37 35 38 36 39 41 40 37 41 38 42 40 43 42 44
REMARK SMILES IDX 39 45 61 46 62 47 67 48 63 49 64 50 66 51 68 52 65 53 49 54
REMARK SMILES IDX 50 55 55 56 51 57 52 58 54 59 56 60 53 61 6 62 7 63 8 64
REMARK SMILES IDX 9 65 10 66 11 67 12 68 13 69 17 70 14 71 16 72 15 73 18 74
REMARK SMILES IDX 19 75 25 76 20 77 23 78 21 79 22 80 24 81
REMARK H PARENT 73 23 47 34
REMARK Flexibility Score: inf
ROOT
ATOM      1  C   UNL A   1      31.329  31.708  26.865  1.00  0.00     0.202 C 
ENDROOT
BRANCH   1   2
ATOM      2  C   UNL A   1      32.398  32.797  26.725  1.00  0.00     0.261 C 
BRANCH   2   3
ATOM      3  O   UNL A   1      32.199  33.846  27.691  1.00  0.00    -0.460 OA
BRANCH   3   4
ATOM      4  C   UNL A   1      33.080  34.396  28.559  1.00  0.00     0.338 C 
ATOM      5  O   UNL A   1      32.872  35.549  28.935  1.00  0.00    -0.246 OA
BRANCH   4   6
ATOM      6  C   UNL A   1      34.302  33.708  29.096  1.00  0.00     0.060 A 
ATOM      7  C   UNL A   1      34.306  32.567  29.897  1.00  0.00     0.016 A 
ATOM      8  C   UNL A   1      35.552  34.215  28.686  1.00  0.00     0.016 A 
ATOM      9  C   UNL A   1      35.481  31.948  30.283  1.00  0.00     0.010 A 
ATOM     10  C   UNL A   1      36.750  33.595  29.066  1.00  0.00     0.010 A 
ATOM     11  C   UNL A   1      36.708  32.458  29.874  1.00  0.00    -0.014 A 
BRANCH  11  12
ATOM     12  C   UNL A   1      37.899  31.815  30.448  1.00  0.00     0.031 A 
ATOM     13  C   UNL A   1      38.194  32.050  31.894  1.00  0.00     0.074 A 
ATOM     14  C   UNL A   1      38.530  30.862  29.737  1.00  0.00     0.049 A 
ATOM     15  N   UNL A   1      39.109  31.509  32.651  1.00  0.00    -0.248 NA
ATOM     16  C   UNL A   1      37.312  33.001  32.596  1.00  0.00     0.031 C 
ATOM     17  C   UNL A   1      38.192  30.476  28.364  1.00  0.00     0.029 A 
ATOM     18  N   UNL A   1      39.537  30.005  30.088  1.00  0.00    -0.354 N 
ATOM     19  C   UNL A   1      38.914  32.049  33.914  1.00  0.00     0.074 A 
ATOM     20  C   UNL A   1      37.806  32.972  33.824  1.00  0.00     0.031 C 
ATOM     21  C   UNL A   1      38.963  29.440  27.999  1.00  0.00     0.029 A 
ATOM     22  C   UNL A   1      39.880  29.126  29.089  1.00  0.00     0.049 A 
ATOM     23  H   UNL A   1      39.974  30.018  30.969  1.00  0.00     0.167 HD
ATOM     24  C   UNL A   1      39.603  31.788  35.047  1.00  0.00     0.037 A 
ATOM     25  C   UNL A   1      40.846  28.190  29.064  1.00  0.00     0.037 A 
ATOM     26  C   UNL A   1      40.716  30.880  35.098  1.00  0.00     0.049 A 
ATOM     27  C   UNL A   1      41.677  28.008  30.305  1.00  0.00     0.074 A 
ATOM     28  C   UNL A   1      41.578  30.619  36.147  1.00  0.00     0.029 A 
ATOM     29  N   UNL A   1      41.116  30.079  34.036  1.00  0.00    -0.354 N 
ATOM     30  N   UNL A   1      41.552  28.591  31.475  1.00  0.00    -0.248 NA
ATOM     31  C   UNL A   1      42.787  27.052  30.225  1.00  0.00     0.031 C 
ATOM     32  C   UNL A   1      42.521  29.683  35.705  1.00  0.00     0.029 A 
ATOM     33  C   UNL A   1      42.218  29.328  34.399  1.00  0.00     0.049 A 
ATOM     34  H   UNL A   1      40.678  30.049  33.154  1.00  0.00     0.167 HD
ATOM     35  C   UNL A   1      42.560  28.071  32.272  1.00  0.00     0.074 A 
ATOM     36  C   UNL A   1      43.267  27.099  31.459  1.00  0.00     0.031 C 
ATOM     37  C   UNL A   1      42.888  28.372  33.552  1.00  0.00     0.037 A 
BRANCH  24  38
ATOM     38  C   UNL A   1      39.205  32.552  36.272  1.00  0.00     0.057 A 
ATOM     39  C   UNL A   1      39.742  33.812  36.570  1.00  0.00     0.134 A 
ATOM     40  C   UNL A   1      38.310  31.996  37.195  1.00  0.00     0.134 A 
ATOM     41  F   UNL A   1      40.631  34.384  35.744  1.00  0.00    -0.206 F 
ATOM     42  C   UNL A   1      39.419  34.481  37.752  1.00  0.00     0.040 A 
ATOM     43  C   UNL A   1      37.964  32.665  38.371  1.00  0.00     0.040 A 
ATOM     44  F   UNL A   1      37.770  30.788  36.977  1.00  0.00    -0.206 F 
ATOM     45  C   UNL A   1      38.526  33.909  38.655  1.00  0.00     0.006 A 
ENDBRANCH  24  38
BRANCH  25  46
ATOM     46  C   UNL A   1      41.120  27.417  27.823  1.00  0.00     0.057 A 
ATOM     47  C   UNL A   1      41.884  27.941  26.775  1.00  0.00     0.134 A 
ATOM     48  C   UNL A   1      40.586  26.132  27.644  1.00  0.00     0.134 A 
ATOM     49  F   UNL A   1      42.407  29.173  26.870  1.00  0.00    -0.206 F 
ATOM     50  C   UNL A   1      42.086  27.231  25.589  1.00  0.00     0.040 A 
ATOM     51  C   UNL A   1      40.805  25.399  26.477  1.00  0.00     0.040 A 
ATOM     52  F   UNL A   1      39.840  25.568  28.606  1.00  0.00    -0.206 F 
ATOM     53  C   UNL A   1      41.550  25.952  25.440  1.00  0.00     0.006 A 
ENDBRANCH  25  46
BRANCH  37  54
ATOM     54  C   UNL A   1      44.047  27.625  34.139  1.00  0.00     0.057 A 
ATOM     55  C   UNL A   1      43.882  26.378  34.754  1.00  0.00     0.134 A 
ATOM     56  C   UNL A   1      45.343  28.148  34.060  1.00  0.00     0.134 A 
ATOM     57  F   UNL A   1      42.661  25.834  34.871  1.00  0.00    -0.206 F 
ATOM     58  C   UNL A   1      44.966  25.687  35.295  1.00  0.00     0.040 A 
ATOM     59  C   UNL A   1      46.438  27.454  34.573  1.00  0.00     0.040 A 
ATOM     60  F   UNL A   1      45.565  29.334  33.475  1.00  0.00    -0.206 F 
ATOM     61  C   UNL A   1      46.249  26.224  35.199  1.00  0.00     0.006 A 
ENDBRANCH  37  54
ENDBRANCH  11  12
ENDBRANCH   4   6
ENDBRANCH   3   4
ENDBRANCH   2   3
ENDBRANCH   1   2
BRANCH   1  62
ATOM     62  O   UNL A   1      31.890  30.402  27.017  1.00  0.00    -0.374 OA
BRANCH  62  63
ATOM     63  C   UNL A   1      33.309  30.319  26.856  1.00  0.00     0.202 C 
BRANCH  63  64
ATOM     64  C   UNL A   1      33.727  28.860  26.938  1.00  0.00     0.261 C 
BRANCH  64  65
ATOM     65  O   UNL A   1      32.720  28.106  26.258  1.00  0.00    -0.458 OA
BRANCH  65  66
ATOM     66  C   UNL A   1      32.819  28.021  24.906  1.00  0.00     0.357 C 
ATOM     67  O   UNL A   1      33.829  27.817  24.255  1.00  0.00    -0.244 OA
BRANCH  66  68
ATOM     68  C   UNL A   1      31.432  28.124  24.351  1.00  0.00     0.156 A 
ATOM     69  N   UNL A   1      31.097  29.383  23.942  1.00  0.00    -0.249 NA
ATOM     70  C   UNL A   1      30.620  26.986  24.172  1.00  0.00     0.015 A 
ATOM     71  C   UNL A   1      29.923  29.529  23.304  1.00  0.00     0.112 A 
ATOM     72  C   UNL A   1      29.405  27.203  23.507  1.00  0.00     0.013 A 
ATOM     73  C   UNL A   1      29.055  28.479  23.061  1.00  0.00     0.021 A 
BRANCH  70  74
ATOM     74  C   UNL A   1      31.054  25.627  24.558  1.00  0.00    -0.013 A 
ATOM     75  C   UNL A   1      30.495  25.006  25.689  1.00  0.00     0.029 A 
ATOM     76  C   UNL A   1      31.858  24.847  23.704  1.00  0.00     0.029 A 
ATOM     77  C   UNL A   1      30.661  23.636  25.902  1.00  0.00     0.043 A 
ATOM     78  C   UNL A   1      31.987  23.472  23.912  1.00  0.00     0.043 A 
ATOM     79  Cl  UNL A   1      29.897  22.890  27.252  1.00  0.00    -0.084 Cl
ATOM     80  C   UNL A   1      31.384  22.858  25.004  1.00  0.00     0.041 A 
ATOM     81  Cl  UNL A   1      32.822  22.514  22.751  1.00  0.00    -0.084 Cl
ENDBRANCH  70  74
ENDBRANCH  66  68
ENDBRANCH  65  66
ENDBRANCH  64  65
ENDBRANCH  63  64
ENDBRANCH  62  63
ENDBRANCH   1  62
TORSDOF 15
ENDMDL
MODEL 2
REMARK VINA RESULT:     -10.9      1.605      2.511
REMARK SMILES O=C(OCCOCCOC(=O)c1ncccc1-c1cc(Cl)cc(Cl)c1)c1ccc(-c2c3nc(c(-c4c(F)cccc4F)c4ccc([nH]4)c(-c4c(F)cccc4F)c4nc(c(-c5c(F)cccc5F)c5ccc2[nH]5)C=C4)C=C3)cc1
REMARK SMILES IDX 5 1 4 2 3 3 2 4 1 5 26 6 27 7 79 8 28 9 78 10 29 11 30 12
REMARK SMILES IDX 31 13 72 14 32 15 77 16 71 17 73 18 33 19 76 20 70 21 69 22
REMARK SMILES IDX 34 24 60 25 43 26 59 27 44 28 47 29 58 30 74 31 45 32 46 33
REMARK SMILES IDX 57 35 75 36 48 37 35 38 36 39 41 40 37 41 38 42 40 43 42 44
REMARK SMILES IDX 39 45 61 46 62 47 67 48 63 49 64 50 66 51 68 52 65 53 49 54
REMARK SMILES IDX 50 55 55 56 51 57 52 58 54 59 56 60 53 61 6 62 7 63 8 64
REMARK SMILES IDX 9 65 10 66 11 67 12 68 13 69 17 70 14 71 16 72 15 73 18 74
REMARK SMILES IDX 19 75 25 76 20 77 23 78 21 79 22 80 24 81
REMARK H PARENT 73 23 47 34
REMARK Flexibility Score: inf
ROOT
ATOM      1  C   UNL A   1      31.257  31.844  26.674  1.00  0.00     0.202 C 
ENDROOT
BRANCH   1   2
ATOM      2  C   UNL A   1      32.376  32.892  26.675  1.00  0.00     0.261 C 
BRANCH   2   3
ATOM      3  O   UNL A   1      32.161  33.879  27.700  1.00  0.00    -0.460 OA
BRANCH   3   4
ATOM      4  C   UNL A   1      33.047  34.432  28.562  1.00  0.00     0.338 C 
ATOM      5  O   UNL A   1      32.843  35.589  28.931  1.00  0.00    -0.246 OA
BRANCH   4   6
ATOM      6  C   UNL A   1      34.269  33.745  29.098  1.00  0.00     0.060 A 
ATOM      7  C   UNL A   1      34.278  32.565  29.839  1.00  0.00     0.016 A 
ATOM      8  C   UNL A   1      35.518  34.301  28.753  1.00  0.00     0.016 A 
ATOM      9  C   UNL A   1      35.457  31.953  30.227  1.00  0.00     0.010 A 
ATOM     10  C   UNL A   1      36.719  33.690  29.136  1.00  0.00     0.010 A 
ATOM     11  C   UNL A   1      36.682  32.511  29.881  1.00  0.00    -0.014 A 
BRANCH  11  12
ATOM     12  C   UNL A   1      37.871  31.866  30.457  1.00  0.00     0.031 A 
ATOM     13  C   UNL A   1      38.172  32.110  31.901  1.00  0.00     0.074 A 
ATOM     14  C   UNL A   1      38.495  30.906  29.751  1.00  0.00     0.049 A 
ATOM     15  N   UNL A   1      39.085  31.569  32.659  1.00  0.00    -0.248 NA
ATOM     16  C   UNL A   1      37.296  33.069  32.599  1.00  0.00     0.031 C 
ATOM     17  C   UNL A   1      38.152  30.513  28.381  1.00  0.00     0.029 A 
ATOM     18  N   UNL A   1      39.500  30.046  30.104  1.00  0.00    -0.354 N 
ATOM     19  C   UNL A   1      38.896  32.118  33.919  1.00  0.00     0.074 A 
ATOM     20  C   UNL A   1      37.793  33.046  33.825  1.00  0.00     0.031 C 
ATOM     21  C   UNL A   1      38.917  29.469  28.021  1.00  0.00     0.029 A 
ATOM     22  C   UNL A   1      39.835  29.158  29.111  1.00  0.00     0.049 A 
ATOM     23  H   UNL A   1      39.939  30.063  30.985  1.00  0.00     0.167 HD
ATOM     24  C   UNL A   1      39.587  31.862  35.052  1.00  0.00     0.037 A 
ATOM     25  C   UNL A   1      40.796  28.218  29.089  1.00  0.00     0.037 A 
ATOM     26  C   UNL A   1      40.696  30.949  35.106  1.00  0.00     0.049 A 
ATOM     27  C   UNL A   1      41.630  28.040  30.329  1.00  0.00     0.074 A 
ATOM     28  C   UNL A   1      41.559  30.690  36.154  1.00  0.00     0.029 A 
ATOM     29  N   UNL A   1      41.089  30.138  34.048  1.00  0.00    -0.354 N 
ATOM     30  N   UNL A   1      41.511  28.631  31.496  1.00  0.00    -0.248 NA
ATOM     31  C   UNL A   1      42.735  27.078  30.253  1.00  0.00     0.031 C 
ATOM     32  C   UNL A   1      42.497  29.747  35.716  1.00  0.00     0.029 A 
ATOM     33  C   UNL A   1      42.189  29.384  34.413  1.00  0.00     0.049 A 
ATOM     34  H   UNL A   1      40.649  30.105  33.167  1.00  0.00     0.167 HD
ATOM     35  C   UNL A   1      42.519  28.112  32.294  1.00  0.00     0.074 A 
ATOM     36  C   UNL A   1      43.219  27.131  31.486  1.00  0.00     0.031 C 
ATOM     37  C   UNL A   1      42.851  28.419  33.571  1.00  0.00     0.037 A 
BRANCH  24  38
ATOM     38  C   UNL A   1      39.196  32.635  36.272  1.00  0.00     0.057 A 
ATOM     39  C   UNL A   1      39.729  33.901  36.553  1.00  0.00     0.134 A 
ATOM     40  C   UNL A   1      38.313  32.084  37.209  1.00  0.00     0.134 A 
ATOM     41  F   UNL A   1      40.608  34.469  35.714  1.00  0.00    -0.206 F 
ATOM     42  C   UNL A   1      39.413  34.581  37.732  1.00  0.00     0.040 A 
ATOM     43  C   UNL A   1      37.974  32.763  38.381  1.00  0.00     0.040 A 
ATOM     44  F   UNL A   1      37.777  30.871  37.007  1.00  0.00    -0.206 F 
ATOM     45  C   UNL A   1      38.531  34.012  38.649  1.00  0.00     0.006 A 
ENDBRANCH  24  38
BRANCH  25  46
ATOM     46  C   UNL A   1      41.064  27.435  27.853  1.00  0.00     0.057 A 
ATOM     47  C   UNL A   1      41.888  27.919  26.832  1.00  0.00     0.134 A 
ATOM     48  C   UNL A   1      40.462  26.184  27.651  1.00  0.00     0.134 A 
ATOM     49  F   UNL A   1      42.477  29.118  26.949  1.00  0.00    -0.206 F 
ATOM     50  C   UNL A   1      42.085  27.202  25.648  1.00  0.00     0.040 A 
ATOM     51  C   UNL A   1      40.675  25.444  26.487  1.00  0.00     0.040 A 
ATOM     52  F   UNL A   1      39.657  25.660  28.586  1.00  0.00    -0.206 F 
ATOM     53  C   UNL A   1      41.481  25.958  25.475  1.00  0.00     0.006 A 
ENDBRANCH  25  46
BRANCH  37  54
ATOM     54  C   UNL A   1      44.008  27.671  34.160  1.00  0.00     0.057 A 
ATOM     55  C   UNL A   1      43.839  26.428  34.783  1.00  0.00     0.134 A 
ATOM     56  C   UNL A   1      45.306  28.188  34.075  1.00  0.00     0.134 A 
ATOM     57  F   UNL A   1      42.616  25.890  34.906  1.00  0.00    -0.206 F 
ATOM     58  C   UNL A   1      44.921  25.735  35.325  1.00  0.00     0.040 A 
ATOM     59  C   UNL A   1      46.399  27.491  34.590  1.00  0.00     0.040 A 
ATOM     60  F   UNL A   1      45.533  29.369  33.482  1.00  0.00    -0.206 F 
ATOM     61  C   UNL A   1      46.206  26.266  35.223  1.00  0.00     0.006 A 
ENDBRANCH  37  54
ENDBRANCH  11  12
ENDBRANCH   4   6
ENDBRANCH   3   4
ENDBRANCH   2   3
ENDBRANCH   1   2
BRANCH   1  62
ATOM     62  O   UNL A   1      31.740  30.524  26.411  1.00  0.00    -0.374 OA
BRANCH  62  63
ATOM     63  C   UNL A   1      32.977  30.183  27.042  1.00  0.00     0.202 C 
BRANCH  63  64
ATOM     64  C   UNL A   1      33.367  28.774  26.628  1.00  0.00     0.261 C 
BRANCH  64  65
ATOM     65  O   UNL A   1      32.788  28.550  25.339  1.00  0.00    -0.458 OA
BRANCH  65  66
ATOM     66  C   UNL A   1      31.932  27.502  25.221  1.00  0.00     0.357 C 
ATOM     67  O   UNL A   1      31.103  27.136  26.036  1.00  0.00    -0.244 OA
BRANCH  66  68
ATOM     68  C   UNL A   1      32.117  26.929  23.850  1.00  0.00     0.156 A 
ATOM     69  N   UNL A   1      33.166  26.059  23.757  1.00  0.00    -0.249 NA
ATOM     70  C   UNL A   1      31.205  27.193  22.808  1.00  0.00     0.015 A 
ATOM     71  C   UNL A   1      33.311  25.396  22.596  1.00  0.00     0.112 A 
ATOM     72  C   UNL A   1      31.414  26.476  21.620  1.00  0.00     0.013 A 
ATOM     73  C   UNL A   1      32.466  25.565  21.514  1.00  0.00     0.021 A 
BRANCH  70  74
ATOM     74  C   UNL A   1      30.037  28.083  22.975  1.00  0.00    -0.013 A 
ATOM     75  C   UNL A   1      30.043  29.365  22.400  1.00  0.00     0.029 A 
ATOM     76  C   UNL A   1      28.828  27.605  23.517  1.00  0.00     0.029 A 
ATOM     77  C   UNL A   1      28.860  30.099  22.289  1.00  0.00     0.043 A 
ATOM     78  C   UNL A   1      27.647  28.336  23.368  1.00  0.00     0.043 A 
ATOM     79  Cl  UNL A   1      28.885  31.632  21.506  1.00  0.00    -0.084 Cl
ATOM     80  C   UNL A   1      27.655  29.580  22.747  1.00  0.00     0.041 A 
ATOM     81  Cl  UNL A   1      26.153  27.646  23.874  1.00  0.00    -0.084 Cl
ENDBRANCH  70  74
ENDBRANCH  66  68
ENDBRANCH  65  66
ENDBRANCH  64  65
ENDBRANCH  63  64
ENDBRANCH  62  63
ENDBRANCH   1  62
TORSDOF 15
ENDMDL
MODEL 3
REMARK VINA RESULT:     -10.8      5.238     10.169
REMARK SMILES O=C(OCCOCCOC(=O)c1ncccc1-c1cc(Cl)cc(Cl)c1)c1ccc(-c2c3nc(c(-c4c(F)cccc4F)c4ccc([nH]4)c(-c4c(F)cccc4F)c4nc(c(-c5c(F)cccc5F)c5ccc2[nH]5)C=C4)C=C3)cc1
REMARK SMILES IDX 5 1 4 2 3 3 2 4 1 5 26 6 27 7 79 8 28 9 78 10 29 11 30 12
REMARK SMILES IDX 31 13 72 14 32 15 77 16 71 17 73 18 33 19 76 20 70 21 69 22
REMARK SMILES IDX 34 24 60 25 43 26 59 27 44 28 47 29 58 30 74 31 45 32 46 33
REMARK SMILES IDX 57 35 75 36 48 37 35 38 36 39 41 40 37 41 38 42 40 43 42 44
REMARK SMILES IDX 39 45 61 46 62 47 67 48 63 49 64 50 66 51 68 52 65 53 49 54
REMARK SMILES IDX 50 55 55 56 51 57 52 58 54 59 56 60 53 61 6 62 7 63 8 64
REMARK SMILES IDX 9 65 10 66 11 67 12 68 13 69 17 70 14 71 16 72 15 73 18 74
REMARK SMILES IDX 19 75 25 76 20 77 23 78 21 79 22 80 24 81
REMARK H PARENT 73 23 47 34
REMARK Flexibility Score: inf
ROOT
ATOM      1  C   UNL A   1      38.120  19.757  24.640  1.00  0.00     0.202 C 
ENDROOT
BRANCH   1   2
ATOM      2  C   UNL A   1      38.992  19.598  25.891  1.00  0.00     0.261 C 
BRANCH   2   3
ATOM      3  O   UNL A   1      40.237  18.949  25.577  1.00  0.00    -0.460 OA
BRANCH   3   4
ATOM      4  C   UNL A   1      41.497  19.275  25.953  1.00  0.00     0.338 C 
ATOM      5  O   UNL A   1      42.354  18.392  25.911  1.00  0.00    -0.246 OA
BRANCH   4   6
ATOM      6  C   UNL A   1      41.928  20.631  26.429  1.00  0.00     0.060 A 
ATOM      7  C   UNL A   1      42.196  20.980  27.752  1.00  0.00     0.016 A 
ATOM      8  C   UNL A   1      42.158  21.611  25.442  1.00  0.00     0.016 A 
ATOM      9  C   UNL A   1      42.668  22.235  28.096  1.00  0.00     0.010 A 
ATOM     10  C   UNL A   1      42.640  22.884  25.777  1.00  0.00     0.010 A 
ATOM     11  C   UNL A   1      42.890  23.193  27.114  1.00  0.00    -0.014 A 
BRANCH  11  12
ATOM     12  C   UNL A   1      43.257  24.534  27.591  1.00  0.00     0.031 A 
ATOM     13  C   UNL A   1      44.676  24.975  27.422  1.00  0.00     0.074 A 
ATOM     14  C   UNL A   1      42.279  25.394  27.931  1.00  0.00     0.049 A 
ATOM     15  N   UNL A   1      45.214  26.140  27.654  1.00  0.00    -0.248 NA
ATOM     16  C   UNL A   1      45.612  23.973  26.879  1.00  0.00     0.031 C 
ATOM     17  C   UNL A   1      40.851  25.068  27.972  1.00  0.00     0.029 A 
ATOM     18  N   UNL A   1      42.328  26.725  28.243  1.00  0.00    -0.354 N 
ATOM     19  C   UNL A   1      46.546  26.015  27.287  1.00  0.00     0.074 A 
ATOM     20  C   UNL A   1      46.743  24.658  26.831  1.00  0.00     0.031 C 
ATOM     21  C   UNL A   1      40.157  26.179  28.265  1.00  0.00     0.029 A 
ATOM     22  C   UNL A   1      41.093  27.277  28.483  1.00  0.00     0.049 A 
ATOM     23  H   UNL A   1      43.167  27.238  28.291  1.00  0.00     0.167 HD
ATOM     24  C   UNL A   1      47.514  26.958  27.328  1.00  0.00     0.037 A 
ATOM     25  C   UNL A   1      40.769  28.527  28.859  1.00  0.00     0.037 A 
ATOM     26  C   UNL A   1      47.290  28.293  27.810  1.00  0.00     0.049 A 
ATOM     27  C   UNL A   1      41.887  29.523  29.013  1.00  0.00     0.074 A 
ATOM     28  C   UNL A   1      48.205  29.306  28.022  1.00  0.00     0.029 A 
ATOM     29  N   UNL A   1      46.041  28.796  28.155  1.00  0.00    -0.354 N 
ATOM     30  N   UNL A   1      43.166  29.375  28.755  1.00  0.00    -0.248 NA
ATOM     31  C   UNL A   1      41.525  30.852  29.517  1.00  0.00     0.031 C 
ATOM     32  C   UNL A   1      47.513  30.413  28.528  1.00  0.00     0.029 A 
ATOM     33  C   UNL A   1      46.162  30.104  28.588  1.00  0.00     0.049 A 
ATOM     34  H   UNL A   1      45.195  28.296  28.099  1.00  0.00     0.167 HD
ATOM     35  C   UNL A   1      43.762  30.589  29.060  1.00  0.00     0.074 A 
ATOM     36  C   UNL A   1      42.695  31.474  29.490  1.00  0.00     0.031 C 
ATOM     37  C   UNL A   1      45.068  30.946  29.006  1.00  0.00     0.037 A 
BRANCH  24  38
ATOM     38  C   UNL A   1      48.888  26.535  26.910  1.00  0.00     0.057 A 
ATOM     39  C   UNL A   1      49.357  26.722  25.603  1.00  0.00     0.134 A 
ATOM     40  C   UNL A   1      49.736  25.882  27.813  1.00  0.00     0.134 A 
ATOM     41  F   UNL A   1      48.581  27.309  24.679  1.00  0.00    -0.206 F 
ATOM     42  C   UNL A   1      50.612  26.257  25.204  1.00  0.00     0.040 A 
ATOM     43  C   UNL A   1      51.000  25.430  27.432  1.00  0.00     0.040 A 
ATOM     44  F   UNL A   1      49.342  25.659  29.076  1.00  0.00    -0.206 F 
ATOM     45  C   UNL A   1      51.439  25.610  26.121  1.00  0.00     0.006 A 
ENDBRANCH  24  38
BRANCH  25  46
ATOM     46  C   UNL A   1      39.361  28.882  29.177  1.00  0.00     0.057 A 
ATOM     47  C   UNL A   1      38.809  28.664  30.444  1.00  0.00     0.134 A 
ATOM     48  C   UNL A   1      38.516  29.422  28.197  1.00  0.00     0.134 A 
ATOM     49  F   UNL A   1      39.552  28.130  31.424  1.00  0.00    -0.206 F 
ATOM     50  C   UNL A   1      37.467  28.946  30.717  1.00  0.00     0.040 A 
ATOM     51  C   UNL A   1      37.183  29.737  28.464  1.00  0.00     0.040 A 
ATOM     52  F   UNL A   1      38.977  29.654  26.958  1.00  0.00    -0.206 F 
ATOM     53  C   UNL A   1      36.651  29.489  29.726  1.00  0.00     0.006 A 
ENDBRANCH  25  46
BRANCH  37  54
ATOM     54  C   UNL A   1      45.395  32.351  29.406  1.00  0.00     0.057 A 
ATOM     55  C   UNL A   1      45.369  33.404  28.483  1.00  0.00     0.134 A 
ATOM     56  C   UNL A   1      45.710  32.657  30.736  1.00  0.00     0.134 A 
ATOM     57  F   UNL A   1      45.087  33.169  27.192  1.00  0.00    -0.206 F 
ATOM     58  C   UNL A   1      45.670  34.711  28.864  1.00  0.00     0.040 A 
ATOM     59  C   UNL A   1      45.986  33.964  31.134  1.00  0.00     0.040 A 
ATOM     60  F   UNL A   1      45.742  31.693  31.668  1.00  0.00    -0.206 F 
ATOM     61  C   UNL A   1      45.974  34.993  30.195  1.00  0.00     0.006 A 
ENDBRANCH  37  54
ENDBRANCH  11  12
ENDBRANCH   4   6
ENDBRANCH   3   4
ENDBRANCH   2   3
ENDBRANCH   1   2
BRANCH   1  62
ATOM     62  O   UNL A   1      37.646  21.094  24.467  1.00  0.00    -0.374 OA
BRANCH  62  63
ATOM     63  C   UNL A   1      37.960  22.002  25.527  1.00  0.00     0.202 C 
BRANCH  63  64
ATOM     64  C   UNL A   1      36.916  23.106  25.552  1.00  0.00     0.261 C 
BRANCH  64  65
ATOM     65  O   UNL A   1      35.765  22.599  24.871  1.00  0.00    -0.458 OA
BRANCH  65  66
ATOM     66  C   UNL A   1      34.763  22.099  25.640  1.00  0.00     0.357 C 
ATOM     67  O   UNL A   1      34.478  22.427  26.780  1.00  0.00    -0.244 OA
BRANCH  66  68
ATOM     68  C   UNL A   1      33.994  21.131  24.795  1.00  0.00     0.156 A 
ATOM     69  N   UNL A   1      34.340  19.827  25.001  1.00  0.00    -0.249 NA
ATOM     70  C   UNL A   1      32.937  21.554  23.963  1.00  0.00     0.015 A 
ATOM     71  C   UNL A   1      33.599  18.890  24.385  1.00  0.00     0.112 A 
ATOM     72  C   UNL A   1      32.205  20.530  23.342  1.00  0.00     0.013 A 
ATOM     73  C   UNL A   1      32.530  19.190  23.559  1.00  0.00     0.021 A 
BRANCH  70  74
ATOM     74  C   UNL A   1      32.544  22.972  23.828  1.00  0.00    -0.013 A 
ATOM     75  C   UNL A   1      32.829  23.670  22.643  1.00  0.00     0.029 A 
ATOM     76  C   UNL A   1      31.701  23.588  24.774  1.00  0.00     0.029 A 
ATOM     77  C   UNL A   1      32.217  24.897  22.375  1.00  0.00     0.043 A 
ATOM     78  C   UNL A   1      31.071  24.799  24.478  1.00  0.00     0.043 A 
ATOM     79  Cl  UNL A   1      32.524  25.688  20.878  1.00  0.00    -0.084 Cl
ATOM     80  C   UNL A   1      31.318  25.454  23.277  1.00  0.00     0.041 A 
ATOM     81  Cl  UNL A   1      29.905  25.437  25.572  1.00  0.00    -0.084 Cl
ENDBRANCH  70  74
ENDBRANCH  66  68
ENDBRANCH  65  66
ENDBRANCH  64  65
ENDBRANCH  63  64
ENDBRANCH  62  63
ENDBRANCH   1  62
TORSDOF 15
ENDMDL
