MODEL 1
REMARK VINA RESULT:     -12.6      0.000      0.000
REMARK SMILES Cc1ccc(C(=O)N2CCCC[C@@H]2C(=O)OCCOCCOC(=O)c2ccc(-c3c4nc(c(-c5c(F)cccc5F)c5ccc([nH]5)c(-c5c(F)cccc5F)c5nc(c(-c6c(F)cccc6F)c6ccc3[nH]6)C=C5)C=C4)cc2)cc1S(=O)(=O)N1CCCCC1
REMARK SMILES IDX 18 1 17 2 16 3 14 4 15 5 13 6 8 7 9 8 10 9 12 10 11 11 6 12
REMARK SMILES IDX 7 13 5 14 1 15 2 16 3 17 80 18 4 19 79 20 81 21 82 22 83 23
REMARK SMILES IDX 84 24 85 25 89 26 86 27 88 28 87 29 19 30 20 31 21 32 22 33
REMARK SMILES IDX 23 34 24 35 25 36 26 37 78 38 27 39 77 40 28 41 29 42 30 43
REMARK SMILES IDX 71 44 31 45 76 46 70 47 72 48 32 49 75 50 69 51 68 52 33 54
REMARK SMILES IDX 59 55 42 56 58 57 43 58 46 59 57 60 73 61 44 62 45 63 56 65
REMARK SMILES IDX 74 66 47 67 34 68 35 69 40 70 36 71 37 72 39 73 41 74 38 75
REMARK SMILES IDX 60 76 61 77 66 78 62 79 63 80 65 81 67 82 64 83 48 84 49 85
REMARK SMILES IDX 54 86 50 87 51 88 53 89 55 90 52 91
REMARK H PARENT 72 53 46 64
REMARK Flexibility Score: inf
ROOT
ATOM      1  C   UNL A   1      34.952  32.230  27.777  1.00  0.00     0.202 C 
ENDROOT
BRANCH   1   2
ATOM      2  C   UNL A   1      33.622  31.462  27.815  1.00  0.00     0.261 C 
BRANCH   2   3
ATOM      3  O   UNL A   1      33.355  30.761  26.576  1.00  0.00    -0.462 OA
BRANCH   3   4
ATOM      4  C   UNL A   1      32.050  30.617  26.187  1.00  0.00     0.328 C 
ATOM      5  O   UNL A   1      31.197  31.493  26.253  1.00  0.00    -0.250 OA
BRANCH   4   6
ATOM      6  C   UNL A   1      31.822  29.276  25.443  1.00  0.00     0.195 C 
ATOM      7  N   UNL A   1      32.959  28.399  25.009  1.00  0.00    -0.325 N 
ATOM      8  C   UNL A   1      33.131  28.034  23.604  1.00  0.00     0.121 C 
ATOM      9  C   UNL A   1      32.258  28.758  22.607  1.00  0.00     0.022 C 
ATOM     10  C   UNL A   1      30.784  29.626  24.340  1.00  0.00     0.037 C 
ATOM     11  C   UNL A   1      30.832  28.743  23.120  1.00  0.00     0.005 C 
BRANCH   7  12
ATOM     12  C   UNL A   1      33.660  27.515  25.864  1.00  0.00     0.254 C 
ATOM     13  O   UNL A   1      34.171  27.869  26.928  1.00  0.00    -0.269 OA
BRANCH  12  14
ATOM     14  C   UNL A   1      33.539  26.073  25.671  1.00  0.00     0.041 A 
ATOM     15  C   UNL A   1      32.428  22.952  23.553  1.00  0.00     0.046 C 
ATOM     16  C   UNL A   1      32.841  23.706  24.727  1.00  0.00    -0.031 A 
ATOM     17  C   UNL A   1      31.858  24.466  25.367  1.00  0.00     0.005 A 
ATOM     18  C   UNL A   1      34.200  23.898  24.848  1.00  0.00     0.086 A 
ATOM     19  C   UNL A   1      32.219  25.669  25.876  1.00  0.00     0.014 A 
ATOM     20  C   UNL A   1      34.568  25.175  25.271  1.00  0.00     0.035 A 
BRANCH  18  21
ATOM     21  S   UNL A   1      35.338  22.597  24.218  1.00  0.00     0.243 S 
ATOM     22  O   UNL A   1      34.660  21.329  24.397  1.00  0.00    -0.207 OA
ATOM     23  O   UNL A   1      35.731  23.059  22.902  1.00  0.00    -0.207 OA
BRANCH  21  24
ATOM     24  N   UNL A   1      36.830  22.532  25.184  1.00  0.00    -0.198 NA
ATOM     25  C   UNL A   1      37.806  20.968  25.110  1.00  0.00     0.102 C 
ATOM     26  C   UNL A   1      37.435  24.063  26.081  1.00  0.00     0.102 C 
ATOM     27  C   UNL A   1      39.626  20.881  25.979  1.00  0.00     0.017 C 
ATOM     28  C   UNL A   1      39.205  23.973  27.064  1.00  0.00     0.017 C 
ATOM     29  C   UNL A   1      40.270  22.375  27.001  1.00  0.00     0.003 C 
ENDBRANCH  21  24
ENDBRANCH  18  21
ENDBRANCH  12  14
ENDBRANCH   7  12
ENDBRANCH   4   6
ENDBRANCH   3   4
ENDBRANCH   2   3
ENDBRANCH   1   2
BRANCH   1  30
ATOM     30  O   UNL A   1      34.658  33.615  27.640  1.00  0.00    -0.374 OA
BRANCH  30  31
ATOM     31  C   UNL A   1      33.350  34.040  28.007  1.00  0.00     0.202 C 
BRANCH  31  32
ATOM     32  C   UNL A   1      33.306  35.225  28.986  1.00  0.00     0.261 C 
BRANCH  32  33
ATOM     33  O   UNL A   1      32.991  34.751  30.308  1.00  0.00    -0.460 OA
BRANCH  33  34
ATOM     34  C   UNL A   1      33.949  34.974  31.243  1.00  0.00     0.338 C 
ATOM     35  O   UNL A   1      34.187  36.046  31.776  1.00  0.00    -0.246 OA
BRANCH  34  36
ATOM     36  C   UNL A   1      34.847  33.789  31.330  1.00  0.00     0.060 A 
ATOM     37  C   UNL A   1      34.521  32.725  32.189  1.00  0.00     0.016 A 
ATOM     38  C   UNL A   1      36.127  33.870  30.788  1.00  0.00     0.016 A 
ATOM     39  C   UNL A   1      35.503  31.798  32.570  1.00  0.00     0.010 A 
ATOM     40  C   UNL A   1      37.116  33.029  31.259  1.00  0.00     0.010 A 
ATOM     41  C   UNL A   1      36.826  31.980  32.150  1.00  0.00    -0.014 A 
BRANCH  41  42
ATOM     42  C   UNL A   1      38.012  31.263  32.718  1.00  0.00     0.031 A 
ATOM     43  C   UNL A   1      38.448  29.955  32.007  1.00  0.00     0.074 A 
ATOM     44  C   UNL A   1      38.840  32.171  33.294  1.00  0.00     0.049 A 
ATOM     45  N   UNL A   1      39.544  29.241  32.054  1.00  0.00    -0.248 NA
ATOM     46  C   UNL A   1      37.461  29.321  31.150  1.00  0.00     0.031 C 
ATOM     47  C   UNL A   1      40.061  32.734  32.757  1.00  0.00     0.029 A 
ATOM     48  N   UNL A   1      38.603  33.071  34.315  1.00  0.00    -0.354 N 
ATOM     49  C   UNL A   1      39.651  28.384  30.906  1.00  0.00     0.074 A 
ATOM     50  C   UNL A   1      38.195  28.415  30.512  1.00  0.00     0.031 C 
ATOM     51  C   UNL A   1      40.688  33.540  33.611  1.00  0.00     0.029 A 
ATOM     52  C   UNL A   1      39.808  33.672  34.720  1.00  0.00     0.049 A 
ATOM     53  H   UNL A   1      37.719  33.263  34.704  1.00  0.00     0.167 HD
ATOM     54  C   UNL A   1      41.012  27.914  30.252  1.00  0.00     0.037 A 
ATOM     55  C   UNL A   1      40.240  33.581  35.993  1.00  0.00     0.037 A 
ATOM     56  C   UNL A   1      42.021  28.357  31.654  1.00  0.00     0.049 A 
ATOM     57  C   UNL A   1      41.097  32.347  36.179  1.00  0.00     0.074 A 
ATOM     58  C   UNL A   1      43.384  28.701  31.909  1.00  0.00     0.029 A 
ATOM     59  N   UNL A   1      41.551  28.385  33.035  1.00  0.00    -0.354 N 
ATOM     60  N   UNL A   1      41.215  31.338  35.338  1.00  0.00    -0.248 NA
ATOM     61  C   UNL A   1      41.992  32.242  37.325  1.00  0.00     0.031 C 
ATOM     62  C   UNL A   1      43.556  29.317  33.152  1.00  0.00     0.029 A 
ATOM     63  C   UNL A   1      42.437  29.057  33.895  1.00  0.00     0.049 A 
ATOM     64  H   UNL A   1      40.705  27.977  33.332  1.00  0.00     0.167 HD
ATOM     65  C   UNL A   1      42.085  30.414  35.877  1.00  0.00     0.074 A 
ATOM     66  C   UNL A   1      42.587  31.066  37.082  1.00  0.00     0.031 C 
ATOM     67  C   UNL A   1      42.394  29.181  35.353  1.00  0.00     0.037 A 
BRANCH  54  68
ATOM     68  C   UNL A   1      41.573  27.081  28.412  1.00  0.00     0.057 A 
ATOM     69  C   UNL A   1      42.391  25.760  27.986  1.00  0.00     0.134 A 
ATOM     70  C   UNL A   1      41.299  27.472  26.891  1.00  0.00     0.134 A 
ATOM     71  F   UNL A   1      43.056  24.951  28.860  1.00  0.00    -0.206 F 
ATOM     72  C   UNL A   1      42.689  25.136  26.723  1.00  0.00     0.040 A 
ATOM     73  C   UNL A   1      41.620  26.831  25.632  1.00  0.00     0.040 A 
ATOM     74  F   UNL A   1      40.604  28.570  26.488  1.00  0.00    -0.206 F 
ATOM     75  C   UNL A   1      42.297  25.657  25.535  1.00  0.00     0.006 A 
ENDBRANCH  54  68
BRANCH  55  76
ATOM     76  C   UNL A   1      39.220  34.272  36.842  1.00  0.00     0.057 A 
ATOM     77  C   UNL A   1      38.574  33.384  37.740  1.00  0.00     0.134 A 
ATOM     78  C   UNL A   1      39.503  35.556  37.327  1.00  0.00     0.134 A 
ATOM     79  F   UNL A   1      38.256  32.141  37.338  1.00  0.00    -0.206 F 
ATOM     80  C   UNL A   1      38.511  33.647  39.113  1.00  0.00     0.040 A 
ATOM     81  C   UNL A   1      39.443  35.827  38.705  1.00  0.00     0.040 A 
ATOM     82  F   UNL A   1      40.111  36.454  36.539  1.00  0.00    -0.206 F 
ATOM     83  C   UNL A   1      39.006  34.851  39.605  1.00  0.00     0.006 A 
ENDBRANCH  55  76
BRANCH  67  84
ATOM     84  C   UNL A   1      43.139  28.126  36.178  1.00  0.00     0.057 A 
ATOM     85  C   UNL A   1      44.517  28.204  36.444  1.00  0.00     0.134 A 
ATOM     86  C   UNL A   1      42.485  27.045  36.815  1.00  0.00     0.134 A 
ATOM     87  F   UNL A   1      45.256  29.235  36.009  1.00  0.00    -0.206 F 
ATOM     88  C   UNL A   1      45.203  27.238  37.195  1.00  0.00     0.040 A 
ATOM     89  C   UNL A   1      43.151  26.097  37.598  1.00  0.00     0.040 A 
ATOM     90  F   UNL A   1      41.163  26.853  36.737  1.00  0.00    -0.206 F 
ATOM     91  C   UNL A   1      44.519  26.183  37.780  1.00  0.00     0.006 A 
ENDBRANCH  67  84
ENDBRANCH  41  42
ENDBRANCH  34  36
ENDBRANCH  33  34
ENDBRANCH  32  33
ENDBRANCH  31  32
ENDBRANCH  30  31
ENDBRANCH   1  30
TORSDOF 18
ENDMDL
MODEL 2
REMARK VINA RESULT:     -12.5      1.675      2.895
REMARK SMILES Cc1ccc(C(=O)N2CCCC[C@@H]2C(=O)OCCOCCOC(=O)c2ccc(-c3c4nc(c(-c5c(F)cccc5F)c5ccc([nH]5)c(-c5c(F)cccc5F)c5nc(c(-c6c(F)cccc6F)c6ccc3[nH]6)C=C5)C=C4)cc2)cc1S(=O)(=O)N1CCCCC1
REMARK SMILES IDX 18 1 17 2 16 3 14 4 15 5 13 6 8 7 9 8 10 9 12 10 11 11 6 12
REMARK SMILES IDX 7 13 5 14 1 15 2 16 3 17 80 18 4 19 79 20 81 21 82 22 83 23
REMARK SMILES IDX 84 24 85 25 89 26 86 27 88 28 87 29 19 30 20 31 21 32 22 33
REMARK SMILES IDX 23 34 24 35 25 36 26 37 78 38 27 39 77 40 28 41 29 42 30 43
REMARK SMILES IDX 71 44 31 45 76 46 70 47 72 48 32 49 75 50 69 51 68 52 33 54
REMARK SMILES IDX 59 55 42 56 58 57 43 58 46 59 57 60 73 61 44 62 45 63 56 65
REMARK SMILES IDX 74 66 47 67 34 68 35 69 40 70 36 71 37 72 39 73 41 74 38 75
REMARK SMILES IDX 60 76 61 77 66 78 62 79 63 80 65 81 67 82 64 83 48 84 49 85
REMARK SMILES IDX 54 86 50 87 51 88 53 89 55 90 52 91
REMARK H PARENT 72 53 46 64
REMARK Flexibility Score: inf
ROOT
ATOM      1  C   UNL A   1      33.561  28.908  27.088  1.00  0.00     0.202 C 
ENDROOT
BRANCH   1   2
ATOM      2  C   UNL A   1      33.509  28.698  25.568  1.00  0.00     0.261 C 
BRANCH   2   3
ATOM      3  O   UNL A   1      32.707  29.702  24.900  1.00  0.00    -0.462 OA
BRANCH   3   4
ATOM      4  C   UNL A   1      31.994  29.324  23.793  1.00  0.00     0.328 C 
ATOM      5  O   UNL A   1      32.485  28.955  22.734  1.00  0.00    -0.250 OA
BRANCH   4   6
ATOM      6  C   UNL A   1      30.480  29.203  24.104  1.00  0.00     0.195 C 
ATOM      7  N   UNL A   1      29.636  28.092  23.553  1.00  0.00    -0.325 N 
ATOM      8  C   UNL A   1      28.458  28.378  22.738  1.00  0.00     0.121 C 
ATOM      9  C   UNL A   1      28.273  29.811  22.298  1.00  0.00     0.022 C 
ATOM     10  C   UNL A   1      29.931  30.640  23.878  1.00  0.00     0.037 C 
ATOM     11  C   UNL A   1      28.474  30.710  23.501  1.00  0.00     0.005 C 
BRANCH   7  12
ATOM     12  C   UNL A   1      29.593  26.781  24.085  1.00  0.00     0.254 C 
ATOM     13  O   UNL A   1      28.664  25.999  23.878  1.00  0.00    -0.269 OA
BRANCH  12  14
ATOM     14  C   UNL A   1      30.803  26.188  24.649  1.00  0.00     0.041 A 
ATOM     15  C   UNL A   1      32.723  23.203  26.341  1.00  0.00     0.046 C 
ATOM     16  C   UNL A   1      32.461  24.571  25.920  1.00  0.00    -0.031 A 
ATOM     17  C   UNL A   1      31.552  25.304  26.688  1.00  0.00     0.005 A 
ATOM     18  C   UNL A   1      32.824  24.862  24.623  1.00  0.00     0.086 A 
ATOM     19  C   UNL A   1      30.718  26.154  26.042  1.00  0.00     0.014 A 
ATOM     20  C   UNL A   1      31.907  25.651  23.930  1.00  0.00     0.035 A 
BRANCH  18  21
ATOM     21  S   UNL A   1      34.280  24.004  23.897  1.00  0.00     0.243 S 
ATOM     22  O   UNL A   1      34.393  24.463  22.526  1.00  0.00    -0.207 OA
ATOM     23  O   UNL A   1      35.349  24.222  24.851  1.00  0.00    -0.207 OA
BRANCH  21  24
ATOM     24  N   UNL A   1      34.021  22.245  23.840  1.00  0.00    -0.198 NA
ATOM     25  C   UNL A   1      35.254  21.190  24.719  1.00  0.00     0.102 C 
ATOM     26  C   UNL A   1      32.464  21.550  23.060  1.00  0.00     0.102 C 
ATOM     27  C   UNL A   1      34.920  19.209  24.910  1.00  0.00     0.017 C 
ATOM     28  C   UNL A   1      32.156  19.548  23.132  1.00  0.00     0.017 C 
ATOM     29  C   UNL A   1      33.399  18.408  24.053  1.00  0.00     0.003 C 
ENDBRANCH  21  24
ENDBRANCH  18  21
ENDBRANCH  12  14
ENDBRANCH   7  12
ENDBRANCH   4   6
ENDBRANCH   3   4
ENDBRANCH   2   3
ENDBRANCH   1   2
BRANCH   1  30
ATOM     30  O   UNL A   1      34.872  29.339  27.430  1.00  0.00    -0.374 OA
BRANCH  30  31
ATOM     31  C   UNL A   1      35.066  30.734  27.630  1.00  0.00     0.202 C 
BRANCH  31  32
ATOM     32  C   UNL A   1      33.776  31.542  27.845  1.00  0.00     0.261 C 
BRANCH  32  33
ATOM     33  O   UNL A   1      34.076  32.950  27.831  1.00  0.00    -0.460 OA
BRANCH  33  34
ATOM     34  C   UNL A   1      33.803  33.608  28.986  1.00  0.00     0.338 C 
ATOM     35  O   UNL A   1      32.894  34.407  29.152  1.00  0.00    -0.246 OA
BRANCH  34  36
ATOM     36  C   UNL A   1      34.928  33.425  29.944  1.00  0.00     0.060 A 
ATOM     37  C   UNL A   1      36.244  33.715  29.542  1.00  0.00     0.016 A 
ATOM     38  C   UNL A   1      34.709  32.708  31.117  1.00  0.00     0.016 A 
ATOM     39  C   UNL A   1      37.333  33.209  30.268  1.00  0.00     0.010 A 
ATOM     40  C   UNL A   1      35.778  32.113  31.757  1.00  0.00     0.010 A 
ATOM     41  C   UNL A   1      37.103  32.353  31.352  1.00  0.00    -0.014 A 
BRANCH  41  42
ATOM     42  C   UNL A   1      38.149  31.509  32.013  1.00  0.00     0.031 A 
ATOM     43  C   UNL A   1      38.482  30.151  31.341  1.00  0.00     0.074 A 
ATOM     44  C   UNL A   1      39.031  32.321  32.649  1.00  0.00     0.049 A 
ATOM     45  N   UNL A   1      39.480  29.315  31.475  1.00  0.00    -0.248 NA
ATOM     46  C   UNL A   1      37.496  29.627  30.411  1.00  0.00     0.031 C 
ATOM     47  C   UNL A   1      40.347  32.731  32.208  1.00  0.00     0.029 A 
ATOM     48  N   UNL A   1      38.823  33.255  33.647  1.00  0.00    -0.354 N 
ATOM     49  C   UNL A   1      39.574  28.438  30.342  1.00  0.00     0.074 A 
ATOM     50  C   UNL A   1      38.166  28.634  29.835  1.00  0.00     0.031 C 
ATOM     51  C   UNL A   1      40.997  33.468  33.106  1.00  0.00     0.029 A 
ATOM     52  C   UNL A   1      40.056  33.715  34.143  1.00  0.00     0.049 A 
ATOM     53  H   UNL A   1      37.941  33.553  33.965  1.00  0.00     0.167 HD
ATOM     54  C   UNL A   1      40.916  27.804  29.797  1.00  0.00     0.037 A 
ATOM     55  C   UNL A   1      40.374  33.589  35.446  1.00  0.00     0.037 A 
ATOM     56  C   UNL A   1      41.859  28.142  31.272  1.00  0.00     0.049 A 
ATOM     57  C   UNL A   1      41.063  32.265  35.702  1.00  0.00     0.074 A 
ATOM     58  C   UNL A   1      43.229  28.327  31.632  1.00  0.00     0.029 A 
ATOM     59  N   UNL A   1      41.290  28.241  32.612  1.00  0.00    -0.354 N 
ATOM     60  N   UNL A   1      41.126  31.240  34.875  1.00  0.00    -0.248 NA
ATOM     61  C   UNL A   1      41.848  32.069  36.914  1.00  0.00     0.031 C 
ATOM     62  C   UNL A   1      43.376  28.933  32.883  1.00  0.00     0.029 A 
ATOM     63  C   UNL A   1      42.179  28.815  33.537  1.00  0.00     0.049 A 
ATOM     64  H   UNL A   1      40.382  27.938  32.844  1.00  0.00     0.167 HD
ATOM     65  C   UNL A   1      41.837  30.226  35.482  1.00  0.00     0.074 A 
ATOM     66  C   UNL A   1      42.318  30.829  36.721  1.00  0.00     0.031 C 
ATOM     67  C   UNL A   1      42.039  28.959  34.987  1.00  0.00     0.037 A 
BRANCH  54  68
ATOM     68  C   UNL A   1      41.516  26.890  28.008  1.00  0.00     0.057 A 
ATOM     69  C   UNL A   1      41.902  27.442  26.545  1.00  0.00     0.134 A 
ATOM     70  C   UNL A   1      41.834  25.385  27.587  1.00  0.00     0.134 A 
ATOM     71  F   UNL A   1      41.739  28.735  26.142  1.00  0.00    -0.206 F 
ATOM     72  C   UNL A   1      42.411  26.824  25.348  1.00  0.00     0.040 A 
ATOM     73  C   UNL A   1      42.336  24.785  26.369  1.00  0.00     0.040 A 
ATOM     74  F   UNL A   1      41.712  24.310  28.411  1.00  0.00    -0.206 F 
ATOM     75  C   UNL A   1      42.644  25.493  25.250  1.00  0.00     0.006 A 
ENDBRANCH  54  68
BRANCH  55  76
ATOM     76  C   UNL A   1      39.380  34.404  36.211  1.00  0.00     0.057 A 
ATOM     77  C   UNL A   1      38.626  33.620  37.122  1.00  0.00     0.134 A 
ATOM     78  C   UNL A   1      39.748  35.686  36.643  1.00  0.00     0.134 A 
ATOM     79  F   UNL A   1      38.223  32.388  36.769  1.00  0.00    -0.206 F 
ATOM     80  C   UNL A   1      38.528  33.962  38.476  1.00  0.00     0.040 A 
ATOM     81  C   UNL A   1      39.652  36.035  38.001  1.00  0.00     0.040 A 
ATOM     82  F   UNL A   1      40.460  36.488  35.839  1.00  0.00    -0.206 F 
ATOM     83  C   UNL A   1      39.099  35.147  38.928  1.00  0.00     0.006 A 
ENDBRANCH  55  76
BRANCH  67  84
ATOM     84  C   UNL A   1      42.589  27.835  35.870  1.00  0.00     0.057 A 
ATOM     85  C   UNL A   1      41.912  26.618  36.061  1.00  0.00     0.134 A 
ATOM     86  C   UNL A   1      43.862  27.893  36.486  1.00  0.00     0.134 A 
ATOM     87  F   UNL A   1      40.747  26.362  35.447  1.00  0.00    -0.206 F 
ATOM     88  C   UNL A   1      42.410  25.588  36.872  1.00  0.00     0.040 A 
ATOM     89  C   UNL A   1      44.387  26.858  37.265  1.00  0.00     0.040 A 
ATOM     90  F   UNL A   1      44.682  28.943  36.353  1.00  0.00    -0.206 F 
ATOM     91  C   UNL A   1      43.655  25.703  37.474  1.00  0.00     0.006 A 
ENDBRANCH  67  84
ENDBRANCH  41  42
ENDBRANCH  34  36
ENDBRANCH  33  34
ENDBRANCH  32  33
ENDBRANCH  31  32
ENDBRANCH  30  31
ENDBRANCH   1  30
TORSDOF 18
ENDMDL
MODEL 3
REMARK VINA RESULT:     -12.2      1.567      2.589
REMARK SMILES Cc1ccc(C(=O)N2CCCC[C@@H]2C(=O)OCCOCCOC(=O)c2ccc(-c3c4nc(c(-c5c(F)cccc5F)c5ccc([nH]5)c(-c5c(F)cccc5F)c5nc(c(-c6c(F)cccc6F)c6ccc3[nH]6)C=C5)C=C4)cc2)cc1S(=O)(=O)N1CCCCC1
REMARK SMILES IDX 18 1 17 2 16 3 14 4 15 5 13 6 8 7 9 8 10 9 12 10 11 11 6 12
REMARK SMILES IDX 7 13 5 14 1 15 2 16 3 17 80 18 4 19 79 20 81 21 82 22 83 23
REMARK SMILES IDX 84 24 85 25 89 26 86 27 88 28 87 29 19 30 20 31 21 32 22 33
REMARK SMILES IDX 23 34 24 35 25 36 26 37 78 38 27 39 77 40 28 41 29 42 30 43
REMARK SMILES IDX 71 44 31 45 76 46 70 47 72 48 32 49 75 50 69 51 68 52 33 54
REMARK SMILES IDX 59 55 42 56 58 57 43 58 46 59 57 60 73 61 44 62 45 63 56 65
REMARK SMILES IDX 74 66 47 67 34 68 35 69 40 70 36 71 37 72 39 73 41 74 38 75
REMARK SMILES IDX 60 76 61 77 66 78 62 79 63 80 65 81 67 82 64 83 48 84 49 85
REMARK SMILES IDX 54 86 50 87 51 88 53 89 55 90 52 91
REMARK H PARENT 72 53 46 64
REMARK Flexibility Score: inf
ROOT
ATOM      1  C   UNL A   1      30.996  29.711  25.058  1.00  0.00     0.202 C 
ENDROOT
BRANCH   1   2
ATOM      2  C   UNL A   1      31.079  29.139  23.635  1.00  0.00     0.261 C 
BRANCH   2   3
ATOM      3  O   UNL A   1      30.121  28.076  23.412  1.00  0.00    -0.462 OA
BRANCH   3   4
ATOM      4  C   UNL A   1      30.275  26.913  24.118  1.00  0.00     0.328 C 
ATOM      5  O   UNL A   1      29.435  26.428  24.866  1.00  0.00    -0.250 OA
BRANCH   4   6
ATOM      6  C   UNL A   1      31.558  26.154  23.693  1.00  0.00     0.195 C 
ATOM      7  N   UNL A   1      32.916  26.521  24.218  1.00  0.00    -0.325 N 
ATOM      8  C   UNL A   1      33.997  26.890  23.307  1.00  0.00     0.121 C 
ATOM      9  C   UNL A   1      33.620  27.101  21.860  1.00  0.00     0.022 C 
ATOM     10  C   UNL A   1      31.442  26.049  22.146  1.00  0.00     0.037 C 
ATOM     11  C   UNL A   1      32.756  25.938  21.417  1.00  0.00     0.005 C 
BRANCH   7  12
ATOM     12  C   UNL A   1      33.413  26.139  25.487  1.00  0.00     0.254 C 
ATOM     13  O   UNL A   1      33.258  26.816  26.504  1.00  0.00    -0.269 OA
BRANCH  12  14
ATOM     14  C   UNL A   1      33.864  24.766  25.704  1.00  0.00     0.041 A 
ATOM     15  C   UNL A   1      33.865  20.944  24.785  1.00  0.00     0.046 C 
ATOM     16  C   UNL A   1      34.076  22.135  25.593  1.00  0.00    -0.031 A 
ATOM     17  C   UNL A   1      32.954  22.670  26.233  1.00  0.00     0.005 A 
ATOM     18  C   UNL A   1      35.244  22.817  25.332  1.00  0.00     0.086 A 
ATOM     19  C   UNL A   1      32.856  24.020  26.315  1.00  0.00     0.014 A 
ATOM     20  C   UNL A   1      35.112  24.205  25.314  1.00  0.00     0.035 A 
BRANCH  18  21
ATOM     21  S   UNL A   1      36.726  21.865  24.803  1.00  0.00     0.243 S 
ATOM     22  O   UNL A   1      36.461  20.474  25.116  1.00  0.00    -0.207 OA
ATOM     23  O   UNL A   1      36.972  22.293  23.441  1.00  0.00    -0.207 OA
BRANCH  21  24
ATOM     24  N   UNL A   1      38.162  22.346  25.737  1.00  0.00    -0.198 NA
ATOM     25  C   UNL A   1      38.173  24.056  26.430  1.00  0.00     0.102 C 
ATOM     26  C   UNL A   1      39.498  21.088  26.120  1.00  0.00     0.102 C 
ATOM     27  C   UNL A   1      39.644  24.614  27.695  1.00  0.00     0.017 C 
ATOM     28  C   UNL A   1      41.051  21.652  27.292  1.00  0.00     0.017 C 
ATOM     29  C   UNL A   1      41.101  23.415  28.056  1.00  0.00     0.003 C 
ENDBRANCH  21  24
ENDBRANCH  18  21
ENDBRANCH  12  14
ENDBRANCH   7  12
ENDBRANCH   4   6
ENDBRANCH   3   4
ENDBRANCH   2   3
ENDBRANCH   1   2
BRANCH   1  30
ATOM     30  O   UNL A   1      32.323  29.896  25.536  1.00  0.00    -0.374 OA
BRANCH  30  31
ATOM     31  C   UNL A   1      32.477  30.595  26.766  1.00  0.00     0.202 C 
BRANCH  31  32
ATOM     32  C   UNL A   1      33.890  30.539  27.369  1.00  0.00     0.261 C 
BRANCH  32  33
ATOM     33  O   UNL A   1      34.535  31.817  27.215  1.00  0.00    -0.460 OA
BRANCH  33  34
ATOM     34  C   UNL A   1      34.335  32.689  28.236  1.00  0.00     0.338 C 
ATOM     35  O   UNL A   1      33.480  33.561  28.270  1.00  0.00    -0.246 OA
BRANCH  34  36
ATOM     36  C   UNL A   1      35.475  32.611  29.190  1.00  0.00     0.060 A 
ATOM     37  C   UNL A   1      36.789  32.799  28.729  1.00  0.00     0.016 A 
ATOM     38  C   UNL A   1      35.260  32.075  30.458  1.00  0.00     0.016 A 
ATOM     39  C   UNL A   1      37.879  32.369  29.501  1.00  0.00     0.010 A 
ATOM     40  C   UNL A   1      36.326  31.546  31.159  1.00  0.00     0.010 A 
ATOM     41  C   UNL A   1      37.649  31.685  30.701  1.00  0.00    -0.014 A 
BRANCH  41  42
ATOM     42  C   UNL A   1      38.684  30.912  31.459  1.00  0.00     0.031 A 
ATOM     43  C   UNL A   1      39.177  29.587  30.820  1.00  0.00     0.074 A 
ATOM     44  C   UNL A   1      39.440  31.780  32.178  1.00  0.00     0.049 A 
ATOM     45  N   UNL A   1      40.215  28.823  31.048  1.00  0.00    -0.248 NA
ATOM     46  C   UNL A   1      38.326  29.002  29.799  1.00  0.00     0.031 C 
ATOM     47  C   UNL A   1      40.760  32.287  31.865  1.00  0.00     0.029 A 
ATOM     48  N   UNL A   1      39.071  32.688  33.151  1.00  0.00    -0.354 N 
ATOM     49  C   UNL A   1      40.480  27.965  29.928  1.00  0.00     0.074 A 
ATOM     50  C   UNL A   1      39.117  28.064  29.289  1.00  0.00     0.031 C 
ATOM     51  C   UNL A   1      41.266  33.061  32.823  1.00  0.00     0.029 A 
ATOM     52  C   UNL A   1      40.214  33.232  33.765  1.00  0.00     0.049 A 
ATOM     53  H   UNL A   1      38.143  32.920  33.384  1.00  0.00     0.167 HD
ATOM     54  C   UNL A   1      41.910  27.434  29.514  1.00  0.00     0.037 A 
ATOM     55  C   UNL A   1      40.414  33.118  35.092  1.00  0.00     0.037 A 
ATOM     56  C   UNL A   1      42.682  27.826  31.073  1.00  0.00     0.049 A 
ATOM     57  C   UNL A   1      41.169  31.845  35.411  1.00  0.00     0.074 A 
ATOM     58  C   UNL A   1      43.993  28.105  31.564  1.00  0.00     0.029 A 
ATOM     59  N   UNL A   1      41.981  27.873  32.353  1.00  0.00    -0.354 N 
ATOM     60  N   UNL A   1      41.385  30.833  34.593  1.00  0.00    -0.248 NA
ATOM     61  C   UNL A   1      41.847  31.695  36.694  1.00  0.00     0.031 C 
ATOM     62  C   UNL A   1      43.976  28.710  32.824  1.00  0.00     0.029 A 
ATOM     63  C   UNL A   1      42.734  28.501  33.360  1.00  0.00     0.049 A 
ATOM     64  H   UNL A   1      41.079  27.504  32.495  1.00  0.00     0.167 HD
ATOM     65  C   UNL A   1      42.106  29.868  35.265  1.00  0.00     0.074 A 
ATOM     66  C   UNL A   1      42.421  30.494  36.545  1.00  0.00     0.031 C 
ATOM     67  C   UNL A   1      42.445  28.623  34.790  1.00  0.00     0.037 A 
BRANCH  54  68
ATOM     68  C   UNL A   1      42.744  26.579  27.790  1.00  0.00     0.057 A 
ATOM     69  C   UNL A   1      44.029  25.649  27.513  1.00  0.00     0.134 A 
ATOM     70  C   UNL A   1      42.314  26.541  26.255  1.00  0.00     0.134 A 
ATOM     71  F   UNL A   1      44.981  25.353  28.445  1.00  0.00    -0.206 F 
ATOM     72  C   UNL A   1      44.544  24.980  26.346  1.00  0.00     0.040 A 
ATOM     73  C   UNL A   1      42.856  25.867  25.093  1.00  0.00     0.040 A 
ATOM     74  F   UNL A   1      41.222  27.170  25.743  1.00  0.00    -0.206 F 
ATOM     75  C   UNL A   1      43.957  25.072  25.128  1.00  0.00     0.006 A 
ENDBRANCH  54  68
BRANCH  55  76
ATOM     76  C   UNL A   1      39.295  33.853  35.759  1.00  0.00     0.057 A 
ATOM     77  C   UNL A   1      38.458  32.992  36.514  1.00  0.00     0.134 A 
ATOM     78  C   UNL A   1      39.551  35.118  36.308  1.00  0.00     0.134 A 
ATOM     79  F   UNL A   1      38.155  31.771  36.041  1.00  0.00    -0.206 F 
ATOM     80  C   UNL A   1      38.165  33.248  37.858  1.00  0.00     0.040 A 
ATOM     81  C   UNL A   1      39.260  35.380  37.658  1.00  0.00     0.040 A 
ATOM     82  F   UNL A   1      40.332  35.989  35.655  1.00  0.00    -0.206 F 
ATOM     83  C   UNL A   1      38.623  34.421  38.450  1.00  0.00     0.006 A 
ENDBRANCH  55  76
BRANCH  67  84
ATOM     84  C   UNL A   1      42.987  27.534  35.720  1.00  0.00     0.057 A 
ATOM     85  C   UNL A   1      42.284  26.347  35.992  1.00  0.00     0.134 A 
ATOM     86  C   UNL A   1      44.275  27.591  36.303  1.00  0.00     0.134 A 
ATOM     87  F   UNL A   1      41.099  26.090  35.419  1.00  0.00    -0.206 F 
ATOM     88  C   UNL A   1      42.776  25.350  36.846  1.00  0.00     0.040 A 
ATOM     89  C   UNL A   1      44.793  26.586  37.125  1.00  0.00     0.040 A 
ATOM     90  F   UNL A   1      45.119  28.610  36.095  1.00  0.00    -0.206 F 
ATOM     91  C   UNL A   1      44.036  25.464  37.413  1.00  0.00     0.006 A 
ENDBRANCH  67  84
ENDBRANCH  41  42
ENDBRANCH  34  36
ENDBRANCH  33  34
ENDBRANCH  32  33
ENDBRANCH  31  32
ENDBRANCH  30  31
ENDBRANCH   1  30
TORSDOF 18
ENDMDL
