MODEL 1
REMARK VINA RESULT:     -13.2      0.000      0.000
REMARK SMILES C[C@@H]1C[N@H+]2CCCC[C@@H]2CN1C(=O)NC(=O)CCC(=O)OCCOCCOC(=O)c1ccc(-c2c3nc(c(-c4c(F)cccc4F)c4ccc([nH]4)c(-c4c(F)cccc4F)c4nc(c(-c5c(F)cccc5F)c5ccc2[nH]5)C=C4)C=C3)cc1
REMARK SMILES IDX 23 1 22 2 21 3 19 4 20 5 18 6 17 7 15 8 12 9 13 10 14 11
REMARK SMILES IDX 16 13 11 14 1 15 2 16 3 17 4 18 10 19 5 20 9 21 6 23 8 24
REMARK SMILES IDX 7 25 24 26 25 27 26 28 27 29 28 30 29 31 30 32 31 33 83 34
REMARK SMILES IDX 32 35 82 36 33 37 34 38 35 39 76 40 36 41 81 42 75 43 77 44
REMARK SMILES IDX 37 45 80 46 74 47 73 48 38 50 64 51 47 52 63 53 48 54 51 55
REMARK SMILES IDX 62 56 78 57 49 58 50 59 61 61 79 62 52 63 39 64 40 65 45 66
REMARK SMILES IDX 41 67 42 68 44 69 46 70 43 71 65 72 66 73 71 74 67 75 68 76
REMARK SMILES IDX 70 77 72 78 69 79 53 80 54 81 59 82 55 83 56 84 58 85 60 86
REMARK SMILES IDX 57 87
REMARK H PARENT 14 12 4 22 77 49 51 60
REMARK Flexibility Score: inf
ROOT
ATOM      1  C   UNL A   1      39.707  21.512  26.250  1.00  0.00     0.202 C 
ENDROOT
BRANCH   1   2
ATOM      2  C   UNL A   1      38.359  21.323  25.495  1.00  0.00     0.261 C 
BRANCH   2   3
ATOM      3  O   UNL A   1      37.798  22.575  25.127  1.00  0.00    -0.463 OA
BRANCH   3   4
ATOM      4  C   UNL A   1      36.596  22.387  24.555  1.00  0.00     0.306 C 
ATOM      5  O   UNL A   1      36.358  22.536  23.361  1.00  0.00    -0.252 OA
BRANCH   4   6
ATOM      6  C   UNL A   1      35.562  21.917  25.518  1.00  0.00     0.132 C 
BRANCH   6   7
ATOM      7  C   UNL A   1      34.934  20.531  25.483  1.00  0.00     0.112 C 
BRANCH   7   8
ATOM      8  C   UNL A   1      33.638  20.042  24.821  1.00  0.00     0.228 C 
ATOM      9  C   UNL A   1      32.458  21.820  23.178  1.00  0.00     0.324 C 
ATOM     10  O   UNL A   1      32.100  21.633  22.018  1.00  0.00    -0.248 OA
ATOM     11  N   UNL A   1      32.729  20.698  23.994  1.00  0.00    -0.278 N 
ATOM     12  H   UNL A   1      31.923  20.134  23.964  1.00  0.00     0.174 HD
ATOM     13  O   UNL A   1      33.275  18.893  25.142  1.00  0.00    -0.275 OA
BRANCH   9  14
ATOM     14  N   UNL A   1      32.504  23.082  23.758  1.00  0.00    -0.310 N 
ATOM     15  C   UNL A   1      30.569  23.613  26.232  1.00  0.00     0.037 C 
ATOM     16  C   UNL A   1      31.988  23.632  25.570  1.00  0.00     0.139 C 
ATOM     17  C   UNL A   1      32.450  25.516  26.012  1.00  0.00     0.287 C 
ATOM     18  N   UNL A   1      33.118  26.566  24.776  1.00  0.00    -0.329 N 
ATOM     19  C   UNL A   1      33.383  24.308  22.634  1.00  0.00     0.186 C 
ATOM     20  C   UNL A   1      33.564  27.881  25.195  1.00  0.00     0.262 C 
ATOM     21  C   UNL A   1      33.731  26.078  23.276  1.00  0.00     0.203 C 
ATOM     22  H   UNL A   1      32.162  26.502  24.427  1.00  0.00     0.348 HD
ATOM     23  C   UNL A   1      33.430  28.929  24.072  1.00  0.00     0.062 C 
ATOM     24  C   UNL A   1      33.413  27.174  22.238  1.00  0.00     0.067 C 
ATOM     25  C   UNL A   1      34.002  28.504  22.716  1.00  0.00     0.012 C 
ENDBRANCH   9  14
ENDBRANCH   7   8
ENDBRANCH   6   7
ENDBRANCH   4   6
ENDBRANCH   3   4
ENDBRANCH   2   3
ENDBRANCH   1   2
BRANCH   1  26
ATOM     26  O   UNL A   1      40.517  20.296  26.450  1.00  0.00    -0.374 OA
BRANCH  26  27
ATOM     27  C   UNL A   1      42.170  20.133  26.299  1.00  0.00     0.202 C 
BRANCH  27  28
ATOM     28  C   UNL A   1      43.607  21.294  25.197  1.00  0.00     0.261 C 
BRANCH  28  29
ATOM     29  O   UNL A   1      43.392  22.806  24.528  1.00  0.00    -0.460 OA
BRANCH  29  30
ATOM     30  C   UNL A   1      44.159  23.888  24.901  1.00  0.00     0.338 C 
ATOM     31  O   UNL A   1      45.234  24.191  24.402  1.00  0.00    -0.246 OA
BRANCH  30  32
ATOM     32  C   UNL A   1      43.468  24.813  25.872  1.00  0.00     0.060 A 
ATOM     33  C   UNL A   1      43.882  26.159  25.974  1.00  0.00     0.016 A 
ATOM     34  C   UNL A   1      42.410  24.391  26.677  1.00  0.00     0.016 A 
ATOM     35  C   UNL A   1      43.259  27.058  26.870  1.00  0.00     0.010 A 
ATOM     36  C   UNL A   1      41.798  25.287  27.585  1.00  0.00     0.010 A 
ATOM     37  C   UNL A   1      42.228  26.626  27.716  1.00  0.00    -0.014 A 
BRANCH  37  38
ATOM     38  C   UNL A   1      41.733  27.495  28.843  1.00  0.00     0.031 A 
ATOM     39  C   UNL A   1      42.449  27.436  30.176  1.00  0.00     0.074 A 
ATOM     40  C   UNL A   1      40.690  28.347  28.729  1.00  0.00     0.049 A 
ATOM     41  N   UNL A   1      42.197  28.067  31.299  1.00  0.00    -0.248 NA
ATOM     42  C   UNL A   1      43.609  26.535  30.247  1.00  0.00     0.031 C 
ATOM     43  C   UNL A   1      39.899  28.566  27.521  1.00  0.00     0.029 A 
ATOM     44  N   UNL A   1      40.110  29.190  29.660  1.00  0.00    -0.354 N 
ATOM     45  C   UNL A   1      43.161  27.635  32.205  1.00  0.00     0.074 A 
ATOM     46  C   UNL A   1      43.971  26.656  31.515  1.00  0.00     0.031 C 
ATOM     47  C   UNL A   1      38.940  29.475  27.783  1.00  0.00     0.029 A 
ATOM     48  C   UNL A   1      39.021  29.889  29.185  1.00  0.00     0.049 A 
ATOM     49  H   UNL A   1      40.445  29.283  30.581  1.00  0.00     0.167 HD
ATOM     50  C   UNL A   1      43.372  28.022  33.488  1.00  0.00     0.037 A 
ATOM     51  C   UNL A   1      38.178  30.747  29.803  1.00  0.00     0.037 A 
ATOM     52  C   UNL A   1      42.580  28.992  34.201  1.00  0.00     0.049 A 
ATOM     53  C   UNL A   1      38.377  31.099  31.262  1.00  0.00     0.074 A 
ATOM     54  C   UNL A   1      42.746  29.453  35.496  1.00  0.00     0.029 A 
ATOM     55  N   UNL A   1      41.466  29.637  33.689  1.00  0.00    -0.354 N 
ATOM     56  N   UNL A   1      39.318  30.713  32.088  1.00  0.00    -0.248 NA
ATOM     57  C   UNL A   1      37.394  32.013  31.872  1.00  0.00     0.031 C 
ATOM     58  C   UNL A   1      41.692  30.322  35.793  1.00  0.00     0.029 A 
ATOM     59  C   UNL A   1      40.914  30.465  34.657  1.00  0.00     0.049 A 
ATOM     60  H   UNL A   1      41.117  29.526  32.775  1.00  0.00     0.167 HD
ATOM     61  C   UNL A   1      39.063  31.364  33.294  1.00  0.00     0.074 A 
ATOM     62  C   UNL A   1      37.888  32.180  33.090  1.00  0.00     0.031 C 
ATOM     63  C   UNL A   1      39.749  31.290  34.461  1.00  0.00     0.037 A 
BRANCH  50  64
ATOM     64  C   UNL A   1      44.507  27.367  34.229  1.00  0.00     0.057 A 
ATOM     65  C   UNL A   1      45.792  27.924  34.265  1.00  0.00     0.134 A 
ATOM     66  C   UNL A   1      44.299  26.181  34.948  1.00  0.00     0.134 A 
ATOM     67  F   UNL A   1      46.063  29.053  33.594  1.00  0.00    -0.206 F 
ATOM     68  C   UNL A   1      46.837  27.308  34.956  1.00  0.00     0.040 A 
ATOM     69  C   UNL A   1      45.327  25.576  35.673  1.00  0.00     0.040 A 
ATOM     70  F   UNL A   1      43.090  25.600  34.971  1.00  0.00    -0.206 F 
ATOM     71  C   UNL A   1      46.603  26.133  35.669  1.00  0.00     0.006 A 
ENDBRANCH  50  64
BRANCH  51  72
ATOM     72  C   UNL A   1      37.031  31.347  29.059  1.00  0.00     0.057 A 
ATOM     73  C   UNL A   1      37.070  32.668  28.591  1.00  0.00     0.134 A 
ATOM     74  C   UNL A   1      35.841  30.635  28.858  1.00  0.00     0.134 A 
ATOM     75  F   UNL A   1      38.162  33.421  28.787  1.00  0.00    -0.206 F 
ATOM     76  C   UNL A   1      35.967  33.262  27.971  1.00  0.00     0.040 A 
ATOM     77  C   UNL A   1      34.743  31.206  28.211  1.00  0.00     0.040 A 
ATOM     78  F   UNL A   1      35.726  29.373  29.295  1.00  0.00    -0.206 F 
ATOM     79  C   UNL A   1      34.801  32.527  27.774  1.00  0.00     0.006 A 
ENDBRANCH  51  72
BRANCH  63  80
ATOM     80  C   UNL A   1      39.291  32.151  35.609  1.00  0.00     0.057 A 
ATOM     81  C   UNL A   1      39.697  33.484  35.756  1.00  0.00     0.134 A 
ATOM     82  C   UNL A   1      38.385  31.651  36.556  1.00  0.00     0.134 A 
ATOM     83  F   UNL A   1      40.566  34.031  34.893  1.00  0.00    -0.206 F 
ATOM     84  C   UNL A   1      39.243  34.276  36.816  1.00  0.00     0.040 A 
ATOM     85  C   UNL A   1      37.899  32.443  37.599  1.00  0.00     0.040 A 
ATOM     86  F   UNL A   1      37.939  30.388  36.473  1.00  0.00    -0.206 F 
ATOM     87  C   UNL A   1      38.335  33.757  37.736  1.00  0.00     0.006 A 
ENDBRANCH  63  80
ENDBRANCH  37  38
ENDBRANCH  30  32
ENDBRANCH  29  30
ENDBRANCH  28  29
ENDBRANCH  27  28
ENDBRANCH  26  27
ENDBRANCH   1  26
TORSDOF 17
ENDMDL
MODEL 2
REMARK VINA RESULT:     -13.1      1.649      2.438
REMARK SMILES C[C@@H]1C[N@H+]2CCCC[C@@H]2CN1C(=O)NC(=O)CCC(=O)OCCOCCOC(=O)c1ccc(-c2c3nc(c(-c4c(F)cccc4F)c4ccc([nH]4)c(-c4c(F)cccc4F)c4nc(c(-c5c(F)cccc5F)c5ccc2[nH]5)C=C4)C=C3)cc1
REMARK SMILES IDX 23 1 22 2 21 3 19 4 20 5 18 6 17 7 15 8 12 9 13 10 14 11
REMARK SMILES IDX 16 13 11 14 1 15 2 16 3 17 4 18 10 19 5 20 9 21 6 23 8 24
REMARK SMILES IDX 7 25 24 26 25 27 26 28 27 29 28 30 29 31 30 32 31 33 83 34
REMARK SMILES IDX 32 35 82 36 33 37 34 38 35 39 76 40 36 41 81 42 75 43 77 44
REMARK SMILES IDX 37 45 80 46 74 47 73 48 38 50 64 51 47 52 63 53 48 54 51 55
REMARK SMILES IDX 62 56 78 57 49 58 50 59 61 61 79 62 52 63 39 64 40 65 45 66
REMARK SMILES IDX 41 67 42 68 44 69 46 70 43 71 65 72 66 73 71 74 67 75 68 76
REMARK SMILES IDX 70 77 72 78 69 79 53 80 54 81 59 82 55 83 56 84 58 85 60 86
REMARK SMILES IDX 57 87
REMARK H PARENT 14 12 4 22 77 49 51 60
REMARK Flexibility Score: inf
ROOT
ATOM      1  C   UNL A   1      39.138  22.287  26.126  1.00  0.00     0.202 C 
ENDROOT
BRANCH   1   2
ATOM      2  C   UNL A   1      37.637  22.241  25.716  1.00  0.00     0.261 C 
BRANCH   2   3
ATOM      3  O   UNL A   1      37.492  22.023  24.321  1.00  0.00    -0.463 OA
BRANCH   3   4
ATOM      4  C   UNL A   1      36.577  22.867  23.818  1.00  0.00     0.306 C 
ATOM      5  O   UNL A   1      36.278  22.951  22.630  1.00  0.00    -0.252 OA
BRANCH   4   6
ATOM      6  C   UNL A   1      35.898  23.679  24.865  1.00  0.00     0.132 C 
BRANCH   6   7
ATOM      7  C   UNL A   1      34.404  23.623  25.151  1.00  0.00     0.112 C 
BRANCH   7   8
ATOM      8  C   UNL A   1      33.649  23.503  26.482  1.00  0.00     0.228 C 
ATOM      9  C   UNL A   1      31.172  24.562  26.483  1.00  0.00     0.324 C 
ATOM     10  O   UNL A   1      30.132  24.013  26.838  1.00  0.00    -0.248 OA
ATOM     11  N   UNL A   1      32.406  23.995  26.875  1.00  0.00    -0.278 N 
ATOM     12  H   UNL A   1      32.372  23.912  27.856  1.00  0.00     0.174 HD
ATOM     13  O   UNL A   1      34.280  22.955  27.407  1.00  0.00    -0.275 OA
BRANCH   9  14
ATOM     14  N   UNL A   1      31.191  25.775  25.805  1.00  0.00    -0.310 N 
ATOM     15  C   UNL A   1      33.189  28.010  26.885  1.00  0.00     0.037 C 
ATOM     16  C   UNL A   1      32.610  27.128  25.727  1.00  0.00     0.139 C 
ATOM     17  C   UNL A   1      32.261  28.602  24.435  1.00  0.00     0.287 C 
ATOM     18  N   UNL A   1      30.722  28.685  23.599  1.00  0.00    -0.329 N 
ATOM     19  C   UNL A   1      29.687  25.945  24.687  1.00  0.00     0.186 C 
ATOM     20  C   UNL A   1      30.581  29.697  22.570  1.00  0.00     0.262 C 
ATOM     21  C   UNL A   1      29.564  27.452  23.513  1.00  0.00     0.203 C 
ATOM     22  H   UNL A   1      30.406  28.942  24.534  1.00  0.00     0.348 HD
ATOM     23  C   UNL A   1      29.127  30.189  22.428  1.00  0.00     0.062 C 
ATOM     24  C   UNL A   1      28.164  28.099  23.500  1.00  0.00     0.067 C 
ATOM     25  C   UNL A   1      28.075  29.080  22.328  1.00  0.00     0.012 C 
ENDBRANCH   9  14
ENDBRANCH   7   8
ENDBRANCH   6   7
ENDBRANCH   4   6
ENDBRANCH   3   4
ENDBRANCH   2   3
ENDBRANCH   1   2
BRANCH   1  26
ATOM     26  O   UNL A   1      39.719  21.023  26.614  1.00  0.00    -0.374 OA
BRANCH  26  27
ATOM     27  C   UNL A   1      41.320  20.557  26.583  1.00  0.00     0.202 C 
BRANCH  27  28
ATOM     28  C   UNL A   1      43.023  21.420  25.592  1.00  0.00     0.261 C 
BRANCH  28  29
ATOM     29  O   UNL A   1      43.054  22.779  24.627  1.00  0.00    -0.460 OA
BRANCH  29  30
ATOM     30  C   UNL A   1      43.827  23.878  24.934  1.00  0.00     0.338 C 
ATOM     31  O   UNL A   1      44.878  24.173  24.382  1.00  0.00    -0.246 OA
BRANCH  30  32
ATOM     32  C   UNL A   1      43.167  24.828  25.903  1.00  0.00     0.060 A 
ATOM     33  C   UNL A   1      43.718  26.112  26.111  1.00  0.00     0.016 A 
ATOM     34  C   UNL A   1      42.010  24.491  26.604  1.00  0.00     0.016 A 
ATOM     35  C   UNL A   1      43.129  27.032  27.009  1.00  0.00     0.010 A 
ATOM     36  C   UNL A   1      41.431  25.407  27.514  1.00  0.00     0.010 A 
ATOM     37  C   UNL A   1      41.994  26.680  27.752  1.00  0.00    -0.014 A 
BRANCH  37  38
ATOM     38  C   UNL A   1      41.510  27.544  28.888  1.00  0.00     0.031 A 
ATOM     39  C   UNL A   1      42.237  27.477  30.214  1.00  0.00     0.074 A 
ATOM     40  C   UNL A   1      40.469  28.401  28.786  1.00  0.00     0.049 A 
ATOM     41  N   UNL A   1      41.996  28.102  31.342  1.00  0.00    -0.248 NA
ATOM     42  C   UNL A   1      43.394  26.571  30.272  1.00  0.00     0.031 C 
ATOM     43  C   UNL A   1      39.669  28.628  27.585  1.00  0.00     0.029 A 
ATOM     44  N   UNL A   1      39.899  29.240  29.726  1.00  0.00    -0.354 N 
ATOM     45  C   UNL A   1      42.966  27.663  32.239  1.00  0.00     0.074 A 
ATOM     46  C   UNL A   1      43.767  26.685  31.537  1.00  0.00     0.031 C 
ATOM     47  C   UNL A   1      38.715  29.539  27.860  1.00  0.00     0.029 A 
ATOM     48  C   UNL A   1      38.809  29.945  29.263  1.00  0.00     0.049 A 
ATOM     49  H   UNL A   1      40.242  29.327  30.644  1.00  0.00     0.167 HD
ATOM     50  C   UNL A   1      43.188  28.042  33.522  1.00  0.00     0.037 A 
ATOM     51  C   UNL A   1      37.973  30.802  29.892  1.00  0.00     0.037 A 
ATOM     52  C   UNL A   1      42.404  29.011  34.246  1.00  0.00     0.049 A 
ATOM     53  C   UNL A   1      38.185  31.146  31.351  1.00  0.00     0.074 A 
ATOM     54  C   UNL A   1      42.582  29.466  35.541  1.00  0.00     0.029 A 
ATOM     55  N   UNL A   1      41.289  29.663  33.746  1.00  0.00    -0.354 N 
ATOM     56  N   UNL A   1      39.132  30.753  32.168  1.00  0.00    -0.248 NA
ATOM     57  C   UNL A   1      37.210  32.060  31.974  1.00  0.00     0.031 C 
ATOM     58  C   UNL A   1      41.534  30.336  35.852  1.00  0.00     0.029 A 
ATOM     59  C   UNL A   1      40.747  30.487  34.723  1.00  0.00     0.049 A 
ATOM     60  H   UNL A   1      40.932  29.557  32.835  1.00  0.00     0.167 HD
ATOM     61  C   UNL A   1      38.888  31.399  33.379  1.00  0.00     0.074 A 
ATOM     62  C   UNL A   1      37.714  32.219  33.189  1.00  0.00     0.031 C 
ATOM     63  C   UNL A   1      39.584  31.317  34.540  1.00  0.00     0.037 A 
BRANCH  50  64
ATOM     64  C   UNL A   1      44.327  27.380  34.250  1.00  0.00     0.057 A 
ATOM     65  C   UNL A   1      45.611  27.939  34.287  1.00  0.00     0.134 A 
ATOM     66  C   UNL A   1      44.124  26.186  34.956  1.00  0.00     0.134 A 
ATOM     67  F   UNL A   1      45.878  29.077  33.629  1.00  0.00    -0.206 F 
ATOM     68  C   UNL A   1      46.660  27.316  34.967  1.00  0.00     0.040 A 
ATOM     69  C   UNL A   1      45.156  25.573  35.669  1.00  0.00     0.040 A 
ATOM     70  F   UNL A   1      42.915  25.602  34.976  1.00  0.00    -0.206 F 
ATOM     71  C   UNL A   1      46.431  26.133  35.667  1.00  0.00     0.006 A 
ENDBRANCH  50  64
BRANCH  51  72
ATOM     72  C   UNL A   1      36.822  31.409  29.160  1.00  0.00     0.057 A 
ATOM     73  C   UNL A   1      35.695  30.653  28.809  1.00  0.00     0.134 A 
ATOM     74  C   UNL A   1      36.852  32.744  28.734  1.00  0.00     0.134 A 
ATOM     75  F   UNL A   1      35.619  29.358  29.147  1.00  0.00    -0.206 F 
ATOM     76  C   UNL A   1      34.654  31.194  28.049  1.00  0.00     0.040 A 
ATOM     77  C   UNL A   1      35.803  33.305  28.002  1.00  0.00     0.040 A 
ATOM     78  F   UNL A   1      37.906  33.521  29.019  1.00  0.00    -0.206 F 
ATOM     79  C   UNL A   1      34.704  32.527  27.649  1.00  0.00     0.006 A 
ENDBRANCH  51  72
BRANCH  63  80
ATOM     80  C   UNL A   1      39.137  32.174  35.696  1.00  0.00     0.057 A 
ATOM     81  C   UNL A   1      38.282  31.695  36.698  1.00  0.00     0.134 A 
ATOM     82  C   UNL A   1      39.613  33.486  35.835  1.00  0.00     0.134 A 
ATOM     83  F   UNL A   1      37.782  30.452  36.630  1.00  0.00    -0.206 F 
ATOM     84  C   UNL A   1      37.896  32.497  37.777  1.00  0.00     0.040 A 
ATOM     85  C   UNL A   1      39.260  34.284  36.926  1.00  0.00     0.040 A 
ATOM     86  F   UNL A   1      40.446  34.009  34.924  1.00  0.00    -0.206 F 
ATOM     87  C   UNL A   1      38.393  33.793  37.897  1.00  0.00     0.006 A 
ENDBRANCH  63  80
ENDBRANCH  37  38
ENDBRANCH  30  32
ENDBRANCH  29  30
ENDBRANCH  28  29
ENDBRANCH  27  28
ENDBRANCH  26  27
ENDBRANCH   1  26
TORSDOF 17
ENDMDL
MODEL 3
REMARK VINA RESULT:     -12.9      3.907      6.235
REMARK SMILES C[C@@H]1C[N@H+]2CCCC[C@@H]2CN1C(=O)NC(=O)CCC(=O)OCCOCCOC(=O)c1ccc(-c2c3nc(c(-c4c(F)cccc4F)c4ccc([nH]4)c(-c4c(F)cccc4F)c4nc(c(-c5c(F)cccc5F)c5ccc2[nH]5)C=C4)C=C3)cc1
REMARK SMILES IDX 23 1 22 2 21 3 19 4 20 5 18 6 17 7 15 8 12 9 13 10 14 11
REMARK SMILES IDX 16 13 11 14 1 15 2 16 3 17 4 18 10 19 5 20 9 21 6 23 8 24
REMARK SMILES IDX 7 25 24 26 25 27 26 28 27 29 28 30 29 31 30 32 31 33 83 34
REMARK SMILES IDX 32 35 82 36 33 37 34 38 35 39 76 40 36 41 81 42 75 43 77 44
REMARK SMILES IDX 37 45 80 46 74 47 73 48 38 50 64 51 47 52 63 53 48 54 51 55
REMARK SMILES IDX 62 56 78 57 49 58 50 59 61 61 79 62 52 63 39 64 40 65 45 66
REMARK SMILES IDX 41 67 42 68 44 69 46 70 43 71 65 72 66 73 71 74 67 75 68 76
REMARK SMILES IDX 70 77 72 78 69 79 53 80 54 81 59 82 55 83 56 84 58 85 60 86
REMARK SMILES IDX 57 87
REMARK H PARENT 14 12 4 22 77 49 51 60
REMARK Flexibility Score: inf
ROOT
ATOM      1  C   UNL A   1      37.050  22.897  25.072  1.00  0.00     0.202 C 
ENDROOT
BRANCH   1   2
ATOM      2  C   UNL A   1      35.642  23.456  25.427  1.00  0.00     0.261 C 
BRANCH   2   3
ATOM      3  O   UNL A   1      35.213  22.996  26.701  1.00  0.00    -0.463 OA
BRANCH   3   4
ATOM      4  C   UNL A   1      33.973  22.486  26.610  1.00  0.00     0.306 C 
ATOM      5  O   UNL A   1      33.714  21.297  26.454  1.00  0.00    -0.252 OA
BRANCH   4   6
ATOM      6  C   UNL A   1      32.910  23.515  26.773  1.00  0.00     0.132 C 
BRANCH   6   7
ATOM      7  C   UNL A   1      31.998  23.983  25.648  1.00  0.00     0.112 C 
BRANCH   7   8
ATOM      8  C   UNL A   1      32.116  23.799  24.128  1.00  0.00     0.228 C 
ATOM      9  C   UNL A   1      32.882  25.997  22.774  1.00  0.00     0.324 C 
ATOM     10  O   UNL A   1      33.801  26.085  21.963  1.00  0.00    -0.248 OA
ATOM     11  N   UNL A   1      32.401  24.714  23.116  1.00  0.00    -0.278 N 
ATOM     12  H   UNL A   1      32.162  24.273  22.268  1.00  0.00     0.174 HD
ATOM     13  O   UNL A   1      31.818  22.666  23.702  1.00  0.00    -0.275 OA
BRANCH   9  14
ATOM     14  N   UNL A   1      32.222  27.107  23.287  1.00  0.00    -0.310 N 
ATOM     15  C   UNL A   1      32.718  27.797  26.358  1.00  0.00     0.037 C 
ATOM     16  C   UNL A   1      32.679  28.207  24.847  1.00  0.00     0.139 C 
ATOM     17  C   UNL A   1      31.553  29.835  25.054  1.00  0.00     0.287 C 
ATOM     18  N   UNL A   1      30.193  30.099  23.979  1.00  0.00    -0.329 N 
ATOM     19  C   UNL A   1      30.837  27.659  22.139  1.00  0.00     0.186 C 
ATOM     20  C   UNL A   1      29.499  31.368  24.090  1.00  0.00     0.262 C 
ATOM     21  C   UNL A   1      29.886  29.272  22.534  1.00  0.00     0.203 C 
ATOM     22  H   UNL A   1      29.812  29.326  24.525  1.00  0.00     0.348 HD
ATOM     23  C   UNL A   1      28.007  31.253  23.718  1.00  0.00     0.062 C 
ATOM     24  C   UNL A   1      28.359  29.133  22.366  1.00  0.00     0.067 C 
ATOM     25  C   UNL A   1      27.721  30.525  22.401  1.00  0.00     0.012 C 
ENDBRANCH   9  14
ENDBRANCH   7   8
ENDBRANCH   6   7
ENDBRANCH   4   6
ENDBRANCH   3   4
ENDBRANCH   2   3
ENDBRANCH   1   2
BRANCH   1  26
ATOM     26  O   UNL A   1      37.077  21.702  24.208  1.00  0.00    -0.374 OA
BRANCH  26  27
ATOM     27  C   UNL A   1      37.345  20.120  24.662  1.00  0.00     0.202 C 
BRANCH  27  28
ATOM     28  C   UNL A   1      38.979  19.215  25.729  1.00  0.00     0.261 C 
BRANCH  28  29
ATOM     29  O   UNL A   1      40.610  19.439  25.467  1.00  0.00    -0.460 OA
BRANCH  29  30
ATOM     30  C   UNL A   1      41.494  19.661  26.501  1.00  0.00     0.338 C 
ATOM     31  O   UNL A   1      42.240  18.818  26.980  1.00  0.00    -0.246 OA
BRANCH  30  32
ATOM     32  C   UNL A   1      41.617  21.114  26.888  1.00  0.00     0.060 A 
ATOM     33  C   UNL A   1      41.066  22.111  26.053  1.00  0.00     0.016 A 
ATOM     34  C   UNL A   1      42.252  21.521  28.062  1.00  0.00     0.016 A 
ATOM     35  C   UNL A   1      41.158  23.484  26.380  1.00  0.00     0.010 A 
ATOM     36  C   UNL A   1      42.357  22.896  28.380  1.00  0.00     0.010 A 
ATOM     37  C   UNL A   1      41.837  23.900  27.534  1.00  0.00    -0.014 A 
BRANCH  37  38
ATOM     38  C   UNL A   1      42.162  25.354  27.763  1.00  0.00     0.031 A 
ATOM     39  C   UNL A   1      43.488  25.889  27.266  1.00  0.00     0.074 A 
ATOM     40  C   UNL A   1      41.324  26.222  28.371  1.00  0.00     0.049 A 
ATOM     41  N   UNL A   1      44.003  27.092  27.364  1.00  0.00    -0.248 NA
ATOM     42  C   UNL A   1      44.352  24.927  26.564  1.00  0.00     0.031 C 
ATOM     43  C   UNL A   1      39.995  25.902  28.886  1.00  0.00     0.029 A 
ATOM     44  N   UNL A   1      41.477  27.564  28.667  1.00  0.00    -0.354 N 
ATOM     45  C   UNL A   1      45.248  27.028  26.743  1.00  0.00     0.074 A 
ATOM     46  C   UNL A   1      45.428  25.658  26.315  1.00  0.00     0.031 C 
ATOM     47  C   UNL A   1      39.458  27.009  29.435  1.00  0.00     0.029 A 
ATOM     48  C   UNL A   1      40.410  28.117  29.341  1.00  0.00     0.049 A 
ATOM     49  H   UNL A   1      42.278  28.079  28.417  1.00  0.00     0.167 HD
ATOM     50  C   UNL A   1      46.156  28.012  26.529  1.00  0.00     0.037 A 
ATOM     51  C   UNL A   1      40.222  29.361  29.840  1.00  0.00     0.037 A 
ATOM     52  C   UNL A   1      46.004  29.383  26.947  1.00  0.00     0.049 A 
ATOM     53  C   UNL A   1      41.287  30.423  29.668  1.00  0.00     0.074 A 
ATOM     54  C   UNL A   1      46.871  30.444  26.747  1.00  0.00     0.029 A 
ATOM     55  N   UNL A   1      44.927  29.880  27.661  1.00  0.00    -0.354 N 
ATOM     56  N   UNL A   1      42.436  30.354  29.042  1.00  0.00    -0.248 NA
ATOM     57  C   UNL A   1      41.022  31.742  30.272  1.00  0.00     0.031 C 
ATOM     58  C   UNL A   1      46.354  31.566  27.401  1.00  0.00     0.029 A 
ATOM     59  C   UNL A   1      45.126  31.225  27.941  1.00  0.00     0.049 A 
ATOM     60  H   UNL A   1      44.137  29.358  27.931  1.00  0.00     0.167 HD
ATOM     61  C   UNL A   1      43.007  31.621  29.144  1.00  0.00     0.074 A 
ATOM     62  C   UNL A   1      42.074  32.444  29.879  1.00  0.00     0.031 C 
ATOM     63  C   UNL A   1      44.198  32.057  28.663  1.00  0.00     0.037 A 
BRANCH  50  64
ATOM     64  C   UNL A   1      47.430  27.634  25.823  1.00  0.00     0.057 A 
ATOM     65  C   UNL A   1      48.583  27.251  26.522  1.00  0.00     0.134 A 
ATOM     66  C   UNL A   1      47.492  27.617  24.422  1.00  0.00     0.134 A 
ATOM     67  F   UNL A   1      48.597  27.251  27.863  1.00  0.00    -0.206 F 
ATOM     68  C   UNL A   1      49.759  26.902  25.856  1.00  0.00     0.040 A 
ATOM     69  C   UNL A   1      48.651  27.236  23.745  1.00  0.00     0.040 A 
ATOM     70  F   UNL A   1      46.421  27.958  23.689  1.00  0.00    -0.206 F 
ATOM     71  C   UNL A   1      49.793  26.887  24.462  1.00  0.00     0.006 A 
ENDBRANCH  50  64
BRANCH  51  72
ATOM     72  C   UNL A   1      38.969  29.697  30.578  1.00  0.00     0.057 A 
ATOM     73  C   UNL A   1      38.827  29.420  31.945  1.00  0.00     0.134 A 
ATOM     74  C   UNL A   1      37.858  30.240  29.920  1.00  0.00     0.134 A 
ATOM     75  F   UNL A   1      39.835  28.860  32.630  1.00  0.00    -0.206 F 
ATOM     76  C   UNL A   1      37.626  29.653  32.622  1.00  0.00     0.040 A 
ATOM     77  C   UNL A   1      36.664  30.508  30.591  1.00  0.00     0.040 A 
ATOM     78  F   UNL A   1      37.917  30.514  28.608  1.00  0.00    -0.206 F 
ATOM     79  C   UNL A   1      36.542  30.205  31.945  1.00  0.00     0.006 A 
ENDBRANCH  51  72
BRANCH  63  80
ATOM     80  C   UNL A   1      44.555  33.507  28.863  1.00  0.00     0.057 A 
ATOM     81  C   UNL A   1      44.178  34.505  27.954  1.00  0.00     0.134 A 
ATOM     82  C   UNL A   1      45.244  33.918  30.013  1.00  0.00     0.134 A 
ATOM     83  F   UNL A   1      43.521  34.188  26.829  1.00  0.00    -0.206 F 
ATOM     84  C   UNL A   1      44.498  35.850  28.167  1.00  0.00     0.040 A 
ATOM     85  C   UNL A   1      45.540  35.263  30.253  1.00  0.00     0.040 A 
ATOM     86  F   UNL A   1      45.626  33.023  30.937  1.00  0.00    -0.206 F 
ATOM     87  C   UNL A   1      45.174  36.232  29.324  1.00  0.00     0.006 A 
ENDBRANCH  63  80
ENDBRANCH  37  38
ENDBRANCH  30  32
ENDBRANCH  29  30
ENDBRANCH  28  29
ENDBRANCH  27  28
ENDBRANCH  26  27
ENDBRANCH   1  26
TORSDOF 17
ENDMDL
