MODEL 1
REMARK VINA RESULT:     -11.1      0.000      0.000
REMARK SMILES CCc1cc(/C=C/C(=O)OCCOCCOC(=O)c2ccc(-c3c4nc(c(-c5c(F)cccc5F)c5ccc([nH]5)c(-c5c(F)cccc5F)c5nc(c(-c6c(F)cccc6F)c6ccc3[nH]6)C=C5)C=C4)cc2)cc(C(=O)c2ccccc2)c1
REMARK SMILES IDX 12 1 11 2 10 3 8 4 9 5 7 6 6 7 5 8 3 9 4 10 83 11 74 12
REMARK SMILES IDX 73 13 2 14 1 15 75 16 76 17 77 18 78 19 82 20 79 21 81 22
REMARK SMILES IDX 80 23 13 24 14 25 15 26 16 27 17 28 18 29 19 30 20 31 72 32
REMARK SMILES IDX 21 33 71 34 22 35 23 36 24 37 65 38 25 39 70 40 64 41 66 42
REMARK SMILES IDX 26 43 69 44 63 45 62 46 27 48 53 49 36 50 52 51 37 52 40 53
REMARK SMILES IDX 51 54 67 55 38 56 39 57 50 59 68 60 41 61 28 62 29 63 34 64
REMARK SMILES IDX 30 65 31 66 33 67 35 68 32 69 54 70 55 71 60 72 56 73 57 74
REMARK SMILES IDX 59 75 61 76 58 77 42 78 43 79 48 80 44 81 45 82 47 83 49 84
REMARK SMILES IDX 46 85
REMARK H PARENT 66 47 40 58
REMARK Flexibility Score: inf
ROOT
ATOM      1  C   UNL A   1      46.041  19.639  25.185  1.00  0.00     0.202 C 
ENDROOT
BRANCH   1   2
ATOM      2  C   UNL A   1      44.609  19.133  25.000  1.00  0.00     0.261 C 
BRANCH   2   3
ATOM      3  O   UNL A   1      43.735  19.709  25.986  1.00  0.00    -0.460 OA
BRANCH   3   4
ATOM      4  C   UNL A   1      42.442  19.314  25.916  1.00  0.00     0.330 C 
ATOM      5  O   UNL A   1      42.025  18.167  25.992  1.00  0.00    -0.247 OA
BRANCH   4   6
ATOM      6  C   UNL A   1      41.510  20.458  25.835  1.00  0.00     0.094 C 
ATOM      7  C   UNL A   1      40.252  20.503  26.303  1.00  0.00     0.015 C 
BRANCH   7   8
ATOM      8  C   UNL A   1      39.382  21.679  26.112  1.00  0.00    -0.024 A 
ATOM      9  C   UNL A   1      38.813  24.013  26.601  1.00  0.00    -0.047 A 
ATOM     10  C   UNL A   1      39.657  22.902  26.746  1.00  0.00     0.011 A 
ATOM     11  C   UNL A   1      37.701  23.900  25.760  1.00  0.00     0.016 A 
ATOM     12  C   UNL A   1      37.442  22.713  25.061  1.00  0.00     0.023 A 
ATOM     13  C   UNL A   1      38.284  21.604  25.247  1.00  0.00     0.020 A 
BRANCH   9  14
ATOM     14  C   UNL A   1      39.162  25.313  27.290  1.00  0.00     0.032 C 
ATOM     15  C   UNL A   1      39.165  25.254  28.813  1.00  0.00     0.009 C 
ENDBRANCH   9  14
BRANCH  12  16
ATOM     16  C   UNL A   1      36.261  22.576  24.153  1.00  0.00     0.193 C 
ATOM     17  O   UNL A   1      36.355  22.885  22.968  1.00  0.00    -0.289 OA
BRANCH  16  18
ATOM     18  C   UNL A   1      34.975  22.017  24.635  1.00  0.00     0.022 A 
ATOM     19  C   UNL A   1      33.927  21.880  23.720  1.00  0.00     0.012 A 
ATOM     20  C   UNL A   1      34.803  21.621  25.966  1.00  0.00     0.012 A 
ATOM     21  C   UNL A   1      32.726  21.293  24.123  1.00  0.00     0.001 A 
ATOM     22  C   UNL A   1      33.604  21.028  26.362  1.00  0.00     0.001 A 
ATOM     23  C   UNL A   1      32.570  20.856  25.439  1.00  0.00     0.000 A 
ENDBRANCH  16  18
ENDBRANCH  12  16
ENDBRANCH   7   8
ENDBRANCH   4   6
ENDBRANCH   3   4
ENDBRANCH   2   3
ENDBRANCH   1   2
BRANCH   1  24
ATOM     24  O   UNL A   1      46.163  21.043  25.414  1.00  0.00    -0.374 OA
BRANCH  24  25
ATOM     25  C   UNL A   1      46.101  21.886  24.261  1.00  0.00     0.202 C 
BRANCH  25  26
ATOM     26  C   UNL A   1      44.841  22.753  24.150  1.00  0.00     0.261 C 
BRANCH  26  27
ATOM     27  O   UNL A   1      44.576  23.458  25.378  1.00  0.00    -0.460 OA
BRANCH  27  28
ATOM     28  C   UNL A   1      44.931  24.763  25.377  1.00  0.00     0.338 C 
ATOM     29  O   UNL A   1      45.737  25.313  24.638  1.00  0.00    -0.246 OA
BRANCH  28  30
ATOM     30  C   UNL A   1      44.070  25.519  26.307  1.00  0.00     0.060 A 
ATOM     31  C   UNL A   1      44.234  26.910  26.352  1.00  0.00     0.016 A 
ATOM     32  C   UNL A   1      43.167  24.885  27.162  1.00  0.00     0.016 A 
ATOM     33  C   UNL A   1      43.530  27.666  27.287  1.00  0.00     0.010 A 
ATOM     34  C   UNL A   1      42.467  25.646  28.106  1.00  0.00     0.010 A 
ATOM     35  C   UNL A   1      42.672  27.034  28.195  1.00  0.00    -0.014 A 
BRANCH  35  36
ATOM     36  C   UNL A   1      42.104  27.812  29.324  1.00  0.00     0.031 A 
ATOM     37  C   UNL A   1      42.785  27.758  30.664  1.00  0.00     0.074 A 
ATOM     38  C   UNL A   1      41.017  28.582  29.151  1.00  0.00     0.049 A 
ATOM     39  N   UNL A   1      42.460  28.350  31.785  1.00  0.00    -0.248 NA
ATOM     40  C   UNL A   1      43.995  26.924  30.752  1.00  0.00     0.031 C 
ATOM     41  C   UNL A   1      40.286  28.742  27.896  1.00  0.00     0.029 A 
ATOM     42  N   UNL A   1      40.337  29.375  30.042  1.00  0.00    -0.354 N 
ATOM     43  C   UNL A   1      43.420  27.960  32.709  1.00  0.00     0.074 A 
ATOM     44  C   UNL A   1      44.322  27.056  32.029  1.00  0.00     0.031 C 
ATOM     45  C   UNL A   1      39.251  29.578  28.098  1.00  0.00     0.029 A 
ATOM     46  C   UNL A   1      39.236  29.990  29.501  1.00  0.00     0.049 A 
ATOM     47  H   UNL A   1      40.614  29.492  30.979  1.00  0.00     0.167 HD
ATOM     48  C   UNL A   1      43.546  28.330  34.007  1.00  0.00     0.037 A 
ATOM     49  C   UNL A   1      38.311  30.782  30.078  1.00  0.00     0.037 A 
ATOM     50  C   UNL A   1      42.651  29.231  34.685  1.00  0.00     0.049 A 
ATOM     51  C   UNL A   1      38.438  31.132  31.536  1.00  0.00     0.074 A 
ATOM     52  C   UNL A   1      42.709  29.683  35.992  1.00  0.00     0.029 A 
ATOM     53  N   UNL A   1      41.532  29.813  34.110  1.00  0.00    -0.354 N 
ATOM     54  N   UNL A   1      39.369  30.784  32.392  1.00  0.00    -0.248 NA
ATOM     55  C   UNL A   1      37.390  31.990  32.107  1.00  0.00     0.031 C 
ATOM     56  C   UNL A   1      41.600  30.503  36.221  1.00  0.00     0.029 A 
ATOM     57  C   UNL A   1      40.878  30.601  35.041  1.00  0.00     0.049 A 
ATOM     58  H   UNL A   1      41.246  29.685  33.177  1.00  0.00     0.167 HD
ATOM     59  C   UNL A   1      39.034  31.403  33.591  1.00  0.00     0.074 A 
ATOM     60  C   UNL A   1      37.822  32.155  33.349  1.00  0.00     0.031 C 
ATOM     61  C   UNL A   1      39.678  31.354  34.784  1.00  0.00     0.037 A 
BRANCH  48  62
ATOM     62  C   UNL A   1      44.687  27.743  34.783  1.00  0.00     0.057 A 
ATOM     63  C   UNL A   1      44.555  26.547  35.502  1.00  0.00     0.134 A 
ATOM     64  C   UNL A   1      45.942  28.364  34.787  1.00  0.00     0.134 A 
ATOM     65  F   UNL A   1      43.375  25.911  35.550  1.00  0.00    -0.206 F 
ATOM     66  C   UNL A   1      45.625  26.003  36.214  1.00  0.00     0.040 A 
ATOM     67  C   UNL A   1      47.025  27.816  35.476  1.00  0.00     0.040 A 
ATOM     68  F   UNL A   1      46.137  29.509  34.116  1.00  0.00    -0.206 F 
ATOM     69  C   UNL A   1      46.866  26.635  36.197  1.00  0.00     0.006 A 
ENDBRANCH  48  62
BRANCH  49  70
ATOM     70  C   UNL A   1      37.175  31.301  29.276  1.00  0.00     0.057 A 
ATOM     71  C   UNL A   1      37.187  32.599  28.755  1.00  0.00     0.134 A 
ATOM     72  C   UNL A   1      36.041  30.517  29.030  1.00  0.00     0.134 A 
ATOM     73  F   UNL A   1      38.235  33.406  28.978  1.00  0.00    -0.206 F 
ATOM     74  C   UNL A   1      36.106  33.106  28.030  1.00  0.00     0.040 A 
ATOM     75  C   UNL A   1      34.964  31.002  28.287  1.00  0.00     0.040 A 
ATOM     76  F   UNL A   1      35.969  29.264  29.503  1.00  0.00    -0.206 F 
ATOM     77  C   UNL A   1      34.992  32.304  27.791  1.00  0.00     0.006 A 
ENDBRANCH  49  70
BRANCH  61  78
ATOM     78  C   UNL A   1      39.108  32.169  35.908  1.00  0.00     0.057 A 
ATOM     79  C   UNL A   1      38.223  31.621  36.846  1.00  0.00     0.134 A 
ATOM     80  C   UNL A   1      39.486  33.507  36.080  1.00  0.00     0.134 A 
ATOM     81  F   UNL A   1      37.812  30.349  36.731  1.00  0.00    -0.206 F 
ATOM     82  C   UNL A   1      37.717  32.382  37.901  1.00  0.00     0.040 A 
ATOM     83  C   UNL A   1      39.007  34.270  37.144  1.00  0.00     0.040 A 
ATOM     84  F   UNL A   1      40.339  34.089  35.223  1.00  0.00    -0.206 F 
ATOM     85  C   UNL A   1      38.116  33.710  38.056  1.00  0.00     0.006 A 
ENDBRANCH  61  78
ENDBRANCH  35  36
ENDBRANCH  28  30
ENDBRANCH  27  28
ENDBRANCH  26  27
ENDBRANCH  25  26
ENDBRANCH  24  25
ENDBRANCH   1  24
TORSDOF 18
ENDMDL
MODEL 2
REMARK VINA RESULT:     -11.0      2.022      3.679
REMARK SMILES CCc1cc(/C=C/C(=O)OCCOCCOC(=O)c2ccc(-c3c4nc(c(-c5c(F)cccc5F)c5ccc([nH]5)c(-c5c(F)cccc5F)c5nc(c(-c6c(F)cccc6F)c6ccc3[nH]6)C=C5)C=C4)cc2)cc(C(=O)c2ccccc2)c1
REMARK SMILES IDX 12 1 11 2 10 3 8 4 9 5 7 6 6 7 5 8 3 9 4 10 83 11 74 12
REMARK SMILES IDX 73 13 2 14 1 15 75 16 76 17 77 18 78 19 82 20 79 21 81 22
REMARK SMILES IDX 80 23 13 24 14 25 15 26 16 27 17 28 18 29 19 30 20 31 72 32
REMARK SMILES IDX 21 33 71 34 22 35 23 36 24 37 65 38 25 39 70 40 64 41 66 42
REMARK SMILES IDX 26 43 69 44 63 45 62 46 27 48 53 49 36 50 52 51 37 52 40 53
REMARK SMILES IDX 51 54 67 55 38 56 39 57 50 59 68 60 41 61 28 62 29 63 34 64
REMARK SMILES IDX 30 65 31 66 33 67 35 68 32 69 54 70 55 71 60 72 56 73 57 74
REMARK SMILES IDX 59 75 61 76 58 77 42 78 43 79 48 80 44 81 45 82 47 83 49 84
REMARK SMILES IDX 46 85
REMARK H PARENT 66 47 40 58
REMARK Flexibility Score: inf
ROOT
ATOM      1  C   UNL A   1      41.151  21.051  27.017  1.00  0.00     0.202 C 
ENDROOT
BRANCH   1   2
ATOM      2  C   UNL A   1      40.375  21.724  25.883  1.00  0.00     0.261 C 
BRANCH   2   3
ATOM      3  O   UNL A   1      38.962  21.696  26.147  1.00  0.00    -0.460 OA
BRANCH   3   4
ATOM      4  C   UNL A   1      38.396  22.899  26.399  1.00  0.00     0.330 C 
ATOM      5  O   UNL A   1      38.928  23.855  26.945  1.00  0.00    -0.247 OA
BRANCH   4   6
ATOM      6  C   UNL A   1      37.033  23.007  25.837  1.00  0.00     0.094 C 
ATOM      7  C   UNL A   1      36.372  24.139  25.548  1.00  0.00     0.015 C 
BRANCH   7   8
ATOM      8  C   UNL A   1      34.983  24.134  25.048  1.00  0.00    -0.024 A 
ATOM      9  C   UNL A   1      33.310  23.415  23.407  1.00  0.00    -0.047 A 
ATOM     10  C   UNL A   1      34.619  23.394  23.911  1.00  0.00     0.011 A 
ATOM     11  C   UNL A   1      32.343  24.158  24.093  1.00  0.00     0.016 A 
ATOM     12  C   UNL A   1      32.664  24.850  25.269  1.00  0.00     0.023 A 
ATOM     13  C   UNL A   1      33.988  24.839  25.737  1.00  0.00     0.020 A 
BRANCH   9  14
ATOM     14  C   UNL A   1      32.963  22.586  22.191  1.00  0.00     0.032 C 
ATOM     15  C   UNL A   1      31.968  21.459  22.443  1.00  0.00     0.009 C 
ENDBRANCH   9  14
BRANCH  12  16
ATOM     16  C   UNL A   1      31.643  25.645  26.019  1.00  0.00     0.193 C 
ATOM     17  O   UNL A   1      30.767  25.072  26.664  1.00  0.00    -0.289 OA
BRANCH  16  18
ATOM     18  C   UNL A   1      31.687  27.126  26.054  1.00  0.00     0.022 A 
ATOM     19  C   UNL A   1      31.470  27.825  24.863  1.00  0.00     0.012 A 
ATOM     20  C   UNL A   1      31.925  27.822  27.244  1.00  0.00     0.012 A 
ATOM     21  C   UNL A   1      31.434  29.220  24.873  1.00  0.00     0.001 A 
ATOM     22  C   UNL A   1      31.881  29.217  27.251  1.00  0.00     0.001 A 
ATOM     23  C   UNL A   1      31.626  29.914  26.069  1.00  0.00     0.000 A 
ENDBRANCH  16  18
ENDBRANCH  12  16
ENDBRANCH   7   8
ENDBRANCH   4   6
ENDBRANCH   3   4
ENDBRANCH   2   3
ENDBRANCH   1   2
BRANCH   1  24
ATOM     24  O   UNL A   1      42.565  21.242  26.980  1.00  0.00    -0.374 OA
BRANCH  24  25
ATOM     25  C   UNL A   1      43.218  20.943  25.744  1.00  0.00     0.202 C 
BRANCH  25  26
ATOM     26  C   UNL A   1      44.186  22.019  25.238  1.00  0.00     0.261 C 
BRANCH  26  27
ATOM     27  O   UNL A   1      43.487  23.219  24.856  1.00  0.00    -0.460 OA
BRANCH  27  28
ATOM     28  C   UNL A   1      44.156  24.372  25.094  1.00  0.00     0.338 C 
ATOM     29  O   UNL A   1      45.178  24.763  24.546  1.00  0.00    -0.246 OA
BRANCH  28  30
ATOM     30  C   UNL A   1      43.380  25.222  26.017  1.00  0.00     0.060 A 
ATOM     31  C   UNL A   1      43.803  26.547  26.183  1.00  0.00     0.016 A 
ATOM     32  C   UNL A   1      42.303  24.725  26.754  1.00  0.00     0.016 A 
ATOM     33  C   UNL A   1      43.181  27.366  27.123  1.00  0.00     0.010 A 
ATOM     34  C   UNL A   1      41.684  25.548  27.703  1.00  0.00     0.010 A 
ATOM     35  C   UNL A   1      42.144  26.860  27.916  1.00  0.00    -0.014 A 
BRANCH  35  36
ATOM     36  C   UNL A   1      41.642  27.660  29.060  1.00  0.00     0.031 A 
ATOM     37  C   UNL A   1      42.337  27.552  30.389  1.00  0.00     0.074 A 
ATOM     38  C   UNL A   1      40.603  28.499  28.910  1.00  0.00     0.049 A 
ATOM     39  N   UNL A   1      42.067  28.152  31.519  1.00  0.00    -0.248 NA
ATOM     40  C   UNL A   1      43.494  26.643  30.452  1.00  0.00     0.031 C 
ATOM     41  C   UNL A   1      39.865  28.716  27.667  1.00  0.00     0.029 A 
ATOM     42  N   UNL A   1      39.987  29.325  29.818  1.00  0.00    -0.354 N 
ATOM     43  C   UNL A   1      43.013  27.694  32.426  1.00  0.00     0.074 A 
ATOM     44  C   UNL A   1      43.847  26.742  31.725  1.00  0.00     0.031 C 
ATOM     45  C   UNL A   1      38.888  29.613  27.892  1.00  0.00     0.029 A 
ATOM     46  C   UNL A   1      38.919  30.012  29.298  1.00  0.00     0.049 A 
ATOM     47  H   UNL A   1      40.284  29.414  30.751  1.00  0.00     0.167 HD
ATOM     48  C   UNL A   1      43.181  28.044  33.725  1.00  0.00     0.037 A 
ATOM     49  C   UNL A   1      38.054  30.855  29.896  1.00  0.00     0.037 A 
ATOM     50  C   UNL A   1      42.355  28.992  34.424  1.00  0.00     0.049 A 
ATOM     51  C   UNL A   1      38.224  31.182  31.355  1.00  0.00     0.074 A 
ATOM     52  C   UNL A   1      42.459  29.426  35.734  1.00  0.00     0.029 A 
ATOM     53  N   UNL A   1      41.266  29.648  33.871  1.00  0.00    -0.354 N 
ATOM     54  N   UNL A   1      39.143  30.768  32.194  1.00  0.00    -0.248 NA
ATOM     55  C   UNL A   1      37.240  32.099  31.949  1.00  0.00     0.031 C 
ATOM     56  C   UNL A   1      41.407  30.312  35.986  1.00  0.00     0.029 A 
ATOM     57  C   UNL A   1      40.676  30.467  34.818  1.00  0.00     0.049 A 
ATOM     58  H   UNL A   1      40.958  29.547  32.941  1.00  0.00     0.167 HD
ATOM     59  C   UNL A   1      38.865  31.396  33.403  1.00  0.00     0.074 A 
ATOM     60  C   UNL A   1      37.699  32.225  33.186  1.00  0.00     0.031 C 
ATOM     61  C   UNL A   1      39.522  31.296  34.586  1.00  0.00     0.037 A 
BRANCH  48  62
ATOM     62  C   UNL A   1      44.294  27.378  34.479  1.00  0.00     0.057 A 
ATOM     63  C   UNL A   1      45.566  27.956  34.584  1.00  0.00     0.134 A 
ATOM     64  C   UNL A   1      44.082  26.159  35.134  1.00  0.00     0.134 A 
ATOM     65  F   UNL A   1      45.837  29.116  33.967  1.00  0.00    -0.206 F 
ATOM     66  C   UNL A   1      46.593  27.334  35.295  1.00  0.00     0.040 A 
ATOM     67  C   UNL A   1      45.094  25.539  35.869  1.00  0.00     0.040 A 
ATOM     68  F   UNL A   1      42.886  25.554  35.077  1.00  0.00    -0.206 F 
ATOM     69  C   UNL A   1      46.356  26.125  35.945  1.00  0.00     0.006 A 
ENDBRANCH  48  62
BRANCH  49  70
ATOM     70  C   UNL A   1      36.941  31.452  29.116  1.00  0.00     0.057 A 
ATOM     71  C   UNL A   1      36.974  32.790  28.710  1.00  0.00     0.134 A 
ATOM     72  C   UNL A   1      35.809  30.701  28.775  1.00  0.00     0.134 A 
ATOM     73  F   UNL A   1      38.021  33.565  29.028  1.00  0.00    -0.206 F 
ATOM     74  C   UNL A   1      35.915  33.367  28.007  1.00  0.00     0.040 A 
ATOM     75  C   UNL A   1      34.753  31.258  28.052  1.00  0.00     0.040 A 
ATOM     76  F   UNL A   1      35.717  29.412  29.134  1.00  0.00    -0.206 F 
ATOM     77  C   UNL A   1      34.802  32.599  27.672  1.00  0.00     0.006 A 
ENDBRANCH  49  70
BRANCH  61  78
ATOM     78  C   UNL A   1      39.020  32.134  35.725  1.00  0.00     0.057 A 
ATOM     79  C   UNL A   1      38.194  31.606  36.726  1.00  0.00     0.134 A 
ATOM     80  C   UNL A   1      39.407  33.475  35.846  1.00  0.00     0.134 A 
ATOM     81  F   UNL A   1      37.778  30.332  36.663  1.00  0.00    -0.206 F 
ATOM     82  C   UNL A   1      37.753  32.389  37.794  1.00  0.00     0.040 A 
ATOM     83  C   UNL A   1      38.993  34.260  36.922  1.00  0.00     0.040 A 
ATOM     84  F   UNL A   1      40.206  34.039  34.927  1.00  0.00    -0.206 F 
ATOM     85  C   UNL A   1      38.159  33.719  37.897  1.00  0.00     0.006 A 
ENDBRANCH  61  78
ENDBRANCH  35  36
ENDBRANCH  28  30
ENDBRANCH  27  28
ENDBRANCH  26  27
ENDBRANCH  25  26
ENDBRANCH  24  25
ENDBRANCH   1  24
TORSDOF 18
ENDMDL
MODEL 3
REMARK VINA RESULT:     -10.7      1.629      3.241
REMARK SMILES CCc1cc(/C=C/C(=O)OCCOCCOC(=O)c2ccc(-c3c4nc(c(-c5c(F)cccc5F)c5ccc([nH]5)c(-c5c(F)cccc5F)c5nc(c(-c6c(F)cccc6F)c6ccc3[nH]6)C=C5)C=C4)cc2)cc(C(=O)c2ccccc2)c1
REMARK SMILES IDX 12 1 11 2 10 3 8 4 9 5 7 6 6 7 5 8 3 9 4 10 83 11 74 12
REMARK SMILES IDX 73 13 2 14 1 15 75 16 76 17 77 18 78 19 82 20 79 21 81 22
REMARK SMILES IDX 80 23 13 24 14 25 15 26 16 27 17 28 18 29 19 30 20 31 72 32
REMARK SMILES IDX 21 33 71 34 22 35 23 36 24 37 65 38 25 39 70 40 64 41 66 42
REMARK SMILES IDX 26 43 69 44 63 45 62 46 27 48 53 49 36 50 52 51 37 52 40 53
REMARK SMILES IDX 51 54 67 55 38 56 39 57 50 59 68 60 41 61 28 62 29 63 34 64
REMARK SMILES IDX 30 65 31 66 33 67 35 68 32 69 54 70 55 71 60 72 56 73 57 74
REMARK SMILES IDX 59 75 61 76 58 77 42 78 43 79 48 80 44 81 45 82 47 83 49 84
REMARK SMILES IDX 46 85
REMARK H PARENT 66 47 40 58
REMARK Flexibility Score: inf
ROOT
ATOM      1  C   UNL A   1      41.305  21.153  27.342  1.00  0.00     0.202 C 
ENDROOT
BRANCH   1   2
ATOM      2  C   UNL A   1      40.569  21.718  26.126  1.00  0.00     0.261 C 
BRANCH   2   3
ATOM      3  O   UNL A   1      39.145  21.621  26.303  1.00  0.00    -0.460 OA
BRANCH   3   4
ATOM      4  C   UNL A   1      38.468  22.789  26.212  1.00  0.00     0.330 C 
ATOM      5  O   UNL A   1      38.871  23.893  26.550  1.00  0.00    -0.247 OA
BRANCH   4   6
ATOM      6  C   UNL A   1      37.164  22.630  25.535  1.00  0.00     0.094 C 
ATOM      7  C   UNL A   1      36.418  23.605  24.991  1.00  0.00     0.015 C 
BRANCH   7   8
ATOM      8  C   UNL A   1      35.094  23.344  24.395  1.00  0.00    -0.024 A 
ATOM      9  C   UNL A   1      33.334  23.900  22.781  1.00  0.00    -0.047 A 
ATOM     10  C   UNL A   1      34.608  24.117  23.327  1.00  0.00     0.011 A 
ATOM     11  C   UNL A   1      32.560  22.852  23.290  1.00  0.00     0.016 A 
ATOM     12  C   UNL A   1      33.048  22.022  24.308  1.00  0.00     0.023 A 
ATOM     13  C   UNL A   1      34.314  22.278  24.860  1.00  0.00     0.020 A 
BRANCH   9  14
ATOM     14  C   UNL A   1      32.864  24.747  21.620  1.00  0.00     0.032 C 
ATOM     15  C   UNL A   1      31.777  25.760  21.962  1.00  0.00     0.009 C 
ENDBRANCH   9  14
BRANCH  12  16
ATOM     16  C   UNL A   1      32.238  20.893  24.860  1.00  0.00     0.193 C 
ATOM     17  O   UNL A   1      31.280  21.122  25.595  1.00  0.00    -0.289 OA
BRANCH  16  18
ATOM     18  C   UNL A   1      32.525  19.484  24.499  1.00  0.00     0.022 A 
ATOM     19  C   UNL A   1      32.492  19.124  23.148  1.00  0.00     0.012 A 
ATOM     20  C   UNL A   1      32.835  18.529  25.473  1.00  0.00     0.012 A 
ATOM     21  C   UNL A   1      32.826  17.824  22.768  1.00  0.00     0.001 A 
ATOM     22  C   UNL A   1      33.177  17.232  25.087  1.00  0.00     0.001 A 
ATOM     23  C   UNL A   1      33.181  16.883  23.735  1.00  0.00     0.000 A 
ENDBRANCH  16  18
ENDBRANCH  12  16
ENDBRANCH   7   8
ENDBRANCH   4   6
ENDBRANCH   3   4
ENDBRANCH   2   3
ENDBRANCH   1   2
BRANCH   1  24
ATOM     24  O   UNL A   1      42.620  20.663  27.079  1.00  0.00    -0.374 OA
BRANCH  24  25
ATOM     25  C   UNL A   1      43.062  20.712  25.721  1.00  0.00     0.202 C 
BRANCH  25  26
ATOM     26  C   UNL A   1      44.051  21.837  25.395  1.00  0.00     0.261 C 
BRANCH  26  27
ATOM     27  O   UNL A   1      43.368  23.056  25.045  1.00  0.00    -0.460 OA
BRANCH  27  28
ATOM     28  C   UNL A   1      44.099  24.185  25.191  1.00  0.00     0.338 C 
ATOM     29  O   UNL A   1      45.117  24.494  24.587  1.00  0.00    -0.246 OA
BRANCH  28  30
ATOM     30  C   UNL A   1      43.399  25.124  26.089  1.00  0.00     0.060 A 
ATOM     31  C   UNL A   1      44.097  26.269  26.497  1.00  0.00     0.016 A 
ATOM     32  C   UNL A   1      42.115  24.867  26.575  1.00  0.00     0.016 A 
ATOM     33  C   UNL A   1      43.532  27.135  27.430  1.00  0.00     0.010 A 
ATOM     34  C   UNL A   1      41.553  25.735  27.519  1.00  0.00     0.010 A 
ATOM     35  C   UNL A   1      42.274  26.853  27.976  1.00  0.00    -0.014 A 
BRANCH  35  36
ATOM     36  C   UNL A   1      41.781  27.652  29.125  1.00  0.00     0.031 A 
ATOM     37  C   UNL A   1      42.500  27.557  30.443  1.00  0.00     0.074 A 
ATOM     38  C   UNL A   1      40.729  28.477  28.990  1.00  0.00     0.049 A 
ATOM     39  N   UNL A   1      42.241  28.158  31.576  1.00  0.00    -0.248 NA
ATOM     40  C   UNL A   1      43.670  26.663  30.489  1.00  0.00     0.031 C 
ATOM     41  C   UNL A   1      39.967  28.679  27.759  1.00  0.00     0.029 A 
ATOM     42  N   UNL A   1      40.118  29.297  29.905  1.00  0.00    -0.354 N 
ATOM     43  C   UNL A   1      43.209  27.715  32.468  1.00  0.00     0.074 A 
ATOM     44  C   UNL A   1      44.043  26.771  31.756  1.00  0.00     0.031 C 
ATOM     45  C   UNL A   1      38.983  29.565  27.998  1.00  0.00     0.029 A 
ATOM     46  C   UNL A   1      39.032  29.969  29.402  1.00  0.00     0.049 A 
ATOM     47  H   UNL A   1      40.430  29.394  30.833  1.00  0.00     0.167 HD
ATOM     48  C   UNL A   1      43.394  28.072  33.762  1.00  0.00     0.037 A 
ATOM     49  C   UNL A   1      38.167  30.803  30.011  1.00  0.00     0.037 A 
ATOM     50  C   UNL A   1      42.568  29.012  34.472  1.00  0.00     0.049 A 
ATOM     51  C   UNL A   1      38.358  31.138  31.466  1.00  0.00     0.074 A 
ATOM     52  C   UNL A   1      42.688  29.453  35.778  1.00  0.00     0.029 A 
ATOM     53  N   UNL A   1      41.462  29.652  33.935  1.00  0.00    -0.354 N 
ATOM     54  N   UNL A   1      39.296  30.739  32.291  1.00  0.00    -0.248 NA
ATOM     55  C   UNL A   1      37.373  32.045  32.073  1.00  0.00     0.031 C 
ATOM     56  C   UNL A   1      41.630  30.326  36.045  1.00  0.00     0.029 A 
ATOM     57  C   UNL A   1      40.877  30.467  34.889  1.00  0.00     0.049 A 
ATOM     58  H   UNL A   1      41.139  29.543  33.011  1.00  0.00     0.167 HD
ATOM     59  C   UNL A   1      39.031  31.368  33.502  1.00  0.00     0.074 A 
ATOM     60  C   UNL A   1      37.851  32.181  33.302  1.00  0.00     0.031 C 
ATOM     61  C   UNL A   1      39.709  31.280  34.673  1.00  0.00     0.037 A 
BRANCH  48  62
ATOM     62  C   UNL A   1      44.528  27.423  34.499  1.00  0.00     0.057 A 
ATOM     63  C   UNL A   1      44.373  26.203  35.171  1.00  0.00     0.134 A 
ATOM     64  C   UNL A   1      45.799  28.011  34.512  1.00  0.00     0.134 A 
ATOM     65  F   UNL A   1      43.177  25.596  35.208  1.00  0.00    -0.206 F 
ATOM     66  C   UNL A   1      45.436  25.603  35.847  1.00  0.00     0.040 A 
ATOM     67  C   UNL A   1      46.875  27.408  35.165  1.00  0.00     0.040 A 
ATOM     68  F   UNL A   1      46.017  29.177  33.885  1.00  0.00    -0.206 F 
ATOM     69  C   UNL A   1      46.693  26.203  35.839  1.00  0.00     0.006 A 
ENDBRANCH  48  62
BRANCH  49  70
ATOM     70  C   UNL A   1      37.034  31.383  29.248  1.00  0.00     0.057 A 
ATOM     71  C   UNL A   1      35.896  30.626  28.949  1.00  0.00     0.134 A 
ATOM     72  C   UNL A   1      37.072  32.704  28.783  1.00  0.00     0.134 A 
ATOM     73  F   UNL A   1      35.813  29.349  29.347  1.00  0.00    -0.206 F 
ATOM     74  C   UNL A   1      34.842  31.155  28.201  1.00  0.00     0.040 A 
ATOM     75  C   UNL A   1      36.015  33.253  28.055  1.00  0.00     0.040 A 
ATOM     76  F   UNL A   1      38.135  33.481  29.036  1.00  0.00    -0.206 F 
ATOM     77  C   UNL A   1      34.898  32.474  27.756  1.00  0.00     0.006 A 
ENDBRANCH  49  70
BRANCH  61  78
ATOM     78  C   UNL A   1      39.216  32.116  35.819  1.00  0.00     0.057 A 
ATOM     79  C   UNL A   1      39.623  33.446  35.994  1.00  0.00     0.134 A 
ATOM     80  C   UNL A   1      38.289  31.598  36.731  1.00  0.00     0.134 A 
ATOM     81  F   UNL A   1      40.518  33.999  35.162  1.00  0.00    -0.206 F 
ATOM     82  C   UNL A   1      39.140  34.221  37.050  1.00  0.00     0.040 A 
ATOM     83  C   UNL A   1      37.781  32.370  37.775  1.00  0.00     0.040 A 
ATOM     84  F   UNL A   1      37.851  30.334  36.613  1.00  0.00    -0.206 F 
ATOM     85  C   UNL A   1      38.210  33.685  37.940  1.00  0.00     0.006 A 
ENDBRANCH  61  78
ENDBRANCH  35  36
ENDBRANCH  28  30
ENDBRANCH  27  28
ENDBRANCH  26  27
ENDBRANCH  25  26
ENDBRANCH  24  25
ENDBRANCH   1  24
TORSDOF 18
ENDMDL
