MODEL 1
REMARK VINA RESULT:     -11.0      0.000      0.000
REMARK SMILES Cc1ccc(Nc2c(C)cccc2Cl)c(CC(=O)OCCOCCOC(=O)c2ccc(-c3c4nc(c(-c5c(F)cccc5F)c5ccc([nH]5)c(-c5c(F)cccc5F)c5nc(c(-c6c(F)cccc6F)c6ccc3[nH]6)C=C5)C=C4)cc2)c1
REMARK SMILES IDX 21 1 20 2 19 3 17 4 18 5 16 6 15 7 1 8 2 9 3 10 82 11 4 12
REMARK SMILES IDX 5 13 6 14 7 16 8 17 13 18 9 19 10 20 12 21 14 22 11 23 22 24
REMARK SMILES IDX 23 25 24 26 25 27 26 28 27 29 28 30 29 31 81 32 30 33 80 34
REMARK SMILES IDX 31 35 32 36 33 37 74 38 34 39 79 40 73 41 75 42 35 43 78 44
REMARK SMILES IDX 72 45 71 46 36 48 62 49 45 50 61 51 46 52 49 53 60 54 76 55
REMARK SMILES IDX 47 56 48 57 59 59 77 60 50 61 37 62 38 63 43 64 39 65 40 66
REMARK SMILES IDX 42 67 44 68 41 69 63 70 64 71 69 72 65 73 66 74 68 75 70 76
REMARK SMILES IDX 67 77 51 78 52 79 57 80 53 81 54 82 56 83 58 84 55 85
REMARK H PARENT 6 15 75 47 49 58
REMARK Flexibility Score: inf
ROOT
ATOM      1  C   UNL A   1      31.946  28.856  27.204  1.00  0.00     0.202 C 
ENDROOT
BRANCH   1   2
ATOM      2  C   UNL A   1      32.250  28.162  25.889  1.00  0.00     0.261 C 
BRANCH   2   3
ATOM      3  O   UNL A   1      31.639  26.889  25.776  1.00  0.00    -0.463 OA
BRANCH   3   4
ATOM      4  C   UNL A   1      32.384  25.773  26.053  1.00  0.00     0.310 C 
ATOM      5  O   UNL A   1      32.027  24.783  26.667  1.00  0.00    -0.252 OA
BRANCH   4   6
ATOM      6  C   UNL A   1      33.786  25.943  25.491  1.00  0.00     0.160 C 
BRANCH   6   7
ATOM      7  C   UNL A   1      33.895  25.175  24.187  1.00  0.00    -0.013 A 
ATOM      8  C   UNL A   1      32.390  25.944  20.756  1.00  0.00     0.044 C 
ATOM      9  C   UNL A   1      33.049  25.204  21.884  1.00  0.00    -0.051 A 
ATOM     10  C   UNL A   1      33.199  23.822  21.846  1.00  0.00     0.005 A 
ATOM     11  C   UNL A   1      33.468  25.879  23.028  1.00  0.00     0.009 A 
ATOM     12  C   UNL A   1      33.695  23.126  22.959  1.00  0.00     0.026 A 
ATOM     13  C   UNL A   1      34.020  23.771  24.169  1.00  0.00     0.042 A 
BRANCH  13  14
ATOM     14  N   UNL A   1      34.420  23.032  25.321  1.00  0.00    -0.354 N 
ATOM     15  H   UNL A   1      33.894  23.187  26.138  1.00  0.00     0.167 HD
BRANCH  14  16
ATOM     16  C   UNL A   1      35.488  22.097  25.433  1.00  0.00     0.060 A 
ATOM     17  C   UNL A   1      36.819  22.537  25.539  1.00  0.00    -0.026 A 
ATOM     18  C   UNL A   1      35.277  20.712  25.265  1.00  0.00     0.064 A 
ATOM     19  C   UNL A   1      37.152  23.892  26.105  1.00  0.00     0.046 C 
ATOM     20  C   UNL A   1      37.873  21.672  25.200  1.00  0.00     0.005 A 
ATOM     21  C   UNL A   1      36.326  19.860  24.901  1.00  0.00     0.023 A 
ATOM     22  Cl  UNL A   1      33.749  19.980  25.609  1.00  0.00    -0.082 Cl
ATOM     23  C   UNL A   1      37.622  20.357  24.820  1.00  0.00     0.002 A 
ENDBRANCH  14  16
ENDBRANCH  13  14
ENDBRANCH   6   7
ENDBRANCH   4   6
ENDBRANCH   3   4
ENDBRANCH   2   3
ENDBRANCH   1   2
BRANCH   1  24
ATOM     24  O   UNL A   1      33.002  29.740  27.519  1.00  0.00    -0.374 OA
BRANCH  24  25
ATOM     25  C   UNL A   1      32.833  31.061  27.044  1.00  0.00     0.202 C 
BRANCH  25  26
ATOM     26  C   UNL A   1      33.816  32.001  27.741  1.00  0.00     0.261 C 
BRANCH  26  27
ATOM     27  O   UNL A   1      34.536  31.305  28.782  1.00  0.00    -0.460 OA
BRANCH  27  28
ATOM     28  C   UNL A   1      35.886  31.473  28.731  1.00  0.00     0.338 C 
ATOM     29  O   UNL A   1      36.451  32.531  28.472  1.00  0.00    -0.246 OA
BRANCH  28  30
ATOM     30  C   UNL A   1      36.572  30.150  28.754  1.00  0.00     0.060 A 
ATOM     31  C   UNL A   1      36.683  29.488  29.990  1.00  0.00     0.016 A 
ATOM     32  C   UNL A   1      37.430  29.827  27.703  1.00  0.00     0.016 A 
ATOM     33  C   UNL A   1      37.794  28.683  30.248  1.00  0.00     0.010 A 
ATOM     34  C   UNL A   1      38.590  29.146  28.008  1.00  0.00     0.010 A 
ATOM     35  C   UNL A   1      38.804  28.617  29.293  1.00  0.00    -0.014 A 
BRANCH  35  36
ATOM     36  C   UNL A   1      40.168  28.148  29.544  1.00  0.00     0.031 A 
ATOM     37  C   UNL A   1      40.578  26.826  29.040  1.00  0.00     0.074 A 
ATOM     38  C   UNL A   1      41.118  29.002  29.989  1.00  0.00     0.049 A 
ATOM     39  N   UNL A   1      41.737  26.318  29.260  1.00  0.00    -0.248 NA
ATOM     40  C   UNL A   1      39.700  25.922  28.301  1.00  0.00     0.031 C 
ATOM     41  C   UNL A   1      42.568  28.947  29.773  1.00  0.00     0.029 A 
ATOM     42  N   UNL A   1      40.968  30.130  30.779  1.00  0.00    -0.354 N 
ATOM     43  C   UNL A   1      41.887  25.251  28.419  1.00  0.00     0.074 A 
ATOM     44  C   UNL A   1      40.557  24.952  27.960  1.00  0.00     0.031 C 
ATOM     45  C   UNL A   1      43.176  29.839  30.573  1.00  0.00     0.029 A 
ATOM     46  C   UNL A   1      42.163  30.384  31.457  1.00  0.00     0.049 A 
ATOM     47  H   UNL A   1      40.148  30.670  30.850  1.00  0.00     0.167 HD
ATOM     48  C   UNL A   1      43.154  24.842  28.138  1.00  0.00     0.037 A 
ATOM     49  C   UNL A   1      42.212  30.430  32.819  1.00  0.00     0.037 A 
ATOM     50  C   UNL A   1      44.123  25.476  29.049  1.00  0.00     0.049 A 
ATOM     51  C   UNL A   1      42.907  29.181  33.336  1.00  0.00     0.074 A 
ATOM     52  C   UNL A   1      45.123  26.425  28.939  1.00  0.00     0.029 A 
ATOM     53  N   UNL A   1      43.913  25.322  30.414  1.00  0.00    -0.354 N 
ATOM     54  N   UNL A   1      43.479  28.308  32.548  1.00  0.00    -0.248 NA
ATOM     55  C   UNL A   1      42.982  28.768  34.733  1.00  0.00     0.031 C 
ATOM     56  C   UNL A   1      45.443  26.882  30.264  1.00  0.00     0.029 A 
ATOM     57  C   UNL A   1      44.679  26.176  31.179  1.00  0.00     0.049 A 
ATOM     58  H   UNL A   1      43.282  24.669  30.795  1.00  0.00     0.167 HD
ATOM     59  C   UNL A   1      43.920  27.232  33.246  1.00  0.00     0.074 A 
ATOM     60  C   UNL A   1      43.573  27.562  34.623  1.00  0.00     0.031 C 
ATOM     61  C   UNL A   1      44.510  26.158  32.636  1.00  0.00     0.037 A 
BRANCH  48  62
ATOM     62  C   UNL A   1      43.531  23.942  26.985  1.00  0.00     0.057 A 
ATOM     63  C   UNL A   1      44.036  24.498  25.797  1.00  0.00     0.134 A 
ATOM     64  C   UNL A   1      43.345  22.543  26.936  1.00  0.00     0.134 A 
ATOM     65  F   UNL A   1      44.247  25.818  25.681  1.00  0.00    -0.206 F 
ATOM     66  C   UNL A   1      44.336  23.729  24.662  1.00  0.00     0.040 A 
ATOM     67  C   UNL A   1      43.690  21.758  25.827  1.00  0.00     0.040 A 
ATOM     68  F   UNL A   1      42.763  21.859  27.929  1.00  0.00    -0.206 F 
ATOM     69  C   UNL A   1      44.179  22.352  24.678  1.00  0.00     0.006 A 
ENDBRANCH  48  62
BRANCH  49  70
ATOM     70  C   UNL A   1      41.011  31.151  33.351  1.00  0.00     0.057 A 
ATOM     71  C   UNL A   1      41.001  32.550  33.135  1.00  0.00     0.134 A 
ATOM     72  C   UNL A   1      39.765  30.516  33.429  1.00  0.00     0.134 A 
ATOM     73  F   UNL A   1      42.158  33.225  33.054  1.00  0.00    -0.206 F 
ATOM     74  C   UNL A   1      39.833  33.235  32.786  1.00  0.00     0.040 A 
ATOM     75  C   UNL A   1      38.585  31.203  33.091  1.00  0.00     0.040 A 
ATOM     76  F   UNL A   1      39.689  29.188  33.580  1.00  0.00    -0.206 F 
ATOM     77  C   UNL A   1      38.627  32.545  32.711  1.00  0.00     0.006 A 
ENDBRANCH  49  70
BRANCH  61  78
ATOM     78  C   UNL A   1      44.947  24.958  33.423  1.00  0.00     0.057 A 
ATOM     79  C   UNL A   1      44.029  24.123  34.070  1.00  0.00     0.134 A 
ATOM     80  C   UNL A   1      46.305  24.631  33.606  1.00  0.00     0.134 A 
ATOM     81  F   UNL A   1      42.717  24.403  34.067  1.00  0.00    -0.206 F 
ATOM     82  C   UNL A   1      44.428  22.969  34.751  1.00  0.00     0.040 A 
ATOM     83  C   UNL A   1      46.719  23.522  34.343  1.00  0.00     0.040 A 
ATOM     84  F   UNL A   1      47.293  25.345  33.051  1.00  0.00    -0.206 F 
ATOM     85  C   UNL A   1      45.777  22.664  34.887  1.00  0.00     0.006 A 
ENDBRANCH  61  78
ENDBRANCH  35  36
ENDBRANCH  28  30
ENDBRANCH  27  28
ENDBRANCH  26  27
ENDBRANCH  25  26
ENDBRANCH  24  25
ENDBRANCH   1  24
TORSDOF 17
ENDMDL
MODEL 2
REMARK VINA RESULT:     -10.7      2.232      3.153
REMARK SMILES Cc1ccc(Nc2c(C)cccc2Cl)c(CC(=O)OCCOCCOC(=O)c2ccc(-c3c4nc(c(-c5c(F)cccc5F)c5ccc([nH]5)c(-c5c(F)cccc5F)c5nc(c(-c6c(F)cccc6F)c6ccc3[nH]6)C=C5)C=C4)cc2)c1
REMARK SMILES IDX 21 1 20 2 19 3 17 4 18 5 16 6 15 7 1 8 2 9 3 10 82 11 4 12
REMARK SMILES IDX 5 13 6 14 7 16 8 17 13 18 9 19 10 20 12 21 14 22 11 23 22 24
REMARK SMILES IDX 23 25 24 26 25 27 26 28 27 29 28 30 29 31 81 32 30 33 80 34
REMARK SMILES IDX 31 35 32 36 33 37 74 38 34 39 79 40 73 41 75 42 35 43 78 44
REMARK SMILES IDX 72 45 71 46 36 48 62 49 45 50 61 51 46 52 49 53 60 54 76 55
REMARK SMILES IDX 47 56 48 57 59 59 77 60 50 61 37 62 38 63 43 64 39 65 40 66
REMARK SMILES IDX 42 67 44 68 41 69 63 70 64 71 69 72 65 73 66 74 68 75 70 76
REMARK SMILES IDX 67 77 51 78 52 79 57 80 53 81 54 82 56 83 58 84 55 85
REMARK H PARENT 6 15 75 47 49 58
REMARK Flexibility Score: inf
ROOT
ATOM      1  C   UNL A   1      32.519  32.278  27.186  1.00  0.00     0.202 C 
ENDROOT
BRANCH   1   2
ATOM      2  C   UNL A   1      32.830  30.794  27.251  1.00  0.00     0.261 C 
BRANCH   2   3
ATOM      3  O   UNL A   1      31.671  29.979  27.221  1.00  0.00    -0.463 OA
BRANCH   3   4
ATOM      4  C   UNL A   1      31.823  28.617  27.221  1.00  0.00     0.310 C 
ATOM      5  O   UNL A   1      31.429  27.832  28.066  1.00  0.00    -0.252 OA
BRANCH   4   6
ATOM      6  C   UNL A   1      32.603  28.191  25.987  1.00  0.00     0.160 C 
BRANCH   6   7
ATOM      7  C   UNL A   1      31.644  27.589  24.977  1.00  0.00    -0.013 A 
ATOM      8  C   UNL A   1      29.042  29.292  22.751  1.00  0.00     0.044 C 
ATOM      9  C   UNL A   1      29.804  28.227  23.484  1.00  0.00    -0.051 A 
ATOM     10  C   UNL A   1      29.290  26.942  23.621  1.00  0.00     0.005 A 
ATOM     11  C   UNL A   1      31.017  28.519  24.104  1.00  0.00     0.009 A 
ATOM     12  C   UNL A   1      29.946  25.992  24.419  1.00  0.00     0.026 A 
ATOM     13  C   UNL A   1      31.114  26.295  25.148  1.00  0.00     0.042 A 
BRANCH  13  14
ATOM     14  N   UNL A   1      31.702  25.347  26.036  1.00  0.00    -0.354 N 
ATOM     15  H   UNL A   1      31.744  25.610  26.983  1.00  0.00     0.167 HD
BRANCH  14  16
ATOM     16  C   UNL A   1      32.235  24.065  25.720  1.00  0.00     0.060 A 
ATOM     17  C   UNL A   1      33.516  23.941  25.153  1.00  0.00    -0.026 A 
ATOM     18  C   UNL A   1      31.445  22.898  25.793  1.00  0.00     0.064 A 
ATOM     19  C   UNL A   1      34.574  24.988  25.375  1.00  0.00     0.046 C 
ATOM     20  C   UNL A   1      33.858  22.780  24.440  1.00  0.00     0.005 A 
ATOM     21  C   UNL A   1      31.778  21.754  25.060  1.00  0.00     0.023 A 
ATOM     22  Cl  UNL A   1      30.102  22.780  26.875  1.00  0.00    -0.082 Cl
ATOM     23  C   UNL A   1      32.966  21.717  24.339  1.00  0.00     0.002 A 
ENDBRANCH  14  16
ENDBRANCH  13  14
ENDBRANCH   6   7
ENDBRANCH   4   6
ENDBRANCH   3   4
ENDBRANCH   2   3
ENDBRANCH   1   2
BRANCH   1  24
ATOM     24  O   UNL A   1      33.473  32.987  27.948  1.00  0.00    -0.374 OA
BRANCH  24  25
ATOM     25  C   UNL A   1      33.127  34.328  28.233  1.00  0.00     0.202 C 
BRANCH  25  26
ATOM     26  C   UNL A   1      34.003  34.869  29.363  1.00  0.00     0.261 C 
BRANCH  26  27
ATOM     27  O   UNL A   1      33.823  34.090  30.566  1.00  0.00    -0.460 OA
BRANCH  27  28
ATOM     28  C   UNL A   1      34.969  33.881  31.270  1.00  0.00     0.338 C 
ATOM     29  O   UNL A   1      35.497  34.708  32.007  1.00  0.00    -0.246 OA
BRANCH  28  30
ATOM     30  C   UNL A   1      35.637  32.631  30.811  1.00  0.00     0.060 A 
ATOM     31  C   UNL A   1      35.608  31.516  31.669  1.00  0.00     0.016 A 
ATOM     32  C   UNL A   1      36.601  32.722  29.807  1.00  0.00     0.016 A 
ATOM     33  C   UNL A   1      36.678  30.620  31.676  1.00  0.00     0.010 A 
ATOM     34  C   UNL A   1      37.716  31.916  29.914  1.00  0.00     0.010 A 
ATOM     35  C   UNL A   1      37.785  30.898  30.880  1.00  0.00    -0.014 A 
BRANCH  35  36
ATOM     36  C   UNL A   1      39.109  30.296  31.044  1.00  0.00     0.031 A 
ATOM     37  C   UNL A   1      39.426  29.048  30.330  1.00  0.00     0.074 A 
ATOM     38  C   UNL A   1      40.116  30.996  31.617  1.00  0.00     0.049 A 
ATOM     39  N   UNL A   1      40.544  28.429  30.458  1.00  0.00    -0.248 NA
ATOM     40  C   UNL A   1      38.491  28.342  29.459  1.00  0.00     0.031 C 
ATOM     41  C   UNL A   1      41.560  30.871  31.388  1.00  0.00     0.029 A 
ATOM     42  N   UNL A   1      40.043  31.989  32.581  1.00  0.00    -0.354 N 
ATOM     43  C   UNL A   1      40.623  27.504  29.454  1.00  0.00     0.074 A 
ATOM     44  C   UNL A   1      39.277  27.381  28.960  1.00  0.00     0.031 C 
ATOM     45  C   UNL A   1      42.225  31.575  32.319  1.00  0.00     0.029 A 
ATOM     46  C   UNL A   1      41.248  32.041  33.285  1.00  0.00     0.049 A 
ATOM     47  H   UNL A   1      39.264  32.568  32.744  1.00  0.00     0.167 HD
ATOM     48  C   UNL A   1      41.858  27.056  29.104  1.00  0.00     0.037 A 
ATOM     49  C   UNL A   1      41.291  31.861  34.636  1.00  0.00     0.037 A 
ATOM     50  C   UNL A   1      42.865  27.461  30.101  1.00  0.00     0.049 A 
ATOM     51  C   UNL A   1      41.891  30.498  34.939  1.00  0.00     0.074 A 
ATOM     52  C   UNL A   1      43.931  28.341  30.141  1.00  0.00     0.029 A 
ATOM     53  N   UNL A   1      42.635  27.103  31.423  1.00  0.00    -0.354 N 
ATOM     54  N   UNL A   1      42.404  29.726  34.017  1.00  0.00    -0.248 NA
ATOM     55  C   UNL A   1      41.927  29.859  36.251  1.00  0.00     0.031 C 
ATOM     56  C   UNL A   1      44.275  28.552  31.521  1.00  0.00     0.029 A 
ATOM     57  C   UNL A   1      43.455  27.764  32.313  1.00  0.00     0.049 A 
ATOM     58  H   UNL A   1      41.956  26.444  31.696  1.00  0.00     0.167 HD
ATOM     59  C   UNL A   1      42.761  28.521  34.528  1.00  0.00     0.074 A 
ATOM     60  C   UNL A   1      42.430  28.647  35.942  1.00  0.00     0.031 C 
ATOM     61  C   UNL A   1      43.276  27.521  33.749  1.00  0.00     0.037 A 
BRANCH  48  62
ATOM     62  C   UNL A   1      42.177  26.330  27.818  1.00  0.00     0.057 A 
ATOM     63  C   UNL A   1      42.711  27.039  26.727  1.00  0.00     0.134 A 
ATOM     64  C   UNL A   1      41.906  24.971  27.549  1.00  0.00     0.134 A 
ATOM     65  F   UNL A   1      43.002  28.345  26.820  1.00  0.00    -0.206 F 
ATOM     66  C   UNL A   1      42.962  26.444  25.480  1.00  0.00     0.040 A 
ATOM     67  C   UNL A   1      42.200  24.354  26.325  1.00  0.00     0.040 A 
ATOM     68  F   UNL A   1      41.286  24.174  28.427  1.00  0.00    -0.206 F 
ATOM     69  C   UNL A   1      42.720  25.093  25.279  1.00  0.00     0.006 A 
ENDBRANCH  48  62
BRANCH  49  70
ATOM     70  C   UNL A   1      40.142  32.572  35.285  1.00  0.00     0.057 A 
ATOM     71  C   UNL A   1      40.227  33.984  35.285  1.00  0.00     0.134 A 
ATOM     72  C   UNL A   1      38.856  32.017  35.279  1.00  0.00     0.134 A 
ATOM     73  F   UNL A   1      41.427  34.585  35.294  1.00  0.00    -0.206 F 
ATOM     74  C   UNL A   1      39.107  34.791  35.057  1.00  0.00     0.040 A 
ATOM     75  C   UNL A   1      37.726  32.824  35.062  1.00  0.00     0.040 A 
ATOM     76  F   UNL A   1      38.691  30.689  35.227  1.00  0.00    -0.206 F 
ATOM     77  C   UNL A   1      37.858  34.203  34.891  1.00  0.00     0.006 A 
ENDBRANCH  49  70
BRANCH  61  78
ATOM     78  C   UNL A   1      43.620  26.181  34.327  1.00  0.00     0.057 A 
ATOM     79  C   UNL A   1      42.639  25.312  34.818  1.00  0.00     0.134 A 
ATOM     80  C   UNL A   1      44.951  25.739  34.466  1.00  0.00     0.134 A 
ATOM     81  F   UNL A   1      41.347  25.675  34.850  1.00  0.00    -0.206 F 
ATOM     82  C   UNL A   1      42.949  24.037  35.299  1.00  0.00     0.040 A 
ATOM     83  C   UNL A   1      45.278  24.498  35.010  1.00  0.00     0.040 A 
ATOM     84  F   UNL A   1      45.993  26.468  34.046  1.00  0.00    -0.206 F 
ATOM     85  C   UNL A   1      44.273  23.626  35.395  1.00  0.00     0.006 A 
ENDBRANCH  61  78
ENDBRANCH  35  36
ENDBRANCH  28  30
ENDBRANCH  27  28
ENDBRANCH  26  27
ENDBRANCH  25  26
ENDBRANCH  24  25
ENDBRANCH   1  24
TORSDOF 17
ENDMDL
MODEL 3
REMARK VINA RESULT:     -10.7      3.350      8.649
REMARK SMILES Cc1ccc(Nc2c(C)cccc2Cl)c(CC(=O)OCCOCCOC(=O)c2ccc(-c3c4nc(c(-c5c(F)cccc5F)c5ccc([nH]5)c(-c5c(F)cccc5F)c5nc(c(-c6c(F)cccc6F)c6ccc3[nH]6)C=C5)C=C4)cc2)c1
REMARK SMILES IDX 21 1 20 2 19 3 17 4 18 5 16 6 15 7 1 8 2 9 3 10 82 11 4 12
REMARK SMILES IDX 5 13 6 14 7 16 8 17 13 18 9 19 10 20 12 21 14 22 11 23 22 24
REMARK SMILES IDX 23 25 24 26 25 27 26 28 27 29 28 30 29 31 81 32 30 33 80 34
REMARK SMILES IDX 31 35 32 36 33 37 74 38 34 39 79 40 73 41 75 42 35 43 78 44
REMARK SMILES IDX 72 45 71 46 36 48 62 49 45 50 61 51 46 52 49 53 60 54 76 55
REMARK SMILES IDX 47 56 48 57 59 59 77 60 50 61 37 62 38 63 43 64 39 65 40 66
REMARK SMILES IDX 42 67 44 68 41 69 63 70 64 71 69 72 65 73 66 74 68 75 70 76
REMARK SMILES IDX 67 77 51 78 52 79 57 80 53 81 54 82 56 83 58 84 55 85
REMARK H PARENT 6 15 75 47 49 58
REMARK Flexibility Score: inf
ROOT
ATOM      1  C   UNL A   1      36.465  23.319  25.973  1.00  0.00     0.202 C 
ENDROOT
BRANCH   1   2
ATOM      2  C   UNL A   1      35.782  24.459  25.239  1.00  0.00     0.261 C 
BRANCH   2   3
ATOM      3  O   UNL A   1      34.680  24.037  24.456  1.00  0.00    -0.463 OA
BRANCH   3   4
ATOM      4  C   UNL A   1      33.922  24.985  23.821  1.00  0.00     0.310 C 
ATOM      5  O   UNL A   1      34.000  25.331  22.655  1.00  0.00    -0.252 OA
BRANCH   4   6
ATOM      6  C   UNL A   1      32.938  25.597  24.806  1.00  0.00     0.160 C 
BRANCH   6   7
ATOM      7  C   UNL A   1      33.173  27.094  24.878  1.00  0.00    -0.013 A 
ATOM      8  C   UNL A   1      34.532  29.226  27.747  1.00  0.00     0.044 C 
ATOM      9  C   UNL A   1      33.870  28.838  26.457  1.00  0.00    -0.051 A 
ATOM     10  C   UNL A   1      33.096  29.747  25.745  1.00  0.00     0.005 A 
ATOM     11  C   UNL A   1      33.963  27.534  25.975  1.00  0.00     0.009 A 
ATOM     12  C   UNL A   1      32.375  29.338  24.613  1.00  0.00     0.026 A 
ATOM     13  C   UNL A   1      32.360  28.001  24.169  1.00  0.00     0.042 A 
BRANCH  13  14
ATOM     14  N   UNL A   1      31.536  27.588  23.081  1.00  0.00    -0.354 N 
ATOM     15  H   UNL A   1      32.008  27.258  22.283  1.00  0.00     0.167 HD
BRANCH  14  16
ATOM     16  C   UNL A   1      30.114  27.595  23.007  1.00  0.00     0.060 A 
ATOM     17  C   UNL A   1      29.422  28.757  22.622  1.00  0.00    -0.026 A 
ATOM     18  C   UNL A   1      29.345  26.513  23.483  1.00  0.00     0.064 A 
ATOM     19  C   UNL A   1      30.069  29.800  21.750  1.00  0.00     0.046 C 
ATOM     20  C   UNL A   1      28.072  28.918  22.973  1.00  0.00     0.005 A 
ATOM     21  C   UNL A   1      28.007  26.686  23.856  1.00  0.00     0.023 A 
ATOM     22  Cl  UNL A   1      29.973  24.903  23.521  1.00  0.00    -0.082 Cl
ATOM     23  C   UNL A   1      27.385  27.911  23.646  1.00  0.00     0.002 A 
ENDBRANCH  14  16
ENDBRANCH  13  14
ENDBRANCH   6   7
ENDBRANCH   4   6
ENDBRANCH   3   4
ENDBRANCH   2   3
ENDBRANCH   1   2
BRANCH   1  24
ATOM     24  O   UNL A   1      37.220  22.559  25.053  1.00  0.00    -0.374 OA
BRANCH  24  25
ATOM     25  C   UNL A   1      37.776  21.370  25.580  1.00  0.00     0.202 C 
BRANCH  25  26
ATOM     26  C   UNL A   1      39.293  21.510  25.705  1.00  0.00     0.261 C 
BRANCH  26  27
ATOM     27  O   UNL A   1      39.640  22.257  26.891  1.00  0.00    -0.460 OA
BRANCH  27  28
ATOM     28  C   UNL A   1      40.608  23.194  26.694  1.00  0.00     0.338 C 
ATOM     29  O   UNL A   1      41.809  22.954  26.620  1.00  0.00    -0.246 OA
BRANCH  28  30
ATOM     30  C   UNL A   1      40.044  24.563  26.860  1.00  0.00     0.060 A 
ATOM     31  C   UNL A   1      40.695  25.626  26.207  1.00  0.00     0.016 A 
ATOM     32  C   UNL A   1      39.208  24.811  27.948  1.00  0.00     0.016 A 
ATOM     33  C   UNL A   1      40.699  26.896  26.787  1.00  0.00     0.010 A 
ATOM     34  C   UNL A   1      39.331  26.029  28.586  1.00  0.00     0.010 A 
ATOM     35  C   UNL A   1      40.116  27.058  28.040  1.00  0.00    -0.014 A 
BRANCH  35  36
ATOM     36  C   UNL A   1      40.356  28.189  28.938  1.00  0.00     0.031 A 
ATOM     37  C   UNL A   1      39.428  29.331  28.920  1.00  0.00     0.074 A 
ATOM     38  C   UNL A   1      41.246  28.085  29.953  1.00  0.00     0.049 A 
ATOM     39  N   UNL A   1      39.594  30.384  29.638  1.00  0.00    -0.248 NA
ATOM     40  C   UNL A   1      38.264  29.429  28.043  1.00  0.00     0.031 C 
ATOM     41  C   UNL A   1      41.246  28.784  31.242  1.00  0.00     0.029 A 
ATOM     42  N   UNL A   1      42.393  27.311  30.023  1.00  0.00    -0.354 N 
ATOM     43  C   UNL A   1      38.425  31.093  29.608  1.00  0.00     0.074 A 
ATOM     44  C   UNL A   1      37.691  30.549  28.497  1.00  0.00     0.031 C 
ATOM     45  C   UNL A   1      42.420  28.582  31.863  1.00  0.00     0.029 A 
ATOM     46  C   UNL A   1      43.286  27.888  30.929  1.00  0.00     0.049 A 
ATOM     47  H   UNL A   1      42.554  26.483  29.515  1.00  0.00     0.167 HD
ATOM     48  C   UNL A   1      38.196  31.974  30.619  1.00  0.00     0.037 A 
ATOM     49  C   UNL A   1      44.540  28.265  30.550  1.00  0.00     0.037 A 
ATOM     50  C   UNL A   1      39.419  32.194  31.410  1.00  0.00     0.049 A 
ATOM     51  C   UNL A   1      44.605  29.781  30.476  1.00  0.00     0.074 A 
ATOM     52  C   UNL A   1      39.854  31.876  32.684  1.00  0.00     0.029 A 
ATOM     53  N   UNL A   1      40.556  32.608  30.728  1.00  0.00    -0.354 N 
ATOM     54  N   UNL A   1      43.626  30.554  30.869  1.00  0.00    -0.248 NA
ATOM     55  C   UNL A   1      45.709  30.559  29.923  1.00  0.00     0.031 C 
ATOM     56  C   UNL A   1      41.282  32.040  32.715  1.00  0.00     0.029 A 
ATOM     57  C   UNL A   1      41.707  32.504  31.480  1.00  0.00     0.049 A 
ATOM     58  H   UNL A   1      40.541  32.941  29.802  1.00  0.00     0.167 HD
ATOM     59  C   UNL A   1      43.885  31.856  30.588  1.00  0.00     0.074 A 
ATOM     60  C   UNL A   1      45.209  31.809  29.979  1.00  0.00     0.031 C 
ATOM     61  C   UNL A   1      42.988  32.854  30.858  1.00  0.00     0.037 A 
BRANCH  48  62
ATOM     62  C   UNL A   1      36.848  32.568  30.952  1.00  0.00     0.057 A 
ATOM     63  C   UNL A   1      36.382  33.691  30.245  1.00  0.00     0.134 A 
ATOM     64  C   UNL A   1      35.999  32.152  32.001  1.00  0.00     0.134 A 
ATOM     65  F   UNL A   1      37.087  34.219  29.234  1.00  0.00    -0.206 F 
ATOM     66  C   UNL A   1      35.175  34.338  30.551  1.00  0.00     0.040 A 
ATOM     67  C   UNL A   1      34.766  32.758  32.282  1.00  0.00     0.040 A 
ATOM     68  F   UNL A   1      36.336  31.178  32.855  1.00  0.00    -0.206 F 
ATOM     69  C   UNL A   1      34.353  33.864  31.562  1.00  0.00     0.006 A 
ENDBRANCH  48  62
BRANCH  49  70
ATOM     70  C   UNL A   1      45.133  27.232  29.640  1.00  0.00     0.057 A 
ATOM     71  C   UNL A   1      45.431  25.989  30.248  1.00  0.00     0.134 A 
ATOM     72  C   UNL A   1      44.817  27.207  28.276  1.00  0.00     0.134 A 
ATOM     73  F   UNL A   1      45.748  25.939  31.551  1.00  0.00    -0.206 F 
ATOM     74  C   UNL A   1      45.200  24.774  29.596  1.00  0.00     0.040 A 
ATOM     75  C   UNL A   1      44.595  25.987  27.612  1.00  0.00     0.040 A 
ATOM     76  F   UNL A   1      44.472  28.333  27.639  1.00  0.00    -0.206 F 
ATOM     77  C   UNL A   1      44.727  24.774  28.288  1.00  0.00     0.006 A 
ENDBRANCH  49  70
BRANCH  61  78
ATOM     78  C   UNL A   1      43.277  34.280  30.495  1.00  0.00     0.057 A 
ATOM     79  C   UNL A   1      43.249  34.727  29.169  1.00  0.00     0.134 A 
ATOM     80  C   UNL A   1      43.649  35.241  31.456  1.00  0.00     0.134 A 
ATOM     81  F   UNL A   1      43.026  33.875  28.157  1.00  0.00    -0.206 F 
ATOM     82  C   UNL A   1      43.455  36.068  28.833  1.00  0.00     0.040 A 
ATOM     83  C   UNL A   1      43.926  36.567  31.125  1.00  0.00     0.040 A 
ATOM     84  F   UNL A   1      43.724  34.955  32.762  1.00  0.00    -0.206 F 
ATOM     85  C   UNL A   1      43.793  36.994  29.813  1.00  0.00     0.006 A 
ENDBRANCH  61  78
ENDBRANCH  35  36
ENDBRANCH  28  30
ENDBRANCH  27  28
ENDBRANCH  26  27
ENDBRANCH  25  26
ENDBRANCH  24  25
ENDBRANCH   1  24
TORSDOF 17
ENDMDL
