MODEL 1
REMARK VINA RESULT:      -9.0      0.000      0.000
REMARK SMILES C[C@H]1C[NH2+]C[C@@H](CC(=O)OCCOCCOC(=O)c2ccc(-c3c4nc(c(-c5c(F)cccc5F)c5ccc([nH]5)c(-c5c(F)cccc5F)c5nc(c(-c6c(F)cccc6F)c6ccc3[nH]6)C=C5)C=C4)cc2)C1
REMARK SMILES IDX 14 1 13 2 12 3 11 4 10 5 8 6 9 7 7 8 6 9 1 10 2 11 3 12
REMARK SMILES IDX 73 13 4 14 5 15 15 18 16 19 17 20 18 21 19 22 20 23 72 24
REMARK SMILES IDX 21 25 71 26 22 27 23 28 24 29 65 30 25 31 70 32 64 33 66 34
REMARK SMILES IDX 26 35 69 36 63 37 62 38 27 40 53 41 36 42 52 43 37 44 40 45
REMARK SMILES IDX 51 46 67 47 38 48 39 49 50 51 68 52 41 53 28 54 29 55 34 56
REMARK SMILES IDX 30 57 31 58 33 59 35 60 32 61 54 62 55 63 60 64 56 65 57 66
REMARK SMILES IDX 59 67 61 68 58 69 42 70 43 71 48 72 44 73 45 74 47 75 49 76
REMARK SMILES IDX 46 77
REMARK H PARENT 4 16 4 17 66 39 40 50
REMARK Flexibility Score: inf
ROOT
ATOM      1  C   UNL A   1      32.992  37.025  31.747  1.00  0.00     0.202 C 
ENDROOT
BRANCH   1   2
ATOM      2  O   UNL A   1      33.138  36.068  32.794  1.00  0.00    -0.374 OA
BRANCH   2   3
ATOM      3  C   UNL A   1      34.386  36.067  33.490  1.00  0.00     0.202 C 
BRANCH   3   4
ATOM      4  C   UNL A   1      35.469  35.169  32.886  1.00  0.00     0.261 C 
BRANCH   4   5
ATOM      5  O   UNL A   1      36.570  35.015  33.804  1.00  0.00    -0.463 OA
BRANCH   5   6
ATOM      6  C   UNL A   1      36.612  33.866  34.521  1.00  0.00     0.306 C 
ATOM      7  O   UNL A   1      35.659  33.372  35.111  1.00  0.00    -0.252 OA
BRANCH   6   8
ATOM      8  C   UNL A   1      38.001  33.270  34.579  1.00  0.00     0.132 C 
BRANCH   8   9
ATOM      9  C   UNL A   1      38.128  31.732  34.576  1.00  0.00     0.056 C 
ATOM     10  C   UNL A   1      37.142  29.027  31.950  1.00  0.00     0.013 C 
ATOM     11  C   UNL A   1      37.757  29.594  33.228  1.00  0.00     0.041 C 
ATOM     12  C   UNL A   1      39.276  29.399  33.225  1.00  0.00     0.263 C 
ATOM     13  C   UNL A   1      37.403  31.081  33.384  1.00  0.00     0.019 C 
ATOM     14  N   UNL A   1      39.872  29.933  34.447  1.00  0.00    -0.346 N 
ATOM     15  C   UNL A   1      39.627  31.370  34.559  1.00  0.00     0.264 C 
ATOM     16  H   UNL A   1      40.878  29.766  34.431  1.00  0.00     0.346 HD
ATOM     17  H   UNL A   1      39.448  29.466  35.250  1.00  0.00     0.346 HD
ENDBRANCH   8   9
ENDBRANCH   6   8
ENDBRANCH   5   6
ENDBRANCH   4   5
ENDBRANCH   3   4
ENDBRANCH   2   3
ENDBRANCH   1   2
BRANCH   1  18
ATOM     18  C   UNL A   1      33.077  36.460  30.325  1.00  0.00     0.261 C 
BRANCH  18  19
ATOM     19  O   UNL A   1      32.834  35.042  30.297  1.00  0.00    -0.460 OA
BRANCH  19  20
ATOM     20  C   UNL A   1      33.104  34.446  29.112  1.00  0.00     0.338 C 
ATOM     21  O   UNL A   1      32.473  34.551  28.069  1.00  0.00    -0.246 OA
BRANCH  20  22
ATOM     22  C   UNL A   1      34.399  33.743  29.176  1.00  0.00     0.060 A 
ATOM     23  C   UNL A   1      34.580  32.820  30.213  1.00  0.00     0.016 A 
ATOM     24  C   UNL A   1      35.443  34.026  28.293  1.00  0.00     0.016 A 
ATOM     25  C   UNL A   1      35.820  32.215  30.402  1.00  0.00     0.010 A 
ATOM     26  C   UNL A   1      36.690  33.420  28.486  1.00  0.00     0.010 A 
ATOM     27  C   UNL A   1      36.894  32.538  29.563  1.00  0.00    -0.014 A 
BRANCH  27  28
ATOM     28  C   UNL A   1      38.259  32.071  29.915  1.00  0.00     0.031 A 
ATOM     29  C   UNL A   1      38.732  30.740  29.396  1.00  0.00     0.074 A 
ATOM     30  C   UNL A   1      39.087  32.840  30.645  1.00  0.00     0.049 A 
ATOM     31  N   UNL A   1      39.876  30.133  29.587  1.00  0.00    -0.248 NA
ATOM     32  C   UNL A   1      37.789  29.994  28.548  1.00  0.00     0.031 C 
ATOM     33  C   UNL A   1      38.767  34.165  31.174  1.00  0.00     0.029 A 
ATOM     34  N   UNL A   1      40.373  32.611  31.067  1.00  0.00    -0.354 N 
ATOM     35  C   UNL A   1      39.790  28.937  28.885  1.00  0.00     0.074 A 
ATOM     36  C   UNL A   1      38.471  28.887  28.292  1.00  0.00     0.031 C 
ATOM     37  C   UNL A   1      39.828  34.629  31.856  1.00  0.00     0.029 A 
ATOM     38  C   UNL A   1      40.891  33.626  31.835  1.00  0.00     0.049 A 
ATOM     39  H   UNL A   1      40.877  31.796  30.841  1.00  0.00     0.167 HD
ATOM     40  C   UNL A   1      40.729  27.973  28.735  1.00  0.00     0.037 A 
ATOM     41  C   UNL A   1      42.078  33.723  32.462  1.00  0.00     0.037 A 
ATOM     42  C   UNL A   1      42.044  28.021  29.317  1.00  0.00     0.049 A 
ATOM     43  C   UNL A   1      43.079  32.605  32.337  1.00  0.00     0.074 A 
ATOM     44  C   UNL A   1      43.068  27.094  29.211  1.00  0.00     0.029 A 
ATOM     45  N   UNL A   1      42.517  29.051  30.114  1.00  0.00    -0.354 N 
ATOM     46  N   UNL A   1      42.994  31.488  31.655  1.00  0.00    -0.248 NA
ATOM     47  C   UNL A   1      44.346  32.762  33.069  1.00  0.00     0.031 C 
ATOM     48  C   UNL A   1      44.146  27.545  29.978  1.00  0.00     0.029 A 
ATOM     49  C   UNL A   1      43.811  28.773  30.524  1.00  0.00     0.049 A 
ATOM     50  H   UNL A   1      42.009  29.859  30.353  1.00  0.00     0.167 HD
ATOM     51  C   UNL A   1      44.201  30.828  31.850  1.00  0.00     0.074 A 
ATOM     52  C   UNL A   1      45.007  31.672  32.706  1.00  0.00     0.031 C 
ATOM     53  C   UNL A   1      44.606  29.629  31.364  1.00  0.00     0.037 A 
BRANCH  40  54
ATOM     54  C   UNL A   1      40.361  26.770  27.917  1.00  0.00     0.057 A 
ATOM     55  C   UNL A   1      40.831  26.598  26.610  1.00  0.00     0.134 A 
ATOM     56  C   UNL A   1      39.567  25.753  28.460  1.00  0.00     0.134 A 
ATOM     57  F   UNL A   1      41.585  27.544  26.027  1.00  0.00    -0.206 F 
ATOM     58  C   UNL A   1      40.511  25.462  25.864  1.00  0.00     0.040 A 
ATOM     59  C   UNL A   1      39.259  24.604  27.733  1.00  0.00     0.040 A 
ATOM     60  F   UNL A   1      39.088  25.856  29.710  1.00  0.00    -0.206 F 
ATOM     61  C   UNL A   1      39.728  24.458  26.429  1.00  0.00     0.006 A 
ENDBRANCH  40  54
BRANCH  41  62
ATOM     62  C   UNL A   1      42.392  34.918  33.286  1.00  0.00     0.057 A 
ATOM     63  C   UNL A   1      41.993  35.005  34.625  1.00  0.00     0.134 A 
ATOM     64  C   UNL A   1      43.061  36.021  32.740  1.00  0.00     0.134 A 
ATOM     65  F   UNL A   1      41.325  33.992  35.196  1.00  0.00    -0.206 F 
ATOM     66  C   UNL A   1      42.226  36.152  35.385  1.00  0.00     0.040 A 
ATOM     67  C   UNL A   1      43.324  37.164  33.496  1.00  0.00     0.040 A 
ATOM     68  F   UNL A   1      43.470  36.001  31.463  1.00  0.00    -0.206 F 
ATOM     69  C   UNL A   1      42.898  37.236  34.820  1.00  0.00     0.006 A 
ENDBRANCH  41  62
BRANCH  53  70
ATOM     70  C   UNL A   1      45.994  29.176  31.711  1.00  0.00     0.057 A 
ATOM     71  C   UNL A   1      46.255  28.387  32.837  1.00  0.00     0.134 A 
ATOM     72  C   UNL A   1      47.076  29.501  30.882  1.00  0.00     0.134 A 
ATOM     73  F   UNL A   1      45.263  28.053  33.678  1.00  0.00    -0.206 F 
ATOM     74  C   UNL A   1      47.547  27.953  33.140  1.00  0.00     0.040 A 
ATOM     75  C   UNL A   1      48.368  29.052  31.161  1.00  0.00     0.040 A 
ATOM     76  F   UNL A   1      46.893  30.247  29.782  1.00  0.00    -0.206 F 
ATOM     77  C   UNL A   1      48.607  28.280  32.296  1.00  0.00     0.006 A 
ENDBRANCH  53  70
ENDBRANCH  27  28
ENDBRANCH  20  22
ENDBRANCH  19  20
ENDBRANCH  18  19
ENDBRANCH   1  18
TORSDOF 15
ENDMDL
MODEL 2
REMARK VINA RESULT:      -8.5      4.065      8.591
REMARK SMILES C[C@H]1C[NH2+]C[C@@H](CC(=O)OCCOCCOC(=O)c2ccc(-c3c4nc(c(-c5c(F)cccc5F)c5ccc([nH]5)c(-c5c(F)cccc5F)c5nc(c(-c6c(F)cccc6F)c6ccc3[nH]6)C=C5)C=C4)cc2)C1
REMARK SMILES IDX 14 1 13 2 12 3 11 4 10 5 8 6 9 7 7 8 6 9 1 10 2 11 3 12
REMARK SMILES IDX 73 13 4 14 5 15 15 18 16 19 17 20 18 21 19 22 20 23 72 24
REMARK SMILES IDX 21 25 71 26 22 27 23 28 24 29 65 30 25 31 70 32 64 33 66 34
REMARK SMILES IDX 26 35 69 36 63 37 62 38 27 40 53 41 36 42 52 43 37 44 40 45
REMARK SMILES IDX 51 46 67 47 38 48 39 49 50 51 68 52 41 53 28 54 29 55 34 56
REMARK SMILES IDX 30 57 31 58 33 59 35 60 32 61 54 62 55 63 60 64 56 65 57 66
REMARK SMILES IDX 59 67 61 68 58 69 42 70 43 71 48 72 44 73 45 74 47 75 49 76
REMARK SMILES IDX 46 77
REMARK H PARENT 4 16 4 17 66 39 40 50
REMARK Flexibility Score: inf
ROOT
ATOM      1  C   UNL A   1      34.268  34.263  30.716  1.00  0.00     0.202 C 
ENDROOT
BRANCH   1   2
ATOM      2  O   UNL A   1      34.015  33.156  29.855  1.00  0.00    -0.374 OA
BRANCH   2   3
ATOM      3  C   UNL A   1      34.349  33.329  28.476  1.00  0.00     0.202 C 
BRANCH   3   4
ATOM      4  C   UNL A   1      35.110  32.164  27.838  1.00  0.00     0.261 C 
BRANCH   4   5
ATOM      5  O   UNL A   1      34.193  31.150  27.378  1.00  0.00    -0.463 OA
BRANCH   5   6
ATOM      6  C   UNL A   1      34.539  29.862  27.612  1.00  0.00     0.306 C 
ATOM      7  O   UNL A   1      35.473  29.503  28.319  1.00  0.00    -0.252 OA
BRANCH   6   8
ATOM      8  C   UNL A   1      33.679  28.882  26.843  1.00  0.00     0.132 C 
BRANCH   8   9
ATOM      9  C   UNL A   1      33.305  29.237  25.388  1.00  0.00     0.056 C 
ATOM     10  C   UNL A   1      33.510  27.214  22.063  1.00  0.00     0.013 C 
ATOM     11  C   UNL A   1      33.156  28.379  22.987  1.00  0.00     0.041 C 
ATOM     12  C   UNL A   1      31.636  28.546  23.080  1.00  0.00     0.263 C 
ATOM     13  C   UNL A   1      33.763  28.165  24.381  1.00  0.00     0.019 C 
ATOM     14  N   UNL A   1      31.289  29.663  23.957  1.00  0.00    -0.346 N 
ATOM     15  C   UNL A   1      31.776  29.427  25.315  1.00  0.00     0.264 C 
ATOM     16  H   UNL A   1      30.275  29.769  23.979  1.00  0.00     0.346 HD
ATOM     17  H   UNL A   1      31.727  30.511  23.596  1.00  0.00     0.346 HD
ENDBRANCH   8   9
ENDBRANCH   6   8
ENDBRANCH   5   6
ENDBRANCH   4   5
ENDBRANCH   3   4
ENDBRANCH   2   3
ENDBRANCH   1   2
BRANCH   1  18
ATOM     18  C   UNL A   1      34.540  33.906  32.181  1.00  0.00     0.261 C 
BRANCH  18  19
ATOM     19  O   UNL A   1      34.896  32.520  32.337  1.00  0.00    -0.460 OA
BRANCH  19  20
ATOM     20  C   UNL A   1      36.042  32.306  33.025  1.00  0.00     0.338 C 
ATOM     21  O   UNL A   1      36.259  32.564  34.201  1.00  0.00    -0.246 OA
BRANCH  20  22
ATOM     22  C   UNL A   1      36.999  31.545  32.200  1.00  0.00     0.060 A 
ATOM     23  C   UNL A   1      38.005  30.837  32.870  1.00  0.00     0.016 A 
ATOM     24  C   UNL A   1      36.967  31.576  30.805  1.00  0.00     0.016 A 
ATOM     25  C   UNL A   1      39.011  30.201  32.148  1.00  0.00     0.010 A 
ATOM     26  C   UNL A   1      37.981  30.938  30.080  1.00  0.00     0.010 A 
ATOM     27  C   UNL A   1      39.027  30.277  30.749  1.00  0.00    -0.014 A 
BRANCH  27  28
ATOM     28  C   UNL A   1      40.221  29.799  30.008  1.00  0.00     0.031 A 
ATOM     29  C   UNL A   1      41.371  30.745  29.785  1.00  0.00     0.074 A 
ATOM     30  C   UNL A   1      40.307  28.527  29.579  1.00  0.00     0.049 A 
ATOM     31  N   UNL A   1      42.502  30.545  29.158  1.00  0.00    -0.248 NA
ATOM     32  C   UNL A   1      41.225  32.098  30.346  1.00  0.00     0.031 C 
ATOM     33  C   UNL A   1      39.282  27.500  29.765  1.00  0.00     0.029 A 
ATOM     34  N   UNL A   1      41.308  27.883  28.895  1.00  0.00    -0.354 N 
ATOM     35  C   UNL A   1      43.200  31.743  29.248  1.00  0.00     0.074 A 
ATOM     36  C   UNL A   1      42.354  32.675  29.961  1.00  0.00     0.031 C 
ATOM     37  C   UNL A   1      39.707  26.355  29.203  1.00  0.00     0.029 A 
ATOM     38  C   UNL A   1      41.018  26.575  28.595  1.00  0.00     0.049 A 
ATOM     39  H   UNL A   1      42.155  28.319  28.645  1.00  0.00     0.167 HD
ATOM     40  C   UNL A   1      44.441  32.037  28.791  1.00  0.00     0.037 A 
ATOM     41  C   UNL A   1      41.724  25.665  27.896  1.00  0.00     0.037 A 
ATOM     42  C   UNL A   1      45.290  31.112  28.089  1.00  0.00     0.049 A 
ATOM     43  C   UNL A   1      43.072  26.039  27.338  1.00  0.00     0.074 A 
ATOM     44  C   UNL A   1      46.568  31.317  27.596  1.00  0.00     0.029 A 
ATOM     45  N   UNL A   1      44.945  29.806  27.777  1.00  0.00    -0.354 N 
ATOM     46  N   UNL A   1      43.730  27.169  27.447  1.00  0.00    -0.248 NA
ATOM     47  C   UNL A   1      43.778  25.009  26.560  1.00  0.00     0.031 C 
ATOM     48  C   UNL A   1      46.981  30.147  26.951  1.00  0.00     0.029 A 
ATOM     49  C   UNL A   1      45.978  29.200  27.081  1.00  0.00     0.049 A 
ATOM     50  H   UNL A   1      44.094  29.374  28.014  1.00  0.00     0.167 HD
ATOM     51  C   UNL A   1      44.934  26.974  26.781  1.00  0.00     0.074 A 
ATOM     52  C   UNL A   1      44.922  25.617  26.280  1.00  0.00     0.031 C 
ATOM     53  C   UNL A   1      45.959  27.843  26.600  1.00  0.00     0.037 A 
BRANCH  40  54
ATOM     54  C   UNL A   1      44.953  33.427  29.026  1.00  0.00     0.057 A 
ATOM     55  C   UNL A   1      44.696  34.469  28.127  1.00  0.00     0.134 A 
ATOM     56  C   UNL A   1      45.672  33.736  30.188  1.00  0.00     0.134 A 
ATOM     57  F   UNL A   1      44.024  34.234  26.989  1.00  0.00    -0.206 F 
ATOM     58  C   UNL A   1      45.149  35.767  28.367  1.00  0.00     0.040 A 
ATOM     59  C   UNL A   1      46.110  35.033  30.449  1.00  0.00     0.040 A 
ATOM     60  F   UNL A   1      45.948  32.783  31.092  1.00  0.00    -0.206 F 
ATOM     61  C   UNL A   1      45.852  36.053  29.535  1.00  0.00     0.006 A 
ENDBRANCH  40  54
BRANCH  41  62
ATOM     62  C   UNL A   1      41.169  24.308  27.661  1.00  0.00     0.057 A 
ATOM     63  C   UNL A   1      41.656  23.193  28.354  1.00  0.00     0.134 A 
ATOM     64  C   UNL A   1      40.169  24.087  26.706  1.00  0.00     0.134 A 
ATOM     65  F   UNL A   1      42.632  23.337  29.261  1.00  0.00    -0.206 F 
ATOM     66  C   UNL A   1      41.185  21.906  28.090  1.00  0.00     0.040 A 
ATOM     67  C   UNL A   1      39.671  22.809  26.450  1.00  0.00     0.040 A 
ATOM     68  F   UNL A   1      39.661  25.114  26.008  1.00  0.00    -0.206 F 
ATOM     69  C   UNL A   1      40.186  21.712  27.137  1.00  0.00     0.006 A 
ENDBRANCH  41  62
BRANCH  53  70
ATOM     70  C   UNL A   1      47.168  27.343  25.866  1.00  0.00     0.057 A 
ATOM     71  C   UNL A   1      48.212  26.683  26.524  1.00  0.00     0.134 A 
ATOM     72  C   UNL A   1      47.267  27.488  24.476  1.00  0.00     0.134 A 
ATOM     73  F   UNL A   1      48.184  26.524  27.856  1.00  0.00    -0.206 F 
ATOM     74  C   UNL A   1      49.323  26.202  25.829  1.00  0.00     0.040 A 
ATOM     75  C   UNL A   1      48.360  26.990  23.767  1.00  0.00     0.040 A 
ATOM     76  F   UNL A   1      46.295  28.102  23.784  1.00  0.00    -0.206 F 
ATOM     77  C   UNL A   1      49.396  26.349  24.444  1.00  0.00     0.006 A 
ENDBRANCH  53  70
ENDBRANCH  27  28
ENDBRANCH  20  22
ENDBRANCH  19  20
ENDBRANCH  18  19
ENDBRANCH   1  18
TORSDOF 15
ENDMDL
MODEL 3
REMARK VINA RESULT:      -8.3      2.357      7.329
REMARK SMILES C[C@H]1C[NH2+]C[C@@H](CC(=O)OCCOCCOC(=O)c2ccc(-c3c4nc(c(-c5c(F)cccc5F)c5ccc([nH]5)c(-c5c(F)cccc5F)c5nc(c(-c6c(F)cccc6F)c6ccc3[nH]6)C=C5)C=C4)cc2)C1
REMARK SMILES IDX 14 1 13 2 12 3 11 4 10 5 8 6 9 7 7 8 6 9 1 10 2 11 3 12
REMARK SMILES IDX 73 13 4 14 5 15 15 18 16 19 17 20 18 21 19 22 20 23 72 24
REMARK SMILES IDX 21 25 71 26 22 27 23 28 24 29 65 30 25 31 70 32 64 33 66 34
REMARK SMILES IDX 26 35 69 36 63 37 62 38 27 40 53 41 36 42 52 43 37 44 40 45
REMARK SMILES IDX 51 46 67 47 38 48 39 49 50 51 68 52 41 53 28 54 29 55 34 56
REMARK SMILES IDX 30 57 31 58 33 59 35 60 32 61 54 62 55 63 60 64 56 65 57 66
REMARK SMILES IDX 59 67 61 68 58 69 42 70 43 71 48 72 44 73 45 74 47 75 49 76
REMARK SMILES IDX 46 77
REMARK H PARENT 4 16 4 17 66 39 40 50
REMARK Flexibility Score: inf
ROOT
ATOM      1  C   UNL A   1      33.640  35.013  28.764  1.00  0.00     0.202 C 
ENDROOT
BRANCH   1   2
ATOM      2  O   UNL A   1      32.884  34.933  29.971  1.00  0.00    -0.374 OA
BRANCH   2   3
ATOM      3  C   UNL A   1      32.794  36.127  30.750  1.00  0.00     0.202 C 
BRANCH   3   4
ATOM      4  C   UNL A   1      32.452  35.918  32.228  1.00  0.00     0.261 C 
BRANCH   4   5
ATOM      5  O   UNL A   1      33.136  34.760  32.748  1.00  0.00    -0.463 OA
BRANCH   5   6
ATOM      6  C   UNL A   1      34.320  34.978  33.369  1.00  0.00     0.306 C 
ATOM      7  O   UNL A   1      34.798  36.082  33.601  1.00  0.00    -0.252 OA
BRANCH   6   8
ATOM      8  C   UNL A   1      35.045  33.692  33.702  1.00  0.00     0.132 C 
BRANCH   8   9
ATOM      9  C   UNL A   1      36.388  33.417  32.993  1.00  0.00     0.056 C 
ATOM     10  C   UNL A   1      37.535  33.844  29.293  1.00  0.00     0.013 C 
ATOM     11  C   UNL A   1      37.669  33.553  30.787  1.00  0.00     0.041 C 
ATOM     12  C   UNL A   1      38.596  34.574  31.452  1.00  0.00     0.263 C 
ATOM     13  C   UNL A   1      36.289  33.554  31.462  1.00  0.00     0.019 C 
ATOM     14  N   UNL A   1      38.735  34.299  32.880  1.00  0.00    -0.346 N 
ATOM     15  C   UNL A   1      37.441  34.394  33.554  1.00  0.00     0.264 C 
ATOM     16  H   UNL A   1      39.377  34.975  33.292  1.00  0.00     0.346 HD
ATOM     17  H   UNL A   1      39.095  33.351  32.997  1.00  0.00     0.346 HD
ENDBRANCH   8   9
ENDBRANCH   6   8
ENDBRANCH   5   6
ENDBRANCH   4   5
ENDBRANCH   3   4
ENDBRANCH   2   3
ENDBRANCH   1   2
BRANCH   1  18
ATOM     18  C   UNL A   1      33.725  33.715  27.956  1.00  0.00     0.261 C 
BRANCH  18  19
ATOM     19  O   UNL A   1      34.524  32.720  28.622  1.00  0.00    -0.460 OA
BRANCH  19  20
ATOM     20  C   UNL A   1      34.358  31.459  28.159  1.00  0.00     0.338 C 
ATOM     21  O   UNL A   1      33.420  31.029  27.501  1.00  0.00    -0.246 OA
BRANCH  20  22
ATOM     22  C   UNL A   1      35.569  30.656  28.414  1.00  0.00     0.060 A 
ATOM     23  C   UNL A   1      35.638  29.964  29.629  1.00  0.00     0.016 A 
ATOM     24  C   UNL A   1      36.646  30.634  27.526  1.00  0.00     0.016 A 
ATOM     25  C   UNL A   1      36.803  29.289  29.983  1.00  0.00     0.010 A 
ATOM     26  C   UNL A   1      37.818  29.957  27.884  1.00  0.00     0.010 A 
ATOM     27  C   UNL A   1      37.915  29.311  29.131  1.00  0.00    -0.014 A 
BRANCH  27  28
ATOM     28  C   UNL A   1      39.217  28.792  29.618  1.00  0.00     0.031 A 
ATOM     29  C   UNL A   1      39.856  29.434  30.820  1.00  0.00     0.074 A 
ATOM     30  C   UNL A   1      39.803  27.731  29.033  1.00  0.00     0.049 A 
ATOM     31  N   UNL A   1      40.991  29.152  31.408  1.00  0.00    -0.248 NA
ATOM     32  C   UNL A   1      39.116  30.544  31.442  1.00  0.00     0.031 C 
ATOM     33  C   UNL A   1      39.269  26.994  27.889  1.00  0.00     0.029 A 
ATOM     34  N   UNL A   1      40.981  27.091  29.326  1.00  0.00    -0.354 N 
ATOM     35  C   UNL A   1      41.101  30.046  32.466  1.00  0.00     0.074 A 
ATOM     36  C   UNL A   1      39.936  30.902  32.420  1.00  0.00     0.031 C 
ATOM     37  C   UNL A   1      40.122  26.004  27.573  1.00  0.00     0.029 A 
ATOM     38  C   UNL A   1      41.273  26.054  28.474  1.00  0.00     0.049 A 
ATOM     39  H   UNL A   1      41.563  27.351  30.077  1.00  0.00     0.167 HD
ATOM     40  C   UNL A   1      42.077  30.137  33.400  1.00  0.00     0.037 A 
ATOM     41  C   UNL A   1      42.352  25.251  28.417  1.00  0.00     0.037 A 
ATOM     42  C   UNL A   1      43.234  29.284  33.455  1.00  0.00     0.049 A 
ATOM     43  C   UNL A   1      43.457  25.419  29.427  1.00  0.00     0.074 A 
ATOM     44  C   UNL A   1      44.271  29.295  34.372  1.00  0.00     0.029 A 
ATOM     45  N   UNL A   1      43.506  28.267  32.554  1.00  0.00    -0.354 N 
ATOM     46  N   UNL A   1      43.540  26.255  30.434  1.00  0.00    -0.248 NA
ATOM     47  C   UNL A   1      44.620  24.528  29.293  1.00  0.00     0.031 C 
ATOM     48  C   UNL A   1      45.192  28.310  34.002  1.00  0.00     0.029 A 
ATOM     49  C   UNL A   1      44.707  27.657  32.881  1.00  0.00     0.049 A 
ATOM     50  H   UNL A   1      42.934  28.016  31.794  1.00  0.00     0.167 HD
ATOM     51  C   UNL A   1      44.744  25.971  31.068  1.00  0.00     0.074 A 
ATOM     52  C   UNL A   1      45.354  24.879  30.340  1.00  0.00     0.031 C 
ATOM     53  C   UNL A   1      45.295  26.562  32.156  1.00  0.00     0.037 A 
BRANCH  40  54
ATOM     54  C   UNL A   1      41.942  31.212  34.438  1.00  0.00     0.057 A 
ATOM     55  C   UNL A   1      41.275  30.987  35.649  1.00  0.00     0.134 A 
ATOM     56  C   UNL A   1      42.524  32.470  34.243  1.00  0.00     0.134 A 
ATOM     57  F   UNL A   1      40.683  29.807  35.890  1.00  0.00    -0.206 F 
ATOM     58  C   UNL A   1      41.180  31.981  36.623  1.00  0.00     0.040 A 
ATOM     59  C   UNL A   1      42.455  33.464  35.219  1.00  0.00     0.040 A 
ATOM     60  F   UNL A   1      43.181  32.748  33.106  1.00  0.00    -0.206 F 
ATOM     61  C   UNL A   1      41.777  33.222  36.412  1.00  0.00     0.006 A 
ENDBRANCH  40  54
BRANCH  41  62
ATOM     62  C   UNL A   1      42.460  24.218  27.357  1.00  0.00     0.057 A 
ATOM     63  C   UNL A   1      42.046  22.899  27.581  1.00  0.00     0.134 A 
ATOM     64  C   UNL A   1      43.021  24.514  26.108  1.00  0.00     0.134 A 
ATOM     65  F   UNL A   1      41.526  22.547  28.766  1.00  0.00    -0.206 F 
ATOM     66  C   UNL A   1      42.207  21.908  26.611  1.00  0.00     0.040 A 
ATOM     67  C   UNL A   1      43.164  23.538  25.121  1.00  0.00     0.040 A 
ATOM     68  F   UNL A   1      43.438  25.758  25.831  1.00  0.00    -0.206 F 
ATOM     69  C   UNL A   1      42.765  22.228  25.374  1.00  0.00     0.006 A 
ENDBRANCH  41  62
BRANCH  53  70
ATOM     70  C   UNL A   1      46.602  26.016  32.651  1.00  0.00     0.057 A 
ATOM     71  C   UNL A   1      47.830  26.524  32.211  1.00  0.00     0.134 A 
ATOM     72  C   UNL A   1      46.629  24.996  33.612  1.00  0.00     0.134 A 
ATOM     73  F   UNL A   1      47.871  27.491  31.282  1.00  0.00    -0.206 F 
ATOM     74  C   UNL A   1      49.041  26.024  32.694  1.00  0.00     0.040 A 
ATOM     75  C   UNL A   1      47.833  24.506  34.120  1.00  0.00     0.040 A 
ATOM     76  F   UNL A   1      45.487  24.472  34.083  1.00  0.00    -0.206 F 
ATOM     77  C   UNL A   1      49.044  25.016  33.657  1.00  0.00     0.006 A 
ENDBRANCH  53  70
ENDBRANCH  27  28
ENDBRANCH  20  22
ENDBRANCH  19  20
ENDBRANCH  18  19
ENDBRANCH   1  18
TORSDOF 15
ENDMDL
