MODEL 1
REMARK VINA RESULT:     -12.2      0.000      0.000
REMARK SMILES O=C(OCCOCCOC(=O)[C@@H](Cc1ccc(O)cc1)Nc1c2ccccc2nc2ccccc12)c1ccc(-c2c3nc(c(-c4c(F)cccc4F)c4ccc([nH]4)c(-c4c(F)cccc4F)c4nc(c(-c5c(F)cccc5F)c5ccc2[nH]5)C=C4)C=C3)cc1
REMARK SMILES IDX 7 1 6 2 5 3 4 4 3 5 2 6 1 7 36 8 37 9 89 10 38 11 88 12
REMARK SMILES IDX 39 13 40 14 41 15 82 16 42 17 87 18 81 19 83 20 43 21 86 22
REMARK SMILES IDX 80 23 79 24 44 26 70 27 53 28 69 29 54 30 57 31 68 32 84 33
REMARK SMILES IDX 55 34 56 35 67 37 85 38 58 39 45 40 46 41 51 42 47 43 48 44
REMARK SMILES IDX 50 45 52 46 49 47 71 48 72 49 77 50 73 51 74 52 76 53 78 54
REMARK SMILES IDX 75 55 59 56 60 57 65 58 61 59 62 60 64 61 66 62 63 63 8 64
REMARK SMILES IDX 9 65 10 66 11 67 12 68 13 69 14 70 15 71 20 72 16 73 19 74
REMARK SMILES IDX 17 75 18 76 21 78 22 80 23 81 35 82 24 83 28 84 30 85 34 86
REMARK SMILES IDX 25 87 27 88 29 89 31 90 33 91 26 92 32 93
REMARK H PARENT 83 25 57 36 18 77 21 79
REMARK Flexibility Score: inf
ROOT
ATOM      1  C   UNL A   1      33.523  27.142  25.331  1.00  0.00     0.202 C 
ENDROOT
BRANCH   1   2
ATOM      2  O   UNL A   1      32.969  28.451  25.169  1.00  0.00    -0.374 OA
BRANCH   2   3
ATOM      3  C   UNL A   1      31.770  28.733  25.892  1.00  0.00     0.202 C 
BRANCH   3   4
ATOM      4  C   UNL A   1      31.818  29.881  26.913  1.00  0.00     0.261 C 
BRANCH   4   5
ATOM      5  O   UNL A   1      32.748  30.905  26.527  1.00  0.00    -0.460 OA
BRANCH   5   6
ATOM      6  C   UNL A   1      33.464  31.720  27.341  1.00  0.00     0.338 C 
ATOM      7  O   UNL A   1      33.000  32.817  27.640  1.00  0.00    -0.246 OA
BRANCH   6   8
ATOM      8  C   UNL A   1      34.806  31.354  27.890  1.00  0.00     0.060 A 
ATOM      9  C   UNL A   1      35.189  30.060  28.229  1.00  0.00     0.016 A 
ATOM     10  C   UNL A   1      35.769  32.369  28.015  1.00  0.00     0.016 A 
ATOM     11  C   UNL A   1      36.439  29.762  28.714  1.00  0.00     0.010 A 
ATOM     12  C   UNL A   1      37.055  32.082  28.491  1.00  0.00     0.010 A 
ATOM     13  C   UNL A   1      37.376  30.772  28.853  1.00  0.00    -0.014 A 
BRANCH  13  14
ATOM     14  C   UNL A   1      38.599  30.370  29.554  1.00  0.00     0.031 A 
ATOM     15  C   UNL A   1      38.721  30.752  30.994  1.00  0.00     0.074 A 
ATOM     16  C   UNL A   1      39.385  29.439  28.987  1.00  0.00     0.049 A 
ATOM     17  N   UNL A   1      39.645  30.435  31.856  1.00  0.00    -0.248 NA
ATOM     18  C   UNL A   1      37.628  31.572  31.550  1.00  0.00     0.031 C 
ATOM     19  C   UNL A   1      39.175  28.860  27.654  1.00  0.00     0.029 A 
ATOM     20  N   UNL A   1      40.456  28.752  29.483  1.00  0.00    -0.354 N 
ATOM     21  C   UNL A   1      39.270  31.050  33.042  1.00  0.00     0.074 A 
ATOM     22  C   UNL A   1      38.024  31.737  32.802  1.00  0.00     0.031 C 
ATOM     23  C   UNL A   1      40.061  27.871  27.462  1.00  0.00     0.029 A 
ATOM     24  C   UNL A   1      40.945  27.803  28.618  1.00  0.00     0.049 A 
ATOM     25  H   UNL A   1      40.839  28.920  30.374  1.00  0.00     0.167 HD
ATOM     26  C   UNL A   1      39.935  31.051  34.218  1.00  0.00     0.037 A 
ATOM     27  C   UNL A   1      42.013  26.997  28.752  1.00  0.00     0.037 A 
ATOM     28  C   UNL A   1      41.171  30.346  34.412  1.00  0.00     0.049 A 
ATOM     29  C   UNL A   1      42.803  27.109  30.026  1.00  0.00     0.074 A 
ATOM     30  C   UNL A   1      42.012  30.348  35.506  1.00  0.00     0.029 A 
ATOM     31  N   UNL A   1      41.738  29.502  33.464  1.00  0.00    -0.354 N 
ATOM     32  N   UNL A   1      42.528  27.801  31.109  1.00  0.00    -0.248 NA
ATOM     33  C   UNL A   1      44.062  26.361  30.089  1.00  0.00     0.031 C 
ATOM     34  C   UNL A   1      43.111  29.533  35.204  1.00  0.00     0.029 A 
ATOM     35  C   UNL A   1      42.930  28.989  33.939  1.00  0.00     0.049 A 
ATOM     36  H   UNL A   1      41.348  29.298  32.583  1.00  0.00     0.167 HD
ATOM     37  C   UNL A   1      43.575  27.568  31.987  1.00  0.00     0.074 A 
ATOM     38  C   UNL A   1      44.476  26.649  31.315  1.00  0.00     0.031 C 
ATOM     39  C   UNL A   1      43.785  28.070  33.229  1.00  0.00     0.037 A 
BRANCH  26  40
ATOM     40  C   UNL A   1      39.387  31.931  35.299  1.00  0.00     0.057 A 
ATOM     41  C   UNL A   1      38.495  31.464  36.274  1.00  0.00     0.134 A 
ATOM     42  C   UNL A   1      39.697  33.297  35.309  1.00  0.00     0.134 A 
ATOM     43  F   UNL A   1      38.122  30.175  36.294  1.00  0.00    -0.206 F 
ATOM     44  C   UNL A   1      37.911  32.330  37.202  1.00  0.00     0.040 A 
ATOM     45  C   UNL A   1      39.136  34.168  36.243  1.00  0.00     0.040 A 
ATOM     46  F   UNL A   1      40.530  33.811  34.392  1.00  0.00    -0.206 F 
ATOM     47  C   UNL A   1      38.233  33.686  37.188  1.00  0.00     0.006 A 
ENDBRANCH  26  40
BRANCH  27  48
ATOM     48  C   UNL A   1      42.424  26.093  27.647  1.00  0.00     0.057 A 
ATOM     49  C   UNL A   1      43.320  26.508  26.654  1.00  0.00     0.134 A 
ATOM     50  C   UNL A   1      41.917  24.790  27.547  1.00  0.00     0.134 A 
ATOM     51  F   UNL A   1      43.827  27.749  26.677  1.00  0.00    -0.206 F 
ATOM     52  C   UNL A   1      43.686  25.665  25.601  1.00  0.00     0.040 A 
ATOM     53  C   UNL A   1      42.297  23.928  26.517  1.00  0.00     0.040 A 
ATOM     54  F   UNL A   1      41.051  24.327  28.460  1.00  0.00    -0.206 F 
ATOM     55  C   UNL A   1      43.178  24.369  25.534  1.00  0.00     0.006 A 
ENDBRANCH  27  48
BRANCH  39  56
ATOM     56  C   UNL A   1      45.019  27.604  33.934  1.00  0.00     0.057 A 
ATOM     57  C   UNL A   1      45.024  26.445  34.719  1.00  0.00     0.134 A 
ATOM     58  C   UNL A   1      46.223  28.303  33.790  1.00  0.00     0.134 A 
ATOM     59  F   UNL A   1      43.895  25.743  34.902  1.00  0.00    -0.206 F 
ATOM     60  C   UNL A   1      46.183  26.008  35.356  1.00  0.00     0.040 A 
ATOM     61  C   UNL A   1      47.395  27.862  34.401  1.00  0.00     0.040 A 
ATOM     62  F   UNL A   1      46.279  29.416  33.042  1.00  0.00    -0.206 F 
ATOM     63  C   UNL A   1      47.375  26.714  35.191  1.00  0.00     0.006 A 
ENDBRANCH  39  56
ENDBRANCH  13  14
ENDBRANCH   6   8
ENDBRANCH   5   6
ENDBRANCH   4   5
ENDBRANCH   3   4
ENDBRANCH   2   3
ENDBRANCH   1   2
BRANCH   1  64
ATOM     64  C   UNL A   1      32.681  26.328  26.314  1.00  0.00     0.261 C 
BRANCH  64  65
ATOM     65  O   UNL A   1      33.203  24.989  26.366  1.00  0.00    -0.462 OA
BRANCH  65  66
ATOM     66  C   UNL A   1      32.273  24.005  26.417  1.00  0.00     0.328 C 
ATOM     67  O   UNL A   1      31.590  23.751  27.407  1.00  0.00    -0.250 OA
BRANCH  66  68
ATOM     68  C   UNL A   1      32.158  23.233  25.096  1.00  0.00     0.194 C 
BRANCH  68  69
ATOM     69  C   UNL A   1      31.035  23.577  24.083  1.00  0.00     0.072 C 
BRANCH  69  70
ATOM     70  C   UNL A   1      30.784  24.958  23.513  1.00  0.00    -0.045 A 
ATOM     71  C   UNL A   1      29.806  25.844  23.975  1.00  0.00     0.007 A 
ATOM     72  C   UNL A   1      31.662  25.415  22.510  1.00  0.00     0.007 A 
ATOM     73  C   UNL A   1      29.657  27.117  23.409  1.00  0.00     0.046 A 
ATOM     74  C   UNL A   1      31.540  26.695  21.967  1.00  0.00     0.046 A 
ATOM     75  C   UNL A   1      30.531  27.535  22.414  1.00  0.00     0.115 A 
BRANCH  75  76
ATOM     76  O   UNL A   1      30.442  28.775  21.859  1.00  0.00    -0.508 OA
ATOM     77  H   UNL A   1      29.689  29.009  21.352  1.00  0.00     0.293 HD
ENDBRANCH  75  76
ENDBRANCH  69  70
ENDBRANCH  68  69
BRANCH  68  78
ATOM     78  N   UNL A   1      33.431  23.174  24.378  1.00  0.00    -0.371 N 
ATOM     79  H   UNL A   1      33.660  23.869  23.720  1.00  0.00     0.161 HD
BRANCH  78  80
ATOM     80  C   UNL A   1      34.323  22.120  24.631  1.00  0.00     0.054 A 
ATOM     81  C   UNL A   1      33.943  20.756  24.455  1.00  0.00     0.024 A 
ATOM     82  C   UNL A   1      35.620  22.432  25.118  1.00  0.00     0.024 A 
ATOM     83  C   UNL A   1      32.658  20.307  24.035  1.00  0.00     0.012 A 
ATOM     84  C   UNL A   1      34.929  19.784  24.694  1.00  0.00     0.073 A 
ATOM     85  C   UNL A   1      36.523  21.367  25.266  1.00  0.00     0.073 A 
ATOM     86  C   UNL A   1      36.042  23.739  25.476  1.00  0.00     0.012 A 
ATOM     87  C   UNL A   1      32.337  18.953  23.947  1.00  0.00     0.001 A 
ATOM     88  C   UNL A   1      34.601  18.439  24.556  1.00  0.00     0.029 A 
ATOM     89  N   UNL A   1      36.186  20.088  25.049  1.00  0.00    -0.248 NA
ATOM     90  C   UNL A   1      37.822  21.648  25.670  1.00  0.00     0.029 A 
ATOM     91  C   UNL A   1      37.338  23.991  25.914  1.00  0.00     0.001 A 
ATOM     92  C   UNL A   1      33.318  18.013  24.208  1.00  0.00     0.002 A 
ATOM     93  C   UNL A   1      38.240  22.942  25.990  1.00  0.00     0.002 A 
ENDBRANCH  78  80
ENDBRANCH  68  78
ENDBRANCH  66  68
ENDBRANCH  65  66
ENDBRANCH  64  65
ENDBRANCH   1  64
TORSDOF 19
ENDMDL
MODEL 2
REMARK VINA RESULT:     -12.1      2.679      7.537
REMARK SMILES O=C(OCCOCCOC(=O)[C@@H](Cc1ccc(O)cc1)Nc1c2ccccc2nc2ccccc12)c1ccc(-c2c3nc(c(-c4c(F)cccc4F)c4ccc([nH]4)c(-c4c(F)cccc4F)c4nc(c(-c5c(F)cccc5F)c5ccc2[nH]5)C=C4)C=C3)cc1
REMARK SMILES IDX 7 1 6 2 5 3 4 4 3 5 2 6 1 7 36 8 37 9 89 10 38 11 88 12
REMARK SMILES IDX 39 13 40 14 41 15 82 16 42 17 87 18 81 19 83 20 43 21 86 22
REMARK SMILES IDX 80 23 79 24 44 26 70 27 53 28 69 29 54 30 57 31 68 32 84 33
REMARK SMILES IDX 55 34 56 35 67 37 85 38 58 39 45 40 46 41 51 42 47 43 48 44
REMARK SMILES IDX 50 45 52 46 49 47 71 48 72 49 77 50 73 51 74 52 76 53 78 54
REMARK SMILES IDX 75 55 59 56 60 57 65 58 61 59 62 60 64 61 66 62 63 63 8 64
REMARK SMILES IDX 9 65 10 66 11 67 12 68 13 69 14 70 15 71 20 72 16 73 19 74
REMARK SMILES IDX 17 75 18 76 21 78 22 80 23 81 35 82 24 83 28 84 30 85 34 86
REMARK SMILES IDX 25 87 27 88 29 89 31 90 33 91 26 92 32 93
REMARK H PARENT 83 25 57 36 18 77 21 79
REMARK Flexibility Score: inf
ROOT
ATOM      1  C   UNL A   1      40.677  21.220  26.822  1.00  0.00     0.202 C 
ENDROOT
BRANCH   1   2
ATOM      2  O   UNL A   1      41.560  21.418  25.713  1.00  0.00    -0.374 OA
BRANCH   2   3
ATOM      3  C   UNL A   1      42.956  21.263  25.971  1.00  0.00     0.202 C 
BRANCH   3   4
ATOM      4  C   UNL A   1      43.927  22.058  25.084  1.00  0.00     0.261 C 
BRANCH   4   5
ATOM      5  O   UNL A   1      43.402  23.347  24.732  1.00  0.00    -0.460 OA
BRANCH   5   6
ATOM      6  C   UNL A   1      43.835  24.560  25.155  1.00  0.00     0.338 C 
ATOM      7  O   UNL A   1      44.833  25.050  24.631  1.00  0.00    -0.246 OA
BRANCH   6   8
ATOM      8  C   UNL A   1      43.164  25.335  26.243  1.00  0.00     0.060 A 
ATOM      9  C   UNL A   1      43.476  26.649  26.577  1.00  0.00     0.016 A 
ATOM     10  C   UNL A   1      42.106  24.723  26.936  1.00  0.00     0.016 A 
ATOM     11  C   UNL A   1      42.823  27.334  27.573  1.00  0.00     0.010 A 
ATOM     12  C   UNL A   1      41.416  25.411  27.943  1.00  0.00     0.010 A 
ATOM     13  C   UNL A   1      41.794  26.717  28.264  1.00  0.00    -0.014 A 
BRANCH  13  14
ATOM     14  C   UNL A   1      41.305  27.471  29.422  1.00  0.00     0.031 A 
ATOM     15  C   UNL A   1      42.177  27.507  30.636  1.00  0.00     0.074 A 
ATOM     16  C   UNL A   1      40.285  28.328  29.243  1.00  0.00     0.049 A 
ATOM     17  N   UNL A   1      42.024  28.178  31.742  1.00  0.00    -0.248 NA
ATOM     18  C   UNL A   1      43.415  26.706  30.578  1.00  0.00     0.031 C 
ATOM     19  C   UNL A   1      39.538  28.495  27.990  1.00  0.00     0.029 A 
ATOM     20  N   UNL A   1      39.760  29.277  30.073  1.00  0.00    -0.354 N 
ATOM     21  C   UNL A   1      43.119  27.848  32.528  1.00  0.00     0.074 A 
ATOM     22  C   UNL A   1      43.945  26.940  31.767  1.00  0.00     0.031 C 
ATOM     23  C   UNL A   1      38.684  29.521  28.124  1.00  0.00     0.029 A 
ATOM     24  C   UNL A   1      38.768  30.026  29.489  1.00  0.00     0.049 A 
ATOM     25  H   UNL A   1      40.063  29.411  31.000  1.00  0.00     0.167 HD
ATOM     26  C   UNL A   1      43.387  28.259  33.787  1.00  0.00     0.037 A 
ATOM     27  C   UNL A   1      38.002  30.993  30.024  1.00  0.00     0.037 A 
ATOM     28  C   UNL A   1      42.538  29.170  34.503  1.00  0.00     0.049 A 
ATOM     29  C   UNL A   1      38.244  31.342  31.465  1.00  0.00     0.074 A 
ATOM     30  C   UNL A   1      42.619  29.586  35.816  1.00  0.00     0.029 A 
ATOM     31  N   UNL A   1      41.439  29.810  33.940  1.00  0.00    -0.354 N 
ATOM     32  N   UNL A   1      39.201  30.928  32.265  1.00  0.00    -0.248 NA
ATOM     33  C   UNL A   1      37.291  32.263  32.091  1.00  0.00     0.031 C 
ATOM     34  C   UNL A   1      41.543  30.449  36.059  1.00  0.00     0.029 A 
ATOM     35  C   UNL A   1      40.820  30.605  34.884  1.00  0.00     0.049 A 
ATOM     36  H   UNL A   1      41.146  29.711  33.005  1.00  0.00     0.167 HD
ATOM     37  C   UNL A   1      38.971  31.542  33.486  1.00  0.00     0.074 A 
ATOM     38  C   UNL A   1      37.796  32.376  33.311  1.00  0.00     0.031 C 
ATOM     39  C   UNL A   1      39.655  31.424  34.652  1.00  0.00     0.037 A 
BRANCH  26  40
ATOM     40  C   UNL A   1      44.560  27.623  34.467  1.00  0.00     0.057 A 
ATOM     41  C   UNL A   1      44.463  26.415  35.170  1.00  0.00     0.134 A 
ATOM     42  C   UNL A   1      45.795  28.284  34.486  1.00  0.00     0.134 A 
ATOM     43  F   UNL A   1      43.297  25.754  35.228  1.00  0.00    -0.206 F 
ATOM     44  C   UNL A   1      45.545  25.902  35.890  1.00  0.00     0.040 A 
ATOM     45  C   UNL A   1      46.889  27.771  35.184  1.00  0.00     0.040 A 
ATOM     46  F   UNL A   1      45.950  29.453  33.848  1.00  0.00    -0.206 F 
ATOM     47  C   UNL A   1      46.762  26.581  35.897  1.00  0.00     0.006 A 
ENDBRANCH  26  40
BRANCH  27  48
ATOM     48  C   UNL A   1      36.914  31.624  29.233  1.00  0.00     0.057 A 
ATOM     49  C   UNL A   1      37.033  32.924  28.728  1.00  0.00     0.134 A 
ATOM     50  C   UNL A   1      35.715  30.945  28.975  1.00  0.00     0.134 A 
ATOM     51  F   UNL A   1      38.144  33.639  28.956  1.00  0.00    -0.206 F 
ATOM     52  C   UNL A   1      35.998  33.526  28.006  1.00  0.00     0.040 A 
ATOM     53  C   UNL A   1      34.685  31.523  28.231  1.00  0.00     0.040 A 
ATOM     54  F   UNL A   1      35.530  29.698  29.433  1.00  0.00    -0.206 F 
ATOM     55  C   UNL A   1      34.822  32.822  27.751  1.00  0.00     0.006 A 
ENDBRANCH  27  48
BRANCH  39  56
ATOM     56  C   UNL A   1      39.156  32.242  35.800  1.00  0.00     0.057 A 
ATOM     57  C   UNL A   1      39.573  33.563  35.996  1.00  0.00     0.134 A 
ATOM     58  C   UNL A   1      38.218  31.710  36.693  1.00  0.00     0.134 A 
ATOM     59  F   UNL A   1      40.481  34.119  35.179  1.00  0.00    -0.206 F 
ATOM     60  C   UNL A   1      39.088  34.324  37.058  1.00  0.00     0.040 A 
ATOM     61  C   UNL A   1      37.707  32.470  37.743  1.00  0.00     0.040 A 
ATOM     62  F   UNL A   1      37.777  30.452  36.547  1.00  0.00    -0.206 F 
ATOM     63  C   UNL A   1      38.147  33.779  37.931  1.00  0.00     0.006 A 
ENDBRANCH  39  56
ENDBRANCH  13  14
ENDBRANCH   6   8
ENDBRANCH   5   6
ENDBRANCH   4   5
ENDBRANCH   3   4
ENDBRANCH   2   3
ENDBRANCH   1   2
BRANCH   1  64
ATOM     64  C   UNL A   1      39.477  22.161  26.718  1.00  0.00     0.261 C 
BRANCH  64  65
ATOM     65  O   UNL A   1      38.954  22.093  25.381  1.00  0.00    -0.462 OA
BRANCH  65  66
ATOM     66  C   UNL A   1      37.974  21.178  25.187  1.00  0.00     0.328 C 
ATOM     67  O   UNL A   1      38.174  19.978  25.013  1.00  0.00    -0.250 OA
BRANCH  66  68
ATOM     68  C   UNL A   1      36.572  21.801  25.210  1.00  0.00     0.194 C 
BRANCH  68  69
ATOM     69  C   UNL A   1      35.846  22.146  23.883  1.00  0.00     0.072 C 
BRANCH  69  70
ATOM     70  C   UNL A   1      34.939  23.344  23.686  1.00  0.00    -0.045 A 
ATOM     71  C   UNL A   1      33.857  23.386  22.800  1.00  0.00     0.007 A 
ATOM     72  C   UNL A   1      35.145  24.459  24.522  1.00  0.00     0.007 A 
ATOM     73  C   UNL A   1      33.050  24.526  22.697  1.00  0.00     0.046 A 
ATOM     74  C   UNL A   1      34.322  25.584  24.448  1.00  0.00     0.046 A 
ATOM     75  C   UNL A   1      33.285  25.614  23.528  1.00  0.00     0.115 A 
BRANCH  75  76
ATOM     76  O   UNL A   1      32.505  26.729  23.483  1.00  0.00    -0.508 OA
ATOM     77  H   UNL A   1      32.789  27.481  23.000  1.00  0.00     0.293 HD
ENDBRANCH  75  76
ENDBRANCH  69  70
ENDBRANCH  68  69
BRANCH  68  78
ATOM     78  N   UNL A   1      35.649  21.055  26.065  1.00  0.00    -0.371 N 
ATOM     79  H   UNL A   1      35.946  20.724  26.943  1.00  0.00     0.161 HD
BRANCH  78  80
ATOM     80  C   UNL A   1      34.337  20.815  25.627  1.00  0.00     0.054 A 
ATOM     81  C   UNL A   1      33.264  21.698  25.952  1.00  0.00     0.024 A 
ATOM     82  C   UNL A   1      34.076  19.634  24.882  1.00  0.00     0.024 A 
ATOM     83  C   UNL A   1      33.378  22.877  26.743  1.00  0.00     0.012 A 
ATOM     84  C   UNL A   1      31.999  21.384  25.425  1.00  0.00     0.073 A 
ATOM     85  C   UNL A   1      32.778  19.471  24.374  1.00  0.00     0.073 A 
ATOM     86  C   UNL A   1      35.037  18.617  24.643  1.00  0.00     0.012 A 
ATOM     87  C   UNL A   1      32.273  23.658  27.073  1.00  0.00     0.001 A 
ATOM     88  C   UNL A   1      30.917  22.203  25.730  1.00  0.00     0.029 A 
ATOM     89  N   UNL A   1      31.779  20.327  24.630  1.00  0.00    -0.248 NA
ATOM     90  C   UNL A   1      32.510  18.364  23.579  1.00  0.00     0.029 A 
ATOM     91  C   UNL A   1      34.734  17.497  23.874  1.00  0.00     0.001 A 
ATOM     92  C   UNL A   1      31.033  23.319  26.561  1.00  0.00     0.002 A 
ATOM     93  C   UNL A   1      33.469  17.381  23.320  1.00  0.00     0.002 A 
ENDBRANCH  78  80
ENDBRANCH  68  78
ENDBRANCH  66  68
ENDBRANCH  65  66
ENDBRANCH  64  65
ENDBRANCH   1  64
TORSDOF 19
ENDMDL
MODEL 3
REMARK VINA RESULT:     -12.0      2.683      7.461
REMARK SMILES O=C(OCCOCCOC(=O)[C@@H](Cc1ccc(O)cc1)Nc1c2ccccc2nc2ccccc12)c1ccc(-c2c3nc(c(-c4c(F)cccc4F)c4ccc([nH]4)c(-c4c(F)cccc4F)c4nc(c(-c5c(F)cccc5F)c5ccc2[nH]5)C=C4)C=C3)cc1
REMARK SMILES IDX 7 1 6 2 5 3 4 4 3 5 2 6 1 7 36 8 37 9 89 10 38 11 88 12
REMARK SMILES IDX 39 13 40 14 41 15 82 16 42 17 87 18 81 19 83 20 43 21 86 22
REMARK SMILES IDX 80 23 79 24 44 26 70 27 53 28 69 29 54 30 57 31 68 32 84 33
REMARK SMILES IDX 55 34 56 35 67 37 85 38 58 39 45 40 46 41 51 42 47 43 48 44
REMARK SMILES IDX 50 45 52 46 49 47 71 48 72 49 77 50 73 51 74 52 76 53 78 54
REMARK SMILES IDX 75 55 59 56 60 57 65 58 61 59 62 60 64 61 66 62 63 63 8 64
REMARK SMILES IDX 9 65 10 66 11 67 12 68 13 69 14 70 15 71 20 72 16 73 19 74
REMARK SMILES IDX 17 75 18 76 21 78 22 80 23 81 35 82 24 83 28 84 30 85 34 86
REMARK SMILES IDX 25 87 27 88 29 89 31 90 33 91 26 92 32 93
REMARK H PARENT 83 25 57 36 18 77 21 79
REMARK Flexibility Score: inf
ROOT
ATOM      1  C   UNL A   1      40.603  20.996  26.973  1.00  0.00     0.202 C 
ENDROOT
BRANCH   1   2
ATOM      2  O   UNL A   1      41.871  21.649  26.857  1.00  0.00    -0.374 OA
BRANCH   2   3
ATOM      3  C   UNL A   1      42.758  21.151  25.854  1.00  0.00     0.202 C 
BRANCH   3   4
ATOM      4  C   UNL A   1      43.847  22.107  25.341  1.00  0.00     0.261 C 
BRANCH   4   5
ATOM      5  O   UNL A   1      43.313  23.395  24.998  1.00  0.00    -0.460 OA
BRANCH   5   6
ATOM      6  C   UNL A   1      43.842  24.611  25.280  1.00  0.00     0.338 C 
ATOM      7  O   UNL A   1      44.806  25.005  24.628  1.00  0.00    -0.246 OA
BRANCH   6   8
ATOM      8  C   UNL A   1      43.316  25.502  26.359  1.00  0.00     0.060 A 
ATOM      9  C   UNL A   1      43.733  26.814  26.566  1.00  0.00     0.016 A 
ATOM     10  C   UNL A   1      42.290  25.010  27.183  1.00  0.00     0.016 A 
ATOM     11  C   UNL A   1      43.212  27.607  27.559  1.00  0.00     0.010 A 
ATOM     12  C   UNL A   1      41.734  25.809  28.190  1.00  0.00     0.010 A 
ATOM     13  C   UNL A   1      42.214  27.107  28.379  1.00  0.00    -0.014 A 
BRANCH  13  14
ATOM     14  C   UNL A   1      41.874  27.970  29.515  1.00  0.00     0.031 A 
ATOM     15  C   UNL A   1      40.621  28.777  29.413  1.00  0.00     0.074 A 
ATOM     16  C   UNL A   1      42.508  27.768  30.683  1.00  0.00     0.049 A 
ATOM     17  N   UNL A   1      40.051  29.533  30.308  1.00  0.00    -0.248 NA
ATOM     18  C   UNL A   1      39.885  28.689  28.137  1.00  0.00     0.031 C 
ATOM     19  C   UNL A   1      43.603  26.812  30.891  1.00  0.00     0.029 A 
ATOM     20  N   UNL A   1      42.270  28.278  31.927  1.00  0.00    -0.354 N 
ATOM     21  C   UNL A   1      38.917  30.043  29.693  1.00  0.00     0.074 A 
ATOM     22  C   UNL A   1      38.859  29.494  28.359  1.00  0.00     0.031 C 
ATOM     23  C   UNL A   1      43.907  26.773  32.197  1.00  0.00     0.029 A 
ATOM     24  C   UNL A   1      43.087  27.753  32.898  1.00  0.00     0.049 A 
ATOM     25  H   UNL A   1      41.579  28.955  32.110  1.00  0.00     0.167 HD
ATOM     26  C   UNL A   1      38.021  30.915  30.204  1.00  0.00     0.037 A 
ATOM     27  C   UNL A   1      43.169  28.065  34.204  1.00  0.00     0.037 A 
ATOM     28  C   UNL A   1      38.116  31.430  31.542  1.00  0.00     0.049 A 
ATOM     29  C   UNL A   1      42.239  29.128  34.716  1.00  0.00     0.074 A 
ATOM     30  C   UNL A   1      37.351  32.401  32.158  1.00  0.00     0.029 A 
ATOM     31  N   UNL A   1      39.051  30.997  32.475  1.00  0.00    -0.354 N 
ATOM     32  N   UNL A   1      41.244  29.721  34.096  1.00  0.00    -0.248 NA
ATOM     33  C   UNL A   1      42.455  29.589  36.091  1.00  0.00     0.031 C 
ATOM     34  C   UNL A   1      37.851  32.583  33.453  1.00  0.00     0.029 A 
ATOM     35  C   UNL A   1      38.897  31.693  33.658  1.00  0.00     0.049 A 
ATOM     36  H   UNL A   1      39.724  30.296  32.316  1.00  0.00     0.167 HD
ATOM     37  C   UNL A   1      40.710  30.621  35.005  1.00  0.00     0.074 A 
ATOM     38  C   UNL A   1      41.479  30.474  36.228  1.00  0.00     0.031 C 
ATOM     39  C   UNL A   1      39.688  31.499  34.849  1.00  0.00     0.037 A 
BRANCH  26  40
ATOM     40  C   UNL A   1      36.972  31.429  29.267  1.00  0.00     0.057 A 
ATOM     41  C   UNL A   1      37.004  32.724  28.733  1.00  0.00     0.134 A 
ATOM     42  C   UNL A   1      35.860  30.632  28.963  1.00  0.00     0.134 A 
ATOM     43  F   UNL A   1      38.019  33.553  29.021  1.00  0.00    -0.206 F 
ATOM     44  C   UNL A   1      35.955  33.217  27.952  1.00  0.00     0.040 A 
ATOM     45  C   UNL A   1      34.816  31.106  28.168  1.00  0.00     0.040 A 
ATOM     46  F   UNL A   1      35.759  29.390  29.457  1.00  0.00    -0.206 F 
ATOM     47  C   UNL A   1      34.858  32.405  27.667  1.00  0.00     0.006 A 
ENDBRANCH  26  40
BRANCH  27  48
ATOM     48  C   UNL A   1      44.195  27.431  35.072  1.00  0.00     0.057 A 
ATOM     49  C   UNL A   1      45.485  27.960  35.192  1.00  0.00     0.134 A 
ATOM     50  C   UNL A   1      43.913  26.264  35.796  1.00  0.00     0.134 A 
ATOM     51  F   UNL A   1      45.829  29.062  34.510  1.00  0.00    -0.206 F 
ATOM     52  C   UNL A   1      46.456  27.348  35.989  1.00  0.00     0.040 A 
ATOM     53  C   UNL A   1      44.865  25.659  36.620  1.00  0.00     0.040 A 
ATOM     54  F   UNL A   1      42.699  25.699  35.726  1.00  0.00    -0.206 F 
ATOM     55  C   UNL A   1      46.145  26.197  36.710  1.00  0.00     0.006 A 
ENDBRANCH  27  48
BRANCH  39  56
ATOM     56  C   UNL A   1      39.339  32.332  36.042  1.00  0.00     0.057 A 
ATOM     57  C   UNL A   1      39.904  33.596  36.246  1.00  0.00     0.134 A 
ATOM     58  C   UNL A   1      38.398  31.876  36.972  1.00  0.00     0.134 A 
ATOM     59  F   UNL A   1      40.822  34.076  35.393  1.00  0.00    -0.206 F 
ATOM     60  C   UNL A   1      39.560  34.372  37.350  1.00  0.00     0.040 A 
ATOM     61  C   UNL A   1      38.026  32.654  38.066  1.00  0.00     0.040 A 
ATOM     62  F   UNL A   1      37.818  30.675  36.821  1.00  0.00    -0.206 F 
ATOM     63  C   UNL A   1      38.612  33.904  38.260  1.00  0.00     0.006 A 
ENDBRANCH  39  56
ENDBRANCH  13  14
ENDBRANCH   6   8
ENDBRANCH   5   6
ENDBRANCH   4   5
ENDBRANCH   3   4
ENDBRANCH   2   3
ENDBRANCH   1   2
BRANCH   1  64
ATOM     64  C   UNL A   1      39.733  21.305  25.754  1.00  0.00     0.261 C 
BRANCH  64  65
ATOM     65  O   UNL A   1      38.368  21.435  26.185  1.00  0.00    -0.462 OA
BRANCH  65  66
ATOM     66  C   UNL A   1      37.805  22.648  25.972  1.00  0.00     0.328 C 
ATOM     67  O   UNL A   1      38.394  23.718  26.113  1.00  0.00    -0.250 OA
BRANCH  66  68
ATOM     68  C   UNL A   1      36.339  22.549  25.528  1.00  0.00     0.194 C 
BRANCH  68  69
ATOM     69  C   UNL A   1      35.969  22.629  24.024  1.00  0.00     0.072 C 
BRANCH  69  70
ATOM     70  C   UNL A   1      34.836  23.462  23.461  1.00  0.00    -0.045 A 
ATOM     71  C   UNL A   1      33.880  22.996  22.552  1.00  0.00     0.007 A 
ATOM     72  C   UNL A   1      34.680  24.770  23.962  1.00  0.00     0.007 A 
ATOM     73  C   UNL A   1      32.846  23.826  22.100  1.00  0.00     0.046 A 
ATOM     74  C   UNL A   1      33.630  25.588  23.542  1.00  0.00     0.046 A 
ATOM     75  C   UNL A   1      32.725  25.114  22.606  1.00  0.00     0.115 A 
BRANCH  75  76
ATOM     76  O   UNL A   1      31.717  25.942  22.217  1.00  0.00    -0.508 OA
ATOM     77  H   UNL A   1      31.695  26.829  22.521  1.00  0.00     0.293 HD
ENDBRANCH  75  76
ENDBRANCH  69  70
ENDBRANCH  68  69
BRANCH  68  78
ATOM     78  N   UNL A   1      35.662  21.392  26.113  1.00  0.00    -0.371 N 
ATOM     79  H   UNL A   1      36.121  20.837  26.785  1.00  0.00     0.161 HD
BRANCH  78  80
ATOM     80  C   UNL A   1      34.355  21.076  25.711  1.00  0.00     0.054 A 
ATOM     81  C   UNL A   1      33.249  21.925  26.018  1.00  0.00     0.024 A 
ATOM     82  C   UNL A   1      34.134  19.854  25.022  1.00  0.00     0.024 A 
ATOM     83  C   UNL A   1      33.325  23.141  26.755  1.00  0.00     0.012 A 
ATOM     84  C   UNL A   1      31.991  21.534  25.529  1.00  0.00     0.073 A 
ATOM     85  C   UNL A   1      32.835  19.612  24.546  1.00  0.00     0.073 A 
ATOM     86  C   UNL A   1      35.134  18.869  24.808  1.00  0.00     0.012 A 
ATOM     87  C   UNL A   1      32.192  23.887  27.073  1.00  0.00     0.001 A 
ATOM     88  C   UNL A   1      30.880  22.318  25.819  1.00  0.00     0.029 A 
ATOM     89  N   UNL A   1      31.804  20.434  24.784  1.00  0.00    -0.248 NA
ATOM     90  C   UNL A   1      32.603  18.461  23.804  1.00  0.00     0.029 A 
ATOM     91  C   UNL A   1      34.867  17.705  24.095  1.00  0.00     0.001 A 
ATOM     92  C   UNL A   1      30.960  23.473  26.599  1.00  0.00     0.002 A 
ATOM     93  C   UNL A   1      33.600  17.511  23.570  1.00  0.00     0.002 A 
ENDBRANCH  78  80
ENDBRANCH  68  78
ENDBRANCH  66  68
ENDBRANCH  65  66
ENDBRANCH  64  65
ENDBRANCH   1  64
TORSDOF 19
ENDMDL
