MODEL 1
REMARK VINA RESULT:     -12.5      0.000      0.000
REMARK SMILES O=C(OCCOCCOC(=O)c1ccc(-c2c3nc(c(-c4c(F)cccc4F)c4ccc([nH]4)c(-c4c(F)cccc4F)c4nc(c(-c5c(F)cccc5F)c5ccc2[nH]5)C=C4)C=C3)cc1)C1=Cc2cc(Cl)ccc2O[C@@H]1C(F)(F)F
REMARK SMILES IDX 7 1 6 2 5 3 4 4 3 5 2 6 1 7 66 8 67 9 76 10 68 11 75 12
REMARK SMILES IDX 69 13 74 14 70 15 73 16 71 17 72 18 77 19 78 20 79 21 80 22
REMARK SMILES IDX 8 23 9 24 10 25 11 26 12 27 13 28 65 29 14 30 64 31 15 32
REMARK SMILES IDX 16 33 17 34 58 35 18 36 63 37 57 38 59 39 19 40 62 41 56 42
REMARK SMILES IDX 55 43 20 45 46 46 29 47 45 48 30 49 33 50 44 51 60 52 31 53
REMARK SMILES IDX 32 54 43 56 61 57 34 58 21 59 22 60 27 61 23 62 24 63 26 64
REMARK SMILES IDX 28 65 25 66 47 67 48 68 53 69 49 70 50 71 52 72 54 73 51 74
REMARK SMILES IDX 35 75 36 76 41 77 37 78 38 79 40 80 42 81 39 82
REMARK H PARENT 59 44 33 55
REMARK Flexibility Score: inf
ROOT
ATOM      1  C   UNL A   1      42.312  20.716  26.136  1.00  0.00     0.202 C 
ENDROOT
BRANCH   1   2
ATOM      2  O   UNL A   1      40.958  20.945  25.704  1.00  0.00    -0.374 OA
BRANCH   2   3
ATOM      3  C   UNL A   1      39.690  21.685  26.387  1.00  0.00     0.202 C 
BRANCH   3   4
ATOM      4  C   UNL A   1      37.853  22.479  25.511  1.00  0.00     0.261 C 
BRANCH   4   5
ATOM      5  O   UNL A   1      36.851  21.710  24.647  1.00  0.00    -0.460 OA
BRANCH   5   6
ATOM      6  C   UNL A   1      36.212  22.495  23.777  1.00  0.00     0.338 C 
ATOM      7  O   UNL A   1      36.624  23.012  22.770  1.00  0.00    -0.246 OA
BRANCH   6   8
ATOM      8  C   UNL A   1      35.089  22.801  24.639  1.00  0.00     0.087 C 
ATOM      9  C   UNL A   1      34.993  24.251  24.931  1.00  0.00     0.027 C 
ATOM     10  C   UNL A   1      33.788  21.797  23.614  1.00  0.00     0.316 C 
ATOM     11  C   UNL A   1      33.774  25.355  24.168  1.00  0.00     0.019 A 
ATOM     12  O   UNL A   1      32.515  22.957  22.740  1.00  0.00    -0.475 OA
ATOM     13  C   UNL A   1      33.888  26.708  24.335  1.00  0.00     0.032 A 
ATOM     14  C   UNL A   1      32.602  24.759  23.031  1.00  0.00     0.128 A 
ATOM     15  C   UNL A   1      33.058  27.478  23.501  1.00  0.00     0.041 A 
ATOM     16  C   UNL A   1      31.926  25.586  22.188  1.00  0.00     0.048 A 
ATOM     17  Cl  UNL A   1      33.149  29.202  23.683  1.00  0.00    -0.084 Cl
ATOM     18  C   UNL A   1      32.166  26.955  22.472  1.00  0.00     0.024 A 
BRANCH  10  19
ATOM     19  C   UNL A   1      33.585  20.603  24.649  1.00  0.00     0.430 C 
ATOM     20  F   UNL A   1      33.275  20.966  25.905  1.00  0.00    -0.167 F 
ATOM     21  F   UNL A   1      32.503  19.883  24.220  1.00  0.00    -0.167 F 
ATOM     22  F   UNL A   1      34.595  19.705  24.692  1.00  0.00    -0.167 F 
ENDBRANCH  10  19
ENDBRANCH   6   8
ENDBRANCH   5   6
ENDBRANCH   4   5
ENDBRANCH   3   4
ENDBRANCH   2   3
ENDBRANCH   1   2
BRANCH   1  23
ATOM     23  C   UNL A   1      43.365  21.678  25.598  1.00  0.00     0.261 C 
BRANCH  23  24
ATOM     24  O   UNL A   1      42.806  22.912  25.179  1.00  0.00    -0.460 OA
BRANCH  24  25
ATOM     25  C   UNL A   1      43.659  23.956  25.261  1.00  0.00     0.338 C 
ATOM     26  O   UNL A   1      44.699  24.129  24.654  1.00  0.00    -0.246 OA
BRANCH  25  27
ATOM     27  C   UNL A   1      43.109  24.900  26.245  1.00  0.00     0.060 A 
ATOM     28  C   UNL A   1      43.642  26.193  26.282  1.00  0.00     0.016 A 
ATOM     29  C   UNL A   1      42.050  24.530  27.085  1.00  0.00     0.016 A 
ATOM     30  C   UNL A   1      43.078  27.141  27.125  1.00  0.00     0.010 A 
ATOM     31  C   UNL A   1      41.506  25.468  27.950  1.00  0.00     0.010 A 
ATOM     32  C   UNL A   1      42.024  26.770  27.970  1.00  0.00    -0.014 A 
BRANCH  32  33
ATOM     33  C   UNL A   1      41.618  27.677  29.052  1.00  0.00     0.031 A 
ATOM     34  C   UNL A   1      42.367  27.572  30.340  1.00  0.00     0.074 A 
ATOM     35  C   UNL A   1      40.605  28.540  28.885  1.00  0.00     0.049 A 
ATOM     36  N   UNL A   1      42.174  28.204  31.464  1.00  0.00    -0.248 NA
ATOM     37  C   UNL A   1      43.486  26.613  30.365  1.00  0.00     0.031 C 
ATOM     38  C   UNL A   1      39.843  28.723  27.652  1.00  0.00     0.029 A 
ATOM     39  N   UNL A   1      40.033  29.410  29.773  1.00  0.00    -0.354 N 
ATOM     40  C   UNL A   1      43.145  27.721  32.328  1.00  0.00     0.074 A 
ATOM     41  C   UNL A   1      43.905  26.722  31.613  1.00  0.00     0.031 C 
ATOM     42  C   UNL A   1      38.883  29.639  27.870  1.00  0.00     0.029 A 
ATOM     43  C   UNL A   1      38.943  30.071  29.265  1.00  0.00     0.049 A 
ATOM     44  H   UNL A   1      40.372  29.549  30.687  1.00  0.00     0.167 HD
ATOM     45  C   UNL A   1      43.377  28.085  33.608  1.00  0.00     0.037 A 
ATOM     46  C   UNL A   1      38.078  30.899  29.881  1.00  0.00     0.037 A 
ATOM     47  C   UNL A   1      42.576  29.049  34.309  1.00  0.00     0.049 A 
ATOM     48  C   UNL A   1      38.299  31.223  31.337  1.00  0.00     0.074 A 
ATOM     49  C   UNL A   1      42.715  29.502  35.606  1.00  0.00     0.029 A 
ATOM     50  N   UNL A   1      41.463  29.685  33.774  1.00  0.00    -0.354 N 
ATOM     51  N   UNL A   1      39.247  30.801  32.144  1.00  0.00    -0.248 NA
ATOM     52  C   UNL A   1      37.339  32.135  31.970  1.00  0.00     0.031 C 
ATOM     53  C   UNL A   1      41.639  30.349  35.883  1.00  0.00     0.029 A 
ATOM     54  C   UNL A   1      40.880  30.496  34.730  1.00  0.00     0.049 A 
ATOM     55  H   UNL A   1      41.140  29.575  32.851  1.00  0.00     0.167 HD
ATOM     56  C   UNL A   1      39.014  31.420  33.366  1.00  0.00     0.074 A 
ATOM     57  C   UNL A   1      37.840  32.250  33.193  1.00  0.00     0.031 C 
ATOM     58  C   UNL A   1      39.713  31.318  34.525  1.00  0.00     0.037 A 
BRANCH  45  59
ATOM     59  C   UNL A   1      44.488  27.380  34.327  1.00  0.00     0.057 A 
ATOM     60  C   UNL A   1      45.788  27.901  34.391  1.00  0.00     0.134 A 
ATOM     61  C   UNL A   1      44.258  26.142  34.941  1.00  0.00     0.134 A 
ATOM     62  F   UNL A   1      46.083  29.071  33.804  1.00  0.00    -0.206 F 
ATOM     63  C   UNL A   1      46.827  27.197  35.003  1.00  0.00     0.040 A 
ATOM     64  C   UNL A   1      45.280  25.447  35.587  1.00  0.00     0.040 A 
ATOM     65  F   UNL A   1      43.039  25.583  34.913  1.00  0.00    -0.206 F 
ATOM     66  C   UNL A   1      46.571  25.969  35.608  1.00  0.00     0.006 A 
ENDBRANCH  45  59
BRANCH  46  67
ATOM     67  C   UNL A   1      36.916  31.446  29.136  1.00  0.00     0.057 A 
ATOM     68  C   UNL A   1      36.892  32.770  28.682  1.00  0.00     0.134 A 
ATOM     69  C   UNL A   1      35.794  30.653  28.861  1.00  0.00     0.134 A 
ATOM     70  F   UNL A   1      37.927  33.587  28.930  1.00  0.00    -0.206 F 
ATOM     71  C   UNL A   1      35.791  33.290  27.999  1.00  0.00     0.040 A 
ATOM     72  C   UNL A   1      34.698  31.151  28.153  1.00  0.00     0.040 A 
ATOM     73  F   UNL A   1      35.753  29.374  29.262  1.00  0.00    -0.206 F 
ATOM     74  C   UNL A   1      34.692  32.477  27.727  1.00  0.00     0.006 A 
ENDBRANCH  46  67
BRANCH  58  75
ATOM     75  C   UNL A   1      39.262  32.157  35.688  1.00  0.00     0.057 A 
ATOM     76  C   UNL A   1      39.672  33.485  35.854  1.00  0.00     0.134 A 
ATOM     77  C   UNL A   1      38.327  31.650  36.600  1.00  0.00     0.134 A 
ATOM     78  F   UNL A   1      40.571  34.030  35.020  1.00  0.00    -0.206 F 
ATOM     79  C   UNL A   1      39.176  34.274  36.892  1.00  0.00     0.040 A 
ATOM     80  C   UNL A   1      37.798  32.439  37.620  1.00  0.00     0.040 A 
ATOM     81  F   UNL A   1      37.882  30.389  36.489  1.00  0.00    -0.206 F 
ATOM     82  C   UNL A   1      38.226  33.755  37.772  1.00  0.00     0.006 A 
ENDBRANCH  58  75
ENDBRANCH  32  33
ENDBRANCH  25  27
ENDBRANCH  24  25
ENDBRANCH  23  24
ENDBRANCH   1  23
TORSDOF 15
ENDMDL
MODEL 2
REMARK VINA RESULT:     -12.2      5.068      9.793
REMARK SMILES O=C(OCCOCCOC(=O)c1ccc(-c2c3nc(c(-c4c(F)cccc4F)c4ccc([nH]4)c(-c4c(F)cccc4F)c4nc(c(-c5c(F)cccc5F)c5ccc2[nH]5)C=C4)C=C3)cc1)C1=Cc2cc(Cl)ccc2O[C@@H]1C(F)(F)F
REMARK SMILES IDX 7 1 6 2 5 3 4 4 3 5 2 6 1 7 66 8 67 9 76 10 68 11 75 12
REMARK SMILES IDX 69 13 74 14 70 15 73 16 71 17 72 18 77 19 78 20 79 21 80 22
REMARK SMILES IDX 8 23 9 24 10 25 11 26 12 27 13 28 65 29 14 30 64 31 15 32
REMARK SMILES IDX 16 33 17 34 58 35 18 36 63 37 57 38 59 39 19 40 62 41 56 42
REMARK SMILES IDX 55 43 20 45 46 46 29 47 45 48 30 49 33 50 44 51 60 52 31 53
REMARK SMILES IDX 32 54 43 56 61 57 34 58 21 59 22 60 27 61 23 62 24 63 26 64
REMARK SMILES IDX 28 65 25 66 47 67 48 68 53 69 49 70 50 71 52 72 54 73 51 74
REMARK SMILES IDX 35 75 36 76 41 77 37 78 38 79 40 80 42 81 39 82
REMARK H PARENT 59 44 33 55
REMARK Flexibility Score: inf
ROOT
ATOM      1  C   UNL A   1      34.298  34.183  29.786  1.00  0.00     0.202 C 
ENDROOT
BRANCH   1   2
ATOM      2  O   UNL A   1      33.726  33.256  28.844  1.00  0.00    -0.374 OA
BRANCH   2   3
ATOM      3  C   UNL A   1      34.343  32.034  27.981  1.00  0.00     0.202 C 
BRANCH   3   4
ATOM      4  C   UNL A   1      33.524  30.070  27.489  1.00  0.00     0.261 C 
BRANCH   4   5
ATOM      5  O   UNL A   1      32.171  29.788  26.832  1.00  0.00    -0.460 OA
BRANCH   5   6
ATOM      6  C   UNL A   1      31.776  28.522  26.991  1.00  0.00     0.338 C 
ATOM      7  O   UNL A   1      31.383  27.963  27.983  1.00  0.00    -0.246 OA
BRANCH   6   8
ATOM      8  C   UNL A   1      32.343  28.025  25.755  1.00  0.00     0.087 C 
ATOM      9  C   UNL A   1      33.325  26.939  25.992  1.00  0.00     0.027 C 
ATOM     10  C   UNL A   1      30.647  27.797  24.848  1.00  0.00     0.316 C 
ATOM     11  C   UNL A   1      32.980  25.185  25.690  1.00  0.00     0.019 A 
ATOM     12  O   UNL A   1      30.229  25.931  24.571  1.00  0.00    -0.475 OA
ATOM     13  C   UNL A   1      33.862  24.237  26.129  1.00  0.00     0.032 A 
ATOM     14  C   UNL A   1      31.444  24.660  25.070  1.00  0.00     0.128 A 
ATOM     15  C   UNL A   1      33.383  22.916  26.077  1.00  0.00     0.041 A 
ATOM     16  C   UNL A   1      31.027  23.368  25.167  1.00  0.00     0.048 A 
ATOM     17  Cl  UNL A   1      34.469  21.669  26.606  1.00  0.00    -0.084 Cl
ATOM     18  C   UNL A   1      32.045  22.512  25.661  1.00  0.00     0.024 A 
BRANCH  10  19
ATOM     19  C   UNL A   1      30.796  29.004  23.820  1.00  0.00     0.430 C 
ATOM     20  F   UNL A   1      32.034  29.213  23.340  1.00  0.00    -0.167 F 
ATOM     21  F   UNL A   1      30.047  28.686  22.720  1.00  0.00    -0.167 F 
ATOM     22  F   UNL A   1      30.291  30.183  24.246  1.00  0.00    -0.167 F 
ENDBRANCH  10  19
ENDBRANCH   6   8
ENDBRANCH   5   6
ENDBRANCH   4   5
ENDBRANCH   3   4
ENDBRANCH   2   3
ENDBRANCH   1   2
BRANCH   1  23
ATOM     23  C   UNL A   1      34.301  33.747  31.246  1.00  0.00     0.261 C 
BRANCH  23  24
ATOM     24  O   UNL A   1      34.767  32.418  31.413  1.00  0.00    -0.460 OA
BRANCH  24  25
ATOM     25  C   UNL A   1      35.745  32.292  32.336  1.00  0.00     0.338 C 
ATOM     26  O   UNL A   1      35.732  32.645  33.500  1.00  0.00    -0.246 OA
BRANCH  25  27
ATOM     27  C   UNL A   1      36.883  31.626  31.687  1.00  0.00     0.060 A 
ATOM     28  C   UNL A   1      37.816  30.978  32.503  1.00  0.00     0.016 A 
ATOM     29  C   UNL A   1      37.003  31.599  30.290  1.00  0.00     0.016 A 
ATOM     30  C   UNL A   1      38.845  30.251  31.921  1.00  0.00     0.010 A 
ATOM     31  C   UNL A   1      38.049  30.900  29.709  1.00  0.00     0.010 A 
ATOM     32  C   UNL A   1      38.970  30.230  30.526  1.00  0.00    -0.014 A 
BRANCH  32  33
ATOM     33  C   UNL A   1      40.203  29.708  29.922  1.00  0.00     0.031 A 
ATOM     34  C   UNL A   1      41.326  30.675  29.732  1.00  0.00     0.074 A 
ATOM     35  C   UNL A   1      40.296  28.425  29.544  1.00  0.00     0.049 A 
ATOM     36  N   UNL A   1      42.489  30.493  29.172  1.00  0.00    -0.248 NA
ATOM     37  C   UNL A   1      41.099  32.041  30.238  1.00  0.00     0.031 C 
ATOM     38  C   UNL A   1      39.258  27.412  29.720  1.00  0.00     0.029 A 
ATOM     39  N   UNL A   1      41.314  27.764  28.911  1.00  0.00    -0.354 N 
ATOM     40  C   UNL A   1      43.133  31.719  29.259  1.00  0.00     0.074 A 
ATOM     41  C   UNL A   1      42.223  32.644  29.893  1.00  0.00     0.031 C 
ATOM     42  C   UNL A   1      39.687  26.256  29.184  1.00  0.00     0.029 A 
ATOM     43  C   UNL A   1      41.009  26.464  28.596  1.00  0.00     0.049 A 
ATOM     44  H   UNL A   1      42.182  28.182  28.703  1.00  0.00     0.167 HD
ATOM     45  C   UNL A   1      44.378  32.037  28.842  1.00  0.00     0.037 A 
ATOM     46  C   UNL A   1      41.713  25.567  27.879  1.00  0.00     0.037 A 
ATOM     47  C   UNL A   1      45.244  31.108  28.172  1.00  0.00     0.049 A 
ATOM     48  C   UNL A   1      43.063  25.970  27.342  1.00  0.00     0.074 A 
ATOM     49  C   UNL A   1      46.528  31.312  27.705  1.00  0.00     0.029 A 
ATOM     50  N   UNL A   1      44.898  29.803  27.847  1.00  0.00    -0.354 N 
ATOM     51  N   UNL A   1      43.693  27.116  27.463  1.00  0.00    -0.248 NA
ATOM     52  C   UNL A   1      43.802  24.961  26.573  1.00  0.00     0.031 C 
ATOM     53  C   UNL A   1      46.927  30.159  27.026  1.00  0.00     0.029 A 
ATOM     54  C   UNL A   1      45.928  29.203  27.147  1.00  0.00     0.049 A 
ATOM     55  H   UNL A   1      44.045  29.371  28.081  1.00  0.00     0.167 HD
ATOM     56  C   UNL A   1      44.911  26.956  26.815  1.00  0.00     0.074 A 
ATOM     57  C   UNL A   1      44.934  25.600  26.306  1.00  0.00     0.031 C 
ATOM     58  C   UNL A   1      45.925  27.846  26.660  1.00  0.00     0.037 A 
BRANCH  45  59
ATOM     59  C   UNL A   1      44.822  33.455  29.039  1.00  0.00     0.057 A 
ATOM     60  C   UNL A   1      44.613  34.447  28.070  1.00  0.00     0.134 A 
ATOM     61  C   UNL A   1      45.499  33.828  30.207  1.00  0.00     0.134 A 
ATOM     62  F   UNL A   1      43.992  34.152  26.916  1.00  0.00    -0.206 F 
ATOM     63  C   UNL A   1      45.096  35.745  28.238  1.00  0.00     0.040 A 
ATOM     64  C   UNL A   1      45.954  35.132  30.402  1.00  0.00     0.040 A 
ATOM     65  F   UNL A   1      45.738  32.929  31.173  1.00  0.00    -0.206 F 
ATOM     66  C   UNL A   1      45.764  36.091  29.410  1.00  0.00     0.006 A 
ENDBRANCH  45  59
BRANCH  46  67
ATOM     67  C   UNL A   1      41.141  24.225  27.604  1.00  0.00     0.057 A 
ATOM     68  C   UNL A   1      41.595  23.082  28.274  1.00  0.00     0.134 A 
ATOM     69  C   UNL A   1      40.123  24.051  26.657  1.00  0.00     0.134 A 
ATOM     70  F   UNL A   1      42.580  23.177  29.178  1.00  0.00    -0.206 F 
ATOM     71  C   UNL A   1      41.071  21.817  28.000  1.00  0.00     0.040 A 
ATOM     72  C   UNL A   1      39.569  22.797  26.395  1.00  0.00     0.040 A 
ATOM     73  F   UNL A   1      39.638  25.105  25.983  1.00  0.00    -0.206 F 
ATOM     74  C   UNL A   1      40.050  21.673  27.063  1.00  0.00     0.006 A 
ENDBRANCH  46  67
BRANCH  58  75
ATOM     75  C   UNL A   1      47.165  27.375  25.954  1.00  0.00     0.057 A 
ATOM     76  C   UNL A   1      48.199  26.711  26.624  1.00  0.00     0.134 A 
ATOM     77  C   UNL A   1      47.276  27.508  24.563  1.00  0.00     0.134 A 
ATOM     78  F   UNL A   1      48.158  26.556  27.956  1.00  0.00    -0.206 F 
ATOM     79  C   UNL A   1      49.304  26.206  25.937  1.00  0.00     0.040 A 
ATOM     80  C   UNL A   1      48.358  26.978  23.862  1.00  0.00     0.040 A 
ATOM     81  F   UNL A   1      46.313  28.123  23.859  1.00  0.00    -0.206 F 
ATOM     82  C   UNL A   1      49.379  26.328  24.550  1.00  0.00     0.006 A 
ENDBRANCH  58  75
ENDBRANCH  32  33
ENDBRANCH  25  27
ENDBRANCH  24  25
ENDBRANCH  23  24
ENDBRANCH   1  23
TORSDOF 15
ENDMDL
MODEL 3
REMARK VINA RESULT:     -12.2      5.077      9.785
REMARK SMILES O=C(OCCOCCOC(=O)c1ccc(-c2c3nc(c(-c4c(F)cccc4F)c4ccc([nH]4)c(-c4c(F)cccc4F)c4nc(c(-c5c(F)cccc5F)c5ccc2[nH]5)C=C4)C=C3)cc1)C1=Cc2cc(Cl)ccc2O[C@@H]1C(F)(F)F
REMARK SMILES IDX 7 1 6 2 5 3 4 4 3 5 2 6 1 7 66 8 67 9 76 10 68 11 75 12
REMARK SMILES IDX 69 13 74 14 70 15 73 16 71 17 72 18 77 19 78 20 79 21 80 22
REMARK SMILES IDX 8 23 9 24 10 25 11 26 12 27 13 28 65 29 14 30 64 31 15 32
REMARK SMILES IDX 16 33 17 34 58 35 18 36 63 37 57 38 59 39 19 40 62 41 56 42
REMARK SMILES IDX 55 43 20 45 46 46 29 47 45 48 30 49 33 50 44 51 60 52 31 53
REMARK SMILES IDX 32 54 43 56 61 57 34 58 21 59 22 60 27 61 23 62 24 63 26 64
REMARK SMILES IDX 28 65 25 66 47 67 48 68 53 69 49 70 50 71 52 72 54 73 51 74
REMARK SMILES IDX 35 75 36 76 41 77 37 78 38 79 40 80 42 81 39 82
REMARK H PARENT 59 44 33 55
REMARK Flexibility Score: inf
ROOT
ATOM      1  C   UNL A   1      34.359  34.157  30.155  1.00  0.00     0.202 C 
ENDROOT
BRANCH   1   2
ATOM      2  O   UNL A   1      34.714  33.249  29.096  1.00  0.00    -0.374 OA
BRANCH   2   3
ATOM      3  C   UNL A   1      33.854  32.509  27.941  1.00  0.00     0.202 C 
BRANCH   3   4
ATOM      4  C   UNL A   1      33.734  30.404  27.371  1.00  0.00     0.261 C 
BRANCH   4   5
ATOM      5  O   UNL A   1      32.946  29.824  26.195  1.00  0.00    -0.460 OA
BRANCH   5   6
ATOM      6  C   UNL A   1      32.244  28.739  26.530  1.00  0.00     0.338 C 
ATOM      7  O   UNL A   1      31.776  28.431  27.597  1.00  0.00    -0.246 OA
BRANCH   6   8
ATOM      8  C   UNL A   1      32.590  27.960  25.359  1.00  0.00     0.087 C 
ATOM      9  C   UNL A   1      33.508  26.843  25.689  1.00  0.00     0.027 C 
ATOM     10  C   UNL A   1      30.770  27.742  24.734  1.00  0.00     0.316 C 
ATOM     11  C   UNL A   1      32.988  25.109  25.791  1.00  0.00     0.019 A 
ATOM     12  O   UNL A   1      30.174  25.911  24.892  1.00  0.00    -0.475 OA
ATOM     13  C   UNL A   1      33.848  24.174  26.300  1.00  0.00     0.032 A 
ATOM     14  C   UNL A   1      31.344  24.639  25.484  1.00  0.00     0.128 A 
ATOM     15  C   UNL A   1      33.265  22.925  26.576  1.00  0.00     0.041 A 
ATOM     16  C   UNL A   1      30.846  23.439  25.891  1.00  0.00     0.048 A 
ATOM     17  Cl  UNL A   1      34.315  21.694  27.208  1.00  0.00    -0.084 Cl
ATOM     18  C   UNL A   1      31.854  22.590  26.417  1.00  0.00     0.024 A 
BRANCH  10  19
ATOM     19  C   UNL A   1      30.866  28.710  23.473  1.00  0.00     0.430 C 
ATOM     20  F   UNL A   1      32.060  28.750  22.856  1.00  0.00    -0.167 F 
ATOM     21  F   UNL A   1      30.004  28.223  22.529  1.00  0.00    -0.167 F 
ATOM     22  F   UNL A   1      30.449  29.977  23.693  1.00  0.00    -0.167 F 
ENDBRANCH  10  19
ENDBRANCH   6   8
ENDBRANCH   5   6
ENDBRANCH   4   5
ENDBRANCH   3   4
ENDBRANCH   2   3
ENDBRANCH   1   2
BRANCH   1  23
ATOM     23  C   UNL A   1      34.431  33.602  31.573  1.00  0.00     0.261 C 
BRANCH  23  24
ATOM     24  O   UNL A   1      34.915  32.270  31.608  1.00  0.00    -0.460 OA
BRANCH  24  25
ATOM     25  C   UNL A   1      35.890  32.065  32.519  1.00  0.00     0.338 C 
ATOM     26  O   UNL A   1      35.889  32.352  33.702  1.00  0.00    -0.246 OA
BRANCH  25  27
ATOM     27  C   UNL A   1      37.009  31.406  31.830  1.00  0.00     0.060 A 
ATOM     28  C   UNL A   1      37.972  30.761  32.612  1.00  0.00     0.016 A 
ATOM     29  C   UNL A   1      37.080  31.384  30.430  1.00  0.00     0.016 A 
ATOM     30  C   UNL A   1      38.984  30.041  31.992  1.00  0.00     0.010 A 
ATOM     31  C   UNL A   1      38.109  30.691  29.811  1.00  0.00     0.010 A 
ATOM     32  C   UNL A   1      39.060  30.024  30.594  1.00  0.00    -0.014 A 
BRANCH  32  33
ATOM     33  C   UNL A   1      40.275  29.509  29.947  1.00  0.00     0.031 A 
ATOM     34  C   UNL A   1      41.395  30.476  29.743  1.00  0.00     0.074 A 
ATOM     35  C   UNL A   1      40.353  28.233  29.543  1.00  0.00     0.049 A 
ATOM     36  N   UNL A   1      42.542  30.301  29.147  1.00  0.00    -0.248 NA
ATOM     37  C   UNL A   1      41.187  31.834  30.279  1.00  0.00     0.031 C 
ATOM     38  C   UNL A   1      39.316  27.220  29.729  1.00  0.00     0.029 A 
ATOM     39  N   UNL A   1      41.351  27.581  28.870  1.00  0.00    -0.354 N 
ATOM     40  C   UNL A   1      43.192  31.523  29.238  1.00  0.00     0.074 A 
ATOM     41  C   UNL A   1      42.303  32.439  29.914  1.00  0.00     0.031 C 
ATOM     42  C   UNL A   1      39.727  26.072  29.161  1.00  0.00     0.029 A 
ATOM     43  C   UNL A   1      41.032  26.288  28.540  1.00  0.00     0.049 A 
ATOM     44  H   UNL A   1      42.213  28.000  28.645  1.00  0.00     0.167 HD
ATOM     45  C   UNL A   1      44.426  31.845  28.793  1.00  0.00     0.037 A 
ATOM     46  C   UNL A   1      41.712  25.401  27.788  1.00  0.00     0.037 A 
ATOM     47  C   UNL A   1      45.270  30.926  28.083  1.00  0.00     0.049 A 
ATOM     48  C   UNL A   1      43.049  25.810  27.221  1.00  0.00     0.074 A 
ATOM     49  C   UNL A   1      46.541  31.135  27.584  1.00  0.00     0.029 A 
ATOM     50  N   UNL A   1      44.910  29.628  27.744  1.00  0.00    -0.354 N 
ATOM     51  N   UNL A   1      43.686  26.952  27.345  1.00  0.00    -0.248 NA
ATOM     52  C   UNL A   1      43.762  24.814  26.413  1.00  0.00     0.031 C 
ATOM     53  C   UNL A   1      46.917  29.993  26.872  1.00  0.00     0.029 A 
ATOM     54  C   UNL A   1      45.918  29.038  27.005  1.00  0.00     0.049 A 
ATOM     55  H   UNL A   1      44.063  29.194  27.994  1.00  0.00     0.167 HD
ATOM     56  C   UNL A   1      44.885  26.800  26.660  1.00  0.00     0.074 A 
ATOM     57  C   UNL A   1      44.888  25.453  26.126  1.00  0.00     0.031 C 
ATOM     58  C   UNL A   1      45.897  27.689  26.493  1.00  0.00     0.037 A 
BRANCH  45  59
ATOM     59  C   UNL A   1      44.880  33.258  29.003  1.00  0.00     0.057 A 
ATOM     60  C   UNL A   1      44.617  34.275  28.074  1.00  0.00     0.134 A 
ATOM     61  C   UNL A   1      45.621  33.600  30.141  1.00  0.00     0.134 A 
ATOM     62  F   UNL A   1      43.933  34.011  26.950  1.00  0.00    -0.206 F 
ATOM     63  C   UNL A   1      45.109  35.569  28.250  1.00  0.00     0.040 A 
ATOM     64  C   UNL A   1      46.086  34.899  30.346  1.00  0.00     0.040 A 
ATOM     65  F   UNL A   1      45.914  32.676  31.068  1.00  0.00    -0.206 F 
ATOM     66  C   UNL A   1      45.841  35.885  29.392  1.00  0.00     0.006 A 
ENDBRANCH  45  59
BRANCH  46  67
ATOM     67  C   UNL A   1      41.128  24.066  27.504  1.00  0.00     0.057 A 
ATOM     68  C   UNL A   1      40.094  23.900  26.575  1.00  0.00     0.134 A 
ATOM     69  C   UNL A   1      41.591  22.919  28.161  1.00  0.00     0.134 A 
ATOM     70  F   UNL A   1      39.593  24.961  25.927  1.00  0.00    -0.206 F 
ATOM     71  C   UNL A   1      39.531  22.647  26.323  1.00  0.00     0.040 A 
ATOM     72  C   UNL A   1      41.058  21.656  27.898  1.00  0.00     0.040 A 
ATOM     73  F   UNL A   1      42.583  23.006  29.060  1.00  0.00    -0.206 F 
ATOM     74  C   UNL A   1      40.017  21.520  26.981  1.00  0.00     0.006 A 
ENDBRANCH  46  67
BRANCH  58  75
ATOM     75  C   UNL A   1      47.115  27.228  25.744  1.00  0.00     0.057 A 
ATOM     76  C   UNL A   1      47.304  27.499  24.384  1.00  0.00     0.134 A 
ATOM     77  C   UNL A   1      48.157  26.585  26.426  1.00  0.00     0.134 A 
ATOM     78  F   UNL A   1      46.342  28.105  23.671  1.00  0.00    -0.206 F 
ATOM     79  C   UNL A   1      48.480  27.137  23.727  1.00  0.00     0.040 A 
ATOM     80  C   UNL A   1      49.351  26.249  25.789  1.00  0.00     0.040 A 
ATOM     81  F   UNL A   1      48.046  26.308  27.735  1.00  0.00    -0.206 F 
ATOM     82  C   UNL A   1      49.513  26.521  24.433  1.00  0.00     0.006 A 
ENDBRANCH  58  75
ENDBRANCH  32  33
ENDBRANCH  25  27
ENDBRANCH  24  25
ENDBRANCH  23  24
ENDBRANCH   1  23
TORSDOF 15
ENDMDL
