MODEL 1
REMARK VINA RESULT:     -12.6      0.000      0.000
REMARK SMILES COc1cc(NC(=O)[C@@H]2[C@@H](C(=O)OCCOCCOC(=O)c3ccc(-c4c5nc(c(-c6c(F)cccc6F)c6ccc([nH]6)c(-c6c(F)cccc6F)c6nc(c(-c7c(F)cccc7F)c7ccc4[nH]7)C=C6)C=C5)cc3)[C@H]3C=C[C@@H]2C3)ccc1NC(=O)c1ccccc1
REMARK SMILES IDX 15 1 14 2 13 3 11 4 12 5 10 6 9 7 79 8 76 9 78 10 80 11
REMARK SMILES IDX 77 12 7 13 6 14 8 16 5 17 3 18 4 19 83 20 82 21 81 22 2 23
REMARK SMILES IDX 1 24 84 25 85 26 86 28 87 29 88 30 92 31 89 32 91 33 90 34
REMARK SMILES IDX 16 35 17 36 18 37 19 38 20 39 21 40 22 41 23 42 75 43 24 44
REMARK SMILES IDX 74 45 25 46 26 47 27 48 68 49 28 50 73 51 67 52 69 53 29 54
REMARK SMILES IDX 72 55 66 56 65 57 30 59 56 60 39 61 55 62 40 63 43 64 54 65
REMARK SMILES IDX 70 66 41 67 42 68 53 70 71 71 44 72 31 73 32 74 37 75 33 76
REMARK SMILES IDX 34 77 36 78 38 79 35 80 57 81 58 82 63 83 59 84 60 85 62 86
REMARK SMILES IDX 64 87 61 88 45 89 46 90 51 91 47 92 48 93 50 94 52 95 49 96
REMARK H PARENT 6 15 84 27 69 58 43 69
REMARK Flexibility Score: inf
ROOT
ATOM      1  C   UNL A   1      38.290  23.348  26.463  1.00  0.00     0.202 C 
ENDROOT
BRANCH   1   2
ATOM      2  C   UNL A   1      37.060  23.649  25.275  1.00  0.00     0.261 C 
BRANCH   2   3
ATOM      3  O   UNL A   1      35.918  24.665  25.557  1.00  0.00    -0.463 OA
BRANCH   3   4
ATOM      4  C   UNL A   1      34.768  24.818  24.813  1.00  0.00     0.310 C 
ATOM      5  O   UNL A   1      34.760  24.472  23.631  1.00  0.00    -0.252 OA
BRANCH   4   6
ATOM      6  C   UNL A   1      33.385  25.455  25.541  1.00  0.00     0.119 C 
ATOM      7  C   UNL A   1      31.792  25.485  25.085  1.00  0.00     0.100 C 
ATOM      8  C   UNL A   1      31.489  26.994  24.839  1.00  0.00     0.025 C 
ATOM      9  C   UNL A   1      33.625  27.026  25.479  1.00  0.00     0.027 C 
ATOM     10  C   UNL A   1      32.269  27.464  23.647  1.00  0.00    -0.027 C 
ATOM     11  C   UNL A   1      32.302  27.623  25.960  1.00  0.00     0.017 C 
ATOM     12  C   UNL A   1      33.551  27.496  24.028  1.00  0.00    -0.027 C 
BRANCH   7  13
ATOM     13  C   UNL A   1      30.631  25.065  26.076  1.00  0.00     0.228 C 
ATOM     14  N   UNL A   1      30.394  23.772  26.447  1.00  0.00    -0.326 N 
ATOM     15  H   UNL A   1      29.571  23.576  26.950  1.00  0.00     0.169 HD
ATOM     16  O   UNL A   1      29.844  25.887  26.556  1.00  0.00    -0.274 OA
BRANCH  14  17
ATOM     17  C   UNL A   1      31.240  22.732  26.155  1.00  0.00     0.045 A 
ATOM     18  C   UNL A   1      32.461  21.933  24.329  1.00  0.00     0.144 A 
ATOM     19  C   UNL A   1      31.254  22.269  24.863  1.00  0.00     0.074 A 
ATOM     20  C   UNL A   1      33.549  21.613  25.220  1.00  0.00     0.084 A 
ATOM     21  C   UNL A   1      33.424  21.965  26.568  1.00  0.00     0.032 A 
ATOM     22  C   UNL A   1      32.258  22.501  27.057  1.00  0.00     0.028 A 
BRANCH  18  23
ATOM     23  O   UNL A   1      32.485  21.966  22.961  1.00  0.00    -0.494 OA
ATOM     24  C   UNL A   1      31.817  21.057  22.010  1.00  0.00     0.278 C 
ENDBRANCH  18  23
BRANCH  20  25
ATOM     25  N   UNL A   1      34.808  21.063  24.868  1.00  0.00    -0.319 N 
ATOM     26  C   UNL A   1      35.276  19.753  24.873  1.00  0.00     0.255 C 
ATOM     27  H   UNL A   1      35.470  21.728  24.568  1.00  0.00     0.170 HD
ATOM     28  O   UNL A   1      36.495  19.582  24.957  1.00  0.00    -0.269 OA
BRANCH  26  29
ATOM     29  C   UNL A   1      34.387  18.554  24.684  1.00  0.00     0.040 A 
ATOM     30  C   UNL A   1      33.166  18.485  25.369  1.00  0.00     0.014 A 
ATOM     31  C   UNL A   1      34.772  17.446  23.924  1.00  0.00     0.014 A 
ATOM     32  C   UNL A   1      32.382  17.324  25.316  1.00  0.00     0.001 A 
ATOM     33  C   UNL A   1      33.970  16.306  23.832  1.00  0.00     0.001 A 
ATOM     34  C   UNL A   1      32.784  16.235  24.549  1.00  0.00     0.000 A 
ENDBRANCH  26  29
ENDBRANCH  20  25
ENDBRANCH  14  17
ENDBRANCH   7  13
ENDBRANCH   4   6
ENDBRANCH   3   4
ENDBRANCH   2   3
ENDBRANCH   1   2
BRANCH   1  35
ATOM     35  O   UNL A   1      39.327  22.364  26.207  1.00  0.00    -0.374 OA
BRANCH  35  36
ATOM     36  C   UNL A   1      39.231  20.991  25.706  1.00  0.00     0.202 C 
BRANCH  36  37
ATOM     37  C   UNL A   1      39.973  19.663  26.103  1.00  0.00     0.261 C 
BRANCH  37  38
ATOM     38  O   UNL A   1      41.112  19.369  25.323  1.00  0.00    -0.460 OA
BRANCH  38  39
ATOM     39  C   UNL A   1      42.203  19.159  26.085  1.00  0.00     0.338 C 
ATOM     40  O   UNL A   1      42.770  18.121  26.318  1.00  0.00    -0.246 OA
BRANCH  39  41
ATOM     41  C   UNL A   1      42.710  20.492  26.387  1.00  0.00     0.060 A 
ATOM     42  C   UNL A   1      42.558  20.949  27.696  1.00  0.00     0.016 A 
ATOM     43  C   UNL A   1      43.332  21.251  25.407  1.00  0.00     0.016 A 
ATOM     44  C   UNL A   1      42.972  22.234  28.025  1.00  0.00     0.010 A 
ATOM     45  C   UNL A   1      43.758  22.525  25.752  1.00  0.00     0.010 A 
ATOM     46  C   UNL A   1      43.552  23.047  27.049  1.00  0.00    -0.014 A 
BRANCH  46  47
ATOM     47  C   UNL A   1      43.805  24.495  27.274  1.00  0.00     0.031 A 
ATOM     48  C   UNL A   1      45.240  24.945  27.358  1.00  0.00     0.074 A 
ATOM     49  C   UNL A   1      42.817  25.391  27.459  1.00  0.00     0.049 A 
ATOM     50  N   UNL A   1      45.728  26.107  27.703  1.00  0.00    -0.248 NA
ATOM     51  C   UNL A   1      46.270  23.940  27.028  1.00  0.00     0.031 C 
ATOM     52  C   UNL A   1      41.383  25.131  27.361  1.00  0.00     0.029 A 
ATOM     53  N   UNL A   1      42.883  26.709  27.847  1.00  0.00    -0.354 N 
ATOM     54  C   UNL A   1      47.103  25.970  27.595  1.00  0.00     0.074 A 
ATOM     55  C   UNL A   1      47.382  24.576  27.347  1.00  0.00     0.031 C 
ATOM     56  C   UNL A   1      40.706  26.209  27.796  1.00  0.00     0.029 A 
ATOM     57  C   UNL A   1      41.657  27.239  28.184  1.00  0.00     0.049 A 
ATOM     58  H   UNL A   1      43.722  27.222  27.880  1.00  0.00     0.167 HD
ATOM     59  C   UNL A   1      48.050  26.935  27.573  1.00  0.00     0.037 A 
ATOM     60  C   UNL A   1      41.347  28.416  28.761  1.00  0.00     0.037 A 
ATOM     61  C   UNL A   1      47.769  28.328  27.761  1.00  0.00     0.049 A 
ATOM     62  C   UNL A   1      42.426  29.447  28.921  1.00  0.00     0.074 A 
ATOM     63  C   UNL A   1      48.631  29.403  27.657  1.00  0.00     0.029 A 
ATOM     64  N   UNL A   1      46.524  28.835  28.095  1.00  0.00    -0.354 N 
ATOM     65  N   UNL A   1      43.712  29.342  28.691  1.00  0.00    -0.248 NA
ATOM     66  C   UNL A   1      41.999  30.792  29.333  1.00  0.00     0.031 C 
ATOM     67  C   UNL A   1      47.917  30.559  27.986  1.00  0.00     0.029 A 
ATOM     68  C   UNL A   1      46.600  30.207  28.241  1.00  0.00     0.049 A 
ATOM     69  H   UNL A   1      45.706  28.297  28.213  1.00  0.00     0.167 HD
ATOM     70  C   UNL A   1      44.227  30.625  28.822  1.00  0.00     0.074 A 
ATOM     71  C   UNL A   1      43.123  31.480  29.201  1.00  0.00     0.031 C 
ATOM     72  C   UNL A   1      45.492  31.058  28.595  1.00  0.00     0.037 A 
BRANCH  59  73
ATOM     73  C   UNL A   1      49.448  26.495  27.264  1.00  0.00     0.057 A 
ATOM     74  C   UNL A   1      50.380  26.253  28.286  1.00  0.00     0.134 A 
ATOM     75  C   UNL A   1      49.882  26.345  25.944  1.00  0.00     0.134 A 
ATOM     76  F   UNL A   1      50.033  26.399  29.574  1.00  0.00    -0.206 F 
ATOM     77  C   UNL A   1      51.707  25.929  28.004  1.00  0.00     0.040 A 
ATOM     78  C   UNL A   1      51.198  25.986  25.650  1.00  0.00     0.040 A 
ATOM     79  F   UNL A   1      49.041  26.561  24.922  1.00  0.00    -0.206 F 
ATOM     80  C   UNL A   1      52.117  25.790  26.680  1.00  0.00     0.006 A 
ENDBRANCH  59  73
BRANCH  60  81
ATOM     81  C   UNL A   1      39.951  28.722  29.164  1.00  0.00     0.057 A 
ATOM     82  C   UNL A   1      39.496  28.469  30.461  1.00  0.00     0.134 A 
ATOM     83  C   UNL A   1      39.019  29.210  28.240  1.00  0.00     0.134 A 
ATOM     84  F   UNL A   1      40.334  27.970  31.381  1.00  0.00    -0.206 F 
ATOM     85  C   UNL A   1      38.160  28.661  30.820  1.00  0.00     0.040 A 
ATOM     86  C   UNL A   1      37.684  29.428  28.589  1.00  0.00     0.040 A 
ATOM     87  F   UNL A   1      39.379  29.454  26.974  1.00  0.00    -0.206 F 
ATOM     88  C   UNL A   1      37.249  29.143  29.881  1.00  0.00     0.006 A 
ENDBRANCH  60  81
BRANCH  72  89
ATOM     89  C   UNL A   1      45.741  32.535  28.656  1.00  0.00     0.057 A 
ATOM     90  C   UNL A   1      46.190  33.172  29.818  1.00  0.00     0.134 A 
ATOM     91  C   UNL A   1      45.574  33.322  27.508  1.00  0.00     0.134 A 
ATOM     92  F   UNL A   1      46.356  32.479  30.955  1.00  0.00    -0.206 F 
ATOM     93  C   UNL A   1      46.444  34.544  29.841  1.00  0.00     0.040 A 
ATOM     94  C   UNL A   1      45.858  34.687  27.510  1.00  0.00     0.040 A 
ATOM     95  F   UNL A   1      45.153  32.772  26.358  1.00  0.00    -0.206 F 
ATOM     96  C   UNL A   1      46.288  35.303  28.682  1.00  0.00     0.006 A 
ENDBRANCH  72  89
ENDBRANCH  46  47
ENDBRANCH  39  41
ENDBRANCH  38  39
ENDBRANCH  37  38
ENDBRANCH  36  37
ENDBRANCH  35  36
ENDBRANCH   1  35
TORSDOF 19
ENDMDL
MODEL 2
REMARK VINA RESULT:     -12.5      1.806      4.823
REMARK SMILES COc1cc(NC(=O)[C@@H]2[C@@H](C(=O)OCCOCCOC(=O)c3ccc(-c4c5nc(c(-c6c(F)cccc6F)c6ccc([nH]6)c(-c6c(F)cccc6F)c6nc(c(-c7c(F)cccc7F)c7ccc4[nH]7)C=C6)C=C5)cc3)[C@H]3C=C[C@@H]2C3)ccc1NC(=O)c1ccccc1
REMARK SMILES IDX 15 1 14 2 13 3 11 4 12 5 10 6 9 7 79 8 76 9 78 10 80 11
REMARK SMILES IDX 77 12 7 13 6 14 8 16 5 17 3 18 4 19 83 20 82 21 81 22 2 23
REMARK SMILES IDX 1 24 84 25 85 26 86 28 87 29 88 30 92 31 89 32 91 33 90 34
REMARK SMILES IDX 16 35 17 36 18 37 19 38 20 39 21 40 22 41 23 42 75 43 24 44
REMARK SMILES IDX 74 45 25 46 26 47 27 48 68 49 28 50 73 51 67 52 69 53 29 54
REMARK SMILES IDX 72 55 66 56 65 57 30 59 56 60 39 61 55 62 40 63 43 64 54 65
REMARK SMILES IDX 70 66 41 67 42 68 53 70 71 71 44 72 31 73 32 74 37 75 33 76
REMARK SMILES IDX 34 77 36 78 38 79 35 80 57 81 58 82 63 83 59 84 60 85 62 86
REMARK SMILES IDX 64 87 61 88 45 89 46 90 51 91 47 92 48 93 50 94 52 95 49 96
REMARK H PARENT 6 15 84 27 69 58 43 69
REMARK Flexibility Score: inf
ROOT
ATOM      1  C   UNL A   1      38.295  23.717  26.407  1.00  0.00     0.202 C 
ENDROOT
BRANCH   1   2
ATOM      2  C   UNL A   1      36.959  23.639  25.302  1.00  0.00     0.261 C 
BRANCH   2   3
ATOM      3  O   UNL A   1      36.814  22.446  24.317  1.00  0.00    -0.463 OA
BRANCH   3   4
ATOM      4  C   UNL A   1      36.214  21.235  24.592  1.00  0.00     0.310 C 
ATOM      5  O   UNL A   1      36.890  20.315  25.054  1.00  0.00    -0.252 OA
BRANCH   4   6
ATOM      6  C   UNL A   1      34.560  21.044  24.315  1.00  0.00     0.119 C 
ATOM      7  C   UNL A   1      33.322  22.130  24.128  1.00  0.00     0.100 C 
ATOM      8  C   UNL A   1      32.414  21.899  25.373  1.00  0.00     0.025 C 
ATOM      9  C   UNL A   1      34.032  20.392  25.666  1.00  0.00     0.027 C 
ATOM     10  C   UNL A   1      33.155  22.322  26.607  1.00  0.00    -0.027 C 
ATOM     11  C   UNL A   1      32.511  20.387  25.506  1.00  0.00     0.017 C 
ATOM     12  C   UNL A   1      34.120  21.416  26.794  1.00  0.00    -0.027 C 
BRANCH   7  13
ATOM     13  C   UNL A   1      32.291  22.023  22.933  1.00  0.00     0.228 C 
ATOM     14  N   UNL A   1      31.420  23.022  22.603  1.00  0.00    -0.326 N 
ATOM     15  H   UNL A   1      30.716  22.827  21.943  1.00  0.00     0.169 HD
ATOM     16  O   UNL A   1      32.190  21.007  22.237  1.00  0.00    -0.274 OA
BRANCH  14  17
ATOM     17  C   UNL A   1      31.473  24.283  23.143  1.00  0.00     0.045 A 
ATOM     18  C   UNL A   1      32.334  26.384  22.591  1.00  0.00     0.144 A 
ATOM     19  C   UNL A   1      32.558  25.062  22.828  1.00  0.00     0.074 A 
ATOM     20  C   UNL A   1      31.142  26.993  23.129  1.00  0.00     0.084 A 
ATOM     21  C   UNL A   1      30.122  26.154  23.586  1.00  0.00     0.032 A 
ATOM     22  C   UNL A   1      30.286  24.792  23.626  1.00  0.00     0.028 A 
BRANCH  18  23
ATOM     23  O   UNL A   1      33.301  26.977  21.826  1.00  0.00    -0.494 OA
ATOM     24  C   UNL A   1      34.005  28.252  22.061  1.00  0.00     0.278 C 
ENDBRANCH  18  23
BRANCH  20  25
ATOM     25  N   UNL A   1      30.827  28.375  23.156  1.00  0.00    -0.319 N 
ATOM     26  C   UNL A   1      30.824  29.300  24.196  1.00  0.00     0.255 C 
ATOM     27  H   UNL A   1      30.563  28.748  22.284  1.00  0.00     0.170 HD
ATOM     28  O   UNL A   1      30.105  30.296  24.073  1.00  0.00    -0.269 OA
BRANCH  26  29
ATOM     29  C   UNL A   1      31.715  29.194  25.403  1.00  0.00     0.040 A 
ATOM     30  C   UNL A   1      32.948  29.860  25.411  1.00  0.00     0.014 A 
ATOM     31  C   UNL A   1      31.411  28.371  26.492  1.00  0.00     0.014 A 
ATOM     32  C   UNL A   1      33.855  29.671  26.464  1.00  0.00     0.001 A 
ATOM     33  C   UNL A   1      32.293  28.219  27.564  1.00  0.00     0.001 A 
ATOM     34  C   UNL A   1      33.528  28.851  27.539  1.00  0.00     0.000 A 
ENDBRANCH  26  29
ENDBRANCH  20  25
ENDBRANCH  14  17
ENDBRANCH   7  13
ENDBRANCH   4   6
ENDBRANCH   3   4
ENDBRANCH   2   3
ENDBRANCH   1   2
BRANCH   1  35
ATOM     35  O   UNL A   1      39.443  22.846  26.228  1.00  0.00    -0.374 OA
BRANCH  35  36
ATOM     36  C   UNL A   1      39.684  21.482  26.705  1.00  0.00     0.202 C 
BRANCH  36  37
ATOM     37  C   UNL A   1      40.306  20.212  26.018  1.00  0.00     0.261 C 
BRANCH  37  38
ATOM     38  O   UNL A   1      41.502  19.750  26.609  1.00  0.00    -0.460 OA
BRANCH  38  39
ATOM     39  C   UNL A   1      42.581  20.045  25.859  1.00  0.00     0.338 C 
ATOM     40  O   UNL A   1      43.045  19.428  24.933  1.00  0.00    -0.246 OA
BRANCH  39  41
ATOM     41  C   UNL A   1      42.944  21.403  26.245  1.00  0.00     0.060 A 
ATOM     42  C   UNL A   1      43.044  21.672  27.610  1.00  0.00     0.016 A 
ATOM     43  C   UNL A   1      43.197  22.368  25.281  1.00  0.00     0.016 A 
ATOM     44  C   UNL A   1      43.331  22.964  28.034  1.00  0.00     0.010 A 
ATOM     45  C   UNL A   1      43.501  23.649  25.717  1.00  0.00     0.010 A 
ATOM     46  C   UNL A   1      43.536  23.973  27.092  1.00  0.00    -0.014 A 
BRANCH  46  47
ATOM     47  C   UNL A   1      43.621  25.407  27.476  1.00  0.00     0.031 A 
ATOM     48  C   UNL A   1      44.989  25.979  27.733  1.00  0.00     0.074 A 
ATOM     49  C   UNL A   1      42.534  26.184  27.654  1.00  0.00     0.049 A 
ATOM     50  N   UNL A   1      45.326  27.140  28.231  1.00  0.00    -0.248 NA
ATOM     51  C   UNL A   1      46.140  25.114  27.406  1.00  0.00     0.031 C 
ATOM     52  C   UNL A   1      41.147  25.802  27.400  1.00  0.00     0.029 A 
ATOM     53  N   UNL A   1      42.432  27.455  28.169  1.00  0.00    -0.354 N 
ATOM     54  C   UNL A   1      46.712  27.144  28.236  1.00  0.00     0.074 A 
ATOM     55  C   UNL A   1      47.152  25.815  27.884  1.00  0.00     0.031 C 
ATOM     56  C   UNL A   1      40.330  26.761  27.871  1.00  0.00     0.029 A 
ATOM     57  C   UNL A   1      41.136  27.830  28.441  1.00  0.00     0.049 A 
ATOM     58  H   UNL A   1      43.210  28.038  28.328  1.00  0.00     0.167 HD
ATOM     59  C   UNL A   1      47.554  28.190  28.393  1.00  0.00     0.037 A 
ATOM     60  C   UNL A   1      40.661  28.906  29.096  1.00  0.00     0.037 A 
ATOM     61  C   UNL A   1      47.118  29.523  28.686  1.00  0.00     0.049 A 
ATOM     62  C   UNL A   1      41.612  30.012  29.452  1.00  0.00     0.074 A 
ATOM     63  C   UNL A   1      47.871  30.679  28.764  1.00  0.00     0.029 A 
ATOM     64  N   UNL A   1      45.805  29.875  28.951  1.00  0.00    -0.354 N 
ATOM     65  N   UNL A   1      42.917  30.052  29.332  1.00  0.00    -0.248 NA
ATOM     66  C   UNL A   1      41.017  31.261  29.949  1.00  0.00     0.031 C 
ATOM     67  C   UNL A   1      47.018  31.723  29.134  1.00  0.00     0.029 A 
ATOM     68  C   UNL A   1      45.728  31.226  29.232  1.00  0.00     0.049 A 
ATOM     69  H   UNL A   1      45.040  29.253  28.941  1.00  0.00     0.167 HD
ATOM     70  C   UNL A   1      43.285  31.357  29.630  1.00  0.00     0.074 A 
ATOM     71  C   UNL A   1      42.072  32.061  29.987  1.00  0.00     0.031 C 
ATOM     72  C   UNL A   1      44.513  31.927  29.563  1.00  0.00     0.037 A 
BRANCH  59  73
ATOM     73  C   UNL A   1      49.011  27.917  28.173  1.00  0.00     0.057 A 
ATOM     74  C   UNL A   1      49.579  27.974  26.889  1.00  0.00     0.134 A 
ATOM     75  C   UNL A   1      49.847  27.563  29.234  1.00  0.00     0.134 A 
ATOM     76  F   UNL A   1      48.825  28.288  25.824  1.00  0.00    -0.206 F 
ATOM     77  C   UNL A   1      50.913  27.636  26.664  1.00  0.00     0.040 A 
ATOM     78  C   UNL A   1      51.193  27.258  29.027  1.00  0.00     0.040 A 
ATOM     79  F   UNL A   1      49.367  27.492  30.485  1.00  0.00    -0.206 F 
ATOM     80  C   UNL A   1      51.725  27.281  27.739  1.00  0.00     0.006 A 
ENDBRANCH  59  73
BRANCH  60  81
ATOM     81  C   UNL A   1      39.212  29.037  29.396  1.00  0.00     0.057 A 
ATOM     82  C   UNL A   1      38.311  29.510  28.438  1.00  0.00     0.134 A 
ATOM     83  C   UNL A   1      38.707  28.758  30.672  1.00  0.00     0.134 A 
ATOM     84  F   UNL A   1      38.741  29.825  27.209  1.00  0.00    -0.206 F 
ATOM     85  C   UNL A   1      36.965  29.729  28.743  1.00  0.00     0.040 A 
ATOM     86  C   UNL A   1      37.360  28.952  30.986  1.00  0.00     0.040 A 
ATOM     87  F   UNL A   1      39.518  28.323  31.644  1.00  0.00    -0.206 F 
ATOM     88  C   UNL A   1      36.487  29.449  30.022  1.00  0.00     0.006 A 
ENDBRANCH  60  81
BRANCH  72  89
ATOM     89  C   UNL A   1      44.604  33.407  29.787  1.00  0.00     0.057 A 
ATOM     90  C   UNL A   1      44.386  34.336  28.764  1.00  0.00     0.134 A 
ATOM     91  C   UNL A   1      44.868  33.907  31.070  1.00  0.00     0.134 A 
ATOM     92  F   UNL A   1      44.145  33.923  27.510  1.00  0.00    -0.206 F 
ATOM     93  C   UNL A   1      44.447  35.709  29.005  1.00  0.00     0.040 A 
ATOM     94  C   UNL A   1      44.897  35.276  31.330  1.00  0.00     0.040 A 
ATOM     95  F   UNL A   1      45.079  33.069  32.098  1.00  0.00    -0.206 F 
ATOM     96  C   UNL A   1      44.693  36.182  30.293  1.00  0.00     0.006 A 
ENDBRANCH  72  89
ENDBRANCH  46  47
ENDBRANCH  39  41
ENDBRANCH  38  39
ENDBRANCH  37  38
ENDBRANCH  36  37
ENDBRANCH  35  36
ENDBRANCH   1  35
TORSDOF 19
ENDMDL
MODEL 3
REMARK VINA RESULT:     -12.5      0.606      5.930
REMARK SMILES COc1cc(NC(=O)[C@@H]2[C@@H](C(=O)OCCOCCOC(=O)c3ccc(-c4c5nc(c(-c6c(F)cccc6F)c6ccc([nH]6)c(-c6c(F)cccc6F)c6nc(c(-c7c(F)cccc7F)c7ccc4[nH]7)C=C6)C=C5)cc3)[C@H]3C=C[C@@H]2C3)ccc1NC(=O)c1ccccc1
REMARK SMILES IDX 15 1 14 2 13 3 11 4 12 5 10 6 9 7 79 8 76 9 78 10 80 11
REMARK SMILES IDX 77 12 7 13 6 14 8 16 5 17 3 18 4 19 83 20 82 21 81 22 2 23
REMARK SMILES IDX 1 24 84 25 85 26 86 28 87 29 88 30 92 31 89 32 91 33 90 34
REMARK SMILES IDX 16 35 17 36 18 37 19 38 20 39 21 40 22 41 23 42 75 43 24 44
REMARK SMILES IDX 74 45 25 46 26 47 27 48 68 49 28 50 73 51 67 52 69 53 29 54
REMARK SMILES IDX 72 55 66 56 65 57 30 59 56 60 39 61 55 62 40 63 43 64 54 65
REMARK SMILES IDX 70 66 41 67 42 68 53 70 71 71 44 72 31 73 32 74 37 75 33 76
REMARK SMILES IDX 34 77 36 78 38 79 35 80 57 81 58 82 63 83 59 84 60 85 62 86
REMARK SMILES IDX 64 87 61 88 45 89 46 90 51 91 47 92 48 93 50 94 52 95 49 96
REMARK H PARENT 6 15 84 27 69 58 43 69
REMARK Flexibility Score: inf
ROOT
ATOM      1  C   UNL A   1      38.302  23.114  26.515  1.00  0.00     0.202 C 
ENDROOT
BRANCH   1   2
ATOM      2  C   UNL A   1      37.195  23.739  25.334  1.00  0.00     0.261 C 
BRANCH   2   3
ATOM      3  O   UNL A   1      35.890  24.460  25.775  1.00  0.00    -0.463 OA
BRANCH   3   4
ATOM      4  C   UNL A   1      34.827  24.783  24.958  1.00  0.00     0.310 C 
ATOM      5  O   UNL A   1      34.912  24.585  23.746  1.00  0.00    -0.252 OA
BRANCH   4   6
ATOM      6  C   UNL A   1      33.420  25.421  25.637  1.00  0.00     0.119 C 
ATOM      7  C   UNL A   1      31.848  25.472  25.116  1.00  0.00     0.100 C 
ATOM      8  C   UNL A   1      31.568  26.987  24.881  1.00  0.00     0.025 C 
ATOM      9  C   UNL A   1      33.676  26.990  25.610  1.00  0.00     0.027 C 
ATOM     10  C   UNL A   1      32.402  27.468  23.731  1.00  0.00    -0.027 C 
ATOM     11  C   UNL A   1      32.338  27.592  26.044  1.00  0.00     0.017 C 
ATOM     12  C   UNL A   1      33.667  27.483  24.166  1.00  0.00    -0.027 C 
BRANCH   7  13
ATOM     13  C   UNL A   1      30.643  25.047  26.050  1.00  0.00     0.228 C 
ATOM     14  N   UNL A   1      30.386  23.751  26.399  1.00  0.00    -0.326 N 
ATOM     15  H   UNL A   1      29.541  23.554  26.863  1.00  0.00     0.169 HD
ATOM     16  O   UNL A   1      29.837  25.867  26.501  1.00  0.00    -0.274 OA
BRANCH  14  17
ATOM     17  C   UNL A   1      31.243  22.712  26.137  1.00  0.00     0.045 A 
ATOM     18  C   UNL A   1      32.464  21.867  24.332  1.00  0.00     0.144 A 
ATOM     19  C   UNL A   1      31.256  22.207  24.860  1.00  0.00     0.074 A 
ATOM     20  C   UNL A   1      33.560  21.587  25.228  1.00  0.00     0.084 A 
ATOM     21  C   UNL A   1      33.436  21.982  26.564  1.00  0.00     0.032 A 
ATOM     22  C   UNL A   1      32.267  22.521  27.041  1.00  0.00     0.028 A 
BRANCH  18  23
ATOM     23  O   UNL A   1      32.481  21.855  22.964  1.00  0.00    -0.494 OA
ATOM     24  C   UNL A   1      32.884  22.934  22.042  1.00  0.00     0.278 C 
ENDBRANCH  18  23
BRANCH  20  25
ATOM     25  N   UNL A   1      34.822  21.040  24.888  1.00  0.00    -0.319 N 
ATOM     26  C   UNL A   1      35.296  19.732  24.908  1.00  0.00     0.255 C 
ATOM     27  H   UNL A   1      35.483  21.704  24.584  1.00  0.00     0.170 HD
ATOM     28  O   UNL A   1      36.515  19.567  25.001  1.00  0.00    -0.269 OA
BRANCH  26  29
ATOM     29  C   UNL A   1      34.413  18.528  24.727  1.00  0.00     0.040 A 
ATOM     30  C   UNL A   1      33.251  18.400  25.500  1.00  0.00     0.014 A 
ATOM     31  C   UNL A   1      34.754  17.467  23.881  1.00  0.00     0.014 A 
ATOM     32  C   UNL A   1      32.484  17.228  25.447  1.00  0.00     0.001 A 
ATOM     33  C   UNL A   1      33.964  16.318  23.792  1.00  0.00     0.001 A 
ATOM     34  C   UNL A   1      32.840  16.188  24.595  1.00  0.00     0.000 A 
ENDBRANCH  26  29
ENDBRANCH  20  25
ENDBRANCH  14  17
ENDBRANCH   7  13
ENDBRANCH   4   6
ENDBRANCH   3   4
ENDBRANCH   2   3
ENDBRANCH   1   2
BRANCH   1  35
ATOM     35  O   UNL A   1      39.323  22.157  26.126  1.00  0.00    -0.374 OA
BRANCH  35  36
ATOM     36  C   UNL A   1      39.201  20.767  25.682  1.00  0.00     0.202 C 
BRANCH  36  37
ATOM     37  C   UNL A   1      39.956  19.451  26.093  1.00  0.00     0.261 C 
BRANCH  37  38
ATOM     38  O   UNL A   1      41.151  19.211  25.381  1.00  0.00    -0.460 OA
BRANCH  38  39
ATOM     39  C   UNL A   1      42.229  19.226  26.188  1.00  0.00     0.338 C 
ATOM     40  O   UNL A   1      42.974  18.320  26.465  1.00  0.00    -0.246 OA
BRANCH  39  41
ATOM     41  C   UNL A   1      42.459  20.636  26.477  1.00  0.00     0.060 A 
ATOM     42  C   UNL A   1      42.723  21.474  25.394  1.00  0.00     0.016 A 
ATOM     43  C   UNL A   1      42.394  21.111  27.779  1.00  0.00     0.016 A 
ATOM     44  C   UNL A   1      43.005  22.816  25.618  1.00  0.00     0.010 A 
ATOM     45  C   UNL A   1      42.659  22.456  27.989  1.00  0.00     0.010 A 
ATOM     46  C   UNL A   1      43.004  23.316  26.922  1.00  0.00    -0.014 A 
BRANCH  46  47
ATOM     47  C   UNL A   1      43.515  24.673  27.248  1.00  0.00     0.031 A 
ATOM     48  C   UNL A   1      42.504  25.730  27.609  1.00  0.00     0.074 A 
ATOM     49  C   UNL A   1      44.820  25.001  27.179  1.00  0.00     0.049 A 
ATOM     50  N   UNL A   1      42.668  27.015  27.776  1.00  0.00    -0.248 NA
ATOM     51  C   UNL A   1      41.109  25.279  27.783  1.00  0.00     0.031 C 
ATOM     52  C   UNL A   1      45.926  24.091  26.896  1.00  0.00     0.029 A 
ATOM     53  N   UNL A   1      45.427  26.232  27.275  1.00  0.00    -0.354 N 
ATOM     54  C   UNL A   1      41.412  27.502  28.105  1.00  0.00     0.074 A 
ATOM     55  C   UNL A   1      40.468  26.425  27.924  1.00  0.00     0.031 C 
ATOM     56  C   UNL A   1      47.053  24.804  26.719  1.00  0.00     0.029 A 
ATOM     57  C   UNL A   1      46.750  26.216  26.896  1.00  0.00     0.049 A 
ATOM     58  H   UNL A   1      44.961  27.042  27.584  1.00  0.00     0.167 HD
ATOM     59  C   UNL A   1      41.082  28.700  28.637  1.00  0.00     0.037 A 
ATOM     60  C   UNL A   1      47.610  27.234  26.695  1.00  0.00     0.037 A 
ATOM     61  C   UNL A   1      42.027  29.752  28.873  1.00  0.00     0.049 A 
ATOM     62  C   UNL A   1      47.198  28.617  27.108  1.00  0.00     0.074 A 
ATOM     63  C   UNL A   1      41.826  30.967  29.499  1.00  0.00     0.029 A 
ATOM     64  N   UNL A   1      43.356  29.709  28.485  1.00  0.00    -0.354 N 
ATOM     65  N   UNL A   1      46.036  29.040  27.542  1.00  0.00    -0.248 NA
ATOM     66  C   UNL A   1      48.244  29.650  27.091  1.00  0.00     0.031 C 
ATOM     67  C   UNL A   1      43.025  31.684  29.439  1.00  0.00     0.029 A 
ATOM     68  C   UNL A   1      43.983  30.893  28.824  1.00  0.00     0.049 A 
ATOM     69  H   UNL A   1      43.790  28.947  28.033  1.00  0.00     0.167 HD
ATOM     70  C   UNL A   1      46.239  30.351  27.953  1.00  0.00     0.074 A 
ATOM     71  C   UNL A   1      47.622  30.668  27.667  1.00  0.00     0.031 C 
ATOM     72  C   UNL A   1      45.367  31.194  28.559  1.00  0.00     0.037 A 
BRANCH  59  73
ATOM     73  C   UNL A   1      39.654  28.878  29.055  1.00  0.00     0.057 A 
ATOM     74  C   UNL A   1      38.686  29.361  28.160  1.00  0.00     0.134 A 
ATOM     75  C   UNL A   1      39.246  28.602  30.362  1.00  0.00     0.134 A 
ATOM     76  F   UNL A   1      39.018  29.665  26.895  1.00  0.00    -0.206 F 
ATOM     77  C   UNL A   1      37.376  29.612  28.566  1.00  0.00     0.040 A 
ATOM     78  C   UNL A   1      37.929  28.815  30.770  1.00  0.00     0.040 A 
ATOM     79  F   UNL A   1      40.122  28.137  31.266  1.00  0.00    -0.206 F 
ATOM     80  C   UNL A   1      36.994  29.333  29.876  1.00  0.00     0.006 A 
ENDBRANCH  59  73
BRANCH  60  81
ATOM     81  C   UNL A   1      48.967  26.987  26.147  1.00  0.00     0.057 A 
ATOM     82  C   UNL A   1      49.214  27.024  24.771  1.00  0.00     0.134 A 
ATOM     83  C   UNL A   1      50.036  26.639  26.982  1.00  0.00     0.134 A 
ATOM     84  F   UNL A   1      48.222  27.320  23.919  1.00  0.00    -0.206 F 
ATOM     85  C   UNL A   1      50.464  26.697  24.242  1.00  0.00     0.040 A 
ATOM     86  C   UNL A   1      51.298  26.329  26.469  1.00  0.00     0.040 A 
ATOM     87  F   UNL A   1      49.866  26.561  28.307  1.00  0.00    -0.206 F 
ATOM     88  C   UNL A   1      51.511  26.347  25.093  1.00  0.00     0.006 A 
ENDBRANCH  60  81
BRANCH  72  89
ATOM     89  C   UNL A   1      45.897  32.509  29.046  1.00  0.00     0.057 A 
ATOM     90  C   UNL A   1      45.865  33.667  28.262  1.00  0.00     0.134 A 
ATOM     91  C   UNL A   1      46.405  32.622  30.348  1.00  0.00     0.134 A 
ATOM     92  F   UNL A   1      45.406  33.624  27.001  1.00  0.00    -0.206 F 
ATOM     93  C   UNL A   1      46.337  34.887  28.748  1.00  0.00     0.040 A 
ATOM     94  C   UNL A   1      46.847  33.842  30.857  1.00  0.00     0.040 A 
ATOM     95  F   UNL A   1      46.457  31.551  31.155  1.00  0.00    -0.206 F 
ATOM     96  C   UNL A   1      46.820  34.978  30.053  1.00  0.00     0.006 A 
ENDBRANCH  72  89
ENDBRANCH  46  47
ENDBRANCH  39  41
ENDBRANCH  38  39
ENDBRANCH  37  38
ENDBRANCH  36  37
ENDBRANCH  35  36
ENDBRANCH   1  35
TORSDOF 19
ENDMDL
