MODEL 1
REMARK VINA RESULT:     -11.7      0.000      0.000
REMARK SMILES O=C(CSc1ccc(Cl)cc1)Nc1cccc(C(=O)Nc2ccc(C(=O)OCCOCCOC(=O)c3ccc(-c4c5nc(c(-c6c(F)cccc6F)c6ccc([nH]6)c(-c6c(F)cccc6F)c6nc(c(-c7c(F)cccc7F)c7ccc4[nH]7)C=C6)C=C5)cc3)cc2)c1
REMARK SMILES IDX 28 1 27 2 25 3 26 4 24 5 21 6 22 7 91 8 23 9 90 10 20 11
REMARK SMILES IDX 18 12 19 13 17 15 13 16 14 17 92 18 15 19 16 20 12 21 1 22
REMARK SMILES IDX 2 23 3 25 4 26 5 27 6 28 11 29 7 30 10 31 8 32 9 33 29 34
REMARK SMILES IDX 30 35 31 36 32 37 33 38 34 39 35 40 36 41 37 42 89 43 38 44
REMARK SMILES IDX 88 45 39 46 40 47 41 48 82 49 42 50 87 51 81 52 83 53 43 54
REMARK SMILES IDX 86 55 80 56 79 57 44 59 70 60 53 61 69 62 54 63 57 64 68 65
REMARK SMILES IDX 84 66 55 67 56 68 67 70 85 71 58 72 45 73 46 74 51 75 47 76
REMARK SMILES IDX 48 77 50 78 52 79 49 80 71 81 72 82 77 83 73 84 74 85 76 86
REMARK SMILES IDX 78 87 75 88 59 89 60 90 65 91 61 92 62 93 64 94 66 95 63 96
REMARK H PARENT 20 14 12 24 83 58 57 69
REMARK Flexibility Score: inf
ROOT
ATOM      1  C   UNL A   1      35.567  21.669  25.725  1.00  0.00     0.261 C 
ENDROOT
BRANCH   1   2
ATOM      2  O   UNL A   1      34.451  22.524  25.430  1.00  0.00    -0.460 OA
BRANCH   2   3
ATOM      3  C   UNL A   1      33.532  22.595  26.429  1.00  0.00     0.338 C 
ATOM      4  O   UNL A   1      33.715  22.257  27.590  1.00  0.00    -0.246 OA
BRANCH   3   5
ATOM      5  C   UNL A   1      32.258  23.206  25.971  1.00  0.00     0.060 A 
ATOM      6  C   UNL A   1      30.278  24.747  24.769  1.00  0.00     0.041 A 
ATOM      7  C   UNL A   1      30.872  23.711  24.051  1.00  0.00     0.027 A 
ATOM      8  C   UNL A   1      30.511  24.866  26.144  1.00  0.00     0.027 A 
ATOM      9  C   UNL A   1      31.886  22.965  24.643  1.00  0.00     0.018 A 
ATOM     10  C   UNL A   1      31.507  24.091  26.753  1.00  0.00     0.018 A 
BRANCH   6  11
ATOM     11  N   UNL A   1      29.574  25.700  24.020  1.00  0.00    -0.322 N 
ATOM     12  C   UNL A   1      29.938  26.962  23.589  1.00  0.00     0.255 C 
ATOM     13  O   UNL A   1      29.086  27.646  23.018  1.00  0.00    -0.269 OA
ATOM     14  H   UNL A   1      28.665  25.424  23.758  1.00  0.00     0.170 HD
BRANCH  12  15
ATOM     15  C   UNL A   1      31.324  27.513  23.708  1.00  0.00     0.042 A 
ATOM     16  C   UNL A   1      32.992  28.957  24.745  1.00  0.00     0.041 A 
ATOM     17  C   UNL A   1      33.885  28.651  23.715  1.00  0.00     0.026 A 
ATOM     18  C   UNL A   1      31.757  28.301  24.782  1.00  0.00     0.040 A 
ATOM     19  C   UNL A   1      33.526  27.741  22.719  1.00  0.00     0.003 A 
ATOM     20  C   UNL A   1      32.242  27.197  22.700  1.00  0.00     0.014 A 
BRANCH  16  21
ATOM     21  N   UNL A   1      33.336  30.007  25.622  1.00  0.00    -0.325 N 
ATOM     22  O   UNL A   1      34.480  28.889  27.305  1.00  0.00    -0.274 OA
ATOM     23  C   UNL A   1      33.898  29.883  26.880  1.00  0.00     0.234 C 
ATOM     24  H   UNL A   1      33.156  30.923  25.307  1.00  0.00     0.169 HD
BRANCH  23  25
ATOM     25  C   UNL A   1      33.651  31.069  27.798  1.00  0.00     0.175 C 
BRANCH  25  26
ATOM     26  S   UNL A   1      35.055  32.212  27.890  1.00  0.00    -0.116 SA
BRANCH  26  27
ATOM     27  C   UNL A   1      34.443  33.530  28.931  1.00  0.00     0.008 A 
ATOM     28  C   UNL A   1      34.813  33.473  30.282  1.00  0.00     0.016 A 
ATOM     29  C   UNL A   1      33.622  34.579  28.504  1.00  0.00     0.016 A 
ATOM     30  C   UNL A   1      34.329  34.412  31.196  1.00  0.00     0.021 A 
ATOM     31  C   UNL A   1      33.122  35.511  29.420  1.00  0.00     0.021 A 
ATOM     32  C   UNL A   1      33.470  35.418  30.764  1.00  0.00     0.041 A 
ATOM     33  Cl  UNL A   1      32.837  36.548  31.894  1.00  0.00    -0.084 Cl
ENDBRANCH  26  27
ENDBRANCH  25  26
ENDBRANCH  23  25
ENDBRANCH  16  21
ENDBRANCH  12  15
ENDBRANCH   6  11
ENDBRANCH   3   5
ENDBRANCH   2   3
ENDBRANCH   1   2
BRANCH   1  34
ATOM     34  C   UNL A   1      36.928  22.364  25.616  1.00  0.00     0.202 C 
BRANCH  34  35
ATOM     35  O   UNL A   1      38.058  21.602  25.210  1.00  0.00    -0.374 OA
BRANCH  35  36
ATOM     36  C   UNL A   1      37.912  20.201  25.005  1.00  0.00     0.202 C 
BRANCH  36  37
ATOM     37  C   UNL A   1      39.058  19.267  25.412  1.00  0.00     0.261 C 
BRANCH  37  38
ATOM     38  O   UNL A   1      39.896  19.780  26.461  1.00  0.00    -0.460 OA
BRANCH  38  39
ATOM     39  C   UNL A   1      41.225  19.649  26.221  1.00  0.00     0.338 C 
ATOM     40  O   UNL A   1      41.804  18.680  25.754  1.00  0.00    -0.246 OA
BRANCH  39  41
ATOM     41  C   UNL A   1      41.925  20.920  26.468  1.00  0.00     0.060 A 
ATOM     42  C   UNL A   1      42.112  21.311  27.801  1.00  0.00     0.016 A 
ATOM     43  C   UNL A   1      42.263  21.777  25.420  1.00  0.00     0.016 A 
ATOM     44  C   UNL A   1      42.590  22.586  28.092  1.00  0.00     0.010 A 
ATOM     45  C   UNL A   1      42.732  23.062  25.715  1.00  0.00     0.010 A 
ATOM     46  C   UNL A   1      42.860  23.484  27.050  1.00  0.00    -0.014 A 
BRANCH  46  47
ATOM     47  C   UNL A   1      43.125  24.907  27.366  1.00  0.00     0.031 A 
ATOM     48  C   UNL A   1      44.483  25.482  27.070  1.00  0.00     0.074 A 
ATOM     49  C   UNL A   1      42.158  25.688  27.880  1.00  0.00     0.049 A 
ATOM     50  N   UNL A   1      44.939  26.688  27.287  1.00  0.00    -0.248 NA
ATOM     51  C   UNL A   1      45.457  24.573  26.444  1.00  0.00     0.031 C 
ATOM     52  C   UNL A   1      40.792  25.259  28.170  1.00  0.00     0.029 A 
ATOM     53  N   UNL A   1      42.187  27.008  28.250  1.00  0.00    -0.354 N 
ATOM     54  C   UNL A   1      46.249  26.686  26.826  1.00  0.00     0.074 A 
ATOM     55  C   UNL A   1      46.526  25.350  26.343  1.00  0.00     0.031 C 
ATOM     56  C   UNL A   1      40.113  26.298  28.687  1.00  0.00     0.029 A 
ATOM     57  C   UNL A   1      41.004  27.452  28.786  1.00  0.00     0.049 A 
ATOM     58  H   UNL A   1      42.979  27.581  28.143  1.00  0.00     0.167 HD
ATOM     59  C   UNL A   1      47.138  27.707  26.795  1.00  0.00     0.037 A 
ATOM     60  C   UNL A   1      40.685  28.651  29.312  1.00  0.00     0.037 A 
ATOM     61  C   UNL A   1      46.866  29.035  27.277  1.00  0.00     0.049 A 
ATOM     62  C   UNL A   1      41.714  29.748  29.335  1.00  0.00     0.074 A 
ATOM     63  C   UNL A   1      47.701  30.140  27.283  1.00  0.00     0.029 A 
ATOM     64  N   UNL A   1      45.666  29.437  27.843  1.00  0.00    -0.354 N 
ATOM     65  N   UNL A   1      42.943  29.740  28.880  1.00  0.00    -0.248 NA
ATOM     66  C   UNL A   1      41.308  31.024  29.942  1.00  0.00     0.031 C 
ATOM     67  C   UNL A   1      47.017  31.200  27.888  1.00  0.00     0.029 A 
ATOM     68  C   UNL A   1      45.745  30.766  28.221  1.00  0.00     0.049 A 
ATOM     69  H   UNL A   1      44.875  28.862  27.959  1.00  0.00     0.167 HD
ATOM     70  C   UNL A   1      43.448  31.010  29.123  1.00  0.00     0.074 A 
ATOM     71  C   UNL A   1      42.389  31.769  29.756  1.00  0.00     0.031 C 
ATOM     72  C   UNL A   1      44.679  31.508  28.845  1.00  0.00     0.037 A 
BRANCH  59  73
ATOM     73  C   UNL A   1      48.499  27.417  26.237  1.00  0.00     0.057 A 
ATOM     74  C   UNL A   1      49.570  27.048  27.061  1.00  0.00     0.134 A 
ATOM     75  C   UNL A   1      48.734  27.480  24.858  1.00  0.00     0.134 A 
ATOM     76  F   UNL A   1      49.412  26.984  28.391  1.00  0.00    -0.206 F 
ATOM     77  C   UNL A   1      50.832  26.768  26.535  1.00  0.00     0.040 A 
ATOM     78  C   UNL A   1      49.986  27.183  24.317  1.00  0.00     0.040 A 
ATOM     79  F   UNL A   1      47.750  27.825  24.014  1.00  0.00    -0.206 F 
ATOM     80  C   UNL A   1      51.041  26.831  25.157  1.00  0.00     0.006 A 
ENDBRANCH  59  73
BRANCH  60  81
ATOM     81  C   UNL A   1      39.331  28.876  29.876  1.00  0.00     0.057 A 
ATOM     82  C   UNL A   1      38.299  29.403  29.092  1.00  0.00     0.134 A 
ATOM     83  C   UNL A   1      39.045  28.588  31.215  1.00  0.00     0.134 A 
ATOM     84  F   UNL A   1      38.520  29.720  27.808  1.00  0.00    -0.206 F 
ATOM     85  C   UNL A   1      37.033  29.653  29.626  1.00  0.00     0.040 A 
ATOM     86  C   UNL A   1      37.779  28.812  31.757  1.00  0.00     0.040 A 
ATOM     87  F   UNL A   1      39.992  28.079  32.017  1.00  0.00    -0.206 F 
ATOM     88  C   UNL A   1      36.770  29.352  30.962  1.00  0.00     0.006 A 
ENDBRANCH  60  81
BRANCH  72  89
ATOM     89  C   UNL A   1      44.935  32.943  29.195  1.00  0.00     0.057 A 
ATOM     90  C   UNL A   1      45.479  33.316  30.429  1.00  0.00     0.134 A 
ATOM     91  C   UNL A   1      44.669  33.960  28.268  1.00  0.00     0.134 A 
ATOM     92  F   UNL A   1      45.743  32.389  31.363  1.00  0.00    -0.206 F 
ATOM     93  C   UNL A   1      45.735  34.653  30.739  1.00  0.00     0.040 A 
ATOM     94  C   UNL A   1      44.941  35.298  28.557  1.00  0.00     0.040 A 
ATOM     95  F   UNL A   1      44.155  33.668  27.064  1.00  0.00    -0.206 F 
ATOM     96  C   UNL A   1      45.471  35.648  29.798  1.00  0.00     0.006 A 
ENDBRANCH  72  89
ENDBRANCH  46  47
ENDBRANCH  39  41
ENDBRANCH  38  39
ENDBRANCH  37  38
ENDBRANCH  36  37
ENDBRANCH  35  36
ENDBRANCH  34  35
ENDBRANCH   1  34
TORSDOF 20
ENDMDL
MODEL 2
REMARK VINA RESULT:     -11.5      1.388      2.101
REMARK SMILES O=C(CSc1ccc(Cl)cc1)Nc1cccc(C(=O)Nc2ccc(C(=O)OCCOCCOC(=O)c3ccc(-c4c5nc(c(-c6c(F)cccc6F)c6ccc([nH]6)c(-c6c(F)cccc6F)c6nc(c(-c7c(F)cccc7F)c7ccc4[nH]7)C=C6)C=C5)cc3)cc2)c1
REMARK SMILES IDX 28 1 27 2 25 3 26 4 24 5 21 6 22 7 91 8 23 9 90 10 20 11
REMARK SMILES IDX 18 12 19 13 17 15 13 16 14 17 92 18 15 19 16 20 12 21 1 22
REMARK SMILES IDX 2 23 3 25 4 26 5 27 6 28 11 29 7 30 10 31 8 32 9 33 29 34
REMARK SMILES IDX 30 35 31 36 32 37 33 38 34 39 35 40 36 41 37 42 89 43 38 44
REMARK SMILES IDX 88 45 39 46 40 47 41 48 82 49 42 50 87 51 81 52 83 53 43 54
REMARK SMILES IDX 86 55 80 56 79 57 44 59 70 60 53 61 69 62 54 63 57 64 68 65
REMARK SMILES IDX 84 66 55 67 56 68 67 70 85 71 58 72 45 73 46 74 51 75 47 76
REMARK SMILES IDX 48 77 50 78 52 79 49 80 71 81 72 82 77 83 73 84 74 85 76 86
REMARK SMILES IDX 78 87 75 88 59 89 60 90 65 91 61 92 62 93 64 94 66 95 63 96
REMARK H PARENT 20 14 12 24 83 58 57 69
REMARK Flexibility Score: inf
ROOT
ATOM      1  C   UNL A   1      36.671  22.277  25.670  1.00  0.00     0.261 C 
ENDROOT
BRANCH   1   2
ATOM      2  O   UNL A   1      35.570  21.384  25.904  1.00  0.00    -0.460 OA
BRANCH   2   3
ATOM      3  C   UNL A   1      34.499  21.974  26.496  1.00  0.00     0.338 C 
ATOM      4  O   UNL A   1      34.243  21.950  27.692  1.00  0.00    -0.246 OA
BRANCH   3   5
ATOM      5  C   UNL A   1      33.673  22.731  25.521  1.00  0.00     0.060 A 
ATOM      6  C   UNL A   1      32.628  24.015  23.284  1.00  0.00     0.041 A 
ATOM      7  C   UNL A   1      32.503  22.632  23.403  1.00  0.00     0.027 A 
ATOM      8  C   UNL A   1      33.069  24.772  24.377  1.00  0.00     0.027 A 
ATOM      9  C   UNL A   1      33.057  21.990  24.507  1.00  0.00     0.018 A 
ATOM     10  C   UNL A   1      33.595  24.129  25.504  1.00  0.00     0.018 A 
BRANCH   6  11
ATOM     11  N   UNL A   1      32.422  24.551  22.006  1.00  0.00    -0.322 N 
ATOM     12  C   UNL A   1      31.993  25.805  21.609  1.00  0.00     0.255 C 
ATOM     13  O   UNL A   1      31.800  25.995  20.406  1.00  0.00    -0.269 OA
ATOM     14  H   UNL A   1      32.612  23.930  21.266  1.00  0.00     0.170 HD
BRANCH  12  15
ATOM     15  C   UNL A   1      31.825  26.960  22.544  1.00  0.00     0.042 A 
ATOM     16  C   UNL A   1      32.686  28.597  24.131  1.00  0.00     0.041 A 
ATOM     17  C   UNL A   1      31.378  28.977  24.438  1.00  0.00     0.026 A 
ATOM     18  C   UNL A   1      32.895  27.664  23.110  1.00  0.00     0.040 A 
ATOM     19  C   UNL A   1      30.300  28.397  23.766  1.00  0.00     0.003 A 
ATOM     20  C   UNL A   1      30.521  27.373  22.844  1.00  0.00     0.014 A 
BRANCH  16  21
ATOM     21  N   UNL A   1      33.723  29.083  24.957  1.00  0.00    -0.325 N 
ATOM     22  O   UNL A   1      33.437  27.833  26.892  1.00  0.00    -0.274 OA
ATOM     23  C   UNL A   1      33.920  28.790  26.294  1.00  0.00     0.234 C 
ATOM     24  H   UNL A   1      34.373  29.693  24.538  1.00  0.00     0.169 HD
BRANCH  23  25
ATOM     25  C   UNL A   1      34.725  29.833  27.053  1.00  0.00     0.175 C 
BRANCH  25  26
ATOM     26  S   UNL A   1      33.734  31.248  27.602  1.00  0.00    -0.116 SA
BRANCH  26  27
ATOM     27  C   UNL A   1      34.876  32.179  28.614  1.00  0.00     0.008 A 
ATOM     28  C   UNL A   1      36.105  32.502  28.022  1.00  0.00     0.016 A 
ATOM     29  C   UNL A   1      34.640  32.582  29.933  1.00  0.00     0.016 A 
ATOM     30  C   UNL A   1      37.097  33.164  28.750  1.00  0.00     0.021 A 
ATOM     31  C   UNL A   1      35.638  33.230  30.669  1.00  0.00     0.021 A 
ATOM     32  C   UNL A   1      36.865  33.510  30.078  1.00  0.00     0.041 A 
ATOM     33  Cl  UNL A   1      38.100  34.284  30.990  1.00  0.00    -0.084 Cl
ENDBRANCH  26  27
ENDBRANCH  25  26
ENDBRANCH  23  25
ENDBRANCH  16  21
ENDBRANCH  12  15
ENDBRANCH   6  11
ENDBRANCH   3   5
ENDBRANCH   2   3
ENDBRANCH   1   2
BRANCH   1  34
ATOM     34  C   UNL A   1      37.994  21.567  25.366  1.00  0.00     0.202 C 
BRANCH  34  35
ATOM     35  O   UNL A   1      37.959  20.263  24.799  1.00  0.00    -0.374 OA
BRANCH  35  36
ATOM     36  C   UNL A   1      38.789  19.245  25.350  1.00  0.00     0.202 C 
BRANCH  36  37
ATOM     37  C   UNL A   1      40.090  19.648  26.055  1.00  0.00     0.261 C 
BRANCH  37  38
ATOM     38  O   UNL A   1      41.231  18.853  25.692  1.00  0.00    -0.460 OA
BRANCH  38  39
ATOM     39  C   UNL A   1      42.419  19.379  26.082  1.00  0.00     0.338 C 
ATOM     40  O   UNL A   1      43.518  18.848  26.035  1.00  0.00    -0.246 OA
BRANCH  39  41
ATOM     41  C   UNL A   1      42.260  20.791  26.466  1.00  0.00     0.060 A 
ATOM     42  C   UNL A   1      42.140  21.736  25.437  1.00  0.00     0.016 A 
ATOM     43  C   UNL A   1      42.371  21.197  27.796  1.00  0.00     0.016 A 
ATOM     44  C   UNL A   1      42.183  23.096  25.733  1.00  0.00     0.010 A 
ATOM     45  C   UNL A   1      42.426  22.564  28.090  1.00  0.00     0.010 A 
ATOM     46  C   UNL A   1      42.372  23.517  27.057  1.00  0.00    -0.014 A 
BRANCH  46  47
ATOM     47  C   UNL A   1      42.666  24.942  27.333  1.00  0.00     0.031 A 
ATOM     48  C   UNL A   1      43.983  25.517  26.889  1.00  0.00     0.074 A 
ATOM     49  C   UNL A   1      41.757  25.725  27.940  1.00  0.00     0.049 A 
ATOM     50  N   UNL A   1      44.456  26.726  27.048  1.00  0.00    -0.248 NA
ATOM     51  C   UNL A   1      44.888  24.606  26.170  1.00  0.00     0.031 C 
ATOM     52  C   UNL A   1      40.430  25.296  28.377  1.00  0.00     0.029 A 
ATOM     53  N   UNL A   1      41.821  27.048  28.296  1.00  0.00    -0.354 N 
ATOM     54  C   UNL A   1      45.710  26.722  26.450  1.00  0.00     0.074 A 
ATOM     55  C   UNL A   1      45.937  25.383  25.950  1.00  0.00     0.031 C 
ATOM     56  C   UNL A   1      39.807  26.337  28.956  1.00  0.00     0.029 A 
ATOM     57  C   UNL A   1      40.701  27.494  28.951  1.00  0.00     0.049 A 
ATOM     58  H   UNL A   1      42.596  27.622  28.101  1.00  0.00     0.167 HD
ATOM     59  C   UNL A   1      46.588  27.745  26.318  1.00  0.00     0.037 A 
ATOM     60  C   UNL A   1      40.437  28.696  29.499  1.00  0.00     0.037 A 
ATOM     61  C   UNL A   1      46.366  29.076  26.816  1.00  0.00     0.049 A 
ATOM     62  C   UNL A   1      41.459  29.796  29.405  1.00  0.00     0.074 A 
ATOM     63  C   UNL A   1      47.193  30.182  26.725  1.00  0.00     0.029 A 
ATOM     64  N   UNL A   1      45.232  29.480  27.504  1.00  0.00    -0.354 N 
ATOM     65  N   UNL A   1      42.633  29.786  28.822  1.00  0.00    -0.248 NA
ATOM     66  C   UNL A   1      41.117  31.075  30.043  1.00  0.00     0.031 C 
ATOM     67  C   UNL A   1      46.575  31.246  27.392  1.00  0.00     0.029 A 
ATOM     68  C   UNL A   1      45.347  30.812  27.861  1.00  0.00     0.049 A 
ATOM     69  H   UNL A   1      44.459  28.905  27.707  1.00  0.00     0.167 HD
ATOM     70  C   UNL A   1      43.158  31.059  29.001  1.00  0.00     0.074 A 
ATOM     71  C   UNL A   1      42.170  31.820  29.737  1.00  0.00     0.031 C 
ATOM     72  C   UNL A   1      44.351  31.557  28.589  1.00  0.00     0.037 A 
BRANCH  59  73
ATOM     73  C   UNL A   1      47.883  27.454  25.620  1.00  0.00     0.057 A 
ATOM     74  C   UNL A   1      49.023  27.045  26.324  1.00  0.00     0.134 A 
ATOM     75  C   UNL A   1      47.982  27.554  24.227  1.00  0.00     0.134 A 
ATOM     76  F   UNL A   1      48.995  26.944  27.661  1.00  0.00    -0.206 F 
ATOM     77  C   UNL A   1      50.223  26.764  25.667  1.00  0.00     0.040 A 
ATOM     78  C   UNL A   1      49.170  27.256  23.557  1.00  0.00     0.040 A 
ATOM     79  F   UNL A   1      46.926  27.937  23.494  1.00  0.00    -0.206 F 
ATOM     80  C   UNL A   1      50.296  26.865  24.279  1.00  0.00     0.006 A 
ENDBRANCH  59  73
BRANCH  60  81
ATOM     81  C   UNL A   1      39.150  28.922  30.202  1.00  0.00     0.057 A 
ATOM     82  C   UNL A   1      39.012  28.647  31.567  1.00  0.00     0.134 A 
ATOM     83  C   UNL A   1      38.024  29.399  29.521  1.00  0.00     0.134 A 
ATOM     84  F   UNL A   1      40.050  28.166  32.267  1.00  0.00    -0.206 F 
ATOM     85  C   UNL A   1      37.794  28.822  32.227  1.00  0.00     0.040 A 
ATOM     86  C   UNL A   1      36.806  29.599  30.172  1.00  0.00     0.040 A 
ATOM     87  F   UNL A   1      38.093  29.684  28.212  1.00  0.00    -0.206 F 
ATOM     88  C   UNL A   1      36.688  29.304  31.529  1.00  0.00     0.006 A 
ENDBRANCH  60  81
BRANCH  72  89
ATOM     89  C   UNL A   1      44.639  32.995  28.899  1.00  0.00     0.057 A 
ATOM     90  C   UNL A   1      44.311  34.022  28.007  1.00  0.00     0.134 A 
ATOM     91  C   UNL A   1      45.218  33.357  30.122  1.00  0.00     0.134 A 
ATOM     92  F   UNL A   1      43.766  33.738  26.814  1.00  0.00    -0.206 F 
ATOM     93  C   UNL A   1      44.563  35.361  28.313  1.00  0.00     0.040 A 
ATOM     94  C   UNL A   1      45.456  34.693  30.449  1.00  0.00     0.040 A 
ATOM     95  F   UNL A   1      45.549  32.421  31.024  1.00  0.00    -0.206 F 
ATOM     96  C   UNL A   1      45.132  35.699  29.541  1.00  0.00     0.006 A 
ENDBRANCH  72  89
ENDBRANCH  46  47
ENDBRANCH  39  41
ENDBRANCH  38  39
ENDBRANCH  37  38
ENDBRANCH  36  37
ENDBRANCH  35  36
ENDBRANCH  34  35
ENDBRANCH   1  34
TORSDOF 20
ENDMDL
MODEL 3
REMARK VINA RESULT:     -11.5      1.001      5.907
REMARK SMILES O=C(CSc1ccc(Cl)cc1)Nc1cccc(C(=O)Nc2ccc(C(=O)OCCOCCOC(=O)c3ccc(-c4c5nc(c(-c6c(F)cccc6F)c6ccc([nH]6)c(-c6c(F)cccc6F)c6nc(c(-c7c(F)cccc7F)c7ccc4[nH]7)C=C6)C=C5)cc3)cc2)c1
REMARK SMILES IDX 28 1 27 2 25 3 26 4 24 5 21 6 22 7 91 8 23 9 90 10 20 11
REMARK SMILES IDX 18 12 19 13 17 15 13 16 14 17 92 18 15 19 16 20 12 21 1 22
REMARK SMILES IDX 2 23 3 25 4 26 5 27 6 28 11 29 7 30 10 31 8 32 9 33 29 34
REMARK SMILES IDX 30 35 31 36 32 37 33 38 34 39 35 40 36 41 37 42 89 43 38 44
REMARK SMILES IDX 88 45 39 46 40 47 41 48 82 49 42 50 87 51 81 52 83 53 43 54
REMARK SMILES IDX 86 55 80 56 79 57 44 59 70 60 53 61 69 62 54 63 57 64 68 65
REMARK SMILES IDX 84 66 55 67 56 68 67 70 85 71 58 72 45 73 46 74 51 75 47 76
REMARK SMILES IDX 48 77 50 78 52 79 49 80 71 81 72 82 77 83 73 84 74 85 76 86
REMARK SMILES IDX 78 87 75 88 59 89 60 90 65 91 61 92 62 93 64 94 66 95 63 96
REMARK H PARENT 20 14 12 24 83 58 57 69
REMARK Flexibility Score: inf
ROOT
ATOM      1  C   UNL A   1      35.470  21.481  25.576  1.00  0.00     0.261 C 
ENDROOT
BRANCH   1   2
ATOM      2  O   UNL A   1      34.296  22.219  25.202  1.00  0.00    -0.460 OA
BRANCH   2   3
ATOM      3  C   UNL A   1      33.539  22.621  26.257  1.00  0.00     0.338 C 
ATOM      4  O   UNL A   1      33.865  22.555  27.434  1.00  0.00    -0.246 OA
BRANCH   3   5
ATOM      5  C   UNL A   1      32.255  23.228  25.821  1.00  0.00     0.060 A 
ATOM      6  C   UNL A   1      30.251  24.784  24.678  1.00  0.00     0.041 A 
ATOM      7  C   UNL A   1      30.864  23.788  23.920  1.00  0.00     0.027 A 
ATOM      8  C   UNL A   1      30.480  24.850  26.058  1.00  0.00     0.027 A 
ATOM      9  C   UNL A   1      31.889  23.035  24.484  1.00  0.00     0.018 A 
ATOM     10  C   UNL A   1      31.488  24.068  26.636  1.00  0.00     0.018 A 
BRANCH   6  11
ATOM     11  N   UNL A   1      29.532  25.754  23.968  1.00  0.00    -0.322 N 
ATOM     12  C   UNL A   1      29.887  27.029  23.565  1.00  0.00     0.255 C 
ATOM     13  O   UNL A   1      29.024  27.726  23.027  1.00  0.00    -0.269 OA
ATOM     14  H   UNL A   1      28.620  25.483  23.713  1.00  0.00     0.170 HD
BRANCH  12  15
ATOM     15  C   UNL A   1      31.274  27.581  23.676  1.00  0.00     0.042 A 
ATOM     16  C   UNL A   1      32.955  29.001  24.722  1.00  0.00     0.041 A 
ATOM     17  C   UNL A   1      33.832  28.724  23.671  1.00  0.00     0.026 A 
ATOM     18  C   UNL A   1      31.722  28.341  24.762  1.00  0.00     0.040 A 
ATOM     19  C   UNL A   1      33.459  27.840  22.657  1.00  0.00     0.003 A 
ATOM     20  C   UNL A   1      32.175  27.292  22.645  1.00  0.00     0.014 A 
BRANCH  16  21
ATOM     21  N   UNL A   1      33.310  30.030  25.621  1.00  0.00    -0.325 N 
ATOM     22  O   UNL A   1      34.618  28.900  27.170  1.00  0.00    -0.274 OA
ATOM     23  C   UNL A   1      33.963  29.881  26.830  1.00  0.00     0.234 C 
ATOM     24  H   UNL A   1      33.067  30.949  25.360  1.00  0.00     0.169 HD
BRANCH  23  25
ATOM     25  C   UNL A   1      33.727  31.015  27.815  1.00  0.00     0.175 C 
BRANCH  25  26
ATOM     26  S   UNL A   1      35.110  32.184  27.912  1.00  0.00    -0.116 SA
BRANCH  26  27
ATOM     27  C   UNL A   1      35.011  32.796  29.588  1.00  0.00     0.008 A 
ATOM     28  C   UNL A   1      35.425  31.912  30.595  1.00  0.00     0.016 A 
ATOM     29  C   UNL A   1      34.542  34.060  29.959  1.00  0.00     0.016 A 
ATOM     30  C   UNL A   1      35.321  32.263  31.942  1.00  0.00     0.021 A 
ATOM     31  C   UNL A   1      34.420  34.409  31.309  1.00  0.00     0.021 A 
ATOM     32  C   UNL A   1      34.801  33.505  32.295  1.00  0.00     0.041 A 
ATOM     33  Cl  UNL A   1      34.629  33.923  33.954  1.00  0.00    -0.084 Cl
ENDBRANCH  26  27
ENDBRANCH  25  26
ENDBRANCH  23  25
ENDBRANCH  16  21
ENDBRANCH  12  15
ENDBRANCH   6  11
ENDBRANCH   3   5
ENDBRANCH   2   3
ENDBRANCH   1   2
BRANCH   1  34
ATOM     34  C   UNL A   1      36.781  22.238  25.341  1.00  0.00     0.202 C 
BRANCH  34  35
ATOM     35  O   UNL A   1      37.947  21.503  24.992  1.00  0.00    -0.374 OA
BRANCH  35  36
ATOM     36  C   UNL A   1      37.884  20.081  24.953  1.00  0.00     0.202 C 
BRANCH  36  37
ATOM     37  C   UNL A   1      39.122  19.270  25.356  1.00  0.00     0.261 C 
BRANCH  37  38
ATOM     38  O   UNL A   1      39.977  19.928  26.305  1.00  0.00    -0.460 OA
BRANCH  38  39
ATOM     39  C   UNL A   1      41.286  19.590  26.198  1.00  0.00     0.338 C 
ATOM     40  O   UNL A   1      41.750  18.536  25.790  1.00  0.00    -0.246 OA
BRANCH  39  41
ATOM     41  C   UNL A   1      42.147  20.741  26.513  1.00  0.00     0.060 A 
ATOM     42  C   UNL A   1      42.192  21.174  27.845  1.00  0.00     0.016 A 
ATOM     43  C   UNL A   1      42.784  21.467  25.506  1.00  0.00     0.016 A 
ATOM     44  C   UNL A   1      42.832  22.368  28.167  1.00  0.00     0.010 A 
ATOM     45  C   UNL A   1      43.415  22.673  25.830  1.00  0.00     0.010 A 
ATOM     46  C   UNL A   1      43.408  23.147  27.154  1.00  0.00    -0.014 A 
BRANCH  46  47
ATOM     47  C   UNL A   1      43.863  24.522  27.463  1.00  0.00     0.031 A 
ATOM     48  C   UNL A   1      42.849  25.553  27.878  1.00  0.00     0.074 A 
ATOM     49  C   UNL A   1      45.167  24.843  27.407  1.00  0.00     0.049 A 
ATOM     50  N   UNL A   1      43.020  26.816  28.169  1.00  0.00    -0.248 NA
ATOM     51  C   UNL A   1      41.453  25.095  27.980  1.00  0.00     0.031 C 
ATOM     52  C   UNL A   1      46.249  23.923  27.059  1.00  0.00     0.029 A 
ATOM     53  N   UNL A   1      45.799  26.038  27.639  1.00  0.00    -0.354 N 
ATOM     54  C   UNL A   1      41.761  27.305  28.489  1.00  0.00     0.074 A 
ATOM     55  C   UNL A   1      40.828  26.210  28.328  1.00  0.00     0.031 C 
ATOM     56  C   UNL A   1      47.414  24.593  27.090  1.00  0.00     0.029 A 
ATOM     57  C   UNL A   1      47.155  25.991  27.433  1.00  0.00     0.049 A 
ATOM     58  H   UNL A   1      45.325  26.852  27.925  1.00  0.00     0.167 HD
ATOM     59  C   UNL A   1      41.412  28.550  28.891  1.00  0.00     0.037 A 
ATOM     60  C   UNL A   1      48.078  26.969  27.499  1.00  0.00     0.037 A 
ATOM     61  C   UNL A   1      42.337  29.641  29.049  1.00  0.00     0.049 A 
ATOM     62  C   UNL A   1      47.655  28.363  27.876  1.00  0.00     0.074 A 
ATOM     63  C   UNL A   1      42.081  30.938  29.458  1.00  0.00     0.029 A 
ATOM     64  N   UNL A   1      43.698  29.562  28.799  1.00  0.00    -0.354 N 
ATOM     65  N   UNL A   1      46.464  28.810  28.193  1.00  0.00    -0.248 NA
ATOM     66  C   UNL A   1      48.708  29.389  27.908  1.00  0.00     0.031 C 
ATOM     67  C   UNL A   1      43.282  31.654  29.420  1.00  0.00     0.029 A 
ATOM     68  C   UNL A   1      44.292  30.791  29.025  1.00  0.00     0.049 A 
ATOM     69  H   UNL A   1      44.172  28.751  28.504  1.00  0.00     0.167 HD
ATOM     70  C   UNL A   1      46.627  30.158  28.485  1.00  0.00     0.074 A 
ATOM     71  C   UNL A   1      48.035  30.455  28.318  1.00  0.00     0.031 C 
ATOM     72  C   UNL A   1      45.696  31.069  28.860  1.00  0.00     0.037 A 
BRANCH  59  73
ATOM     73  C   UNL A   1      39.961  28.802  29.170  1.00  0.00     0.057 A 
ATOM     74  C   UNL A   1      39.081  29.231  28.168  1.00  0.00     0.134 A 
ATOM     75  C   UNL A   1      39.431  28.584  30.449  1.00  0.00     0.134 A 
ATOM     76  F   UNL A   1      39.531  29.470  26.927  1.00  0.00    -0.206 F 
ATOM     77  C   UNL A   1      37.728  29.453  28.432  1.00  0.00     0.040 A 
ATOM     78  C   UNL A   1      38.076  28.783  30.719  1.00  0.00     0.040 A 
ATOM     79  F   UNL A   1      40.219  28.171  31.451  1.00  0.00    -0.206 F 
ATOM     80  C   UNL A   1      37.222  29.224  29.710  1.00  0.00     0.006 A 
ENDBRANCH  59  73
BRANCH  60  81
ATOM     81  C   UNL A   1      49.497  26.672  27.186  1.00  0.00     0.057 A 
ATOM     82  C   UNL A   1      49.999  26.818  25.888  1.00  0.00     0.134 A 
ATOM     83  C   UNL A   1      50.378  26.215  28.173  1.00  0.00     0.134 A 
ATOM     84  F   UNL A   1      49.195  27.230  24.897  1.00  0.00    -0.206 F 
ATOM     85  C   UNL A   1      51.323  26.503  25.579  1.00  0.00     0.040 A 
ATOM     86  C   UNL A   1      51.710  25.917  27.883  1.00  0.00     0.040 A 
ATOM     87  F   UNL A   1      49.957  26.056  29.437  1.00  0.00    -0.206 F 
ATOM     88  C   UNL A   1      52.184  26.056  26.580  1.00  0.00     0.006 A 
ENDBRANCH  60  81
BRANCH  72  89
ATOM     89  C   UNL A   1      46.172  32.462  29.145  1.00  0.00     0.057 A 
ATOM     90  C   UNL A   1      46.201  33.449  28.152  1.00  0.00     0.134 A 
ATOM     91  C   UNL A   1      46.571  32.828  30.437  1.00  0.00     0.134 A 
ATOM     92  F   UNL A   1      45.844  33.156  26.893  1.00  0.00    -0.206 F 
ATOM     93  C   UNL A   1      46.626  34.749  28.431  1.00  0.00     0.040 A 
ATOM     94  C   UNL A   1      46.977  34.130  30.732  1.00  0.00     0.040 A 
ATOM     95  F   UNL A   1      46.559  31.931  31.434  1.00  0.00    -0.206 F 
ATOM     96  C   UNL A   1      47.009  35.094  29.727  1.00  0.00     0.006 A 
ENDBRANCH  72  89
ENDBRANCH  46  47
ENDBRANCH  39  41
ENDBRANCH  38  39
ENDBRANCH  37  38
ENDBRANCH  36  37
ENDBRANCH  35  36
ENDBRANCH  34  35
ENDBRANCH   1  34
TORSDOF 20
ENDMDL
