MODEL 1
REMARK VINA RESULT:     -11.1      0.000      0.000
REMARK SMILES CC1=Nc2nc(NC(=O)CCC(=O)OCCOCCOC(=O)c3ccc(-c4c5nc(c(-c6c(F)cccc6F)c6ccc([nH]6)c(-c6c(F)cccc6F)c6nc(c(-c7c(F)cccc7F)c7ccc4[nH]7)C=C6)C=C5)cc3)nn2[C@@H](c2ccc(Cl)cc2)C1
REMARK SMILES IDX 16 1 15 2 14 3 12 4 13 5 11 6 10 7 8 8 7 9 9 11 6 12 1 13
REMARK SMILES IDX 2 14 3 15 87 16 4 17 79 18 5 19 78 20 77 21 80 22 81 23
REMARK SMILES IDX 86 24 82 25 85 26 83 27 84 28 17 29 18 30 19 31 20 32 21 33
REMARK SMILES IDX 22 34 23 35 24 36 76 37 25 38 75 39 26 40 27 41 28 42 69 43
REMARK SMILES IDX 29 44 74 45 68 46 70 47 30 48 73 49 67 50 66 51 31 53 57 54
REMARK SMILES IDX 40 55 56 56 41 57 44 58 55 59 71 60 42 61 43 62 54 64 72 65
REMARK SMILES IDX 45 66 32 67 33 68 38 69 34 70 35 71 37 72 39 73 36 74 58 75
REMARK SMILES IDX 59 76 64 77 60 78 61 79 63 80 65 81 62 82 46 83 47 84 52 85
REMARK SMILES IDX 48 86 49 87 51 88 53 89 50 90
REMARK H PARENT 7 10 70 52 44 63
REMARK Flexibility Score: inf
ROOT
ATOM      1  C   UNL A   1      39.564  22.210  26.797  1.00  0.00     0.202 C 
ENDROOT
BRANCH   1   2
ATOM      2  C   UNL A   1      38.667  21.629  25.708  1.00  0.00     0.261 C 
BRANCH   2   3
ATOM      3  O   UNL A   1      37.247  21.810  25.959  1.00  0.00    -0.463 OA
BRANCH   3   4
ATOM      4  C   UNL A   1      36.567  22.615  25.109  1.00  0.00     0.306 C 
ATOM      5  O   UNL A   1      37.083  23.156  24.136  1.00  0.00    -0.252 OA
BRANCH   4   6
ATOM      6  C   UNL A   1      35.131  22.909  25.509  1.00  0.00     0.132 C 
BRANCH   6   7
ATOM      7  C   UNL A   1      34.671  22.991  26.959  1.00  0.00     0.112 C 
BRANCH   7   8
ATOM      8  C   UNL A   1      33.714  21.918  27.357  1.00  0.00     0.227 C 
ATOM      9  N   UNL A   1      32.394  22.096  27.171  1.00  0.00    -0.293 N 
ATOM     10  H   UNL A   1      31.840  21.344  27.484  1.00  0.00     0.173 HD
ATOM     11  O   UNL A   1      34.120  20.852  27.828  1.00  0.00    -0.275 OA
BRANCH   9  12
ATOM     12  C   UNL A   1      31.676  23.128  26.629  1.00  0.00     0.250 A 
ATOM     13  C   UNL A   1      31.443  26.833  21.332  1.00  0.00     0.062 C 
ATOM     14  C   UNL A   1      31.153  26.351  22.731  1.00  0.00     0.021 C 
ATOM     15  N   UNL A   1      31.213  25.073  22.874  1.00  0.00    -0.221 NA
ATOM     16  C   UNL A   1      30.756  27.393  23.780  1.00  0.00     0.083 C 
ATOM     17  C   UNL A   1      31.083  24.587  24.105  1.00  0.00     0.250 A 
ATOM     18  C   UNL A   1      30.858  27.111  25.309  1.00  0.00     0.147 C 
ATOM     19  N   UNL A   1      31.533  23.113  24.723  1.00  0.00    -0.174 NA
ATOM     20  N   UNL A   1      30.885  25.675  25.576  1.00  0.00    -0.220 N 
ATOM     21  N   UNL A   1      31.281  24.735  27.120  1.00  0.00    -0.130 NA
BRANCH  18  22
ATOM     22  C   UNL A   1      31.937  27.997  25.937  1.00  0.00    -0.023 A 
ATOM     23  C   UNL A   1      31.737  29.171  26.669  1.00  0.00     0.007 A 
ATOM     24  C   UNL A   1      33.266  27.533  25.866  1.00  0.00     0.007 A 
ATOM     25  C   UNL A   1      32.783  29.856  27.301  1.00  0.00     0.021 A 
ATOM     26  C   UNL A   1      34.318  28.204  26.505  1.00  0.00     0.021 A 
ATOM     27  C   UNL A   1      34.073  29.369  27.218  1.00  0.00     0.041 A 
ATOM     28  Cl  UNL A   1      35.355  30.200  28.001  1.00  0.00    -0.084 Cl
ENDBRANCH  18  22
ENDBRANCH   9  12
ENDBRANCH   7   8
ENDBRANCH   6   7
ENDBRANCH   4   6
ENDBRANCH   3   4
ENDBRANCH   2   3
ENDBRANCH   1   2
BRANCH   1  29
ATOM     29  O   UNL A   1      40.560  21.275  27.177  1.00  0.00    -0.374 OA
BRANCH  29  30
ATOM     30  C   UNL A   1      41.702  21.186  26.109  1.00  0.00     0.202 C 
BRANCH  30  31
ATOM     31  C   UNL A   1      43.663  22.340  26.196  1.00  0.00     0.261 C 
BRANCH  31  32
ATOM     32  O   UNL A   1      43.822  23.810  26.625  1.00  0.00    -0.460 OA
BRANCH  32  33
ATOM     33  C   UNL A   1      43.047  24.696  25.936  1.00  0.00     0.338 C 
ATOM     34  O   UNL A   1      43.290  25.167  24.838  1.00  0.00    -0.246 OA
BRANCH  33  35
ATOM     35  C   UNL A   1      41.843  24.945  26.769  1.00  0.00     0.060 A 
ATOM     36  C   UNL A   1      40.862  25.694  26.165  1.00  0.00     0.016 A 
ATOM     37  C   UNL A   1      42.035  24.973  28.154  1.00  0.00     0.016 A 
ATOM     38  C   UNL A   1      40.689  26.910  26.757  1.00  0.00     0.010 A 
ATOM     39  C   UNL A   1      41.676  26.089  28.819  1.00  0.00     0.010 A 
ATOM     40  C   UNL A   1      41.280  27.133  28.019  1.00  0.00    -0.014 A 
BRANCH  40  41
ATOM     41  C   UNL A   1      41.200  28.416  28.661  1.00  0.00     0.031 A 
ATOM     42  C   UNL A   1      42.435  29.106  28.242  1.00  0.00     0.074 A 
ATOM     43  C   UNL A   1      40.160  28.825  29.428  1.00  0.00     0.049 A 
ATOM     44  N   UNL A   1      43.546  29.033  28.897  1.00  0.00    -0.248 NA
ATOM     45  C   UNL A   1      42.631  29.460  26.819  1.00  0.00     0.031 C 
ATOM     46  C   UNL A   1      38.861  28.186  29.707  1.00  0.00     0.029 A 
ATOM     47  N   UNL A   1      40.063  29.983  30.156  1.00  0.00    -0.354 N 
ATOM     48  C   UNL A   1      44.470  29.690  28.107  1.00  0.00     0.074 A 
ATOM     49  C   UNL A   1      43.958  29.620  26.772  1.00  0.00     0.031 C 
ATOM     50  C   UNL A   1      38.025  29.075  30.310  1.00  0.00     0.029 A 
ATOM     51  C   UNL A   1      38.761  30.286  30.609  1.00  0.00     0.049 A 
ATOM     52  H   UNL A   1      40.840  30.556  30.348  1.00  0.00     0.167 HD
ATOM     53  C   UNL A   1      45.258  30.614  28.717  1.00  0.00     0.037 A 
ATOM     54  C   UNL A   1      38.393  31.457  31.215  1.00  0.00     0.037 A 
ATOM     55  C   UNL A   1      45.252  30.369  30.150  1.00  0.00     0.049 A 
ATOM     56  C   UNL A   1      39.651  32.053  31.730  1.00  0.00     0.074 A 
ATOM     57  C   UNL A   1      45.703  29.362  30.980  1.00  0.00     0.029 A 
ATOM     58  N   UNL A   1      44.198  30.974  30.792  1.00  0.00    -0.354 N 
ATOM     59  N   UNL A   1      40.351  31.503  32.684  1.00  0.00    -0.248 NA
ATOM     60  C   UNL A   1      40.387  32.909  30.815  1.00  0.00     0.031 C 
ATOM     61  C   UNL A   1      44.730  29.246  32.022  1.00  0.00     0.029 A 
ATOM     62  C   UNL A   1      43.788  30.267  31.886  1.00  0.00     0.049 A 
ATOM     63  H   UNL A   1      43.787  31.818  30.498  1.00  0.00     0.167 HD
ATOM     64  C   UNL A   1      41.656  31.543  32.215  1.00  0.00     0.074 A 
ATOM     65  C   UNL A   1      41.627  32.501  31.101  1.00  0.00     0.031 C 
ATOM     66  C   UNL A   1      42.539  30.554  32.558  1.00  0.00     0.037 A 
BRANCH  53  67
ATOM     67  C   UNL A   1      45.461  32.007  28.152  1.00  0.00     0.057 A 
ATOM     68  C   UNL A   1      46.782  32.451  27.975  1.00  0.00     0.134 A 
ATOM     69  C   UNL A   1      44.480  33.021  28.054  1.00  0.00     0.134 A 
ATOM     70  F   UNL A   1      47.811  31.594  28.058  1.00  0.00    -0.206 F 
ATOM     71  C   UNL A   1      47.102  33.800  27.787  1.00  0.00     0.040 A 
ATOM     72  C   UNL A   1      44.786  34.363  27.826  1.00  0.00     0.040 A 
ATOM     73  F   UNL A   1      43.178  32.811  28.259  1.00  0.00    -0.206 F 
ATOM     74  C   UNL A   1      46.103  34.763  27.718  1.00  0.00     0.006 A 
ENDBRANCH  53  67
BRANCH  54  75
ATOM     75  C   UNL A   1      37.170  32.295  31.057  1.00  0.00     0.057 A 
ATOM     76  C   UNL A   1      36.853  32.965  29.858  1.00  0.00     0.134 A 
ATOM     77  C   UNL A   1      36.115  32.175  31.974  1.00  0.00     0.134 A 
ATOM     78  F   UNL A   1      37.763  33.079  28.877  1.00  0.00    -0.206 F 
ATOM     79  C   UNL A   1      35.569  33.479  29.593  1.00  0.00     0.040 A 
ATOM     80  C   UNL A   1      34.829  32.673  31.719  1.00  0.00     0.040 A 
ATOM     81  F   UNL A   1      36.276  31.476  33.106  1.00  0.00    -0.206 F 
ATOM     82  C   UNL A   1      34.548  33.323  30.523  1.00  0.00     0.006 A 
ENDBRANCH  54  75
BRANCH  66  83
ATOM     83  C   UNL A   1      42.153  29.640  33.692  1.00  0.00     0.057 A 
ATOM     84  C   UNL A   1      41.555  28.376  33.562  1.00  0.00     0.134 A 
ATOM     85  C   UNL A   1      42.524  30.032  34.981  1.00  0.00     0.134 A 
ATOM     86  F   UNL A   1      41.243  27.875  32.360  1.00  0.00    -0.206 F 
ATOM     87  C   UNL A   1      41.305  27.562  34.678  1.00  0.00     0.040 A 
ATOM     88  C   UNL A   1      42.308  29.222  36.093  1.00  0.00     0.040 A 
ATOM     89  F   UNL A   1      43.151  31.203  35.170  1.00  0.00    -0.206 F 
ATOM     90  C   UNL A   1      41.684  27.987  35.947  1.00  0.00     0.006 A 
ENDBRANCH  66  83
ENDBRANCH  40  41
ENDBRANCH  33  35
ENDBRANCH  32  33
ENDBRANCH  31  32
ENDBRANCH  30  31
ENDBRANCH  29  30
ENDBRANCH   1  29
TORSDOF 18
ENDMDL
MODEL 2
REMARK VINA RESULT:     -10.7      3.607      8.261
REMARK SMILES CC1=Nc2nc(NC(=O)CCC(=O)OCCOCCOC(=O)c3ccc(-c4c5nc(c(-c6c(F)cccc6F)c6ccc([nH]6)c(-c6c(F)cccc6F)c6nc(c(-c7c(F)cccc7F)c7ccc4[nH]7)C=C6)C=C5)cc3)nn2[C@@H](c2ccc(Cl)cc2)C1
REMARK SMILES IDX 16 1 15 2 14 3 12 4 13 5 11 6 10 7 8 8 7 9 9 11 6 12 1 13
REMARK SMILES IDX 2 14 3 15 87 16 4 17 79 18 5 19 78 20 77 21 80 22 81 23
REMARK SMILES IDX 86 24 82 25 85 26 83 27 84 28 17 29 18 30 19 31 20 32 21 33
REMARK SMILES IDX 22 34 23 35 24 36 76 37 25 38 75 39 26 40 27 41 28 42 69 43
REMARK SMILES IDX 29 44 74 45 68 46 70 47 30 48 73 49 67 50 66 51 31 53 57 54
REMARK SMILES IDX 40 55 56 56 41 57 44 58 55 59 71 60 42 61 43 62 54 64 72 65
REMARK SMILES IDX 45 66 32 67 33 68 38 69 34 70 35 71 37 72 39 73 36 74 58 75
REMARK SMILES IDX 59 76 64 77 60 78 61 79 63 80 65 81 62 82 46 83 47 84 52 85
REMARK SMILES IDX 48 86 49 87 51 88 53 89 50 90
REMARK H PARENT 7 10 70 52 44 63
REMARK Flexibility Score: inf
ROOT
ATOM      1  C   UNL A   1      34.983  32.436  28.100  1.00  0.00     0.202 C 
ENDROOT
BRANCH   1   2
ATOM      2  C   UNL A   1      34.695  30.956  27.865  1.00  0.00     0.261 C 
BRANCH   2   3
ATOM      3  O   UNL A   1      33.662  30.711  26.872  1.00  0.00    -0.463 OA
BRANCH   3   4
ATOM      4  C   UNL A   1      33.298  29.424  26.664  1.00  0.00     0.306 C 
ATOM      5  O   UNL A   1      33.337  28.564  27.537  1.00  0.00    -0.252 OA
BRANCH   4   6
ATOM      6  C   UNL A   1      32.947  29.078  25.226  1.00  0.00     0.132 C 
BRANCH   6   7
ATOM      7  C   UNL A   1      33.833  28.214  24.338  1.00  0.00     0.112 C 
BRANCH   7   8
ATOM      8  C   UNL A   1      33.670  28.474  22.878  1.00  0.00     0.227 C 
ATOM      9  N   UNL A   1      33.228  27.494  22.069  1.00  0.00    -0.293 N 
ATOM     10  H   UNL A   1      33.173  27.752  21.120  1.00  0.00     0.173 HD
ATOM     11  O   UNL A   1      33.905  29.589  22.405  1.00  0.00    -0.275 OA
BRANCH   9  12
ATOM     12  C   UNL A   1      32.840  26.205  22.319  1.00  0.00     0.250 A 
ATOM     13  C   UNL A   1      30.237  22.569  26.993  1.00  0.00     0.062 C 
ATOM     14  C   UNL A   1      30.928  22.924  25.700  1.00  0.00     0.021 C 
ATOM     15  N   UNL A   1      30.566  24.052  25.198  1.00  0.00    -0.221 NA
ATOM     16  C   UNL A   1      31.900  21.903  25.103  1.00  0.00     0.083 C 
ATOM     17  C   UNL A   1      31.218  24.482  24.122  1.00  0.00     0.250 A 
ATOM     18  C   UNL A   1      32.979  22.300  24.052  1.00  0.00     0.147 C 
ATOM     19  N   UNL A   1      31.342  26.013  23.490  1.00  0.00    -0.174 NA
ATOM     20  N   UNL A   1      32.628  23.554  23.390  1.00  0.00    -0.220 N 
ATOM     21  N   UNL A   1      33.621  24.665  22.293  1.00  0.00    -0.130 NA
BRANCH  18  22
ATOM     22  C   UNL A   1      34.380  22.151  24.654  1.00  0.00    -0.023 A 
ATOM     23  C   UNL A   1      35.151  20.987  24.703  1.00  0.00     0.007 A 
ATOM     24  C   UNL A   1      35.007  23.327  25.112  1.00  0.00     0.007 A 
ATOM     25  C   UNL A   1      36.471  20.974  25.175  1.00  0.00     0.021 A 
ATOM     26  C   UNL A   1      36.329  23.327  25.575  1.00  0.00     0.021 A 
ATOM     27  C   UNL A   1      37.058  22.146  25.610  1.00  0.00     0.041 A 
ATOM     28  Cl  UNL A   1      38.677  22.135  26.178  1.00  0.00    -0.084 Cl
ENDBRANCH  18  22
ENDBRANCH   9  12
ENDBRANCH   7   8
ENDBRANCH   6   7
ENDBRANCH   4   6
ENDBRANCH   3   4
ENDBRANCH   2   3
ENDBRANCH   1   2
BRANCH   1  29
ATOM     29  O   UNL A   1      33.775  33.171  28.208  1.00  0.00    -0.374 OA
BRANCH  29  30
ATOM     30  C   UNL A   1      34.040  34.658  28.622  1.00  0.00     0.202 C 
BRANCH  30  31
ATOM     31  C   UNL A   1      33.474  35.573  30.630  1.00  0.00     0.261 C 
BRANCH  31  32
ATOM     32  O   UNL A   1      34.285  35.451  31.933  1.00  0.00    -0.460 OA
BRANCH  32  33
ATOM     33  C   UNL A   1      34.355  34.192  32.450  1.00  0.00     0.338 C 
ATOM     34  O   UNL A   1      33.587  33.273  32.223  1.00  0.00    -0.246 OA
BRANCH  33  35
ATOM     35  C   UNL A   1      35.563  34.153  33.313  1.00  0.00     0.060 A 
ATOM     36  C   UNL A   1      36.614  34.925  32.880  1.00  0.00     0.016 A 
ATOM     37  C   UNL A   1      35.771  32.980  34.047  1.00  0.00     0.016 A 
ATOM     38  C   UNL A   1      37.692  34.179  32.502  1.00  0.00     0.010 A 
ATOM     39  C   UNL A   1      36.929  32.316  33.862  1.00  0.00     0.010 A 
ATOM     40  C   UNL A   1      37.722  32.814  32.856  1.00  0.00    -0.014 A 
BRANCH  40  41
ATOM     41  C   UNL A   1      38.792  31.956  32.423  1.00  0.00     0.031 A 
ATOM     42  C   UNL A   1      39.584  31.724  33.645  1.00  0.00     0.074 A 
ATOM     43  C   UNL A   1      38.930  31.485  31.160  1.00  0.00     0.049 A 
ATOM     44  N   UNL A   1      40.563  32.482  34.010  1.00  0.00    -0.248 NA
ATOM     45  C   UNL A   1      38.991  30.970  34.772  1.00  0.00     0.031 C 
ATOM     46  C   UNL A   1      38.043  31.596  29.989  1.00  0.00     0.029 A 
ATOM     47  N   UNL A   1      39.975  30.757  30.650  1.00  0.00    -0.354 N 
ATOM     48  C   UNL A   1      40.935  32.010  35.255  1.00  0.00     0.074 A 
ATOM     49  C   UNL A   1      39.776  31.357  35.784  1.00  0.00     0.031 C 
ATOM     50  C   UNL A   1      38.455  30.746  29.009  1.00  0.00     0.029 A 
ATOM     51  C   UNL A   1      39.715  30.149  29.403  1.00  0.00     0.049 A 
ATOM     52  H   UNL A   1      40.837  30.668  31.116  1.00  0.00     0.167 HD
ATOM     53  C   UNL A   1      42.259  31.791  35.463  1.00  0.00     0.037 A 
ATOM     54  C   UNL A   1      40.541  29.255  28.778  1.00  0.00     0.037 A 
ATOM     55  C   UNL A   1      43.023  32.535  34.474  1.00  0.00     0.049 A 
ATOM     56  C   UNL A   1      41.883  29.463  29.378  1.00  0.00     0.074 A 
ATOM     57  C   UNL A   1      43.236  33.870  34.193  1.00  0.00     0.029 A 
ATOM     58  N   UNL A   1      43.184  31.848  33.295  1.00  0.00    -0.354 N 
ATOM     59  N   UNL A   1      42.562  30.565  29.217  1.00  0.00    -0.248 NA
ATOM     60  C   UNL A   1      42.182  28.702  30.580  1.00  0.00     0.031 C 
ATOM     61  C   UNL A   1      43.295  33.966  32.767  1.00  0.00     0.029 A 
ATOM     62  C   UNL A   1      43.258  32.684  32.218  1.00  0.00     0.049 A 
ATOM     63  H   UNL A   1      43.240  30.867  33.234  1.00  0.00     0.167 HD
ATOM     64  C   UNL A   1      43.003  30.883  30.494  1.00  0.00     0.074 A 
ATOM     65  C   UNL A   1      42.815  29.652  31.274  1.00  0.00     0.031 C 
ATOM     66  C   UNL A   1      43.156  32.194  30.860  1.00  0.00     0.037 A 
BRANCH  53  67
ATOM     67  C   UNL A   1      42.784  30.501  36.062  1.00  0.00     0.057 A 
ATOM     68  C   UNL A   1      43.784  30.598  37.044  1.00  0.00     0.134 A 
ATOM     69  C   UNL A   1      42.593  29.199  35.543  1.00  0.00     0.134 A 
ATOM     70  F   UNL A   1      44.078  31.779  37.609  1.00  0.00    -0.206 F 
ATOM     71  C   UNL A   1      44.573  29.506  37.424  1.00  0.00     0.040 A 
ATOM     72  C   UNL A   1      43.348  28.096  35.944  1.00  0.00     0.040 A 
ATOM     73  F   UNL A   1      41.740  28.915  34.556  1.00  0.00    -0.206 F 
ATOM     74  C   UNL A   1      44.360  28.250  36.869  1.00  0.00     0.006 A 
ENDBRANCH  53  67
BRANCH  54  75
ATOM     75  C   UNL A   1      40.235  28.002  28.029  1.00  0.00     0.057 A 
ATOM     76  C   UNL A   1      40.784  27.717  26.762  1.00  0.00     0.134 A 
ATOM     77  C   UNL A   1      39.665  26.908  28.696  1.00  0.00     0.134 A 
ATOM     78  F   UNL A   1      41.418  28.670  26.061  1.00  0.00    -0.206 F 
ATOM     79  C   UNL A   1      40.766  26.425  26.202  1.00  0.00     0.040 A 
ATOM     80  C   UNL A   1      39.649  25.615  28.155  1.00  0.00     0.040 A 
ATOM     81  F   UNL A   1      39.197  27.043  29.945  1.00  0.00    -0.206 F 
ATOM     82  C   UNL A   1      40.206  25.365  26.906  1.00  0.00     0.006 A 
ENDBRANCH  54  75
BRANCH  66  83
ATOM     83  C   UNL A   1      43.153  33.226  29.764  1.00  0.00     0.057 A 
ATOM     84  C   UNL A   1      42.078  34.064  29.425  1.00  0.00     0.134 A 
ATOM     85  C   UNL A   1      44.361  33.452  29.098  1.00  0.00     0.134 A 
ATOM     86  F   UNL A   1      40.906  33.984  30.068  1.00  0.00    -0.206 F 
ATOM     87  C   UNL A   1      42.198  35.054  28.438  1.00  0.00     0.040 A 
ATOM     88  C   UNL A   1      44.503  34.451  28.137  1.00  0.00     0.040 A 
ATOM     89  F   UNL A   1      45.445  32.726  29.413  1.00  0.00    -0.206 F 
ATOM     90  C   UNL A   1      43.416  35.248  27.792  1.00  0.00     0.006 A 
ENDBRANCH  66  83
ENDBRANCH  40  41
ENDBRANCH  33  35
ENDBRANCH  32  33
ENDBRANCH  31  32
ENDBRANCH  30  31
ENDBRANCH  29  30
ENDBRANCH   1  29
TORSDOF 18
ENDMDL
MODEL 3
REMARK VINA RESULT:     -10.3      3.542      7.614
REMARK SMILES CC1=Nc2nc(NC(=O)CCC(=O)OCCOCCOC(=O)c3ccc(-c4c5nc(c(-c6c(F)cccc6F)c6ccc([nH]6)c(-c6c(F)cccc6F)c6nc(c(-c7c(F)cccc7F)c7ccc4[nH]7)C=C6)C=C5)cc3)nn2[C@@H](c2ccc(Cl)cc2)C1
REMARK SMILES IDX 16 1 15 2 14 3 12 4 13 5 11 6 10 7 8 8 7 9 9 11 6 12 1 13
REMARK SMILES IDX 2 14 3 15 87 16 4 17 79 18 5 19 78 20 77 21 80 22 81 23
REMARK SMILES IDX 86 24 82 25 85 26 83 27 84 28 17 29 18 30 19 31 20 32 21 33
REMARK SMILES IDX 22 34 23 35 24 36 76 37 25 38 75 39 26 40 27 41 28 42 69 43
REMARK SMILES IDX 29 44 74 45 68 46 70 47 30 48 73 49 67 50 66 51 31 53 57 54
REMARK SMILES IDX 40 55 56 56 41 57 44 58 55 59 71 60 42 61 43 62 54 64 72 65
REMARK SMILES IDX 45 66 32 67 33 68 38 69 34 70 35 71 37 72 39 73 36 74 58 75
REMARK SMILES IDX 59 76 64 77 60 78 61 79 63 80 65 81 62 82 46 83 47 84 52 85
REMARK SMILES IDX 48 86 49 87 51 88 53 89 50 90
REMARK H PARENT 7 10 70 52 44 63
REMARK Flexibility Score: inf
ROOT
ATOM      1  C   UNL A   1      34.516  23.882  24.253  1.00  0.00     0.202 C 
ENDROOT
BRANCH   1   2
ATOM      2  C   UNL A   1      33.737  25.048  24.854  1.00  0.00     0.261 C 
BRANCH   2   3
ATOM      3  O   UNL A   1      32.722  25.593  23.967  1.00  0.00    -0.463 OA
BRANCH   3   4
ATOM      4  C   UNL A   1      32.946  26.827  23.458  1.00  0.00     0.306 C 
ATOM      5  O   UNL A   1      33.077  27.047  22.258  1.00  0.00    -0.252 OA
BRANCH   4   6
ATOM      6  C   UNL A   1      33.146  27.924  24.490  1.00  0.00     0.132 C 
BRANCH   6   7
ATOM      7  C   UNL A   1      32.010  28.495  25.329  1.00  0.00     0.112 C 
BRANCH   7   8
ATOM      8  C   UNL A   1      32.036  28.072  26.759  1.00  0.00     0.227 C 
ATOM      9  N   UNL A   1      32.838  28.708  27.631  1.00  0.00    -0.293 N 
ATOM     10  H   UNL A   1      32.804  28.346  28.546  1.00  0.00     0.173 HD
ATOM     11  O   UNL A   1      31.306  27.163  27.162  1.00  0.00    -0.275 OA
BRANCH   9  12
ATOM     12  C   UNL A   1      33.694  29.767  27.484  1.00  0.00     0.250 A 
ATOM     13  C   UNL A   1      39.161  32.179  29.960  1.00  0.00     0.062 C 
ATOM     14  C   UNL A   1      37.886  32.108  29.159  1.00  0.00     0.021 C 
ATOM     15  N   UNL A   1      37.590  30.928  28.739  1.00  0.00    -0.221 NA
ATOM     16  C   UNL A   1      37.142  33.416  28.877  1.00  0.00     0.083 C 
ATOM     17  C   UNL A   1      36.420  30.771  28.125  1.00  0.00     0.250 A 
ATOM     18  C   UNL A   1      35.641  33.445  28.462  1.00  0.00     0.147 C 
ATOM     19  N   UNL A   1      35.530  29.394  27.860  1.00  0.00    -0.174 NA
ATOM     20  N   UNL A   1      35.222  32.153  27.924  1.00  0.00    -0.220 N 
ATOM     21  N   UNL A   1      33.538  31.485  27.546  1.00  0.00    -0.130 NA
BRANCH  18  22
ATOM     22  C   UNL A   1      34.801  34.089  29.569  1.00  0.00    -0.023 A 
ATOM     23  C   UNL A   1      35.017  33.995  30.946  1.00  0.00     0.007 A 
ATOM     24  C   UNL A   1      33.764  34.954  29.164  1.00  0.00     0.007 A 
ATOM     25  C   UNL A   1      34.259  34.713  31.881  1.00  0.00     0.021 A 
ATOM     26  C   UNL A   1      33.008  35.685  30.089  1.00  0.00     0.021 A 
ATOM     27  C   UNL A   1      33.255  35.558  31.450  1.00  0.00     0.041 A 
ATOM     28  Cl  UNL A   1      32.331  36.446  32.592  1.00  0.00    -0.084 Cl
ENDBRANCH  18  22
ENDBRANCH   9  12
ENDBRANCH   7   8
ENDBRANCH   6   7
ENDBRANCH   4   6
ENDBRANCH   3   4
ENDBRANCH   2   3
ENDBRANCH   1   2
BRANCH   1  29
ATOM     29  O   UNL A   1      35.816  23.806  24.814  1.00  0.00    -0.374 OA
BRANCH  29  30
ATOM     30  C   UNL A   1      36.246  22.323  25.075  1.00  0.00     0.202 C 
BRANCH  30  31
ATOM     31  C   UNL A   1      38.363  21.646  25.571  1.00  0.00     0.261 C 
BRANCH  31  32
ATOM     32  O   UNL A   1      39.240  22.200  26.707  1.00  0.00    -0.460 OA
BRANCH  32  33
ATOM     33  C   UNL A   1      40.462  22.663  26.317  1.00  0.00     0.338 C 
ATOM     34  O   UNL A   1      41.390  21.992  25.901  1.00  0.00    -0.246 OA
BRANCH  33  35
ATOM     35  C   UNL A   1      40.425  24.140  26.467  1.00  0.00     0.060 A 
ATOM     36  C   UNL A   1      41.448  24.815  25.846  1.00  0.00     0.016 A 
ATOM     37  C   UNL A   1      39.821  24.637  27.628  1.00  0.00     0.016 A 
ATOM     38  C   UNL A   1      42.288  25.427  26.730  1.00  0.00     0.010 A 
ATOM     39  C   UNL A   1      40.555  25.429  28.433  1.00  0.00     0.010 A 
ATOM     40  C   UNL A   1      41.876  25.546  28.074  1.00  0.00    -0.014 A 
BRANCH  40  41
ATOM     41  C   UNL A   1      42.745  26.110  29.071  1.00  0.00     0.031 A 
ATOM     42  C   UNL A   1      42.514  27.564  28.969  1.00  0.00     0.074 A 
ATOM     43  C   UNL A   1      43.532  25.382  29.900  1.00  0.00     0.049 A 
ATOM     44  N   UNL A   1      43.189  28.335  28.184  1.00  0.00    -0.248 NA
ATOM     45  C   UNL A   1      41.193  28.124  29.328  1.00  0.00     0.031 C 
ATOM     46  C   UNL A   1      43.632  23.925  30.098  1.00  0.00     0.029 A 
ATOM     47  N   UNL A   1      44.461  25.849  30.795  1.00  0.00    -0.354 N 
ATOM     48  C   UNL A   1      42.575  29.570  28.284  1.00  0.00     0.074 A 
ATOM     49  C   UNL A   1      41.231  29.302  28.696  1.00  0.00     0.031 C 
ATOM     50  C   UNL A   1      44.357  23.655  31.218  1.00  0.00     0.029 A 
ATOM     51  C   UNL A   1      44.909  24.893  31.731  1.00  0.00     0.049 A 
ATOM     52  H   UNL A   1      44.789  26.777  30.783  1.00  0.00     0.167 HD
ATOM     53  C   UNL A   1      43.380  30.644  28.494  1.00  0.00     0.037 A 
ATOM     54  C   UNL A   1      45.709  25.164  32.808  1.00  0.00     0.037 A 
ATOM     55  C   UNL A   1      44.740  30.299  28.112  1.00  0.00     0.049 A 
ATOM     56  C   UNL A   1      46.378  26.451  32.496  1.00  0.00     0.074 A 
ATOM     57  C   UNL A   1      45.383  29.985  26.932  1.00  0.00     0.029 A 
ATOM     58  N   UNL A   1      45.441  29.688  29.124  1.00  0.00    -0.354 N 
ATOM     59  N   UNL A   1      47.240  26.578  31.523  1.00  0.00    -0.248 NA
ATOM     60  C   UNL A   1      45.672  27.661  32.881  1.00  0.00     0.031 C 
ATOM     61  C   UNL A   1      46.343  28.978  27.264  1.00  0.00     0.029 A 
ATOM     62  C   UNL A   1      46.364  28.802  28.648  1.00  0.00     0.049 A 
ATOM     63  H   UNL A   1      45.294  29.867  30.081  1.00  0.00     0.167 HD
ATOM     64  C   UNL A   1      46.840  27.732  30.864  1.00  0.00     0.074 A 
ATOM     65  C   UNL A   1      45.927  28.403  31.798  1.00  0.00     0.031 C 
ATOM     66  C   UNL A   1      47.027  27.849  29.512  1.00  0.00     0.037 A 
BRANCH  53  67
ATOM     67  C   UNL A   1      43.096  31.672  29.573  1.00  0.00     0.057 A 
ATOM     68  C   UNL A   1      43.275  33.026  29.246  1.00  0.00     0.134 A 
ATOM     69  C   UNL A   1      42.954  31.414  30.956  1.00  0.00     0.134 A 
ATOM     70  F   UNL A   1      43.437  33.408  27.970  1.00  0.00    -0.206 F 
ATOM     71  C   UNL A   1      43.372  34.028  30.218  1.00  0.00     0.040 A 
ATOM     72  C   UNL A   1      43.009  32.410  31.931  1.00  0.00     0.040 A 
ATOM     73  F   UNL A   1      42.844  30.187  31.472  1.00  0.00    -0.206 F 
ATOM     74  C   UNL A   1      43.245  33.721  31.568  1.00  0.00     0.006 A 
ENDBRANCH  53  67
BRANCH  54  75
ATOM     75  C   UNL A   1      45.662  24.658  34.210  1.00  0.00     0.057 A 
ATOM     76  C   UNL A   1      44.464  24.566  34.948  1.00  0.00     0.134 A 
ATOM     77  C   UNL A   1      46.746  23.936  34.731  1.00  0.00     0.134 A 
ATOM     78  F   UNL A   1      43.343  25.158  34.509  1.00  0.00    -0.206 F 
ATOM     79  C   UNL A   1      44.358  23.803  36.127  1.00  0.00     0.040 A 
ATOM     80  C   UNL A   1      46.651  23.164  35.898  1.00  0.00     0.040 A 
ATOM     81  F   UNL A   1      47.906  23.876  34.063  1.00  0.00    -0.206 F 
ATOM     82  C   UNL A   1      45.453  23.088  36.599  1.00  0.00     0.006 A 
ENDBRANCH  54  75
BRANCH  66  83
ATOM     83  C   UNL A   1      47.951  26.861  28.850  1.00  0.00     0.057 A 
ATOM     84  C   UNL A   1      47.565  25.664  28.225  1.00  0.00     0.134 A 
ATOM     85  C   UNL A   1      49.298  27.218  28.747  1.00  0.00     0.134 A 
ATOM     86  F   UNL A   1      46.282  25.279  28.194  1.00  0.00    -0.206 F 
ATOM     87  C   UNL A   1      48.493  24.845  27.564  1.00  0.00     0.040 A 
ATOM     88  C   UNL A   1      50.225  26.430  28.068  1.00  0.00     0.040 A 
ATOM     89  F   UNL A   1      49.725  28.377  29.272  1.00  0.00    -0.206 F 
ATOM     90  C   UNL A   1      49.828  25.231  27.485  1.00  0.00     0.006 A 
ENDBRANCH  66  83
ENDBRANCH  40  41
ENDBRANCH  33  35
ENDBRANCH  32  33
ENDBRANCH  31  32
ENDBRANCH  30  31
ENDBRANCH  29  30
ENDBRANCH   1  29
TORSDOF 18
ENDMDL
