MODEL 1
REMARK VINA RESULT:      -9.8      0.000      0.000
REMARK SMILES Cc1nc(C(F)(F)F)c(C(=O)OCCOCCOC(=O)c2ccc(-c3c4nc(c(-c5c(F)cccc5F)c5ccc([nH]5)c(-c5c(F)cccc5F)c5nc(c(-c6c(F)cccc6F)c6ccc3[nH]6)C=C5)C=C4)cc2)s1
REMARK SMILES IDX 16 1 15 2 14 3 13 4 12 5 10 6 11 7 9 8 1 9 2 10 3 11 75 12
REMARK SMILES IDX 4 13 5 14 6 15 7 16 8 17 17 18 18 19 19 20 20 21 21 22 22 23
REMARK SMILES IDX 74 24 23 25 73 26 24 27 25 28 26 29 67 30 27 31 72 32 66 33
REMARK SMILES IDX 68 34 28 35 71 36 65 37 64 38 29 40 55 41 38 42 54 43 39 44
REMARK SMILES IDX 42 45 53 46 69 47 40 48 41 49 52 51 70 52 43 53 30 54 31 55
REMARK SMILES IDX 36 56 32 57 33 58 35 59 37 60 34 61 56 62 57 63 62 64 58 65
REMARK SMILES IDX 59 66 61 67 63 68 60 69 44 70 45 71 50 72 46 73 47 74 49 75
REMARK SMILES IDX 51 76 48 77
REMARK H PARENT 68 39 42 50
REMARK Flexibility Score: inf
ROOT
ATOM      1  C   UNL A   1      33.991  35.384  31.686  1.00  0.00     0.202 C 
ENDROOT
BRANCH   1   2
ATOM      2  O   UNL A   1      32.923  35.027  30.805  1.00  0.00    -0.374 OA
BRANCH   2   3
ATOM      3  C   UNL A   1      33.070  35.413  29.437  1.00  0.00     0.202 C 
BRANCH   3   4
ATOM      4  C   UNL A   1      34.275  34.780  28.739  1.00  0.00     0.261 C 
BRANCH   4   5
ATOM      5  O   UNL A   1      33.849  33.632  27.984  1.00  0.00    -0.459 OA
BRANCH   5   6
ATOM      6  C   UNL A   1      34.033  32.420  28.573  1.00  0.00     0.350 C 
ATOM      7  O   UNL A   1      34.400  32.261  29.730  1.00  0.00    -0.245 OA
BRANCH   6   8
ATOM      8  C   UNL A   1      33.623  31.371  27.665  1.00  0.00     0.145 A 
ATOM      9  C   UNL A   1      31.415  29.597  25.003  1.00  0.00     0.079 C 
ATOM     10  C   UNL A   1      32.406  30.086  26.000  1.00  0.00     0.091 A 
ATOM     11  N   UNL A   1      33.559  29.507  26.253  1.00  0.00    -0.236 NA
ATOM     12  S   UNL A   1      32.092  31.508  26.896  1.00  0.00    -0.111 S 
ATOM     13  C   UNL A   1      34.274  30.226  27.225  1.00  0.00     0.170 A 
BRANCH  13  14
ATOM     14  C   UNL A   1      35.619  29.729  27.680  1.00  0.00     0.435 C 
ATOM     15  F   UNL A   1      35.676  29.585  29.031  1.00  0.00    -0.164 F 
ATOM     16  F   UNL A   1      35.926  28.520  27.137  1.00  0.00    -0.164 F 
ATOM     17  F   UNL A   1      36.632  30.567  27.337  1.00  0.00    -0.164 F 
ENDBRANCH  13  14
ENDBRANCH   6   8
ENDBRANCH   5   6
ENDBRANCH   4   5
ENDBRANCH   3   4
ENDBRANCH   2   3
ENDBRANCH   1   2
BRANCH   1  18
ATOM     18  C   UNL A   1      34.513  34.245  32.568  1.00  0.00     0.261 C 
BRANCH  18  19
ATOM     19  O   UNL A   1      35.810  33.801  32.131  1.00  0.00    -0.460 OA
BRANCH  19  20
ATOM     20  C   UNL A   1      36.363  32.818  32.880  1.00  0.00     0.338 C 
ATOM     21  O   UNL A   1      36.053  32.489  34.011  1.00  0.00    -0.246 OA
BRANCH  20  22
ATOM     22  C   UNL A   1      37.321  32.043  32.063  1.00  0.00     0.060 A 
ATOM     23  C   UNL A   1      38.250  31.248  32.746  1.00  0.00     0.016 A 
ATOM     24  C   UNL A   1      37.355  32.132  30.669  1.00  0.00     0.016 A 
ATOM     25  C   UNL A   1      39.249  30.579  32.042  1.00  0.00     0.010 A 
ATOM     26  C   UNL A   1      38.365  31.466  29.965  1.00  0.00     0.010 A 
ATOM     27  C   UNL A   1      39.335  30.714  30.651  1.00  0.00    -0.014 A 
BRANCH  27  28
ATOM     28  C   UNL A   1      40.520  30.181  29.937  1.00  0.00     0.031 A 
ATOM     29  C   UNL A   1      41.693  31.088  29.688  1.00  0.00     0.074 A 
ATOM     30  C   UNL A   1      40.565  28.897  29.541  1.00  0.00     0.049 A 
ATOM     31  N   UNL A   1      42.819  30.839  29.068  1.00  0.00    -0.248 NA
ATOM     32  C   UNL A   1      41.583  32.461  30.208  1.00  0.00     0.031 C 
ATOM     33  C   UNL A   1      39.509  27.908  29.753  1.00  0.00     0.029 A 
ATOM     34  N   UNL A   1      41.545  28.206  28.871  1.00  0.00    -0.354 N 
ATOM     35  C   UNL A   1      43.547  32.020  29.121  1.00  0.00     0.074 A 
ATOM     36  C   UNL A   1      42.728  32.994  29.809  1.00  0.00     0.031 C 
ATOM     37  C   UNL A   1      39.893  26.739  29.212  1.00  0.00     0.029 A 
ATOM     38  C   UNL A   1      41.208  26.905  28.595  1.00  0.00     0.049 A 
ATOM     39  H   UNL A   1      42.406  28.607  28.614  1.00  0.00     0.167 HD
ATOM     40  C   UNL A   1      44.791  32.268  28.646  1.00  0.00     0.037 A 
ATOM     41  C   UNL A   1      41.878  25.960  27.907  1.00  0.00     0.037 A 
ATOM     42  C   UNL A   1      45.609  31.301  27.964  1.00  0.00     0.049 A 
ATOM     43  C   UNL A   1      43.233  26.280  27.334  1.00  0.00     0.074 A 
ATOM     44  C   UNL A   1      46.891  31.455  27.464  1.00  0.00     0.029 A 
ATOM     45  N   UNL A   1      45.222  30.001  27.680  1.00  0.00    -0.354 N 
ATOM     46  N   UNL A   1      43.923  27.392  27.413  1.00  0.00    -0.248 NA
ATOM     47  C   UNL A   1      43.902  25.213  26.575  1.00  0.00     0.031 C 
ATOM     48  C   UNL A   1      47.263  30.260  26.841  1.00  0.00     0.029 A 
ATOM     49  C   UNL A   1      46.231  29.348  26.992  1.00  0.00     0.049 A 
ATOM     50  H   UNL A   1      44.358  29.601  27.931  1.00  0.00     0.167 HD
ATOM     51  C   UNL A   1      45.117  27.148  26.742  1.00  0.00     0.074 A 
ATOM     52  C   UNL A   1      45.059  25.781  26.269  1.00  0.00     0.031 C 
ATOM     53  C   UNL A   1      46.165  27.983  26.538  1.00  0.00     0.037 A 
BRANCH  40  54
ATOM     54  C   UNL A   1      45.338  33.651  28.833  1.00  0.00     0.057 A 
ATOM     55  C   UNL A   1      45.130  34.662  27.885  1.00  0.00     0.134 A 
ATOM     56  C   UNL A   1      46.047  33.988  29.993  1.00  0.00     0.134 A 
ATOM     57  F   UNL A   1      44.469  34.400  26.747  1.00  0.00    -0.206 F 
ATOM     58  C   UNL A   1      45.623  35.954  28.077  1.00  0.00     0.040 A 
ATOM     59  C   UNL A   1      46.527  35.281  30.206  1.00  0.00     0.040 A 
ATOM     60  F   UNL A   1      46.277  33.067  30.941  1.00  0.00    -0.206 F 
ATOM     61  C   UNL A   1      46.318  36.267  29.244  1.00  0.00     0.006 A 
ENDBRANCH  40  54
BRANCH  41  62
ATOM     62  C   UNL A   1      41.276  24.619  27.705  1.00  0.00     0.057 A 
ATOM     63  C   UNL A   1      41.735  23.503  28.412  1.00  0.00     0.134 A 
ATOM     64  C   UNL A   1      40.245  24.418  26.778  1.00  0.00     0.134 A 
ATOM     65  F   UNL A   1      42.738  23.629  29.294  1.00  0.00    -0.206 F 
ATOM     66  C   UNL A   1      41.204  22.231  28.194  1.00  0.00     0.040 A 
ATOM     67  C   UNL A   1      39.689  23.156  26.568  1.00  0.00     0.040 A 
ATOM     68  F   UNL A   1      39.762  25.448  26.068  1.00  0.00    -0.206 F 
ATOM     69  C   UNL A   1      40.173  22.056  27.272  1.00  0.00     0.006 A 
ENDBRANCH  41  62
BRANCH  53  70
ATOM     70  C   UNL A   1      47.352  27.431  25.805  1.00  0.00     0.057 A 
ATOM     71  C   UNL A   1      47.486  27.555  24.417  1.00  0.00     0.134 A 
ATOM     72  C   UNL A   1      48.393  26.807  26.504  1.00  0.00     0.134 A 
ATOM     73  F   UNL A   1      46.518  28.131  23.689  1.00  0.00    -0.206 F 
ATOM     74  C   UNL A   1      48.606  27.060  23.747  1.00  0.00     0.040 A 
ATOM     75  C   UNL A   1      49.529  26.330  25.848  1.00  0.00     0.040 A 
ATOM     76  F   UNL A   1      48.330  26.664  27.837  1.00  0.00    -0.206 F 
ATOM     77  C   UNL A   1      49.635  26.451  24.464  1.00  0.00     0.006 A 
ENDBRANCH  53  70
ENDBRANCH  27  28
ENDBRANCH  20  22
ENDBRANCH  19  20
ENDBRANCH  18  19
ENDBRANCH   1  18
TORSDOF 15
ENDMDL
MODEL 2
REMARK VINA RESULT:      -9.7      5.457     10.635
REMARK SMILES Cc1nc(C(F)(F)F)c(C(=O)OCCOCCOC(=O)c2ccc(-c3c4nc(c(-c5c(F)cccc5F)c5ccc([nH]5)c(-c5c(F)cccc5F)c5nc(c(-c6c(F)cccc6F)c6ccc3[nH]6)C=C5)C=C4)cc2)s1
REMARK SMILES IDX 16 1 15 2 14 3 13 4 12 5 10 6 11 7 9 8 1 9 2 10 3 11 75 12
REMARK SMILES IDX 4 13 5 14 6 15 7 16 8 17 17 18 18 19 19 20 20 21 21 22 22 23
REMARK SMILES IDX 74 24 23 25 73 26 24 27 25 28 26 29 67 30 27 31 72 32 66 33
REMARK SMILES IDX 68 34 28 35 71 36 65 37 64 38 29 40 55 41 38 42 54 43 39 44
REMARK SMILES IDX 42 45 53 46 69 47 40 48 41 49 52 51 70 52 43 53 30 54 31 55
REMARK SMILES IDX 36 56 32 57 33 58 35 59 37 60 34 61 56 62 57 63 62 64 58 65
REMARK SMILES IDX 59 66 61 67 63 68 60 69 44 70 45 71 50 72 46 73 47 74 49 75
REMARK SMILES IDX 51 76 48 77
REMARK H PARENT 68 39 42 50
REMARK Flexibility Score: inf
ROOT
ATOM      1  C   UNL A   1      42.757  21.008  26.145  1.00  0.00     0.202 C 
ENDROOT
BRANCH   1   2
ATOM      2  O   UNL A   1      41.414  21.135  25.669  1.00  0.00    -0.374 OA
BRANCH   2   3
ATOM      3  C   UNL A   1      40.388  21.188  26.663  1.00  0.00     0.202 C 
BRANCH   3   4
ATOM      4  C   UNL A   1      39.394  22.334  26.468  1.00  0.00     0.261 C 
BRANCH   4   5
ATOM      5  O   UNL A   1      38.234  21.854  25.764  1.00  0.00    -0.459 OA
BRANCH   5   6
ATOM      6  C   UNL A   1      37.235  22.755  25.563  1.00  0.00     0.350 C 
ATOM      7  O   UNL A   1      37.385  23.970  25.573  1.00  0.00    -0.245 OA
BRANCH   6   8
ATOM      8  C   UNL A   1      36.013  22.058  25.231  1.00  0.00     0.145 A 
ATOM      9  C   UNL A   1      33.693  19.009  24.571  1.00  0.00     0.079 C 
ATOM     10  C   UNL A   1      34.383  20.309  24.790  1.00  0.00     0.091 A 
ATOM     11  N   UNL A   1      33.778  21.474  24.854  1.00  0.00    -0.236 NA
ATOM     12  S   UNL A   1      36.079  20.356  25.001  1.00  0.00    -0.111 S 
ATOM     13  C   UNL A   1      34.704  22.503  25.094  1.00  0.00     0.170 A 
BRANCH  13  14
ATOM     14  C   UNL A   1      34.228  23.927  25.188  1.00  0.00     0.435 C 
ATOM     15  F   UNL A   1      32.971  24.076  24.692  1.00  0.00    -0.164 F 
ATOM     16  F   UNL A   1      34.207  24.375  26.472  1.00  0.00    -0.164 F 
ATOM     17  F   UNL A   1      35.021  24.790  24.499  1.00  0.00    -0.164 F 
ENDBRANCH  13  14
ENDBRANCH   6   8
ENDBRANCH   5   6
ENDBRANCH   4   5
ENDBRANCH   3   4
ENDBRANCH   2   3
ENDBRANCH   1   2
BRANCH   1  18
ATOM     18  C   UNL A   1      43.802  21.808  25.360  1.00  0.00     0.261 C 
BRANCH  18  19
ATOM     19  O   UNL A   1      43.246  23.037  24.859  1.00  0.00    -0.460 OA
BRANCH  19  20
ATOM     20  C   UNL A   1      43.983  24.145  25.110  1.00  0.00     0.338 C 
ATOM     21  O   UNL A   1      45.026  24.475  24.574  1.00  0.00    -0.246 OA
BRANCH  20  22
ATOM     22  C   UNL A   1      43.252  25.035  26.036  1.00  0.00     0.060 A 
ATOM     23  C   UNL A   1      43.743  26.336  26.197  1.00  0.00     0.016 A 
ATOM     24  C   UNL A   1      42.149  24.598  26.775  1.00  0.00     0.016 A 
ATOM     25  C   UNL A   1      43.167  27.190  27.136  1.00  0.00     0.010 A 
ATOM     26  C   UNL A   1      41.577  25.454  27.724  1.00  0.00     0.010 A 
ATOM     27  C   UNL A   1      42.105  26.741  27.931  1.00  0.00    -0.014 A 
BRANCH  27  28
ATOM     28  C   UNL A   1      41.642  27.572  29.069  1.00  0.00     0.031 A 
ATOM     29  C   UNL A   1      42.369  27.483  30.382  1.00  0.00     0.074 A 
ATOM     30  C   UNL A   1      40.607  28.418  28.927  1.00  0.00     0.049 A 
ATOM     31  N   UNL A   1      42.124  28.100  31.510  1.00  0.00    -0.248 NA
ATOM     32  C   UNL A   1      43.527  26.576  30.431  1.00  0.00     0.031 C 
ATOM     33  C   UNL A   1      39.843  28.622  27.698  1.00  0.00     0.029 A 
ATOM     34  N   UNL A   1      40.019  29.263  29.835  1.00  0.00    -0.354 N 
ATOM     35  C   UNL A   1      43.092  27.655  32.401  1.00  0.00     0.074 A 
ATOM     36  C   UNL A   1      43.912  26.697  31.693  1.00  0.00     0.031 C 
ATOM     37  C   UNL A   1      38.877  29.528  27.931  1.00  0.00     0.029 A 
ATOM     38  C   UNL A   1      38.939  29.946  29.331  1.00  0.00     0.049 A 
ATOM     39  H   UNL A   1      40.340  29.370  30.759  1.00  0.00     0.167 HD
ATOM     40  C   UNL A   1      43.286  28.019  33.691  1.00  0.00     0.037 A 
ATOM     41  C   UNL A   1      38.088  30.796  29.936  1.00  0.00     0.037 A 
ATOM     42  C   UNL A   1      42.473  28.974  34.397  1.00  0.00     0.049 A 
ATOM     43  C   UNL A   1      38.287  31.137  31.389  1.00  0.00     0.074 A 
ATOM     44  C   UNL A   1      42.605  29.421  35.700  1.00  0.00     0.029 A 
ATOM     45  N   UNL A   1      41.373  29.623  33.859  1.00  0.00    -0.354 N 
ATOM     46  N   UNL A   1      39.222  30.731  32.214  1.00  0.00    -0.248 NA
ATOM     47  C   UNL A   1      37.311  32.055  31.996  1.00  0.00     0.031 C 
ATOM     48  C   UNL A   1      41.559  30.311  35.964  1.00  0.00     0.029 A 
ATOM     49  C   UNL A   1      40.802  30.451  34.812  1.00  0.00     0.049 A 
ATOM     50  H   UNL A   1      41.046  29.513  32.937  1.00  0.00     0.167 HD
ATOM     51  C   UNL A   1      38.964  31.366  33.424  1.00  0.00     0.074 A 
ATOM     52  C   UNL A   1      37.791  32.189  33.224  1.00  0.00     0.031 C 
ATOM     53  C   UNL A   1      39.641  31.275  34.595  1.00  0.00     0.037 A 
BRANCH  40  54
ATOM     54  C   UNL A   1      44.415  27.366  34.430  1.00  0.00     0.057 A 
ATOM     55  C   UNL A   1      45.688  27.947  34.494  1.00  0.00     0.134 A 
ATOM     56  C   UNL A   1      44.216  26.163  35.118  1.00  0.00     0.134 A 
ATOM     57  F   UNL A   1      45.946  29.093  33.845  1.00  0.00    -0.206 F 
ATOM     58  C   UNL A   1      46.729  27.343  35.203  1.00  0.00     0.040 A 
ATOM     59  C   UNL A   1      45.242  25.561  35.848  1.00  0.00     0.040 A 
ATOM     60  F   UNL A   1      43.019  25.558  35.099  1.00  0.00    -0.206 F 
ATOM     61  C   UNL A   1      46.504  26.151  35.888  1.00  0.00     0.006 A 
ENDBRANCH  40  54
BRANCH  41  62
ATOM     62  C   UNL A   1      36.956  31.381  29.176  1.00  0.00     0.057 A 
ATOM     63  C   UNL A   1      35.830  30.618  28.849  1.00  0.00     0.134 A 
ATOM     64  C   UNL A   1      36.987  32.710  28.735  1.00  0.00     0.134 A 
ATOM     65  F   UNL A   1      35.755  29.332  29.222  1.00  0.00    -0.206 F 
ATOM     66  C   UNL A   1      34.781  31.149  28.096  1.00  0.00     0.040 A 
ATOM     67  C   UNL A   1      35.935  33.260  28.002  1.00  0.00     0.040 A 
ATOM     68  F   UNL A   1      38.039  33.493  29.015  1.00  0.00    -0.206 F 
ATOM     69  C   UNL A   1      34.831  32.476  27.674  1.00  0.00     0.006 A 
ENDBRANCH  41  62
BRANCH  53  70
ATOM     70  C   UNL A   1      39.154  32.113  35.739  1.00  0.00     0.057 A 
ATOM     71  C   UNL A   1      39.564  33.441  35.909  1.00  0.00     0.134 A 
ATOM     72  C   UNL A   1      38.230  31.597  36.657  1.00  0.00     0.134 A 
ATOM     73  F   UNL A   1      40.456  33.990  35.072  1.00  0.00    -0.206 F 
ATOM     74  C   UNL A   1      39.086  34.220  36.964  1.00  0.00     0.040 A 
ATOM     75  C   UNL A   1      37.727  32.374  37.701  1.00  0.00     0.040 A 
ATOM     76  F   UNL A   1      37.790  30.334  36.545  1.00  0.00    -0.206 F 
ATOM     77  C   UNL A   1      38.160  33.689  37.860  1.00  0.00     0.006 A 
ENDBRANCH  53  70
ENDBRANCH  27  28
ENDBRANCH  20  22
ENDBRANCH  19  20
ENDBRANCH  18  19
ENDBRANCH   1  18
TORSDOF 15
ENDMDL
MODEL 3
REMARK VINA RESULT:      -9.3      3.644      8.275
REMARK SMILES Cc1nc(C(F)(F)F)c(C(=O)OCCOCCOC(=O)c2ccc(-c3c4nc(c(-c5c(F)cccc5F)c5ccc([nH]5)c(-c5c(F)cccc5F)c5nc(c(-c6c(F)cccc6F)c6ccc3[nH]6)C=C5)C=C4)cc2)s1
REMARK SMILES IDX 16 1 15 2 14 3 13 4 12 5 10 6 11 7 9 8 1 9 2 10 3 11 75 12
REMARK SMILES IDX 4 13 5 14 6 15 7 16 8 17 17 18 18 19 19 20 20 21 21 22 22 23
REMARK SMILES IDX 74 24 23 25 73 26 24 27 25 28 26 29 67 30 27 31 72 32 66 33
REMARK SMILES IDX 68 34 28 35 71 36 65 37 64 38 29 40 55 41 38 42 54 43 39 44
REMARK SMILES IDX 42 45 53 46 69 47 40 48 41 49 52 51 70 52 43 53 30 54 31 55
REMARK SMILES IDX 36 56 32 57 33 58 35 59 37 60 34 61 56 62 57 63 62 64 58 65
REMARK SMILES IDX 59 66 61 67 63 68 60 69 44 70 45 71 50 72 46 73 47 74 49 75
REMARK SMILES IDX 51 76 48 77
REMARK H PARENT 68 39 42 50
REMARK Flexibility Score: inf
ROOT
ATOM      1  C   UNL A   1      35.190  21.196  25.556  1.00  0.00     0.202 C 
ENDROOT
BRANCH   1   2
ATOM      2  O   UNL A   1      35.435  22.405  26.280  1.00  0.00    -0.374 OA
BRANCH   2   3
ATOM      3  C   UNL A   1      34.298  23.228  26.548  1.00  0.00     0.202 C 
BRANCH   3   4
ATOM      4  C   UNL A   1      32.966  22.607  26.121  1.00  0.00     0.261 C 
BRANCH   4   5
ATOM      5  O   UNL A   1      32.225  23.549  25.326  1.00  0.00    -0.459 OA
BRANCH   5   6
ATOM      6  C   UNL A   1      31.554  24.517  26.007  1.00  0.00     0.350 C 
ATOM      7  O   UNL A   1      31.286  24.465  27.200  1.00  0.00    -0.245 OA
BRANCH   6   8
ATOM      8  C   UNL A   1      31.312  25.645  25.135  1.00  0.00     0.145 A 
ATOM      9  C   UNL A   1      29.227  28.238  23.126  1.00  0.00     0.079 C 
ATOM     10  C   UNL A   1      30.217  27.371  23.819  1.00  0.00     0.091 A 
ATOM     11  N   UNL A   1      31.507  27.614  23.885  1.00  0.00    -0.236 NA
ATOM     12  S   UNL A   1      29.701  25.953  24.625  1.00  0.00    -0.111 S 
ATOM     13  C   UNL A   1      32.164  26.620  24.630  1.00  0.00     0.170 A 
BRANCH  13  14
ATOM     14  C   UNL A   1      33.654  26.692  24.817  1.00  0.00     0.435 C 
ATOM     15  F   UNL A   1      34.291  25.645  24.228  1.00  0.00    -0.164 F 
ATOM     16  F   UNL A   1      34.181  27.828  24.288  1.00  0.00    -0.164 F 
ATOM     17  F   UNL A   1      34.019  26.679  26.127  1.00  0.00    -0.164 F 
ENDBRANCH  13  14
ENDBRANCH   6   8
ENDBRANCH   5   6
ENDBRANCH   4   5
ENDBRANCH   3   4
ENDBRANCH   2   3
ENDBRANCH   1   2
BRANCH   1  18
ATOM     18  C   UNL A   1      36.442  20.503  25.008  1.00  0.00     0.261 C 
BRANCH  18  19
ATOM     19  O   UNL A   1      37.561  21.408  24.969  1.00  0.00    -0.460 OA
BRANCH  19  20
ATOM     20  C   UNL A   1      38.635  21.025  25.698  1.00  0.00     0.338 C 
ATOM     21  O   UNL A   1      39.134  19.915  25.751  1.00  0.00    -0.246 OA
BRANCH  20  22
ATOM     22  C   UNL A   1      39.264  22.207  26.325  1.00  0.00     0.060 A 
ATOM     23  C   UNL A   1      38.711  23.459  26.030  1.00  0.00     0.016 A 
ATOM     24  C   UNL A   1      40.399  22.107  27.133  1.00  0.00     0.016 A 
ATOM     25  C   UNL A   1      39.322  24.622  26.500  1.00  0.00     0.010 A 
ATOM     26  C   UNL A   1      41.016  23.275  27.596  1.00  0.00     0.010 A 
ATOM     27  C   UNL A   1      40.499  24.537  27.254  1.00  0.00    -0.014 A 
BRANCH  27  28
ATOM     28  C   UNL A   1      41.258  25.772  27.563  1.00  0.00     0.031 A 
ATOM     29  C   UNL A   1      40.588  26.865  28.350  1.00  0.00     0.074 A 
ATOM     30  C   UNL A   1      42.539  25.909  27.176  1.00  0.00     0.049 A 
ATOM     31  N   UNL A   1      41.055  28.032  28.714  1.00  0.00    -0.248 NA
ATOM     32  C   UNL A   1      39.206  26.606  28.786  1.00  0.00     0.031 C 
ATOM     33  C   UNL A   1      43.311  24.910  26.439  1.00  0.00     0.029 A 
ATOM     34  N   UNL A   1      43.413  26.952  27.348  1.00  0.00    -0.354 N 
ATOM     35  C   UNL A   1      40.027  28.647  29.416  1.00  0.00     0.074 A 
ATOM     36  C   UNL A   1      38.902  27.737  29.406  1.00  0.00     0.031 C 
ATOM     37  C   UNL A   1      44.544  25.395  26.212  1.00  0.00     0.029 A 
ATOM     38  C   UNL A   1      44.638  26.745  26.763  1.00  0.00     0.049 A 
ATOM     39  H   UNL A   1      43.184  27.771  27.843  1.00  0.00     0.167 HD
ATOM     40  C   UNL A   1      40.023  29.858  30.022  1.00  0.00     0.037 A 
ATOM     41  C   UNL A   1      45.706  27.560  26.669  1.00  0.00     0.037 A 
ATOM     42  C   UNL A   1      41.141  30.764  30.037  1.00  0.00     0.049 A 
ATOM     43  C   UNL A   1      45.654  28.928  27.297  1.00  0.00     0.074 A 
ATOM     44  C   UNL A   1      41.237  32.005  30.642  1.00  0.00     0.029 A 
ATOM     45  N   UNL A   1      42.354  30.528  29.410  1.00  0.00    -0.354 N 
ATOM     46  N   UNL A   1      44.687  29.487  27.982  1.00  0.00    -0.248 NA
ATOM     47  C   UNL A   1      46.845  29.776  27.140  1.00  0.00     0.031 C 
ATOM     48  C   UNL A   1      42.496  32.538  30.348  1.00  0.00     0.029 A 
ATOM     49  C   UNL A   1      43.199  31.611  29.596  1.00  0.00     0.049 A 
ATOM     50  H   UNL A   1      42.583  29.712  28.909  1.00  0.00     0.167 HD
ATOM     51  C   UNL A   1      45.162  30.738  28.360  1.00  0.00     0.074 A 
ATOM     52  C   UNL A   1      46.507  30.851  27.837  1.00  0.00     0.031 C 
ATOM     53  C   UNL A   1      44.540  31.704  29.079  1.00  0.00     0.037 A 
BRANCH  40  54
ATOM     54  C   UNL A   1      38.759  30.282  30.708  1.00  0.00     0.057 A 
ATOM     55  C   UNL A   1      38.501  29.955  32.046  1.00  0.00     0.134 A 
ATOM     56  C   UNL A   1      37.808  31.058  30.035  1.00  0.00     0.134 A 
ATOM     57  F   UNL A   1      39.367  29.203  32.742  1.00  0.00    -0.206 F 
ATOM     58  C   UNL A   1      37.331  30.373  32.685  1.00  0.00     0.040 A 
ATOM     59  C   UNL A   1      36.645  31.499  30.669  1.00  0.00     0.040 A 
ATOM     60  F   UNL A   1      37.998  31.408  28.754  1.00  0.00    -0.206 F 
ATOM     61  C   UNL A   1      36.403  31.153  31.997  1.00  0.00     0.006 A 
ENDBRANCH  40  54
BRANCH  41  62
ATOM     62  C   UNL A   1      46.919  27.116  25.938  1.00  0.00     0.057 A 
ATOM     63  C   UNL A   1      47.968  26.469  26.598  1.00  0.00     0.134 A 
ATOM     64  C   UNL A   1      47.067  27.354  24.566  1.00  0.00     0.134 A 
ATOM     65  F   UNL A   1      47.894  26.236  27.917  1.00  0.00    -0.206 F 
ATOM     66  C   UNL A   1      49.131  26.089  25.926  1.00  0.00     0.040 A 
ATOM     67  C   UNL A   1      48.213  26.958  23.876  1.00  0.00     0.040 A 
ATOM     68  F   UNL A   1      46.096  27.972  23.877  1.00  0.00    -0.206 F 
ATOM     69  C   UNL A   1      49.253  26.330  24.558  1.00  0.00     0.006 A 
ENDBRANCH  41  62
BRANCH  53  70
ATOM     70  C   UNL A   1      45.318  32.953  29.374  1.00  0.00     0.057 A 
ATOM     71  C   UNL A   1      45.280  34.065  28.525  1.00  0.00     0.134 A 
ATOM     72  C   UNL A   1      46.078  33.056  30.546  1.00  0.00     0.134 A 
ATOM     73  F   UNL A   1      44.580  34.025  27.382  1.00  0.00    -0.206 F 
ATOM     74  C   UNL A   1      45.988  35.231  28.822  1.00  0.00     0.040 A 
ATOM     75  C   UNL A   1      46.771  34.224  30.865  1.00  0.00     0.040 A 
ATOM     76  F   UNL A   1      46.149  32.029  31.407  1.00  0.00    -0.206 F 
ATOM     77  C   UNL A   1      46.731  35.315  29.998  1.00  0.00     0.006 A 
ENDBRANCH  53  70
ENDBRANCH  27  28
ENDBRANCH  20  22
ENDBRANCH  19  20
ENDBRANCH  18  19
ENDBRANCH   1  18
TORSDOF 15
ENDMDL
