MODEL 1
REMARK VINA RESULT:     -12.8      0.000      0.000
REMARK SMILES COc1cccc([C@H]2CC(c3ccc(S(C)(=O)=O)cc3)=NN2c2ccc(C(=O)OCCOCCOC(=O)c3ccc(-c4c5nc(c(-c6c(F)cccc6F)c6ccc([nH]6)c(-c6c(F)cccc6F)c6nc(c(-c7c(F)cccc7F)c7ccc4[nH]7)C=C6)C=C5)cc3)cc2)c1
REMARK SMILES IDX 31 1 30 2 29 3 27 4 28 5 26 6 23 7 24 8 93 9 25 10 92 11
REMARK SMILES IDX 22 12 8 13 9 14 10 15 21 16 7 17 3 18 4 19 94 20 5 21 6 22
REMARK SMILES IDX 2 23 1 24 11 25 12 26 20 27 13 28 19 29 14 30 15 31 16 32
REMARK SMILES IDX 17 33 18 34 32 35 33 36 34 37 35 38 36 39 37 40 38 41 39 42
REMARK SMILES IDX 91 43 40 44 90 45 41 46 42 47 43 48 84 49 44 50 89 51 83 52
REMARK SMILES IDX 85 53 45 54 88 55 82 56 81 57 46 59 72 60 55 61 71 62 56 63
REMARK SMILES IDX 59 64 70 65 86 66 57 67 58 68 69 70 87 71 60 72 47 73 48 74
REMARK SMILES IDX 53 75 49 76 50 77 52 78 54 79 51 80 73 81 74 82 79 83 75 84
REMARK SMILES IDX 76 85 78 86 80 87 77 88 61 89 62 90 67 91 63 92 64 93 66 94
REMARK SMILES IDX 68 95 65 96
REMARK H PARENT 85 58 59 69
REMARK Flexibility Score: inf
ROOT
ATOM      1  C   UNL A   1      41.302  21.290  26.060  1.00  0.00     0.202 C 
ENDROOT
BRANCH   1   2
ATOM      2  C   UNL A   1      39.950  20.619  26.315  1.00  0.00     0.261 C 
BRANCH   2   3
ATOM      3  O   UNL A   1      38.906  21.251  25.556  1.00  0.00    -0.460 OA
BRANCH   3   4
ATOM      4  C   UNL A   1      38.491  22.446  26.042  1.00  0.00     0.338 C 
ATOM      5  O   UNL A   1      39.011  23.088  26.943  1.00  0.00    -0.246 OA
BRANCH   4   6
ATOM      6  C   UNL A   1      37.372  22.970  25.230  1.00  0.00     0.060 A 
ATOM      7  C   UNL A   1      35.088  23.899  23.882  1.00  0.00     0.060 A 
ATOM      8  C   UNL A   1      35.462  24.453  25.112  1.00  0.00     0.029 A 
ATOM      9  C   UNL A   1      35.932  22.944  23.293  1.00  0.00     0.029 A 
ATOM     10  C   UNL A   1      36.577  23.971  25.797  1.00  0.00     0.018 A 
ATOM     11  C   UNL A   1      37.079  22.487  23.952  1.00  0.00     0.018 A 
BRANCH   7  12
ATOM     12  N   UNL A   1      33.846  24.196  23.321  1.00  0.00    -0.257 N 
ATOM     13  C   UNL A   1      32.927  23.127  22.901  1.00  0.00     0.144 C 
ATOM     14  C   UNL A   1      31.593  23.864  22.751  1.00  0.00     0.091 C 
ATOM     15  C   UNL A   1      32.002  25.246  23.178  1.00  0.00     0.071 C 
ATOM     16  N   UNL A   1      33.242  25.398  23.527  1.00  0.00    -0.176 NA
BRANCH  13  17
ATOM     17  C   UNL A   1      32.872  21.968  23.892  1.00  0.00    -0.019 A 
ATOM     18  C   UNL A   1      32.572  19.603  24.409  1.00  0.00     0.119 A 
ATOM     19  C   UNL A   1      32.572  19.904  25.770  1.00  0.00     0.046 A 
ATOM     20  C   UNL A   1      32.707  20.632  23.473  1.00  0.00     0.052 A 
ATOM     21  C   UNL A   1      32.739  21.216  26.203  1.00  0.00     0.004 A 
ATOM     22  C   UNL A   1      32.894  22.242  25.270  1.00  0.00     0.006 A 
BRANCH  18  23
ATOM     23  O   UNL A   1      32.375  18.283  24.106  1.00  0.00    -0.497 OA
ATOM     24  C   UNL A   1      32.968  17.354  25.005  1.00  0.00     0.278 C 
ENDBRANCH  18  23
ENDBRANCH  13  17
BRANCH  15  25
ATOM     25  C   UNL A   1      31.044  26.358  23.120  1.00  0.00    -0.002 A 
ATOM     26  C   UNL A   1      31.449  27.549  22.509  1.00  0.00     0.011 A 
ATOM     27  C   UNL A   1      29.745  26.214  23.615  1.00  0.00     0.011 A 
ATOM     28  C   UNL A   1      30.544  28.601  22.370  1.00  0.00     0.021 A 
ATOM     29  C   UNL A   1      28.844  27.276  23.502  1.00  0.00     0.021 A 
ATOM     30  C   UNL A   1      29.248  28.463  22.879  1.00  0.00     0.067 A 
BRANCH  30  31
ATOM     31  S   UNL A   1      28.096  29.805  22.688  1.00  0.00     0.175 S 
ATOM     32  C   UNL A   1      28.877  31.171  23.507  1.00  0.00     0.163 C 
ATOM     33  O   UNL A   1      28.028  30.096  21.269  1.00  0.00    -0.224 OA
ATOM     34  O   UNL A   1      26.903  29.467  23.442  1.00  0.00    -0.224 OA
ENDBRANCH  30  31
ENDBRANCH  15  25
ENDBRANCH   7  12
ENDBRANCH   4   6
ENDBRANCH   3   4
ENDBRANCH   2   3
ENDBRANCH   1   2
BRANCH   1  35
ATOM     35  O   UNL A   1      42.278  20.487  25.396  1.00  0.00    -0.374 OA
BRANCH  35  36
ATOM     36  C   UNL A   1      43.611  20.540  25.910  1.00  0.00     0.202 C 
BRANCH  36  37
ATOM     37  C   UNL A   1      44.503  21.639  25.323  1.00  0.00     0.261 C 
BRANCH  37  38
ATOM     38  O   UNL A   1      44.474  22.830  26.134  1.00  0.00    -0.460 OA
BRANCH  38  39
ATOM     39  C   UNL A   1      44.208  23.973  25.463  1.00  0.00     0.338 C 
ATOM     40  O   UNL A   1      44.406  24.203  24.277  1.00  0.00    -0.246 OA
BRANCH  39  41
ATOM     41  C   UNL A   1      43.463  24.903  26.331  1.00  0.00     0.060 A 
ATOM     42  C   UNL A   1      43.957  26.208  26.454  1.00  0.00     0.016 A 
ATOM     43  C   UNL A   1      42.343  24.497  27.061  1.00  0.00     0.016 A 
ATOM     44  C   UNL A   1      43.365  27.098  27.348  1.00  0.00     0.010 A 
ATOM     45  C   UNL A   1      41.756  25.388  27.965  1.00  0.00     0.010 A 
ATOM     46  C   UNL A   1      42.286  26.680  28.138  1.00  0.00    -0.014 A 
BRANCH  46  47
ATOM     47  C   UNL A   1      41.810  27.543  29.245  1.00  0.00     0.031 A 
ATOM     48  C   UNL A   1      42.518  27.485  30.571  1.00  0.00     0.074 A 
ATOM     49  C   UNL A   1      40.779  28.388  29.066  1.00  0.00     0.049 A 
ATOM     50  N   UNL A   1      42.250  28.120  31.683  1.00  0.00    -0.248 NA
ATOM     51  C   UNL A   1      43.684  26.591  30.651  1.00  0.00     0.031 C 
ATOM     52  C   UNL A   1      40.037  28.565  27.820  1.00  0.00     0.029 A 
ATOM     53  N   UNL A   1      40.174  29.250  29.946  1.00  0.00    -0.354 N 
ATOM     54  C   UNL A   1      43.210  27.699  32.596  1.00  0.00     0.074 A 
ATOM     55  C   UNL A   1      44.047  26.734  31.917  1.00  0.00     0.031 C 
ATOM     56  C   UNL A   1      39.066  29.474  28.017  1.00  0.00     0.029 A 
ATOM     57  C   UNL A   1      39.101  29.918  29.410  1.00  0.00     0.049 A 
ATOM     58  H   UNL A   1      40.479  29.378  30.873  1.00  0.00     0.167 HD
ATOM     59  C   UNL A   1      43.382  28.088  33.882  1.00  0.00     0.037 A 
ATOM     60  C   UNL A   1      38.235  30.775  29.984  1.00  0.00     0.037 A 
ATOM     61  C   UNL A   1      42.549  29.048  34.557  1.00  0.00     0.049 A 
ATOM     62  C   UNL A   1      38.406  31.140  31.435  1.00  0.00     0.074 A 
ATOM     63  C   UNL A   1      42.653  29.518  35.855  1.00  0.00     0.029 A 
ATOM     64  N   UNL A   1      41.456  29.682  33.988  1.00  0.00    -0.354 N 
ATOM     65  N   UNL A   1      39.326  30.751  32.284  1.00  0.00    -0.248 NA
ATOM     66  C   UNL A   1      37.415  32.064  32.007  1.00  0.00     0.031 C 
ATOM     67  C   UNL A   1      41.596  30.404  36.085  1.00  0.00     0.029 A 
ATOM     68  C   UNL A   1      40.862  30.523  34.915  1.00  0.00     0.049 A 
ATOM     69  H   UNL A   1      41.147  29.554  33.062  1.00  0.00     0.167 HD
ATOM     70  C   UNL A   1      39.046  31.404  33.477  1.00  0.00     0.074 A 
ATOM     71  C   UNL A   1      37.873  32.220  33.242  1.00  0.00     0.031 C 
ATOM     72  C   UNL A   1      39.702  31.337  34.662  1.00  0.00     0.037 A 
BRANCH  59  73
ATOM     73  C   UNL A   1      44.504  27.455  34.649  1.00  0.00     0.057 A 
ATOM     74  C   UNL A   1      45.801  27.984  34.631  1.00  0.00     0.134 A 
ATOM     75  C   UNL A   1      44.278  26.322  35.440  1.00  0.00     0.134 A 
ATOM     76  F   UNL A   1      46.087  29.059  33.881  1.00  0.00    -0.206 F 
ATOM     77  C   UNL A   1      46.838  27.395  35.357  1.00  0.00     0.040 A 
ATOM     78  C   UNL A   1      45.300  25.739  36.190  1.00  0.00     0.040 A 
ATOM     79  F   UNL A   1      43.057  25.769  35.505  1.00  0.00    -0.206 F 
ATOM     80  C   UNL A   1      46.587  26.273  36.145  1.00  0.00     0.006 A 
ENDBRANCH  59  73
BRANCH  60  81
ATOM     81  C   UNL A   1      37.116  31.343  29.193  1.00  0.00     0.057 A 
ATOM     82  C   UNL A   1      37.159  32.658  28.714  1.00  0.00     0.134 A 
ATOM     83  C   UNL A   1      35.966  30.593  28.916  1.00  0.00     0.134 A 
ATOM     84  F   UNL A   1      38.223  33.434  28.968  1.00  0.00    -0.206 F 
ATOM     85  C   UNL A   1      36.094  33.213  28.003  1.00  0.00     0.040 A 
ATOM     86  C   UNL A   1      34.903  31.127  28.186  1.00  0.00     0.040 A 
ATOM     87  F   UNL A   1      35.864  29.328  29.348  1.00  0.00    -0.206 F 
ATOM     88  C   UNL A   1      34.963  32.444  27.733  1.00  0.00     0.006 A 
ENDBRANCH  60  81
BRANCH  72  89
ATOM     89  C   UNL A   1      39.193  32.196  35.782  1.00  0.00     0.057 A 
ATOM     90  C   UNL A   1      39.615  33.521  35.949  1.00  0.00     0.134 A 
ATOM     91  C   UNL A   1      38.233  31.704  36.676  1.00  0.00     0.134 A 
ATOM     92  F   UNL A   1      40.540  34.047  35.132  1.00  0.00    -0.206 F 
ATOM     93  C   UNL A   1      39.116  34.320  36.979  1.00  0.00     0.040 A 
ATOM     94  C   UNL A   1      37.709  32.501  37.695  1.00  0.00     0.040 A 
ATOM     95  F   UNL A   1      37.780  30.446  36.565  1.00  0.00    -0.206 F 
ATOM     96  C   UNL A   1      38.154  33.811  37.851  1.00  0.00     0.006 A 
ENDBRANCH  72  89
ENDBRANCH  46  47
ENDBRANCH  39  41
ENDBRANCH  38  39
ENDBRANCH  37  38
ENDBRANCH  36  37
ENDBRANCH  35  36
ENDBRANCH   1  35
TORSDOF 19
ENDMDL
MODEL 2
REMARK VINA RESULT:     -12.3      0.742      5.814
REMARK SMILES COc1cccc([C@H]2CC(c3ccc(S(C)(=O)=O)cc3)=NN2c2ccc(C(=O)OCCOCCOC(=O)c3ccc(-c4c5nc(c(-c6c(F)cccc6F)c6ccc([nH]6)c(-c6c(F)cccc6F)c6nc(c(-c7c(F)cccc7F)c7ccc4[nH]7)C=C6)C=C5)cc3)cc2)c1
REMARK SMILES IDX 31 1 30 2 29 3 27 4 28 5 26 6 23 7 24 8 93 9 25 10 92 11
REMARK SMILES IDX 22 12 8 13 9 14 10 15 21 16 7 17 3 18 4 19 94 20 5 21 6 22
REMARK SMILES IDX 2 23 1 24 11 25 12 26 20 27 13 28 19 29 14 30 15 31 16 32
REMARK SMILES IDX 17 33 18 34 32 35 33 36 34 37 35 38 36 39 37 40 38 41 39 42
REMARK SMILES IDX 91 43 40 44 90 45 41 46 42 47 43 48 84 49 44 50 89 51 83 52
REMARK SMILES IDX 85 53 45 54 88 55 82 56 81 57 46 59 72 60 55 61 71 62 56 63
REMARK SMILES IDX 59 64 70 65 86 66 57 67 58 68 69 70 87 71 60 72 47 73 48 74
REMARK SMILES IDX 53 75 49 76 50 77 52 78 54 79 51 80 73 81 74 82 79 83 75 84
REMARK SMILES IDX 76 85 78 86 80 87 77 88 61 89 62 90 67 91 63 92 64 93 66 94
REMARK SMILES IDX 68 95 65 96
REMARK H PARENT 85 58 59 69
REMARK Flexibility Score: inf
ROOT
ATOM      1  C   UNL A   1      41.755  22.004  26.281  1.00  0.00     0.202 C 
ENDROOT
BRANCH   1   2
ATOM      2  C   UNL A   1      40.379  21.370  26.509  1.00  0.00     0.261 C 
BRANCH   2   3
ATOM      3  O   UNL A   1      39.376  22.001  25.695  1.00  0.00    -0.460 OA
BRANCH   3   4
ATOM      4  C   UNL A   1      38.808  23.102  26.244  1.00  0.00     0.338 C 
ATOM      5  O   UNL A   1      39.329  23.877  27.034  1.00  0.00    -0.246 OA
BRANCH   4   6
ATOM      6  C   UNL A   1      37.477  23.344  25.647  1.00  0.00     0.060 A 
ATOM      7  C   UNL A   1      35.071  23.909  24.310  1.00  0.00     0.060 A 
ATOM      8  C   UNL A   1      36.022  23.058  23.733  1.00  0.00     0.029 A 
ATOM      9  C   UNL A   1      35.303  24.391  25.607  1.00  0.00     0.029 A 
ATOM     10  C   UNL A   1      37.230  22.802  24.381  1.00  0.00     0.018 A 
ATOM     11  C   UNL A   1      36.492  24.101  26.286  1.00  0.00     0.018 A 
BRANCH   7  12
ATOM     12  N   UNL A   1      33.986  24.366  23.562  1.00  0.00    -0.257 N 
ATOM     13  C   UNL A   1      33.113  23.429  22.839  1.00  0.00     0.144 C 
ATOM     14  C   UNL A   1      31.880  24.282  22.528  1.00  0.00     0.091 C 
ATOM     15  C   UNL A   1      32.270  25.569  23.199  1.00  0.00     0.071 C 
ATOM     16  N   UNL A   1      33.421  25.581  23.798  1.00  0.00    -0.176 NA
BRANCH  13  17
ATOM     17  C   UNL A   1      32.796  22.172  23.644  1.00  0.00    -0.019 A 
ATOM     18  C   UNL A   1      32.608  19.749  23.850  1.00  0.00     0.119 A 
ATOM     19  C   UNL A   1      31.999  19.904  25.095  1.00  0.00     0.046 A 
ATOM     20  C   UNL A   1      32.991  20.878  23.121  1.00  0.00     0.052 A 
ATOM     21  C   UNL A   1      31.804  21.174  25.630  1.00  0.00     0.004 A 
ATOM     22  C   UNL A   1      32.204  22.302  24.913  1.00  0.00     0.006 A 
BRANCH  18  23
ATOM     23  O   UNL A   1      32.723  18.455  23.417  1.00  0.00    -0.497 OA
ATOM     24  C   UNL A   1      33.898  17.773  23.837  1.00  0.00     0.278 C 
ENDBRANCH  18  23
ENDBRANCH  13  17
BRANCH  15  25
ATOM     25  C   UNL A   1      31.406  26.753  23.099  1.00  0.00    -0.002 A 
ATOM     26  C   UNL A   1      30.032  26.588  23.303  1.00  0.00     0.011 A 
ATOM     27  C   UNL A   1      31.946  28.019  22.857  1.00  0.00     0.011 A 
ATOM     28  C   UNL A   1      29.189  27.699  23.287  1.00  0.00     0.021 A 
ATOM     29  C   UNL A   1      31.101  29.130  22.813  1.00  0.00     0.021 A 
ATOM     30  C   UNL A   1      29.727  28.965  23.030  1.00  0.00     0.067 A 
BRANCH  30  31
ATOM     31  S   UNL A   1      28.648  30.379  23.023  1.00  0.00     0.175 S 
ATOM     32  C   UNL A   1      28.643  30.916  21.332  1.00  0.00     0.163 C 
ATOM     33  O   UNL A   1      27.323  29.893  23.356  1.00  0.00    -0.224 OA
ATOM     34  O   UNL A   1      29.285  31.419  23.810  1.00  0.00    -0.224 OA
ENDBRANCH  30  31
ENDBRANCH  15  25
ENDBRANCH   7  12
ENDBRANCH   4   6
ENDBRANCH   3   4
ENDBRANCH   2   3
ENDBRANCH   1   2
BRANCH   1  35
ATOM     35  O   UNL A   1      42.637  21.281  25.422  1.00  0.00    -0.374 OA
BRANCH  35  36
ATOM     36  C   UNL A   1      43.981  21.758  25.332  1.00  0.00     0.202 C 
BRANCH  36  37
ATOM     37  C   UNL A   1      44.231  22.836  24.273  1.00  0.00     0.261 C 
BRANCH  37  38
ATOM     38  O   UNL A   1      43.551  24.064  24.599  1.00  0.00    -0.460 OA
BRANCH  38  39
ATOM     39  C   UNL A   1      44.327  25.015  25.164  1.00  0.00     0.338 C 
ATOM     40  O   UNL A   1      45.458  25.348  24.832  1.00  0.00    -0.246 OA
BRANCH  39  41
ATOM     41  C   UNL A   1      43.553  25.759  26.176  1.00  0.00     0.060 A 
ATOM     42  C   UNL A   1      43.842  27.120  26.339  1.00  0.00     0.016 A 
ATOM     43  C   UNL A   1      42.611  25.131  26.995  1.00  0.00     0.016 A 
ATOM     44  C   UNL A   1      43.229  27.847  27.357  1.00  0.00     0.010 A 
ATOM     45  C   UNL A   1      42.003  25.860  28.021  1.00  0.00     0.010 A 
ATOM     46  C   UNL A   1      42.335  27.212  28.229  1.00  0.00    -0.014 A 
BRANCH  46  47
ATOM     47  C   UNL A   1      41.865  27.921  29.442  1.00  0.00     0.031 A 
ATOM     48  C   UNL A   1      40.628  28.772  29.356  1.00  0.00     0.074 A 
ATOM     49  C   UNL A   1      42.514  27.788  30.613  1.00  0.00     0.049 A 
ATOM     50  N   UNL A   1      40.061  29.508  30.278  1.00  0.00    -0.248 NA
ATOM     51  C   UNL A   1      39.940  28.797  28.056  1.00  0.00     0.031 C 
ATOM     52  C   UNL A   1      43.699  26.961  30.834  1.00  0.00     0.029 A 
ATOM     53  N   UNL A   1      42.265  28.358  31.836  1.00  0.00    -0.354 N 
ATOM     54  C   UNL A   1      38.954  30.086  29.669  1.00  0.00     0.074 A 
ATOM     55  C   UNL A   1      38.945  29.640  28.293  1.00  0.00     0.031 C 
ATOM     56  C   UNL A   1      44.082  27.087  32.116  1.00  0.00     0.029 A 
ATOM     57  C   UNL A   1      43.188  28.023  32.795  1.00  0.00     0.049 A 
ATOM     58  H   UNL A   1      41.499  28.951  32.010  1.00  0.00     0.167 HD
ATOM     59  C   UNL A   1      38.025  30.909  30.210  1.00  0.00     0.037 A 
ATOM     60  C   UNL A   1      43.309  28.442  34.070  1.00  0.00     0.037 A 
ATOM     61  C   UNL A   1      38.033  31.353  31.579  1.00  0.00     0.049 A 
ATOM     62  C   UNL A   1      42.301  29.411  34.630  1.00  0.00     0.074 A 
ATOM     63  C   UNL A   1      37.126  32.176  32.224  1.00  0.00     0.029 A 
ATOM     64  N   UNL A   1      39.001  31.015  32.512  1.00  0.00    -0.354 N 
ATOM     65  N   UNL A   1      41.248  29.937  34.052  1.00  0.00    -0.248 NA
ATOM     66  C   UNL A   1      42.500  29.845  36.020  1.00  0.00     0.031 C 
ATOM     67  C   UNL A   1      37.569  32.369  33.537  1.00  0.00     0.029 A 
ATOM     68  C   UNL A   1      38.726  31.629  33.722  1.00  0.00     0.049 A 
ATOM     69  H   UNL A   1      39.770  30.424  32.340  1.00  0.00     0.167 HD
ATOM     70  C   UNL A   1      40.643  30.736  35.014  1.00  0.00     0.074 A 
ATOM     71  C   UNL A   1      41.442  30.621  36.216  1.00  0.00     0.031 C 
ATOM     72  C   UNL A   1      39.525  31.496  34.913  1.00  0.00     0.037 A 
BRANCH  59  73
ATOM     73  C   UNL A   1      36.931  31.400  29.310  1.00  0.00     0.057 A 
ATOM     74  C   UNL A   1      35.828  30.599  28.983  1.00  0.00     0.134 A 
ATOM     75  C   UNL A   1      36.964  32.699  28.789  1.00  0.00     0.134 A 
ATOM     76  F   UNL A   1      35.745  29.339  29.437  1.00  0.00    -0.206 F 
ATOM     77  C   UNL A   1      34.808  31.067  28.153  1.00  0.00     0.040 A 
ATOM     78  C   UNL A   1      35.937  33.187  27.979  1.00  0.00     0.040 A 
ATOM     79  F   UNL A   1      37.989  33.519  29.068  1.00  0.00    -0.206 F 
ATOM     80  C   UNL A   1      34.858  32.368  27.654  1.00  0.00     0.006 A 
ENDBRANCH  59  73
BRANCH  60  81
ATOM     81  C   UNL A   1      44.433  27.958  34.908  1.00  0.00     0.057 A 
ATOM     82  C   UNL A   1      45.668  28.616  34.915  1.00  0.00     0.134 A 
ATOM     83  C   UNL A   1      44.307  26.813  35.705  1.00  0.00     0.134 A 
ATOM     84  F   UNL A   1      45.857  29.704  34.154  1.00  0.00    -0.206 F 
ATOM     85  C   UNL A   1      46.744  28.146  35.670  1.00  0.00     0.040 A 
ATOM     86  C   UNL A   1      45.367  26.345  36.483  1.00  0.00     0.040 A 
ATOM     87  F   UNL A   1      43.149  26.138  35.741  1.00  0.00    -0.206 F 
ATOM     88  C   UNL A   1      46.592  27.008  36.462  1.00  0.00     0.006 A 
ENDBRANCH  60  81
BRANCH  72  89
ATOM     89  C   UNL A   1      39.076  32.228  36.142  1.00  0.00     0.057 A 
ATOM     90  C   UNL A   1      39.439  33.559  36.386  1.00  0.00     0.134 A 
ATOM     91  C   UNL A   1      38.231  31.607  37.071  1.00  0.00     0.134 A 
ATOM     92  F   UNL A   1      40.254  34.206  35.539  1.00  0.00    -0.206 F 
ATOM     93  C   UNL A   1      38.994  34.239  37.520  1.00  0.00     0.040 A 
ATOM     94  C   UNL A   1      37.760  32.284  38.197  1.00  0.00     0.040 A 
ATOM     95  F   UNL A   1      37.839  30.336  36.892  1.00  0.00    -0.206 F 
ATOM     96  C   UNL A   1      38.146  33.603  38.426  1.00  0.00     0.006 A 
ENDBRANCH  72  89
ENDBRANCH  46  47
ENDBRANCH  39  41
ENDBRANCH  38  39
ENDBRANCH  37  38
ENDBRANCH  36  37
ENDBRANCH  35  36
ENDBRANCH   1  35
TORSDOF 19
ENDMDL
MODEL 3
REMARK VINA RESULT:     -11.9      4.379      6.549
REMARK SMILES COc1cccc([C@H]2CC(c3ccc(S(C)(=O)=O)cc3)=NN2c2ccc(C(=O)OCCOCCOC(=O)c3ccc(-c4c5nc(c(-c6c(F)cccc6F)c6ccc([nH]6)c(-c6c(F)cccc6F)c6nc(c(-c7c(F)cccc7F)c7ccc4[nH]7)C=C6)C=C5)cc3)cc2)c1
REMARK SMILES IDX 31 1 30 2 29 3 27 4 28 5 26 6 23 7 24 8 93 9 25 10 92 11
REMARK SMILES IDX 22 12 8 13 9 14 10 15 21 16 7 17 3 18 4 19 94 20 5 21 6 22
REMARK SMILES IDX 2 23 1 24 11 25 12 26 20 27 13 28 19 29 14 30 15 31 16 32
REMARK SMILES IDX 17 33 18 34 32 35 33 36 34 37 35 38 36 39 37 40 38 41 39 42
REMARK SMILES IDX 91 43 40 44 90 45 41 46 42 47 43 48 84 49 44 50 89 51 83 52
REMARK SMILES IDX 85 53 45 54 88 55 82 56 81 57 46 59 72 60 55 61 71 62 56 63
REMARK SMILES IDX 59 64 70 65 86 66 57 67 58 68 69 70 87 71 60 72 47 73 48 74
REMARK SMILES IDX 53 75 49 76 50 77 52 78 54 79 51 80 73 81 74 82 79 83 75 84
REMARK SMILES IDX 76 85 78 86 80 87 77 88 61 89 62 90 67 91 63 92 64 93 66 94
REMARK SMILES IDX 68 95 65 96
REMARK H PARENT 85 58 59 69
REMARK Flexibility Score: inf
ROOT
ATOM      1  C   UNL A   1      41.463  21.138  26.137  1.00  0.00     0.202 C 
ENDROOT
BRANCH   1   2
ATOM      2  C   UNL A   1      40.082  21.367  26.758  1.00  0.00     0.261 C 
BRANCH   2   3
ATOM      3  O   UNL A   1      39.188  21.987  25.819  1.00  0.00    -0.460 OA
BRANCH   3   4
ATOM      4  C   UNL A   1      38.786  23.237  26.155  1.00  0.00     0.338 C 
ATOM      5  O   UNL A   1      39.446  24.085  26.738  1.00  0.00    -0.246 OA
BRANCH   4   6
ATOM      6  C   UNL A   1      37.448  23.515  25.591  1.00  0.00     0.060 A 
ATOM      7  C   UNL A   1      35.023  24.189  24.341  1.00  0.00     0.060 A 
ATOM      8  C   UNL A   1      36.022  23.509  23.634  1.00  0.00     0.029 A 
ATOM      9  C   UNL A   1      35.220  24.436  25.709  1.00  0.00     0.029 A 
ATOM     10  C   UNL A   1      37.238  23.202  24.244  1.00  0.00     0.018 A 
ATOM     11  C   UNL A   1      36.419  24.089  26.342  1.00  0.00     0.018 A 
BRANCH   7  12
ATOM     12  N   UNL A   1      33.920  24.718  23.672  1.00  0.00    -0.257 N 
ATOM     13  C   UNL A   1      32.953  23.844  22.990  1.00  0.00     0.144 C 
ATOM     14  C   UNL A   1      31.751  24.767  22.774  1.00  0.00     0.091 C 
ATOM     15  C   UNL A   1      32.251  26.017  23.441  1.00  0.00     0.071 C 
ATOM     16  N   UNL A   1      33.436  25.956  23.965  1.00  0.00    -0.176 NA
BRANCH  13  17
ATOM     17  C   UNL A   1      32.620  22.589  23.792  1.00  0.00    -0.019 A 
ATOM     18  C   UNL A   1      32.537  20.164  24.041  1.00  0.00     0.119 A 
ATOM     19  C   UNL A   1      31.796  20.312  25.213  1.00  0.00     0.046 A 
ATOM     20  C   UNL A   1      32.935  21.297  23.326  1.00  0.00     0.052 A 
ATOM     21  C   UNL A   1      31.481  21.581  25.692  1.00  0.00     0.004 A 
ATOM     22  C   UNL A   1      31.894  22.713  24.989  1.00  0.00     0.006 A 
BRANCH  18  23
ATOM     23  O   UNL A   1      32.763  18.870  23.657  1.00  0.00    -0.497 OA
ATOM     24  C   UNL A   1      32.307  18.530  22.354  1.00  0.00     0.278 C 
ENDBRANCH  18  23
ENDBRANCH  13  17
BRANCH  15  25
ATOM     25  C   UNL A   1      31.448  27.247  23.417  1.00  0.00    -0.002 A 
ATOM     26  C   UNL A   1      30.398  27.333  22.496  1.00  0.00     0.011 A 
ATOM     27  C   UNL A   1      31.691  28.283  24.322  1.00  0.00     0.011 A 
ATOM     28  C   UNL A   1      29.568  28.454  22.492  1.00  0.00     0.021 A 
ATOM     29  C   UNL A   1      30.879  29.419  24.302  1.00  0.00     0.021 A 
ATOM     30  C   UNL A   1      29.821  29.498  23.389  1.00  0.00     0.067 A 
BRANCH  30  31
ATOM     31  S   UNL A   1      28.751  30.919  23.385  1.00  0.00     0.175 S 
ATOM     32  C   UNL A   1      28.884  31.562  21.737  1.00  0.00     0.163 C 
ATOM     33  O   UNL A   1      27.402  30.425  23.580  1.00  0.00    -0.224 OA
ATOM     34  O   UNL A   1      29.327  31.902  24.285  1.00  0.00    -0.224 OA
ENDBRANCH  30  31
ENDBRANCH  15  25
ENDBRANCH   7  12
ENDBRANCH   4   6
ENDBRANCH   3   4
ENDBRANCH   2   3
ENDBRANCH   1   2
BRANCH   1  35
ATOM     35  O   UNL A   1      41.699  19.831  25.613  1.00  0.00    -0.374 OA
BRANCH  35  36
ATOM     36  C   UNL A   1      42.541  18.971  26.384  1.00  0.00     0.202 C 
BRANCH  36  37
ATOM     37  C   UNL A   1      43.625  18.228  25.597  1.00  0.00     0.261 C 
BRANCH  37  38
ATOM     38  O   UNL A   1      44.789  19.053  25.395  1.00  0.00    -0.460 OA
BRANCH  38  39
ATOM     39  C   UNL A   1      44.740  19.855  24.308  1.00  0.00     0.338 C 
ATOM     40  O   UNL A   1      44.308  19.577  23.196  1.00  0.00    -0.246 OA
BRANCH  39  41
ATOM     41  C   UNL A   1      45.136  21.227  24.678  1.00  0.00     0.060 A 
ATOM     42  C   UNL A   1      45.439  21.471  26.024  1.00  0.00     0.016 A 
ATOM     43  C   UNL A   1      45.152  22.268  23.748  1.00  0.00     0.016 A 
ATOM     44  C   UNL A   1      45.706  22.768  26.455  1.00  0.00     0.010 A 
ATOM     45  C   UNL A   1      45.412  23.572  24.184  1.00  0.00     0.010 A 
ATOM     46  C   UNL A   1      45.656  23.832  25.545  1.00  0.00    -0.014 A 
BRANCH  46  47
ATOM     47  C   UNL A   1      45.710  25.226  26.043  1.00  0.00     0.031 A 
ATOM     48  C   UNL A   1      47.030  25.948  26.049  1.00  0.00     0.074 A 
ATOM     49  C   UNL A   1      44.596  25.854  26.459  1.00  0.00     0.049 A 
ATOM     50  N   UNL A   1      47.316  27.152  26.473  1.00  0.00    -0.248 NA
ATOM     51  C   UNL A   1      48.180  25.211  25.503  1.00  0.00     0.031 C 
ATOM     52  C   UNL A   1      43.253  25.277  26.465  1.00  0.00     0.029 A 
ATOM     53  N   UNL A   1      44.424  27.117  26.966  1.00  0.00    -0.354 N 
ATOM     54  C   UNL A   1      48.678  27.316  26.251  1.00  0.00     0.074 A 
ATOM     55  C   UNL A   1      49.166  26.079  25.681  1.00  0.00     0.031 C 
ATOM     56  C   UNL A   1      42.394  26.183  26.963  1.00  0.00     0.029 A 
ATOM     57  C   UNL A   1      43.131  27.389  27.338  1.00  0.00     0.049 A 
ATOM     58  H   UNL A   1      45.158  27.767  27.056  1.00  0.00     0.167 HD
ATOM     59  C   UNL A   1      49.450  28.402  26.492  1.00  0.00     0.037 A 
ATOM     60  C   UNL A   1      42.606  28.479  27.931  1.00  0.00     0.037 A 
ATOM     61  C   UNL A   1      48.964  29.633  27.058  1.00  0.00     0.049 A 
ATOM     62  C   UNL A   1      43.499  29.649  28.252  1.00  0.00     0.074 A 
ATOM     63  C   UNL A   1      49.666  30.795  27.327  1.00  0.00     0.029 A 
ATOM     64  N   UNL A   1      47.653  29.858  27.447  1.00  0.00    -0.354 N 
ATOM     65  N   UNL A   1      44.781  29.800  28.021  1.00  0.00    -0.248 NA
ATOM     66  C   UNL A   1      42.870  30.799  28.918  1.00  0.00     0.031 C 
ATOM     67  C   UNL A   1      48.789  31.709  27.918  1.00  0.00     0.029 A 
ATOM     68  C   UNL A   1      47.529  31.133  27.974  1.00  0.00     0.049 A 
ATOM     69  H   UNL A   1      46.918  29.209  27.361  1.00  0.00     0.167 HD
ATOM     70  C   UNL A   1      45.104  31.070  28.483  1.00  0.00     0.074 A 
ATOM     71  C   UNL A   1      43.884  31.650  29.001  1.00  0.00     0.031 C 
ATOM     72  C   UNL A   1      46.305  31.700  28.476  1.00  0.00     0.037 A 
BRANCH  59  73
ATOM     73  C   UNL A   1      50.909  28.297  26.163  1.00  0.00     0.057 A 
ATOM     74  C   UNL A   1      51.869  28.016  27.143  1.00  0.00     0.134 A 
ATOM     75  C   UNL A   1      51.355  28.450  24.844  1.00  0.00     0.134 A 
ATOM     76  F   UNL A   1      51.508  27.875  28.428  1.00  0.00    -0.206 F 
ATOM     77  C   UNL A   1      53.225  27.910  26.826  1.00  0.00     0.040 A 
ATOM     78  C   UNL A   1      52.704  28.321  24.511  1.00  0.00     0.040 A 
ATOM     79  F   UNL A   1      50.486  28.716  23.857  1.00  0.00    -0.206 F 
ATOM     80  C   UNL A   1      53.645  28.056  25.505  1.00  0.00     0.006 A 
ENDBRANCH  59  73
BRANCH  60  81
ATOM     81  C   UNL A   1      41.164  28.517  28.274  1.00  0.00     0.057 A 
ATOM     82  C   UNL A   1      40.703  28.092  29.525  1.00  0.00     0.134 A 
ATOM     83  C   UNL A   1      40.207  28.959  27.350  1.00  0.00     0.134 A 
ATOM     84  F   UNL A   1      41.569  27.635  30.442  1.00  0.00    -0.206 F 
ATOM     85  C   UNL A   1      39.344  28.088  29.842  1.00  0.00     0.040 A 
ATOM     86  C   UNL A   1      38.848  28.982  27.662  1.00  0.00     0.040 A 
ATOM     87  F   UNL A   1      40.585  29.379  26.134  1.00  0.00    -0.206 F 
ATOM     88  C   UNL A   1      38.412  28.539  28.909  1.00  0.00     0.006 A 
ENDBRANCH  60  81
BRANCH  72  89
ATOM     89  C   UNL A   1      46.350  33.103  29.007  1.00  0.00     0.057 A 
ATOM     90  C   UNL A   1      46.642  33.378  30.348  1.00  0.00     0.134 A 
ATOM     91  C   UNL A   1      46.141  34.193  28.152  1.00  0.00     0.134 A 
ATOM     92  F   UNL A   1      46.841  32.377  31.219  1.00  0.00    -0.206 F 
ATOM     93  C   UNL A   1      46.707  34.688  30.826  1.00  0.00     0.040 A 
ATOM     94  C   UNL A   1      46.227  35.508  28.612  1.00  0.00     0.040 A 
ATOM     95  F   UNL A   1      45.866  33.999  26.853  1.00  0.00    -0.206 F 
ATOM     96  C   UNL A   1      46.506  35.758  29.954  1.00  0.00     0.006 A 
ENDBRANCH  72  89
ENDBRANCH  46  47
ENDBRANCH  39  41
ENDBRANCH  38  39
ENDBRANCH  37  38
ENDBRANCH  36  37
ENDBRANCH  35  36
ENDBRANCH   1  35
TORSDOF 19
ENDMDL
