MODEL 1
REMARK VINA RESULT:     -11.6      0.000      0.000
REMARK SMILES C[C@H]1C[C@H]([N@@H+]2CCOC[C@@H]2C(=O)OCCOCCOC(=O)c2ccc(-c3c4nc(c(-c5c(F)cccc5F)c5ccc([nH]5)c(-c5c(F)cccc5F)c5nc(c(-c6c(F)cccc6F)c6ccc3[nH]6)C=C5)C=C4)cc2)CS1
REMARK SMILES IDX 17 1 16 2 15 3 14 4 13 5 11 6 12 7 10 8 5 9 6 10 7 12 9 13
REMARK SMILES IDX 8 14 4 15 1 16 2 17 3 18 77 19 76 20 18 21 19 22 20 23 21 24
REMARK SMILES IDX 22 25 23 26 75 27 24 28 74 29 25 30 26 31 27 32 68 33 28 34
REMARK SMILES IDX 73 35 67 36 69 37 29 38 72 39 66 40 65 41 30 43 56 44 39 45
REMARK SMILES IDX 55 46 40 47 43 48 54 49 70 50 41 51 42 52 53 54 71 55 44 56
REMARK SMILES IDX 31 57 32 58 37 59 33 60 34 61 36 62 38 63 35 64 57 65 58 66
REMARK SMILES IDX 63 67 59 68 60 69 62 70 64 71 61 72 45 73 46 74 51 75 47 76
REMARK SMILES IDX 48 77 50 78 52 79 49 80
REMARK H PARENT 5 11 69 42 43 53
REMARK Flexibility Score: inf
ROOT
ATOM      1  C   UNL A   1      41.183  20.856  26.715  1.00  0.00     0.202 C 
ENDROOT
BRANCH   1   2
ATOM      2  O   UNL A   1      39.680  21.229  26.723  1.00  0.00    -0.374 OA
BRANCH   2   3
ATOM      3  C   UNL A   1      38.886  22.281  26.177  1.00  0.00     0.202 C 
BRANCH   3   4
ATOM      4  C   UNL A   1      37.848  21.854  25.113  1.00  0.00     0.261 C 
BRANCH   4   5
ATOM      5  O   UNL A   1      36.622  22.588  25.243  1.00  0.00    -0.459 OA
BRANCH   5   6
ATOM      6  C   UNL A   1      35.930  22.663  24.078  1.00  0.00     0.367 C 
ATOM      7  O   UNL A   1      36.335  23.261  23.086  1.00  0.00    -0.245 OA
BRANCH   6   8
ATOM      8  C   UNL A   1      34.581  21.964  24.151  1.00  0.00     0.321 C 
ATOM      9  N   UNL A   1      33.362  22.660  23.580  1.00  0.00    -0.316 N 
ATOM     10  C   UNL A   1      32.258  21.659  23.683  1.00  0.00     0.292 C 
ATOM     11  H   UNL A   1      33.679  22.940  22.652  1.00  0.00     0.349 HD
ATOM     12  C   UNL A   1      32.087  20.986  25.062  1.00  0.00     0.221 C 
ATOM     13  C   UNL A   1      34.366  21.379  25.563  1.00  0.00     0.237 C 
ATOM     14  O   UNL A   1      33.302  20.418  25.553  1.00  0.00    -0.369 OA
BRANCH   9  15
ATOM     15  C   UNL A   1      32.907  24.045  23.953  1.00  0.00     0.195 C 
ATOM     16  C   UNL A   1      33.189  27.652  26.627  1.00  0.00     0.019 C 
ATOM     17  C   UNL A   1      33.901  26.799  25.560  1.00  0.00     0.049 C 
ATOM     18  C   UNL A   1      33.544  24.851  25.657  1.00  0.00     0.080 C 
ATOM     19  S   UNL A   1      33.682  27.579  23.341  1.00  0.00    -0.152 SA
ATOM     20  C   UNL A   1      32.810  25.468  22.539  1.00  0.00     0.134 C 
ENDBRANCH   9  15
ENDBRANCH   6   8
ENDBRANCH   5   6
ENDBRANCH   4   5
ENDBRANCH   3   4
ENDBRANCH   2   3
ENDBRANCH   1   2
BRANCH   1  21
ATOM     21  C   UNL A   1      42.993  21.472  25.712  1.00  0.00     0.261 C 
BRANCH  21  22
ATOM     22  O   UNL A   1      43.362  22.720  24.724  1.00  0.00    -0.460 OA
BRANCH  22  23
ATOM     23  C   UNL A   1      43.696  24.036  24.893  1.00  0.00     0.338 C 
ATOM     24  O   UNL A   1      44.852  24.424  24.738  1.00  0.00    -0.246 OA
BRANCH  23  25
ATOM     25  C   UNL A   1      42.727  25.049  25.373  1.00  0.00     0.060 A 
ATOM     26  C   UNL A   1      43.017  26.419  25.225  1.00  0.00     0.016 A 
ATOM     27  C   UNL A   1      41.727  24.638  26.256  1.00  0.00     0.016 A 
ATOM     28  C   UNL A   1      42.415  27.359  26.071  1.00  0.00     0.010 A 
ATOM     29  C   UNL A   1      41.119  25.580  27.090  1.00  0.00     0.010 A 
ATOM     30  C   UNL A   1      41.536  26.924  27.069  1.00  0.00    -0.014 A 
BRANCH  30  31
ATOM     31  C   UNL A   1      41.249  27.782  28.249  1.00  0.00     0.031 A 
ATOM     32  C   UNL A   1      42.100  27.617  29.485  1.00  0.00     0.074 A 
ATOM     33  C   UNL A   1      40.242  28.670  28.231  1.00  0.00     0.049 A 
ATOM     34  N   UNL A   1      41.976  28.165  30.667  1.00  0.00    -0.248 NA
ATOM     35  C   UNL A   1      43.234  26.685  29.375  1.00  0.00     0.031 C 
ATOM     36  C   UNL A   1      39.372  28.925  27.089  1.00  0.00     0.029 A 
ATOM     37  N   UNL A   1      39.770  29.499  29.216  1.00  0.00    -0.354 N 
ATOM     38  C   UNL A   1      42.996  27.623  31.445  1.00  0.00     0.074 A 
ATOM     39  C   UNL A   1      43.701  26.675  30.614  1.00  0.00     0.031 C 
ATOM     40  C   UNL A   1      38.449  29.835  27.443  1.00  0.00     0.029 A 
ATOM     41  C   UNL A   1      38.645  30.193  28.846  1.00  0.00     0.049 A 
ATOM     42  H   UNL A   1      40.194  29.589  30.099  1.00  0.00     0.167 HD
ATOM     43  C   UNL A   1      43.316  27.897  32.734  1.00  0.00     0.037 A 
ATOM     44  C   UNL A   1      37.844  30.998  29.570  1.00  0.00     0.037 A 
ATOM     45  C   UNL A   1      42.600  28.849  33.545  1.00  0.00     0.049 A 
ATOM     46  C   UNL A   1      38.192  31.270  31.007  1.00  0.00     0.074 A 
ATOM     47  C   UNL A   1      42.856  29.245  34.845  1.00  0.00     0.029 A 
ATOM     48  N   UNL A   1      41.471  29.542  33.130  1.00  0.00    -0.354 N 
ATOM     49  N   UNL A   1      39.178  30.786  31.725  1.00  0.00    -0.248 NA
ATOM     50  C   UNL A   1      37.326  32.210  31.730  1.00  0.00     0.031 C 
ATOM     51  C   UNL A   1      41.840  30.124  35.239  1.00  0.00     0.029 A 
ATOM     52  C   UNL A   1      40.994  30.336  34.160  1.00  0.00     0.049 A 
ATOM     53  H   UNL A   1      41.068  29.480  32.233  1.00  0.00     0.167 HD
ATOM     54  C   UNL A   1      39.068  31.376  32.977  1.00  0.00     0.074 A 
ATOM     55  C   UNL A   1      37.925  32.267  32.912  1.00  0.00     0.031 C 
ATOM     56  C   UNL A   1      39.843  31.204  34.078  1.00  0.00     0.037 A 
BRANCH  43  57
ATOM     57  C   UNL A   1      44.454  27.122  33.349  1.00  0.00     0.057 A 
ATOM     58  C   UNL A   1      45.793  27.517  33.220  1.00  0.00     0.134 A 
ATOM     59  C   UNL A   1      44.205  25.947  34.072  1.00  0.00     0.134 A 
ATOM     60  F   UNL A   1      46.112  28.628  32.537  1.00  0.00    -0.206 F 
ATOM     61  C   UNL A   1      46.841  26.750  33.738  1.00  0.00     0.040 A 
ATOM     62  C   UNL A   1      45.241  25.191  34.628  1.00  0.00     0.040 A 
ATOM     63  F   UNL A   1      42.949  25.508  34.250  1.00  0.00    -0.206 F 
ATOM     64  C   UNL A   1      46.565  25.584  34.448  1.00  0.00     0.006 A 
ENDBRANCH  43  57
BRANCH  44  65
ATOM     65  C   UNL A   1      36.644  31.588  28.927  1.00  0.00     0.057 A 
ATOM     66  C   UNL A   1      35.481  30.839  28.726  1.00  0.00     0.134 A 
ATOM     67  C   UNL A   1      36.612  32.941  28.560  1.00  0.00     0.134 A 
ATOM     68  F   UNL A   1      35.454  29.536  29.043  1.00  0.00    -0.206 F 
ATOM     69  C   UNL A   1      34.327  31.412  28.189  1.00  0.00     0.040 A 
ATOM     70  C   UNL A   1      35.457  33.533  28.047  1.00  0.00     0.040 A 
ATOM     71  F   UNL A   1      37.692  33.716  28.737  1.00  0.00    -0.206 F 
ATOM     72  C   UNL A   1      34.309  32.766  27.860  1.00  0.00     0.006 A 
ENDBRANCH  44  65
BRANCH  56  73
ATOM     73  C   UNL A   1      39.494  32.018  35.292  1.00  0.00     0.057 A 
ATOM     74  C   UNL A   1      38.657  31.530  36.302  1.00  0.00     0.134 A 
ATOM     75  C   UNL A   1      40.032  33.301  35.465  1.00  0.00     0.134 A 
ATOM     76  F   UNL A   1      38.099  30.313  36.195  1.00  0.00    -0.206 F 
ATOM     77  C   UNL A   1      38.337  32.300  37.422  1.00  0.00     0.040 A 
ATOM     78  C   UNL A   1      39.750  34.066  36.597  1.00  0.00     0.040 A 
ATOM     79  F   UNL A   1      40.853  33.826  34.543  1.00  0.00    -0.206 F 
ATOM     80  C   UNL A   1      38.892  33.569  37.575  1.00  0.00     0.006 A 
ENDBRANCH  56  73
ENDBRANCH  30  31
ENDBRANCH  23  25
ENDBRANCH  22  23
ENDBRANCH  21  22
ENDBRANCH   1  21
TORSDOF 15
ENDMDL
MODEL 2
REMARK VINA RESULT:     -11.3      0.814      1.931
REMARK SMILES C[C@H]1C[C@H]([N@@H+]2CCOC[C@@H]2C(=O)OCCOCCOC(=O)c2ccc(-c3c4nc(c(-c5c(F)cccc5F)c5ccc([nH]5)c(-c5c(F)cccc5F)c5nc(c(-c6c(F)cccc6F)c6ccc3[nH]6)C=C5)C=C4)cc2)CS1
REMARK SMILES IDX 17 1 16 2 15 3 14 4 13 5 11 6 12 7 10 8 5 9 6 10 7 12 9 13
REMARK SMILES IDX 8 14 4 15 1 16 2 17 3 18 77 19 76 20 18 21 19 22 20 23 21 24
REMARK SMILES IDX 22 25 23 26 75 27 24 28 74 29 25 30 26 31 27 32 68 33 28 34
REMARK SMILES IDX 73 35 67 36 69 37 29 38 72 39 66 40 65 41 30 43 56 44 39 45
REMARK SMILES IDX 55 46 40 47 43 48 54 49 70 50 41 51 42 52 53 54 71 55 44 56
REMARK SMILES IDX 31 57 32 58 37 59 33 60 34 61 36 62 38 63 35 64 57 65 58 66
REMARK SMILES IDX 63 67 59 68 60 69 62 70 64 71 61 72 45 73 46 74 51 75 47 76
REMARK SMILES IDX 48 77 50 78 52 79 49 80
REMARK H PARENT 5 11 69 42 43 53
REMARK Flexibility Score: inf
ROOT
ATOM      1  C   UNL A   1      40.102  21.387  26.437  1.00  0.00     0.202 C 
ENDROOT
BRANCH   1   2
ATOM      2  O   UNL A   1      38.682  21.881  26.067  1.00  0.00    -0.374 OA
BRANCH   2   3
ATOM      3  C   UNL A   1      37.774  21.663  24.988  1.00  0.00     0.202 C 
BRANCH   3   4
ATOM      4  C   UNL A   1      36.370  21.153  25.387  1.00  0.00     0.261 C 
BRANCH   4   5
ATOM      5  O   UNL A   1      35.784  21.961  26.417  1.00  0.00    -0.459 OA
BRANCH   5   6
ATOM      6  C   UNL A   1      34.427  21.959  26.377  1.00  0.00     0.367 C 
ATOM      7  O   UNL A   1      33.718  22.013  27.376  1.00  0.00    -0.245 OA
BRANCH   6   8
ATOM      8  C   UNL A   1      33.884  21.837  24.961  1.00  0.00     0.321 C 
ATOM      9  N   UNL A   1      33.811  23.077  24.093  1.00  0.00    -0.316 N 
ATOM     10  C   UNL A   1      33.378  22.588  22.750  1.00  0.00     0.292 C 
ATOM     11  H   UNL A   1      34.747  23.471  24.189  1.00  0.00     0.349 HD
ATOM     12  C   UNL A   1      32.142  21.663  22.738  1.00  0.00     0.221 C 
ATOM     13  C   UNL A   1      32.590  20.996  24.964  1.00  0.00     0.237 C 
ATOM     14  O   UNL A   1      32.271  20.560  23.636  1.00  0.00    -0.369 OA
BRANCH   9  15
ATOM     15  C   UNL A   1      33.123  24.359  24.479  1.00  0.00     0.195 C 
ATOM     16  C   UNL A   1      32.922  28.064  27.022  1.00  0.00     0.019 C 
ATOM     17  C   UNL A   1      33.686  27.324  25.908  1.00  0.00     0.049 C 
ATOM     18  C   UNL A   1      33.744  25.350  26.087  1.00  0.00     0.080 C 
ATOM     19  S   UNL A   1      33.101  27.946  23.706  1.00  0.00    -0.152 SA
ATOM     20  C   UNL A   1      32.602  25.670  23.049  1.00  0.00     0.134 C 
ENDBRANCH   9  15
ENDBRANCH   6   8
ENDBRANCH   5   6
ENDBRANCH   4   5
ENDBRANCH   3   4
ENDBRANCH   2   3
ENDBRANCH   1   2
BRANCH   1  21
ATOM     21  C   UNL A   1      42.144  21.742  25.833  1.00  0.00     0.261 C 
BRANCH  21  22
ATOM     22  O   UNL A   1      42.862  22.890  24.918  1.00  0.00    -0.460 OA
BRANCH  22  23
ATOM     23  C   UNL A   1      43.270  24.181  25.111  1.00  0.00     0.338 C 
ATOM     24  O   UNL A   1      44.454  24.495  25.009  1.00  0.00    -0.246 OA
BRANCH  23  25
ATOM     25  C   UNL A   1      42.347  25.251  25.556  1.00  0.00     0.060 A 
ATOM     26  C   UNL A   1      42.742  26.600  25.459  1.00  0.00     0.016 A 
ATOM     27  C   UNL A   1      41.269  24.896  26.368  1.00  0.00     0.016 A 
ATOM     28  C   UNL A   1      42.157  27.564  26.289  1.00  0.00     0.010 A 
ATOM     29  C   UNL A   1      40.679  25.863  27.186  1.00  0.00     0.010 A 
ATOM     30  C   UNL A   1      41.189  27.173  27.222  1.00  0.00    -0.014 A 
BRANCH  30  31
ATOM     31  C   UNL A   1      40.892  28.027  28.403  1.00  0.00     0.031 A 
ATOM     32  C   UNL A   1      41.731  27.857  29.646  1.00  0.00     0.074 A 
ATOM     33  C   UNL A   1      39.886  28.915  28.380  1.00  0.00     0.049 A 
ATOM     34  N   UNL A   1      41.597  28.399  30.830  1.00  0.00    -0.248 NA
ATOM     35  C   UNL A   1      42.866  26.925  29.543  1.00  0.00     0.031 C 
ATOM     36  C   UNL A   1      39.026  29.175  27.231  1.00  0.00     0.029 A 
ATOM     37  N   UNL A   1      39.404  29.740  29.364  1.00  0.00    -0.354 N 
ATOM     38  C   UNL A   1      42.609  27.854  31.614  1.00  0.00     0.074 A 
ATOM     39  C   UNL A   1      43.322  26.909  30.786  1.00  0.00     0.031 C 
ATOM     40  C   UNL A   1      38.100  30.084  27.580  1.00  0.00     0.029 A 
ATOM     41  C   UNL A   1      38.282  30.435  28.986  1.00  0.00     0.049 A 
ATOM     42  H   UNL A   1      39.821  29.826  30.252  1.00  0.00     0.167 HD
ATOM     43  C   UNL A   1      42.918  28.122  32.908  1.00  0.00     0.037 A 
ATOM     44  C   UNL A   1      37.476  31.237  29.707  1.00  0.00     0.037 A 
ATOM     45  C   UNL A   1      42.194  29.071  33.716  1.00  0.00     0.049 A 
ATOM     46  C   UNL A   1      37.810  31.504  31.148  1.00  0.00     0.074 A 
ATOM     47  C   UNL A   1      42.438  29.462  35.020  1.00  0.00     0.029 A 
ATOM     48  N   UNL A   1      41.069  29.766  33.293  1.00  0.00    -0.354 N 
ATOM     49  N   UNL A   1      38.789  31.016  31.872  1.00  0.00    -0.248 NA
ATOM     50  C   UNL A   1      36.938  32.441  31.867  1.00  0.00     0.031 C 
ATOM     51  C   UNL A   1      41.419  30.339  35.409  1.00  0.00     0.029 A 
ATOM     52  C   UNL A   1      40.583  30.556  34.323  1.00  0.00     0.049 A 
ATOM     53  H   UNL A   1      40.675  29.708  32.393  1.00  0.00     0.167 HD
ATOM     54  C   UNL A   1      38.668  31.601  33.126  1.00  0.00     0.074 A 
ATOM     55  C   UNL A   1      37.526  32.493  33.055  1.00  0.00     0.031 C 
ATOM     56  C   UNL A   1      39.433  31.424  34.233  1.00  0.00     0.037 A 
BRANCH  43  57
ATOM     57  C   UNL A   1      44.049  27.344  33.530  1.00  0.00     0.057 A 
ATOM     58  C   UNL A   1      43.843  26.161  34.254  1.00  0.00     0.134 A 
ATOM     59  C   UNL A   1      45.371  27.796  33.414  1.00  0.00     0.134 A 
ATOM     60  F   UNL A   1      42.606  25.668  34.413  1.00  0.00    -0.206 F 
ATOM     61  C   UNL A   1      44.897  25.489  34.881  1.00  0.00     0.040 A 
ATOM     62  C   UNL A   1      46.438  27.113  34.004  1.00  0.00     0.040 A 
ATOM     63  F   UNL A   1      45.653  28.915  32.727  1.00  0.00    -0.206 F 
ATOM     64  C   UNL A   1      46.200  25.964  34.755  1.00  0.00     0.006 A 
ENDBRANCH  43  57
BRANCH  44  65
ATOM     65  C   UNL A   1      36.282  31.831  29.055  1.00  0.00     0.057 A 
ATOM     66  C   UNL A   1      36.247  33.178  28.683  1.00  0.00     0.134 A 
ATOM     67  C   UNL A   1      35.170  31.042  28.725  1.00  0.00     0.134 A 
ATOM     68  F   UNL A   1      37.274  33.988  28.982  1.00  0.00    -0.206 F 
ATOM     69  C   UNL A   1      35.155  33.720  28.003  1.00  0.00     0.040 A 
ATOM     70  C   UNL A   1      34.083  31.565  28.023  1.00  0.00     0.040 A 
ATOM     71  F   UNL A   1      35.146  29.740  29.045  1.00  0.00    -0.206 F 
ATOM     72  C   UNL A   1      34.075  32.909  27.660  1.00  0.00     0.006 A 
ENDBRANCH  44  65
BRANCH  56  73
ATOM     73  C   UNL A   1      39.073  32.233  35.448  1.00  0.00     0.057 A 
ATOM     74  C   UNL A   1      39.515  33.550  35.624  1.00  0.00     0.134 A 
ATOM     75  C   UNL A   1      38.246  31.693  36.442  1.00  0.00     0.134 A 
ATOM     76  F   UNL A   1      40.319  34.126  34.716  1.00  0.00    -0.206 F 
ATOM     77  C   UNL A   1      39.177  34.288  36.760  1.00  0.00     0.040 A 
ATOM     78  C   UNL A   1      37.872  32.432  37.564  1.00  0.00     0.040 A 
ATOM     79  F   UNL A   1      37.776  30.441  36.331  1.00  0.00    -0.206 F 
ATOM     80  C   UNL A   1      38.346  33.731  37.730  1.00  0.00     0.006 A 
ENDBRANCH  56  73
ENDBRANCH  30  31
ENDBRANCH  23  25
ENDBRANCH  22  23
ENDBRANCH  21  22
ENDBRANCH   1  21
TORSDOF 15
ENDMDL
MODEL 3
REMARK VINA RESULT:     -11.1      4.475      9.379
REMARK SMILES C[C@H]1C[C@H]([N@@H+]2CCOC[C@@H]2C(=O)OCCOCCOC(=O)c2ccc(-c3c4nc(c(-c5c(F)cccc5F)c5ccc([nH]5)c(-c5c(F)cccc5F)c5nc(c(-c6c(F)cccc6F)c6ccc3[nH]6)C=C5)C=C4)cc2)CS1
REMARK SMILES IDX 17 1 16 2 15 3 14 4 13 5 11 6 12 7 10 8 5 9 6 10 7 12 9 13
REMARK SMILES IDX 8 14 4 15 1 16 2 17 3 18 77 19 76 20 18 21 19 22 20 23 21 24
REMARK SMILES IDX 22 25 23 26 75 27 24 28 74 29 25 30 26 31 27 32 68 33 28 34
REMARK SMILES IDX 73 35 67 36 69 37 29 38 72 39 66 40 65 41 30 43 56 44 39 45
REMARK SMILES IDX 55 46 40 47 43 48 54 49 70 50 41 51 42 52 53 54 71 55 44 56
REMARK SMILES IDX 31 57 32 58 37 59 33 60 34 61 36 62 38 63 35 64 57 65 58 66
REMARK SMILES IDX 63 67 59 68 60 69 62 70 64 71 61 72 45 73 46 74 51 75 47 76
REMARK SMILES IDX 48 77 50 78 52 79 49 80
REMARK H PARENT 5 11 69 42 43 53
REMARK Flexibility Score: inf
ROOT
ATOM      1  C   UNL A   1      34.026  31.644  27.969  1.00  0.00     0.202 C 
ENDROOT
BRANCH   1   2
ATOM      2  O   UNL A   1      32.821  31.133  27.140  1.00  0.00    -0.374 OA
BRANCH   2   3
ATOM      3  C   UNL A   1      32.506  29.940  26.424  1.00  0.00     0.202 C 
BRANCH   3   4
ATOM      4  C   UNL A   1      32.444  28.647  27.269  1.00  0.00     0.261 C 
BRANCH   4   5
ATOM      5  O   UNL A   1      32.930  27.511  26.539  1.00  0.00    -0.459 OA
BRANCH   5   6
ATOM      6  C   UNL A   1      31.930  26.728  26.063  1.00  0.00     0.367 C 
ATOM      7  O   UNL A   1      31.044  26.254  26.767  1.00  0.00    -0.245 OA
BRANCH   6   8
ATOM      8  C   UNL A   1      32.052  26.466  24.569  1.00  0.00     0.321 C 
ATOM      9  N   UNL A   1      31.740  25.081  24.039  1.00  0.00    -0.316 N 
ATOM     10  C   UNL A   1      31.817  25.207  22.552  1.00  0.00     0.292 C 
ATOM     11  H   UNL A   1      30.835  24.879  24.463  1.00  0.00     0.349 HD
ATOM     12  C   UNL A   1      33.088  25.888  22.000  1.00  0.00     0.221 C 
ATOM     13  C   UNL A   1      33.373  27.059  24.036  1.00  0.00     0.237 C 
ATOM     14  O   UNL A   1      33.340  27.156  22.606  1.00  0.00    -0.369 OA
BRANCH   9  15
ATOM     15  C   UNL A   1      32.370  23.807  24.533  1.00  0.00     0.195 C 
ATOM     16  C   UNL A   1      36.036  21.444  25.634  1.00  0.00     0.019 C 
ATOM     17  C   UNL A   1      35.129  22.632  26.004  1.00  0.00     0.049 C 
ATOM     18  C   UNL A   1      34.349  23.613  24.467  1.00  0.00     0.080 C 
ATOM     19  S   UNL A   1      33.474  22.166  27.623  1.00  0.00    -0.152 SA
ATOM     20  C   UNL A   1      31.672  22.943  26.206  1.00  0.00     0.134 C 
ENDBRANCH   9  15
ENDBRANCH   6   8
ENDBRANCH   5   6
ENDBRANCH   4   5
ENDBRANCH   3   4
ENDBRANCH   2   3
ENDBRANCH   1   2
BRANCH   1  21
ATOM     21  C   UNL A   1      34.395  32.968  29.633  1.00  0.00     0.261 C 
BRANCH  21  22
ATOM     22  O   UNL A   1      34.587  32.730  31.238  1.00  0.00    -0.460 OA
BRANCH  22  23
ATOM     23  C   UNL A   1      35.544  32.163  32.036  1.00  0.00     0.338 C 
ATOM     24  O   UNL A   1      35.886  32.692  33.092  1.00  0.00    -0.246 OA
BRANCH  23  25
ATOM     25  C   UNL A   1      36.300  30.953  31.636  1.00  0.00     0.060 A 
ATOM     26  C   UNL A   1      37.259  30.408  32.512  1.00  0.00     0.016 A 
ATOM     27  C   UNL A   1      36.298  30.590  30.289  1.00  0.00     0.016 A 
ATOM     28  C   UNL A   1      38.302  29.622  32.009  1.00  0.00     0.010 A 
ATOM     29  C   UNL A   1      37.334  29.795  29.792  1.00  0.00     0.010 A 
ATOM     30  C   UNL A   1      38.391  29.396  30.631  1.00  0.00    -0.014 A 
BRANCH  30  31
ATOM     31  C   UNL A   1      39.682  28.990  30.014  1.00  0.00     0.031 A 
ATOM     32  C   UNL A   1      40.770  30.027  29.868  1.00  0.00     0.074 A 
ATOM     33  C   UNL A   1      39.875  27.737  29.573  1.00  0.00     0.049 A 
ATOM     34  N   UNL A   1      41.931  29.946  29.268  1.00  0.00    -0.248 NA
ATOM     35  C   UNL A   1      40.497  31.345  30.464  1.00  0.00     0.031 C 
ATOM     36  C   UNL A   1      38.904  26.654  29.679  1.00  0.00     0.029 A 
ATOM     37  N   UNL A   1      40.945  27.177  28.923  1.00  0.00    -0.354 N 
ATOM     38  C   UNL A   1      42.509  31.206  29.390  1.00  0.00     0.074 A 
ATOM     39  C   UNL A   1      41.557  32.042  30.083  1.00  0.00     0.031 C 
ATOM     40  C   UNL A   1      39.412  25.558  29.090  1.00  0.00     0.029 A 
ATOM     41  C   UNL A   1      40.724  25.879  28.535  1.00  0.00     0.049 A 
ATOM     42  H   UNL A   1      41.787  27.657  28.751  1.00  0.00     0.167 HD
ATOM     43  C   UNL A   1      43.728  31.624  28.966  1.00  0.00     0.037 A 
ATOM     44  C   UNL A   1      41.483  25.057  27.786  1.00  0.00     0.037 A 
ATOM     45  C   UNL A   1      44.664  30.773  28.278  1.00  0.00     0.049 A 
ATOM     46  C   UNL A   1      42.818  25.541  27.295  1.00  0.00     0.074 A 
ATOM     47  C   UNL A   1      45.943  31.066  27.840  1.00  0.00     0.029 A 
ATOM     48  N   UNL A   1      44.409  29.457  27.913  1.00  0.00    -0.354 N 
ATOM     49  N   UNL A   1      43.376  26.720  27.446  1.00  0.00    -0.248 NA
ATOM     50  C   UNL A   1      43.635  24.581  26.543  1.00  0.00     0.031 C 
ATOM     51  C   UNL A   1      46.432  29.952  27.148  1.00  0.00     0.029 A 
ATOM     52  C   UNL A   1      45.490  28.936  27.222  1.00  0.00     0.049 A 
ATOM     53  H   UNL A   1      43.580  28.966  28.117  1.00  0.00     0.167 HD
ATOM     54  C   UNL A   1      44.618  26.639  26.829  1.00  0.00     0.074 A 
ATOM     55  C   UNL A   1      44.734  25.287  26.316  1.00  0.00     0.031 C 
ATOM     56  C   UNL A   1      45.577  27.591  26.705  1.00  0.00     0.037 A 
BRANCH  43  57
ATOM     57  C   UNL A   1      44.085  33.071  29.193  1.00  0.00     0.057 A 
ATOM     58  C   UNL A   1      44.608  33.538  30.408  1.00  0.00     0.134 A 
ATOM     59  C   UNL A   1      43.888  34.020  28.181  1.00  0.00     0.134 A 
ATOM     60  F   UNL A   1      44.819  32.691  31.428  1.00  0.00    -0.206 F 
ATOM     61  C   UNL A   1      44.870  34.894  30.625  1.00  0.00     0.040 A 
ATOM     62  C   UNL A   1      44.182  35.373  28.371  1.00  0.00     0.040 A 
ATOM     63  F   UNL A   1      43.402  33.652  26.985  1.00  0.00    -0.206 F 
ATOM     64  C   UNL A   1      44.660  35.816  29.603  1.00  0.00     0.006 A 
ENDBRANCH  43  57
BRANCH  44  65
ATOM     65  C   UNL A   1      40.975  23.699  27.468  1.00  0.00     0.057 A 
ATOM     66  C   UNL A   1      39.986  23.498  26.500  1.00  0.00     0.134 A 
ATOM     67  C   UNL A   1      41.520  22.561  28.079  1.00  0.00     0.134 A 
ATOM     68  F   UNL A   1      39.415  24.548  25.890  1.00  0.00    -0.206 F 
ATOM     69  C   UNL A   1      39.559  22.217  26.147  1.00  0.00     0.040 A 
ATOM     70  C   UNL A   1      41.122  21.273  27.716  1.00  0.00     0.040 A 
ATOM     71  F   UNL A   1      42.479  22.686  29.007  1.00  0.00    -0.206 F 
ATOM     72  C   UNL A   1      40.137  21.099  26.746  1.00  0.00     0.006 A 
ENDBRANCH  44  65
BRANCH  56  73
ATOM     73  C   UNL A   1      46.847  27.192  26.007  1.00  0.00     0.057 A 
ATOM     74  C   UNL A   1      47.934  26.640  26.696  1.00  0.00     0.134 A 
ATOM     75  C   UNL A   1      46.971  27.337  24.619  1.00  0.00     0.134 A 
ATOM     76  F   UNL A   1      47.887  26.483  28.029  1.00  0.00    -0.206 F 
ATOM     77  C   UNL A   1      49.110  26.278  26.036  1.00  0.00     0.040 A 
ATOM     78  C   UNL A   1      48.127  26.947  23.942  1.00  0.00     0.040 A 
ATOM     79  F   UNL A   1      45.964  27.848  23.894  1.00  0.00    -0.206 F 
ATOM     80  C   UNL A   1      49.205  26.425  24.653  1.00  0.00     0.006 A 
ENDBRANCH  56  73
ENDBRANCH  30  31
ENDBRANCH  23  25
ENDBRANCH  22  23
ENDBRANCH  21  22
ENDBRANCH   1  21
TORSDOF 15
ENDMDL
