MODEL 1
REMARK VINA RESULT:      -8.8      0.000      0.000
REMARK SMILES C[C@@H](C(=O)OCCOCCOC(=O)c1ccc(-c2c3nc(c(-c4c(F)cccc4F)c4ccc([nH]4)c(-c4c(F)cccc4F)c4nc(c(-c5c(F)cccc5F)c5ccc2[nH]5)C=C4)C=C3)cc1)c1cccn(C(F)F)c1=O
REMARK SMILES IDX 8 1 7 2 6 3 5 4 3 5 4 6 2 7 1 8 68 9 69 10 76 11 70 12 72 13
REMARK SMILES IDX 77 14 71 15 73 16 74 17 75 18 9 19 10 20 11 21 12 22 13 23
REMARK SMILES IDX 14 24 15 25 67 26 16 27 66 28 17 29 18 30 19 31 60 32 20 33
REMARK SMILES IDX 65 34 59 35 61 36 21 37 64 38 58 39 57 40 22 42 48 43 31 44
REMARK SMILES IDX 47 45 32 46 35 47 46 48 62 49 33 50 34 51 45 53 63 54 36 55
REMARK SMILES IDX 23 56 24 57 29 58 25 59 26 60 28 61 30 62 27 63 49 64 50 65
REMARK SMILES IDX 55 66 51 67 52 68 54 69 56 70 53 71 37 72 38 73 43 74 39 75
REMARK SMILES IDX 40 76 42 77 44 78 41 79
REMARK H PARENT 61 41 35 52
REMARK Flexibility Score: inf
ROOT
ATOM      1  O   UNL A   1      34.247  36.011  33.382  1.00  0.00    -0.374 OA
ENDROOT
BRANCH   1   2
ATOM      2  C   UNL A   1      34.384  34.619  33.686  1.00  0.00     0.202 C 
BRANCH   2   3
ATOM      3  C   UNL A   1      35.587  34.220  34.548  1.00  0.00     0.261 C 
BRANCH   3   4
ATOM      4  O   UNL A   1      36.807  34.810  34.048  1.00  0.00    -0.463 OA
BRANCH   4   5
ATOM      5  C   UNL A   1      37.947  34.458  34.706  1.00  0.00     0.313 C 
ATOM      6  O   UNL A   1      38.965  35.144  34.722  1.00  0.00    -0.252 OA
BRANCH   5   7
ATOM      7  C   UNL A   1      37.853  33.081  35.376  1.00  0.00     0.132 C 
ATOM      8  C   UNL A   1      38.283  33.021  36.842  1.00  0.00     0.025 C 
BRANCH   7   9
ATOM      9  C   UNL A   1      38.572  32.103  34.462  1.00  0.00     0.032 A 
ATOM     10  C   UNL A   1      39.913  31.972  34.462  1.00  0.00     0.012 A 
ATOM     11  C   UNL A   1      37.770  31.112  33.659  1.00  0.00     0.259 A 
ATOM     12  C   UNL A   1      40.564  30.878  33.789  1.00  0.00     0.019 A 
ATOM     13  N   UNL A   1      38.456  30.018  33.165  1.00  0.00    -0.258 N 
ATOM     14  O   UNL A   1      36.568  31.279  33.481  1.00  0.00    -0.269 OA
ATOM     15  C   UNL A   1      39.832  29.923  33.207  1.00  0.00     0.095 A 
BRANCH  13  16
ATOM     16  C   UNL A   1      37.686  28.985  32.518  1.00  0.00     0.451 C 
ATOM     17  F   UNL A   1      36.845  29.549  31.609  1.00  0.00    -0.185 F 
ATOM     18  F   UNL A   1      38.508  28.163  31.814  1.00  0.00    -0.185 F 
ENDBRANCH  13  16
ENDBRANCH   7   9
ENDBRANCH   5   7
ENDBRANCH   4   5
ENDBRANCH   3   4
ENDBRANCH   2   3
ENDBRANCH   1   2
BRANCH   1  19
ATOM     19  C   UNL A   1      33.013  36.417  32.797  1.00  0.00     0.202 C 
BRANCH  19  20
ATOM     20  C   UNL A   1      32.923  36.379  31.267  1.00  0.00     0.261 C 
BRANCH  20  21
ATOM     21  O   UNL A   1      32.874  35.038  30.757  1.00  0.00    -0.460 OA
BRANCH  21  22
ATOM     22  C   UNL A   1      33.290  34.922  29.475  1.00  0.00     0.338 C 
ATOM     23  O   UNL A   1      32.861  35.516  28.494  1.00  0.00    -0.246 OA
BRANCH  22  24
ATOM     24  C   UNL A   1      34.491  34.074  29.412  1.00  0.00     0.060 A 
ATOM     25  C   UNL A   1      34.760  33.265  30.523  1.00  0.00     0.016 A 
ATOM     26  C   UNL A   1      35.368  34.111  28.325  1.00  0.00     0.016 A 
ATOM     27  C   UNL A   1      35.941  32.532  30.579  1.00  0.00     0.010 A 
ATOM     28  C   UNL A   1      36.559  33.379  28.387  1.00  0.00     0.010 A 
ATOM     29  C   UNL A   1      36.866  32.620  29.531  1.00  0.00    -0.014 A 
BRANCH  29  30
ATOM     30  C   UNL A   1      38.218  32.043  29.716  1.00  0.00     0.031 A 
ATOM     31  C   UNL A   1      39.250  32.844  30.461  1.00  0.00     0.074 A 
ATOM     32  C   UNL A   1      38.504  30.808  29.274  1.00  0.00     0.049 A 
ATOM     33  N   UNL A   1      40.491  32.540  30.743  1.00  0.00    -0.248 NA
ATOM     34  C   UNL A   1      38.826  34.164  30.955  1.00  0.00     0.031 C 
ATOM     35  C   UNL A   1      37.572  29.922  28.578  1.00  0.00     0.029 A 
ATOM     36  N   UNL A   1      39.667  30.084  29.348  1.00  0.00    -0.354 N 
ATOM     37  C   UNL A   1      40.997  33.630  31.441  1.00  0.00     0.074 A 
ATOM     38  C   UNL A   1      39.939  34.615  31.515  1.00  0.00     0.031 C 
ATOM     39  C   UNL A   1      38.202  28.770  28.287  1.00  0.00     0.029 A 
ATOM     40  C   UNL A   1      39.587  28.852  28.749  1.00  0.00     0.049 A 
ATOM     41  H   UNL A   1      40.481  30.416  29.791  1.00  0.00     0.167 HD
ATOM     42  C   UNL A   1      42.228  33.790  31.981  1.00  0.00     0.037 A 
ATOM     43  C   UNL A   1      40.530  27.905  28.581  1.00  0.00     0.037 A 
ATOM     44  C   UNL A   1      43.274  32.806  31.911  1.00  0.00     0.049 A 
ATOM     45  C   UNL A   1      41.913  28.138  29.128  1.00  0.00     0.074 A 
ATOM     46  C   UNL A   1      44.550  32.864  32.445  1.00  0.00     0.029 A 
ATOM     47  N   UNL A   1      43.168  31.587  31.258  1.00  0.00    -0.354 N 
ATOM     48  N   UNL A   1      42.372  29.159  29.811  1.00  0.00    -0.248 NA
ATOM     49  C   UNL A   1      42.909  27.084  28.885  1.00  0.00     0.031 C 
ATOM     50  C   UNL A   1      45.231  31.700  32.073  1.00  0.00     0.029 A 
ATOM     51  C   UNL A   1      44.364  30.896  31.351  1.00  0.00     0.049 A 
ATOM     52  H   UNL A   1      42.361  31.262  30.797  1.00  0.00     0.167 HD
ATOM     53  C   UNL A   1      43.697  28.859  30.103  1.00  0.00     0.074 A 
ATOM     54  C   UNL A   1      43.965  27.555  29.532  1.00  0.00     0.031 C 
ATOM     55  C   UNL A   1      44.610  29.595  30.783  1.00  0.00     0.037 A 
BRANCH  42  56
ATOM     56  C   UNL A   1      42.516  35.091  32.671  1.00  0.00     0.057 A 
ATOM     57  C   UNL A   1      42.298  35.267  34.043  1.00  0.00     0.134 A 
ATOM     58  C   UNL A   1      43.049  36.171  31.956  1.00  0.00     0.134 A 
ATOM     59  F   UNL A   1      41.775  34.276  34.782  1.00  0.00    -0.206 F 
ATOM     60  C   UNL A   1      42.579  36.479  34.676  1.00  0.00     0.040 A 
ATOM     61  C   UNL A   1      43.358  37.379  32.584  1.00  0.00     0.040 A 
ATOM     62  F   UNL A   1      43.285  36.068  30.640  1.00  0.00    -0.206 F 
ATOM     63  C   UNL A   1      43.117  37.538  33.947  1.00  0.00     0.006 A 
ENDBRANCH  42  56
BRANCH  43  64
ATOM     64  C   UNL A   1      40.208  26.653  27.852  1.00  0.00     0.057 A 
ATOM     65  C   UNL A   1      39.462  25.634  28.455  1.00  0.00     0.134 A 
ATOM     66  C   UNL A   1      40.657  26.434  26.544  1.00  0.00     0.134 A 
ATOM     67  F   UNL A   1      39.024  25.773  29.715  1.00  0.00    -0.206 F 
ATOM     68  C   UNL A   1      39.189  24.436  27.791  1.00  0.00     0.040 A 
ATOM     69  C   UNL A   1      40.370  25.253  25.859  1.00  0.00     0.040 A 
ATOM     70  F   UNL A   1      41.376  27.373  25.909  1.00  0.00    -0.206 F 
ATOM     71  C   UNL A   1      39.641  24.246  26.487  1.00  0.00     0.006 A 
ENDBRANCH  43  64
BRANCH  55  72
ATOM     72  C   UNL A   1      45.971  28.991  30.981  1.00  0.00     0.057 A 
ATOM     73  C   UNL A   1      46.262  28.165  32.073  1.00  0.00     0.134 A 
ATOM     74  C   UNL A   1      46.988  29.207  30.042  1.00  0.00     0.134 A 
ATOM     75  F   UNL A   1      45.336  27.930  33.013  1.00  0.00    -0.206 F 
ATOM     76  C   UNL A   1      47.525  27.592  32.236  1.00  0.00     0.040 A 
ATOM     77  C   UNL A   1      48.245  28.618  30.180  1.00  0.00     0.040 A 
ATOM     78  F   UNL A   1      46.772  29.980  28.967  1.00  0.00    -0.206 F 
ATOM     79  C   UNL A   1      48.518  27.812  31.283  1.00  0.00     0.006 A 
ENDBRANCH  55  72
ENDBRANCH  29  30
ENDBRANCH  22  24
ENDBRANCH  21  22
ENDBRANCH  20  21
ENDBRANCH  19  20
ENDBRANCH   1  19
TORSDOF 16
ENDMDL
MODEL 2
REMARK VINA RESULT:      -8.3      5.359     10.983
REMARK SMILES C[C@@H](C(=O)OCCOCCOC(=O)c1ccc(-c2c3nc(c(-c4c(F)cccc4F)c4ccc([nH]4)c(-c4c(F)cccc4F)c4nc(c(-c5c(F)cccc5F)c5ccc2[nH]5)C=C4)C=C3)cc1)c1cccn(C(F)F)c1=O
REMARK SMILES IDX 8 1 7 2 6 3 5 4 3 5 4 6 2 7 1 8 68 9 69 10 76 11 70 12 72 13
REMARK SMILES IDX 77 14 71 15 73 16 74 17 75 18 9 19 10 20 11 21 12 22 13 23
REMARK SMILES IDX 14 24 15 25 67 26 16 27 66 28 17 29 18 30 19 31 60 32 20 33
REMARK SMILES IDX 65 34 59 35 61 36 21 37 64 38 58 39 57 40 22 42 48 43 31 44
REMARK SMILES IDX 47 45 32 46 35 47 46 48 62 49 33 50 34 51 45 53 63 54 36 55
REMARK SMILES IDX 23 56 24 57 29 58 25 59 26 60 28 61 30 62 27 63 49 64 50 65
REMARK SMILES IDX 55 66 51 67 52 68 54 69 56 70 53 71 37 72 38 73 43 74 39 75
REMARK SMILES IDX 40 76 42 77 44 78 41 79
REMARK H PARENT 61 41 35 52
REMARK Flexibility Score: inf
ROOT
ATOM      1  O   UNL A   1      41.741  21.516  26.825  1.00  0.00    -0.374 OA
ENDROOT
BRANCH   1   2
ATOM      2  C   UNL A   1      40.663  21.360  25.897  1.00  0.00     0.202 C 
BRANCH   2   3
ATOM      3  C   UNL A   1      39.315  21.965  26.302  1.00  0.00     0.261 C 
BRANCH   3   4
ATOM      4  O   UNL A   1      38.265  21.557  25.398  1.00  0.00    -0.463 OA
BRANCH   4   5
ATOM      5  C   UNL A   1      37.118  22.289  25.452  1.00  0.00     0.313 C 
ATOM      6  O   UNL A   1      36.798  22.988  26.409  1.00  0.00    -0.252 OA
BRANCH   5   7
ATOM      7  C   UNL A   1      36.228  22.103  24.216  1.00  0.00     0.132 C 
ATOM      8  C   UNL A   1      36.184  23.280  23.241  1.00  0.00     0.025 C 
BRANCH   7   9
ATOM      9  C   UNL A   1      34.870  21.646  24.722  1.00  0.00     0.032 A 
ATOM     10  C   UNL A   1      33.834  22.495  24.865  1.00  0.00     0.012 A 
ATOM     11  C   UNL A   1      34.602  20.174  24.899  1.00  0.00     0.259 A 
ATOM     12  C   UNL A   1      32.495  22.017  25.098  1.00  0.00     0.019 A 
ATOM     13  N   UNL A   1      33.275  19.793  24.977  1.00  0.00    -0.258 N 
ATOM     14  O   UNL A   1      35.528  19.371  24.951  1.00  0.00    -0.269 OA
ATOM     15  C   UNL A   1      32.247  20.704  25.103  1.00  0.00     0.095 A 
BRANCH  13  16
ATOM     16  C   UNL A   1      32.988  18.380  25.001  1.00  0.00     0.451 C 
ATOM     17  F   UNL A   1      32.316  18.074  26.143  1.00  0.00    -0.185 F 
ATOM     18  F   UNL A   1      32.158  18.056  23.974  1.00  0.00    -0.185 F 
ENDBRANCH  13  16
ENDBRANCH   7   9
ENDBRANCH   5   7
ENDBRANCH   4   5
ENDBRANCH   3   4
ENDBRANCH   2   3
ENDBRANCH   1   2
BRANCH   1  19
ATOM     19  C   UNL A   1      43.020  21.052  26.401  1.00  0.00     0.202 C 
BRANCH  19  20
ATOM     20  C   UNL A   1      43.997  22.102  25.860  1.00  0.00     0.261 C 
BRANCH  20  21
ATOM     21  O   UNL A   1      43.327  23.162  25.162  1.00  0.00    -0.460 OA
BRANCH  21  22
ATOM     22  C   UNL A   1      43.949  24.359  25.251  1.00  0.00     0.338 C 
ATOM     23  O   UNL A   1      44.921  24.746  24.615  1.00  0.00    -0.246 OA
BRANCH  22  24
ATOM     24  C   UNL A   1      43.184  25.257  26.133  1.00  0.00     0.060 A 
ATOM     25  C   UNL A   1      43.723  26.526  26.373  1.00  0.00     0.016 A 
ATOM     26  C   UNL A   1      42.003  24.851  26.759  1.00  0.00     0.016 A 
ATOM     27  C   UNL A   1      43.115  27.378  27.290  1.00  0.00     0.010 A 
ATOM     28  C   UNL A   1      41.397  25.705  27.686  1.00  0.00     0.010 A 
ATOM     29  C   UNL A   1      41.974  26.954  27.983  1.00  0.00    -0.014 A 
BRANCH  29  30
ATOM     30  C   UNL A   1      41.490  27.758  29.130  1.00  0.00     0.031 A 
ATOM     31  C   UNL A   1      42.219  27.658  30.442  1.00  0.00     0.074 A 
ATOM     32  C   UNL A   1      40.454  28.600  28.989  1.00  0.00     0.049 A 
ATOM     33  N   UNL A   1      41.976  28.268  31.574  1.00  0.00    -0.248 NA
ATOM     34  C   UNL A   1      43.376  26.750  30.483  1.00  0.00     0.031 C 
ATOM     35  C   UNL A   1      39.699  28.813  27.755  1.00  0.00     0.029 A 
ATOM     36  N   UNL A   1      39.858  29.437  29.898  1.00  0.00    -0.354 N 
ATOM     37  C   UNL A   1      42.944  27.815  32.461  1.00  0.00     0.074 A 
ATOM     38  C   UNL A   1      43.760  26.857  31.746  1.00  0.00     0.031 C 
ATOM     39  C   UNL A   1      38.736  29.723  27.986  1.00  0.00     0.029 A 
ATOM     40  C   UNL A   1      38.790  30.132  29.389  1.00  0.00     0.049 A 
ATOM     41  H   UNL A   1      40.168  29.531  30.828  1.00  0.00     0.167 HD
ATOM     42  C   UNL A   1      43.141  28.173  33.751  1.00  0.00     0.037 A 
ATOM     43  C   UNL A   1      37.944  30.988  29.993  1.00  0.00     0.037 A 
ATOM     44  C   UNL A   1      42.332  29.130  34.456  1.00  0.00     0.049 A 
ATOM     45  C   UNL A   1      38.141  31.316  31.449  1.00  0.00     0.074 A 
ATOM     46  C   UNL A   1      42.463  29.578  35.760  1.00  0.00     0.029 A 
ATOM     47  N   UNL A   1      41.232  29.781  33.918  1.00  0.00    -0.354 N 
ATOM     48  N   UNL A   1      39.077  30.903  32.270  1.00  0.00    -0.248 NA
ATOM     49  C   UNL A   1      37.167  32.230  32.061  1.00  0.00     0.031 C 
ATOM     50  C   UNL A   1      41.414  30.464  36.024  1.00  0.00     0.029 A 
ATOM     51  C   UNL A   1      40.659  30.606  34.871  1.00  0.00     0.049 A 
ATOM     52  H   UNL A   1      40.908  29.673  32.995  1.00  0.00     0.167 HD
ATOM     53  C   UNL A   1      38.821  31.529  33.484  1.00  0.00     0.074 A 
ATOM     54  C   UNL A   1      37.650  32.357  33.289  1.00  0.00     0.031 C 
ATOM     55  C   UNL A   1      39.497  31.429  34.656  1.00  0.00     0.037 A 
BRANCH  42  56
ATOM     56  C   UNL A   1      44.262  27.503  34.491  1.00  0.00     0.057 A 
ATOM     57  C   UNL A   1      44.091  26.278  35.147  1.00  0.00     0.134 A 
ATOM     58  C   UNL A   1      45.538  28.080  34.520  1.00  0.00     0.134 A 
ATOM     59  F   UNL A   1      42.890  25.680  35.170  1.00  0.00    -0.206 F 
ATOM     60  C   UNL A   1      45.144  25.660  35.825  1.00  0.00     0.040 A 
ATOM     61  C   UNL A   1      46.605  27.459  35.172  1.00  0.00     0.040 A 
ATOM     62  F   UNL A   1      45.771  29.251  33.909  1.00  0.00    -0.206 F 
ATOM     63  C   UNL A   1      46.408  26.248  35.832  1.00  0.00     0.006 A 
ENDBRANCH  42  56
BRANCH  43  64
ATOM     64  C   UNL A   1      36.823  31.591  29.228  1.00  0.00     0.057 A 
ATOM     65  C   UNL A   1      35.678  30.851  28.913  1.00  0.00     0.134 A 
ATOM     66  C   UNL A   1      36.880  32.915  28.774  1.00  0.00     0.134 A 
ATOM     67  F   UNL A   1      35.575  29.571  29.298  1.00  0.00    -0.206 F 
ATOM     68  C   UNL A   1      34.638  31.398  28.159  1.00  0.00     0.040 A 
ATOM     69  C   UNL A   1      35.837  33.483  28.042  1.00  0.00     0.040 A 
ATOM     70  F   UNL A   1      37.950  33.678  29.044  1.00  0.00    -0.206 F 
ATOM     71  C   UNL A   1      34.715  32.720  27.726  1.00  0.00     0.006 A 
ENDBRANCH  43  64
BRANCH  55  72
ATOM     72  C   UNL A   1      39.008  32.264  35.805  1.00  0.00     0.057 A 
ATOM     73  C   UNL A   1      38.164  31.741  36.792  1.00  0.00     0.134 A 
ATOM     74  C   UNL A   1      39.425  33.594  35.945  1.00  0.00     0.134 A 
ATOM     75  F   UNL A   1      37.721  30.479  36.709  1.00  0.00    -0.206 F 
ATOM     76  C   UNL A   1      37.733  32.520  37.868  1.00  0.00     0.040 A 
ATOM     77  C   UNL A   1      39.022  34.374  37.029  1.00  0.00     0.040 A 
ATOM     78  F   UNL A   1      40.242  34.153  35.039  1.00  0.00    -0.206 F 
ATOM     79  C   UNL A   1      38.169  33.838  37.992  1.00  0.00     0.006 A 
ENDBRANCH  55  72
ENDBRANCH  29  30
ENDBRANCH  22  24
ENDBRANCH  21  22
ENDBRANCH  20  21
ENDBRANCH  19  20
ENDBRANCH   1  19
TORSDOF 16
ENDMDL
MODEL 3
REMARK VINA RESULT:      -8.1      5.297     11.127
REMARK SMILES C[C@@H](C(=O)OCCOCCOC(=O)c1ccc(-c2c3nc(c(-c4c(F)cccc4F)c4ccc([nH]4)c(-c4c(F)cccc4F)c4nc(c(-c5c(F)cccc5F)c5ccc2[nH]5)C=C4)C=C3)cc1)c1cccn(C(F)F)c1=O
REMARK SMILES IDX 8 1 7 2 6 3 5 4 3 5 4 6 2 7 1 8 68 9 69 10 76 11 70 12 72 13
REMARK SMILES IDX 77 14 71 15 73 16 74 17 75 18 9 19 10 20 11 21 12 22 13 23
REMARK SMILES IDX 14 24 15 25 67 26 16 27 66 28 17 29 18 30 19 31 60 32 20 33
REMARK SMILES IDX 65 34 59 35 61 36 21 37 64 38 58 39 57 40 22 42 48 43 31 44
REMARK SMILES IDX 47 45 32 46 35 47 46 48 62 49 33 50 34 51 45 53 63 54 36 55
REMARK SMILES IDX 23 56 24 57 29 58 25 59 26 60 28 61 30 62 27 63 49 64 50 65
REMARK SMILES IDX 55 66 51 67 52 68 54 69 56 70 53 71 37 72 38 73 43 74 39 75
REMARK SMILES IDX 40 76 42 77 44 78 41 79
REMARK H PARENT 61 41 35 52
REMARK Flexibility Score: inf
ROOT
ATOM      1  O   UNL A   1      42.129  20.374  25.907  1.00  0.00    -0.374 OA
ENDROOT
BRANCH   1   2
ATOM      2  C   UNL A   1      40.775  20.506  26.351  1.00  0.00     0.202 C 
BRANCH   2   3
ATOM      3  C   UNL A   1      40.090  21.849  26.077  1.00  0.00     0.261 C 
BRANCH   3   4
ATOM      4  O   UNL A   1      38.678  21.786  26.372  1.00  0.00    -0.463 OA
BRANCH   4   5
ATOM      5  C   UNL A   1      37.863  21.520  25.314  1.00  0.00     0.313 C 
ATOM      6  O   UNL A   1      37.949  20.510  24.621  1.00  0.00    -0.252 OA
BRANCH   5   7
ATOM      7  C   UNL A   1      36.859  22.645  25.032  1.00  0.00     0.132 C 
ATOM      8  C   UNL A   1      36.860  23.807  26.026  1.00  0.00     0.025 C 
BRANCH   7   9
ATOM      9  C   UNL A   1      35.506  21.982  24.831  1.00  0.00     0.032 A 
ATOM     10  C   UNL A   1      34.978  21.138  25.738  1.00  0.00     0.012 A 
ATOM     11  C   UNL A   1      34.634  22.411  23.679  1.00  0.00     0.259 A 
ATOM     12  C   UNL A   1      33.602  20.717  25.665  1.00  0.00     0.019 A 
ATOM     13  N   UNL A   1      33.295  22.079  23.762  1.00  0.00    -0.258 N 
ATOM     14  O   UNL A   1      35.107  23.036  22.735  1.00  0.00    -0.269 OA
ATOM     15  C   UNL A   1      32.799  21.223  24.724  1.00  0.00     0.095 A 
BRANCH  13  16
ATOM     16  C   UNL A   1      32.415  22.600  22.745  1.00  0.00     0.451 C 
ATOM     17  F   UNL A   1      32.009  21.588  21.934  1.00  0.00    -0.185 F 
ATOM     18  F   UNL A   1      31.288  23.103  23.318  1.00  0.00    -0.185 F 
ENDBRANCH  13  16
ENDBRANCH   7   9
ENDBRANCH   5   7
ENDBRANCH   4   5
ENDBRANCH   3   4
ENDBRANCH   2   3
ENDBRANCH   1   2
BRANCH   1  19
ATOM     19  C   UNL A   1      43.052  21.354  26.376  1.00  0.00     0.202 C 
BRANCH  19  20
ATOM     20  C   UNL A   1      43.749  22.216  25.317  1.00  0.00     0.261 C 
BRANCH  20  21
ATOM     21  O   UNL A   1      43.035  23.430  25.045  1.00  0.00    -0.460 OA
BRANCH  21  22
ATOM     22  C   UNL A   1      43.754  24.553  25.268  1.00  0.00     0.338 C 
ATOM     23  O   UNL A   1      44.763  24.924  24.681  1.00  0.00    -0.246 OA
BRANCH  22  24
ATOM     24  C   UNL A   1      43.058  25.410  26.241  1.00  0.00     0.060 A 
ATOM     25  C   UNL A   1      43.512  26.728  26.371  1.00  0.00     0.016 A 
ATOM     26  C   UNL A   1      42.028  24.926  27.051  1.00  0.00     0.016 A 
ATOM     27  C   UNL A   1      42.979  27.554  27.355  1.00  0.00     0.010 A 
ATOM     28  C   UNL A   1      41.498  25.755  28.045  1.00  0.00     0.010 A 
ATOM     29  C   UNL A   1      42.000  27.057  28.226  1.00  0.00    -0.014 A 
BRANCH  29  30
ATOM     30  C   UNL A   1      41.629  27.853  29.419  1.00  0.00     0.031 A 
ATOM     31  C   UNL A   1      40.431  28.758  29.340  1.00  0.00     0.074 A 
ATOM     32  C   UNL A   1      42.315  27.730  30.567  1.00  0.00     0.049 A 
ATOM     33  N   UNL A   1      39.921  29.542  30.256  1.00  0.00    -0.248 NA
ATOM     34  C   UNL A   1      39.711  28.785  28.057  1.00  0.00     0.031 C 
ATOM     35  C   UNL A   1      43.465  26.851  30.775  1.00  0.00     0.029 A 
ATOM     36  N   UNL A   1      42.139  28.349  31.779  1.00  0.00    -0.354 N 
ATOM     37  C   UNL A   1      38.827  30.156  29.661  1.00  0.00     0.074 A 
ATOM     38  C   UNL A   1      38.762  29.678  28.296  1.00  0.00     0.031 C 
ATOM     39  C   UNL A   1      43.894  26.989  32.042  1.00  0.00     0.029 A 
ATOM     40  C   UNL A   1      43.068  27.986  32.721  1.00  0.00     0.049 A 
ATOM     41  H   UNL A   1      41.414  28.991  31.956  1.00  0.00     0.167 HD
ATOM     42  C   UNL A   1      37.949  31.030  30.205  1.00  0.00     0.037 A 
ATOM     43  C   UNL A   1      43.240  28.422  33.984  1.00  0.00     0.037 A 
ATOM     44  C   UNL A   1      38.013  31.498  31.564  1.00  0.00     0.049 A 
ATOM     45  C   UNL A   1      42.292  29.450  34.544  1.00  0.00     0.074 A 
ATOM     46  C   UNL A   1      37.158  32.368  32.218  1.00  0.00     0.029 A 
ATOM     47  N   UNL A   1      38.995  31.140  32.475  1.00  0.00    -0.354 N 
ATOM     48  N   UNL A   1      41.244  30.002  33.981  1.00  0.00    -0.248 NA
ATOM     49  C   UNL A   1      42.549  29.912  35.915  1.00  0.00     0.031 C 
ATOM     50  C   UNL A   1      37.650  32.574  33.511  1.00  0.00     0.029 A 
ATOM     51  C   UNL A   1      38.783  31.793  33.678  1.00  0.00     0.049 A 
ATOM     52  H   UNL A   1      39.732  30.514  32.294  1.00  0.00     0.167 HD
ATOM     53  C   UNL A   1      40.701  30.852  34.938  1.00  0.00     0.074 A 
ATOM     54  C   UNL A   1      41.530  30.734  36.119  1.00  0.00     0.031 C 
ATOM     55  C   UNL A   1      39.614  31.657  34.846  1.00  0.00     0.037 A 
BRANCH  42  56
ATOM     56  C   UNL A   1      36.859  31.559  29.319  1.00  0.00     0.057 A 
ATOM     57  C   UNL A   1      36.901  32.852  28.783  1.00  0.00     0.134 A 
ATOM     58  C   UNL A   1      35.769  30.750  28.974  1.00  0.00     0.134 A 
ATOM     59  F   UNL A   1      37.910  33.683  29.086  1.00  0.00    -0.206 F 
ATOM     60  C   UNL A   1      35.885  33.329  27.952  1.00  0.00     0.040 A 
ATOM     61  C   UNL A   1      34.762  31.207  28.124  1.00  0.00     0.040 A 
ATOM     62  F   UNL A   1      35.670  29.500  29.451  1.00  0.00    -0.206 F 
ATOM     63  C   UNL A   1      34.815  32.503  27.614  1.00  0.00     0.006 A 
ENDBRANCH  42  56
BRANCH  43  64
ATOM     64  C   UNL A   1      44.360  27.901  34.807  1.00  0.00     0.057 A 
ATOM     65  C   UNL A   1      45.620  28.509  34.787  1.00  0.00     0.134 A 
ATOM     66  C   UNL A   1      44.204  26.767  35.615  1.00  0.00     0.134 A 
ATOM     67  F   UNL A   1      45.839  29.583  34.015  1.00  0.00    -0.206 F 
ATOM     68  C   UNL A   1      46.690  28.000  35.526  1.00  0.00     0.040 A 
ATOM     69  C   UNL A   1      45.257  26.262  36.378  1.00  0.00     0.040 A 
ATOM     70  F   UNL A   1      43.020  26.138  35.678  1.00  0.00    -0.206 F 
ATOM     71  C   UNL A   1      46.507  26.875  36.328  1.00  0.00     0.006 A 
ENDBRANCH  43  64
BRANCH  55  72
ATOM     72  C   UNL A   1      39.236  32.443  36.069  1.00  0.00     0.057 A 
ATOM     73  C   UNL A   1      38.392  31.918  37.055  1.00  0.00     0.134 A 
ATOM     74  C   UNL A   1      39.760  33.726  36.280  1.00  0.00     0.134 A 
ATOM     75  F   UNL A   1      37.849  30.701  36.906  1.00  0.00    -0.206 F 
ATOM     76  C   UNL A   1      38.064  32.649  38.198  1.00  0.00     0.040 A 
ATOM     77  C   UNL A   1      39.461  34.456  37.431  1.00  0.00     0.040 A 
ATOM     78  F   UNL A   1      40.583  34.284  35.379  1.00  0.00    -0.206 F 
ATOM     79  C   UNL A   1      38.606  33.919  38.392  1.00  0.00     0.006 A 
ENDBRANCH  55  72
ENDBRANCH  29  30
ENDBRANCH  22  24
ENDBRANCH  21  22
ENDBRANCH  20  21
ENDBRANCH  19  20
ENDBRANCH   1  19
TORSDOF 16
ENDMDL
