MODEL 1
REMARK VINA RESULT:     -11.6      0.000      0.000
REMARK SMILES C[C@H]1[C@H](C(=O)OCCOCCOC(=O)c2ccc(-c3c4nc(c(-c5c(F)cccc5F)c5ccc([nH]5)c(-c5c(F)cccc5F)c5nc(c(-c6c(F)cccc6F)c6ccc3[nH]6)C=C5)C=C4)cc2)CCN1C(=O)Nc1ccc(F)c(Cl)c1
REMARK SMILES IDX 9 1 8 2 7 3 6 4 4 5 5 6 3 7 1 8 2 9 71 10 69 11 70 12 72 13
REMARK SMILES IDX 73 14 74 15 75 17 76 18 82 19 77 20 80 21 78 22 81 23 79 24
REMARK SMILES IDX 10 25 11 26 12 27 13 28 14 29 15 30 16 31 68 32 17 33 67 34
REMARK SMILES IDX 18 35 19 36 20 37 61 38 21 39 66 40 60 41 62 42 22 43 65 44
REMARK SMILES IDX 59 45 58 46 23 48 49 49 32 50 48 51 33 52 36 53 47 54 63 55
REMARK SMILES IDX 34 56 35 57 46 59 64 60 37 61 24 62 25 63 30 64 26 65 27 66
REMARK SMILES IDX 29 67 31 68 28 69 50 70 51 71 56 72 52 73 53 74 55 75 57 76
REMARK SMILES IDX 54 77 38 78 39 79 44 80 40 81 41 82 43 83 45 84 42 85
REMARK H PARENT 74 16 62 47 36 58
REMARK Flexibility Score: inf
ROOT
ATOM      1  O   UNL A   1      30.894  28.867  23.909  1.00  0.00    -0.374 OA
ENDROOT
BRANCH   1   2
ATOM      2  C   UNL A   1      31.885  28.687  22.906  1.00  0.00     0.202 C 
BRANCH   2   3
ATOM      3  C   UNL A   1      32.124  27.273  22.367  1.00  0.00     0.261 C 
BRANCH   3   4
ATOM      4  O   UNL A   1      33.492  26.832  22.421  1.00  0.00    -0.463 OA
BRANCH   4   5
ATOM      5  C   UNL A   1      33.653  25.524  22.754  1.00  0.00     0.311 C 
ATOM      6  O   UNL A   1      33.618  24.589  21.962  1.00  0.00    -0.252 OA
BRANCH   5   7
ATOM      7  C   UNL A   1      33.788  25.290  24.237  1.00  0.00     0.123 C 
ATOM      8  C   UNL A   1      31.974  25.843  25.861  1.00  0.00     0.032 C 
ATOM      9  C   UNL A   1      32.578  24.708  25.023  1.00  0.00     0.098 C 
ATOM     10  N   UNL A   1      33.158  23.634  25.853  1.00  0.00    -0.321 N 
ATOM     11  C   UNL A   1      34.935  24.317  24.462  1.00  0.00     0.039 C 
ATOM     12  C   UNL A   1      34.612  23.705  25.798  1.00  0.00     0.122 C 
BRANCH  10  13
ATOM     13  C   UNL A   1      32.636  22.673  26.659  1.00  0.00     0.322 C 
ATOM     14  O   UNL A   1      32.253  22.954  27.804  1.00  0.00    -0.248 OA
ATOM     15  N   UNL A   1      32.328  21.421  26.288  1.00  0.00    -0.308 N 
ATOM     16  H   UNL A   1      31.786  20.979  26.981  1.00  0.00     0.171 HD
BRANCH  15  17
ATOM     17  C   UNL A   1      32.545  20.559  25.218  1.00  0.00     0.044 A 
ATOM     18  C   UNL A   1      32.152  21.040  23.959  1.00  0.00     0.029 A 
ATOM     19  C   UNL A   1      32.903  19.221  25.368  1.00  0.00     0.049 A 
ATOM     20  C   UNL A   1      32.189  20.219  22.835  1.00  0.00     0.043 A 
ATOM     21  C   UNL A   1      32.847  18.377  24.247  1.00  0.00     0.078 A 
ATOM     22  C   UNL A   1      32.527  18.886  22.989  1.00  0.00     0.141 A 
ATOM     23  Cl  UNL A   1      33.060  16.677  24.408  1.00  0.00    -0.081 Cl
ATOM     24  F   UNL A   1      32.507  18.089  21.910  1.00  0.00    -0.205 F 
ENDBRANCH  15  17
ENDBRANCH  10  13
ENDBRANCH   5   7
ENDBRANCH   4   5
ENDBRANCH   3   4
ENDBRANCH   2   3
ENDBRANCH   1   2
BRANCH   1  25
ATOM     25  C   UNL A   1      31.139  29.797  24.956  1.00  0.00     0.202 C 
BRANCH  25  26
ATOM     26  C   UNL A   1      32.534  29.848  25.584  1.00  0.00     0.261 C 
BRANCH  26  27
ATOM     27  O   UNL A   1      32.547  30.174  26.988  1.00  0.00    -0.460 OA
BRANCH  27  28
ATOM     28  C   UNL A   1      33.240  31.303  27.280  1.00  0.00     0.338 C 
ATOM     29  O   UNL A   1      32.776  32.440  27.359  1.00  0.00    -0.246 OA
BRANCH  28  30
ATOM     30  C   UNL A   1      34.652  31.044  27.625  1.00  0.00     0.060 A 
ATOM     31  C   UNL A   1      34.990  29.719  27.923  1.00  0.00     0.016 A 
ATOM     32  C   UNL A   1      35.590  32.063  27.816  1.00  0.00     0.016 A 
ATOM     33  C   UNL A   1      36.227  29.421  28.485  1.00  0.00     0.010 A 
ATOM     34  C   UNL A   1      36.836  31.763  28.382  1.00  0.00     0.010 A 
ATOM     35  C   UNL A   1      37.140  30.448  28.762  1.00  0.00    -0.014 A 
BRANCH  35  36
ATOM     36  C   UNL A   1      38.362  30.117  29.532  1.00  0.00     0.031 A 
ATOM     37  C   UNL A   1      38.517  30.611  30.944  1.00  0.00     0.074 A 
ATOM     38  C   UNL A   1      39.284  29.298  28.996  1.00  0.00     0.049 A 
ATOM     39  N   UNL A   1      39.423  30.295  31.834  1.00  0.00    -0.248 NA
ATOM     40  C   UNL A   1      37.524  31.588  31.416  1.00  0.00     0.031 C 
ATOM     41  C   UNL A   1      39.243  28.764  27.636  1.00  0.00     0.029 A 
ATOM     42  N   UNL A   1      40.419  28.758  29.540  1.00  0.00    -0.354 N 
ATOM     43  C   UNL A   1      39.103  31.022  32.975  1.00  0.00     0.074 A 
ATOM     44  C   UNL A   1      37.944  31.826  32.650  1.00  0.00     0.031 C 
ATOM     45  C   UNL A   1      40.298  27.953  27.456  1.00  0.00     0.029 A 
ATOM     46  C   UNL A   1      41.086  27.916  28.687  1.00  0.00     0.049 A 
ATOM     47  H   UNL A   1      40.727  28.955  30.454  1.00  0.00     0.167 HD
ATOM     48  C   UNL A   1      39.709  31.005  34.186  1.00  0.00     0.037 A 
ATOM     49  C   UNL A   1      42.197  27.181  28.882  1.00  0.00     0.037 A 
ATOM     50  C   UNL A   1      40.863  30.204  34.506  1.00  0.00     0.049 A 
ATOM     51  C   UNL A   1      42.854  27.182  30.234  1.00  0.00     0.074 A 
ATOM     52  C   UNL A   1      41.533  30.096  35.713  1.00  0.00     0.029 A 
ATOM     53  N   UNL A   1      41.521  29.379  33.608  1.00  0.00    -0.354 N 
ATOM     54  N   UNL A   1      42.503  27.823  31.323  1.00  0.00    -0.248 NA
ATOM     55  C   UNL A   1      44.050  26.342  30.387  1.00  0.00     0.031 C 
ATOM     56  C   UNL A   1      42.618  29.230  35.535  1.00  0.00     0.029 A 
ATOM     57  C   UNL A   1      42.601  28.771  34.228  1.00  0.00     0.049 A 
ATOM     58  H   UNL A   1      41.260  29.244  32.668  1.00  0.00     0.167 HD
ATOM     59  C   UNL A   1      43.420  27.449  32.295  1.00  0.00     0.074 A 
ATOM     60  C   UNL A   1      44.333  26.512  31.671  1.00  0.00     0.031 C 
ATOM     61  C   UNL A   1      43.500  27.843  33.590  1.00  0.00     0.037 A 
BRANCH  48  62
ATOM     62  C   UNL A   1      39.135  31.883  35.259  1.00  0.00     0.057 A 
ATOM     63  C   UNL A   1      38.294  31.373  36.256  1.00  0.00     0.134 A 
ATOM     64  C   UNL A   1      39.457  33.245  35.320  1.00  0.00     0.134 A 
ATOM     65  F   UNL A   1      37.939  30.079  36.249  1.00  0.00    -0.206 F 
ATOM     66  C   UNL A   1      37.780  32.189  37.265  1.00  0.00     0.040 A 
ATOM     67  C   UNL A   1      38.966  34.066  36.336  1.00  0.00     0.040 A 
ATOM     68  F   UNL A   1      40.263  33.796  34.399  1.00  0.00    -0.206 F 
ATOM     69  C   UNL A   1      38.120  33.539  37.310  1.00  0.00     0.006 A 
ENDBRANCH  48  62
BRANCH  49  70
ATOM     70  C   UNL A   1      42.733  26.353  27.776  1.00  0.00     0.057 A 
ATOM     71  C   UNL A   1      42.269  25.052  27.553  1.00  0.00     0.134 A 
ATOM     72  C   UNL A   1      43.712  26.849  26.909  1.00  0.00     0.134 A 
ATOM     73  F   UNL A   1      41.343  24.517  28.363  1.00  0.00    -0.206 F 
ATOM     74  C   UNL A   1      42.771  24.268  26.513  1.00  0.00     0.040 A 
ATOM     75  C   UNL A   1      44.208  26.085  25.852  1.00  0.00     0.040 A 
ATOM     76  F   UNL A   1      44.190  28.093  27.068  1.00  0.00    -0.206 F 
ATOM     77  C   UNL A   1      43.739  24.787  25.656  1.00  0.00     0.006 A 
ENDBRANCH  49  70
BRANCH  61  78
ATOM     78  C   UNL A   1      44.602  27.249  34.415  1.00  0.00     0.057 A 
ATOM     79  C   UNL A   1      45.851  27.871  34.530  1.00  0.00     0.134 A 
ATOM     80  C   UNL A   1      44.406  26.051  35.112  1.00  0.00     0.134 A 
ATOM     81  F   UNL A   1      46.105  29.015  33.876  1.00  0.00    -0.206 F 
ATOM     82  C   UNL A   1      46.877  27.309  35.292  1.00  0.00     0.040 A 
ATOM     83  C   UNL A   1      45.417  25.490  35.893  1.00  0.00     0.040 A 
ATOM     84  F   UNL A   1      43.230  25.409  35.048  1.00  0.00    -0.206 F 
ATOM     85  C   UNL A   1      46.659  26.116  35.979  1.00  0.00     0.006 A 
ENDBRANCH  61  78
ENDBRANCH  35  36
ENDBRANCH  28  30
ENDBRANCH  27  28
ENDBRANCH  26  27
ENDBRANCH  25  26
ENDBRANCH   1  25
TORSDOF 16
ENDMDL
MODEL 2
REMARK VINA RESULT:     -11.6      2.929      7.789
REMARK SMILES C[C@H]1[C@H](C(=O)OCCOCCOC(=O)c2ccc(-c3c4nc(c(-c5c(F)cccc5F)c5ccc([nH]5)c(-c5c(F)cccc5F)c5nc(c(-c6c(F)cccc6F)c6ccc3[nH]6)C=C5)C=C4)cc2)CCN1C(=O)Nc1ccc(F)c(Cl)c1
REMARK SMILES IDX 9 1 8 2 7 3 6 4 4 5 5 6 3 7 1 8 2 9 71 10 69 11 70 12 72 13
REMARK SMILES IDX 73 14 74 15 75 17 76 18 82 19 77 20 80 21 78 22 81 23 79 24
REMARK SMILES IDX 10 25 11 26 12 27 13 28 14 29 15 30 16 31 68 32 17 33 67 34
REMARK SMILES IDX 18 35 19 36 20 37 61 38 21 39 66 40 60 41 62 42 22 43 65 44
REMARK SMILES IDX 59 45 58 46 23 48 49 49 32 50 48 51 33 52 36 53 47 54 63 55
REMARK SMILES IDX 34 56 35 57 46 59 64 60 37 61 24 62 25 63 30 64 26 65 27 66
REMARK SMILES IDX 29 67 31 68 28 69 50 70 51 71 56 72 52 73 53 74 55 75 57 76
REMARK SMILES IDX 54 77 38 78 39 79 44 80 40 81 41 82 43 83 45 84 42 85
REMARK H PARENT 74 16 62 47 36 58
REMARK Flexibility Score: inf
ROOT
ATOM      1  O   UNL A   1      42.525  21.269  25.500  1.00  0.00    -0.374 OA
ENDROOT
BRANCH   1   2
ATOM      2  C   UNL A   1      41.726  21.859  26.515  1.00  0.00     0.202 C 
BRANCH   2   3
ATOM      3  C   UNL A   1      40.287  21.362  26.690  1.00  0.00     0.261 C 
BRANCH   3   4
ATOM      4  O   UNL A   1      39.383  21.758  25.644  1.00  0.00    -0.463 OA
BRANCH   4   5
ATOM      5  C   UNL A   1      38.540  22.770  25.978  1.00  0.00     0.311 C 
ATOM      6  O   UNL A   1      38.834  23.719  26.698  1.00  0.00    -0.252 OA
BRANCH   5   7
ATOM      7  C   UNL A   1      37.137  22.587  25.458  1.00  0.00     0.123 C 
ATOM      8  C   UNL A   1      36.129  20.338  25.059  1.00  0.00     0.032 C 
ATOM      9  C   UNL A   1      36.240  21.479  26.079  1.00  0.00     0.098 C 
ATOM     10  N   UNL A   1      34.948  22.146  26.330  1.00  0.00    -0.321 N 
ATOM     11  C   UNL A   1      36.382  23.892  25.657  1.00  0.00     0.039 C 
ATOM     12  C   UNL A   1      34.942  23.456  25.693  1.00  0.00     0.122 C 
BRANCH  10  13
ATOM     13  C   UNL A   1      33.800  21.782  26.959  1.00  0.00     0.322 C 
ATOM     14  O   UNL A   1      33.545  22.208  28.096  1.00  0.00    -0.248 OA
ATOM     15  N   UNL A   1      32.783  21.104  26.406  1.00  0.00    -0.308 N 
ATOM     16  H   UNL A   1      31.990  21.134  26.989  1.00  0.00     0.171 HD
BRANCH  15  17
ATOM     17  C   UNL A   1      32.512  20.371  25.255  1.00  0.00     0.044 A 
ATOM     18  C   UNL A   1      32.852  19.010  25.307  1.00  0.00     0.029 A 
ATOM     19  C   UNL A   1      32.153  20.951  24.040  1.00  0.00     0.049 A 
ATOM     20  C   UNL A   1      32.760  18.205  24.174  1.00  0.00     0.043 A 
ATOM     21  C   UNL A   1      32.153  20.152  22.885  1.00  0.00     0.078 A 
ATOM     22  C   UNL A   1      32.419  18.786  22.965  1.00  0.00     0.141 A 
ATOM     23  Cl  UNL A   1      31.936  20.849  21.327  1.00  0.00    -0.081 Cl
ATOM     24  F   UNL A   1      32.386  18.013  21.868  1.00  0.00    -0.205 F 
ENDBRANCH  15  17
ENDBRANCH  10  13
ENDBRANCH   5   7
ENDBRANCH   4   5
ENDBRANCH   3   4
ENDBRANCH   2   3
ENDBRANCH   1   2
BRANCH   1  25
ATOM     25  C   UNL A   1      43.906  21.600  25.433  1.00  0.00     0.202 C 
BRANCH  25  26
ATOM     26  C   UNL A   1      44.374  22.591  24.364  1.00  0.00     0.261 C 
BRANCH  26  27
ATOM     27  O   UNL A   1      43.684  23.857  24.379  1.00  0.00    -0.460 OA
BRANCH  27  28
ATOM     28  C   UNL A   1      44.355  24.837  25.036  1.00  0.00     0.338 C 
ATOM     29  O   UNL A   1      45.536  25.140  24.877  1.00  0.00    -0.246 OA
BRANCH  28  30
ATOM     30  C   UNL A   1      43.489  25.633  25.929  1.00  0.00     0.060 A 
ATOM     31  C   UNL A   1      43.991  26.872  26.345  1.00  0.00     0.016 A 
ATOM     32  C   UNL A   1      42.303  25.139  26.480  1.00  0.00     0.016 A 
ATOM     33  C   UNL A   1      43.359  27.576  27.365  1.00  0.00     0.010 A 
ATOM     34  C   UNL A   1      41.666  25.849  27.507  1.00  0.00     0.010 A 
ATOM     35  C   UNL A   1      42.219  27.046  27.985  1.00  0.00    -0.014 A 
BRANCH  35  36
ATOM     36  C   UNL A   1      41.689  27.728  29.189  1.00  0.00     0.031 A 
ATOM     37  C   UNL A   1      42.424  27.626  30.496  1.00  0.00     0.074 A 
ATOM     38  C   UNL A   1      40.602  28.512  29.083  1.00  0.00     0.049 A 
ATOM     39  N   UNL A   1      42.219  28.279  31.612  1.00  0.00    -0.248 NA
ATOM     40  C   UNL A   1      43.535  26.665  30.556  1.00  0.00     0.031 C 
ATOM     41  C   UNL A   1      39.803  28.682  27.870  1.00  0.00     0.029 A 
ATOM     42  N   UNL A   1      39.998  29.327  30.004  1.00  0.00    -0.354 N 
ATOM     43  C   UNL A   1      43.182  27.819  32.502  1.00  0.00     0.074 A 
ATOM     44  C   UNL A   1      43.944  26.802  31.810  1.00  0.00     0.031 C 
ATOM     45  C   UNL A   1      38.822  29.565  28.115  1.00  0.00     0.029 A 
ATOM     46  C   UNL A   1      38.924  30.019  29.502  1.00  0.00     0.049 A 
ATOM     47  H   UNL A   1      40.303  29.408  30.936  1.00  0.00     0.167 HD
ATOM     48  C   UNL A   1      43.419  28.222  33.774  1.00  0.00     0.037 A 
ATOM     49  C   UNL A   1      38.126  30.930  30.087  1.00  0.00     0.037 A 
ATOM     50  C   UNL A   1      42.658  29.233  34.461  1.00  0.00     0.049 A 
ATOM     51  C   UNL A   1      38.406  31.358  31.501  1.00  0.00     0.074 A 
ATOM     52  C   UNL A   1      42.838  29.732  35.740  1.00  0.00     0.029 A 
ATOM     53  N   UNL A   1      41.565  29.897  33.924  1.00  0.00    -0.354 N 
ATOM     54  N   UNL A   1      39.360  30.963  32.310  1.00  0.00    -0.248 NA
ATOM     55  C   UNL A   1      37.511  32.371  32.074  1.00  0.00     0.031 C 
ATOM     56  C   UNL A   1      41.832  30.673  35.988  1.00  0.00     0.029 A 
ATOM     57  C   UNL A   1      41.050  30.787  34.851  1.00  0.00     0.049 A 
ATOM     58  H   UNL A   1      41.208  29.756  33.017  1.00  0.00     0.167 HD
ATOM     59  C   UNL A   1      39.193  31.693  33.478  1.00  0.00     0.074 A 
ATOM     60  C   UNL A   1      38.057  32.567  33.266  1.00  0.00     0.031 C 
ATOM     61  C   UNL A   1      39.916  31.647  34.624  1.00  0.00     0.037 A 
BRANCH  48  62
ATOM     62  C   UNL A   1      44.550  27.564  34.508  1.00  0.00     0.057 A 
ATOM     63  C   UNL A   1      44.362  26.389  35.246  1.00  0.00     0.134 A 
ATOM     64  C   UNL A   1      45.848  28.086  34.443  1.00  0.00     0.134 A 
ATOM     65  F   UNL A   1      43.142  25.842  35.356  1.00  0.00    -0.206 F 
ATOM     66  C   UNL A   1      45.422  25.766  35.910  1.00  0.00     0.040 A 
ATOM     67  C   UNL A   1      46.919  27.462  35.085  1.00  0.00     0.040 A 
ATOM     68  F   UNL A   1      46.097  29.206  33.748  1.00  0.00    -0.206 F 
ATOM     69  C   UNL A   1      46.706  26.300  35.826  1.00  0.00     0.006 A 
ENDBRANCH  48  62
BRANCH  49  70
ATOM     70  C   UNL A   1      37.007  31.527  29.319  1.00  0.00     0.057 A 
ATOM     71  C   UNL A   1      37.099  32.816  28.786  1.00  0.00     0.134 A 
ATOM     72  C   UNL A   1      35.825  30.814  29.091  1.00  0.00     0.134 A 
ATOM     73  F   UNL A   1      38.202  33.553  28.988  1.00  0.00    -0.206 F 
ATOM     74  C   UNL A   1      36.049  33.383  28.063  1.00  0.00     0.040 A 
ATOM     75  C   UNL A   1      34.774  31.359  28.352  1.00  0.00     0.040 A 
ATOM     76  F   UNL A   1      35.682  29.569  29.571  1.00  0.00    -0.206 F 
ATOM     77  C   UNL A   1      34.885  32.651  27.840  1.00  0.00     0.006 A 
ENDBRANCH  49  70
BRANCH  61  78
ATOM     78  C   UNL A   1      39.505  32.578  35.725  1.00  0.00     0.057 A 
ATOM     79  C   UNL A   1      38.572  32.199  36.698  1.00  0.00     0.134 A 
ATOM     80  C   UNL A   1      40.060  33.860  35.820  1.00  0.00     0.134 A 
ATOM     81  F   UNL A   1      37.996  30.988  36.654  1.00  0.00    -0.206 F 
ATOM     82  C   UNL A   1      38.186  33.073  37.715  1.00  0.00     0.040 A 
ATOM     83  C   UNL A   1      39.697  34.735  36.845  1.00  0.00     0.040 A 
ATOM     84  F   UNL A   1      40.963  34.281  34.923  1.00  0.00    -0.206 F 
ATOM     85  C   UNL A   1      38.752  34.345  37.792  1.00  0.00     0.006 A 
ENDBRANCH  61  78
ENDBRANCH  35  36
ENDBRANCH  28  30
ENDBRANCH  27  28
ENDBRANCH  26  27
ENDBRANCH  25  26
ENDBRANCH   1  25
TORSDOF 16
ENDMDL
MODEL 3
REMARK VINA RESULT:     -11.4      4.632      9.145
REMARK SMILES C[C@H]1[C@H](C(=O)OCCOCCOC(=O)c2ccc(-c3c4nc(c(-c5c(F)cccc5F)c5ccc([nH]5)c(-c5c(F)cccc5F)c5nc(c(-c6c(F)cccc6F)c6ccc3[nH]6)C=C5)C=C4)cc2)CCN1C(=O)Nc1ccc(F)c(Cl)c1
REMARK SMILES IDX 9 1 8 2 7 3 6 4 4 5 5 6 3 7 1 8 2 9 71 10 69 11 70 12 72 13
REMARK SMILES IDX 73 14 74 15 75 17 76 18 82 19 77 20 80 21 78 22 81 23 79 24
REMARK SMILES IDX 10 25 11 26 12 27 13 28 14 29 15 30 16 31 68 32 17 33 67 34
REMARK SMILES IDX 18 35 19 36 20 37 61 38 21 39 66 40 60 41 62 42 22 43 65 44
REMARK SMILES IDX 59 45 58 46 23 48 49 49 32 50 48 51 33 52 36 53 47 54 63 55
REMARK SMILES IDX 34 56 35 57 46 59 64 60 37 61 24 62 25 63 30 64 26 65 27 66
REMARK SMILES IDX 29 67 31 68 28 69 50 70 51 71 56 72 52 73 53 74 55 75 57 76
REMARK SMILES IDX 54 77 38 78 39 79 44 80 40 81 41 82 43 83 45 84 42 85
REMARK H PARENT 74 16 62 47 36 58
REMARK Flexibility Score: inf
ROOT
ATOM      1  O   UNL A   1      37.545  21.923  25.608  1.00  0.00    -0.374 OA
ENDROOT
BRANCH   1   2
ATOM      2  C   UNL A   1      37.110  21.894  24.256  1.00  0.00     0.202 C 
BRANCH   2   3
ATOM      3  C   UNL A   1      36.559  23.186  23.642  1.00  0.00     0.261 C 
BRANCH   3   4
ATOM      4  O   UNL A   1      35.502  22.994  22.685  1.00  0.00    -0.463 OA
BRANCH   4   5
ATOM      5  C   UNL A   1      34.325  23.586  23.016  1.00  0.00     0.311 C 
ATOM      6  O   UNL A   1      33.880  24.603  22.493  1.00  0.00    -0.252 OA
BRANCH   5   7
ATOM      7  C   UNL A   1      33.624  22.934  24.180  1.00  0.00     0.123 C 
ATOM      8  C   UNL A   1      34.170  23.473  26.556  1.00  0.00     0.032 C 
ATOM      9  C   UNL A   1      33.216  23.806  25.402  1.00  0.00     0.098 C 
ATOM     10  N   UNL A   1      31.821  23.417  25.685  1.00  0.00    -0.321 N 
ATOM     11  C   UNL A   1      32.337  22.306  23.670  1.00  0.00     0.039 C 
ATOM     12  C   UNL A   1      31.474  22.239  24.901  1.00  0.00     0.122 C 
BRANCH  10  13
ATOM     13  C   UNL A   1      30.859  23.880  26.526  1.00  0.00     0.322 C 
ATOM     14  O   UNL A   1      30.447  23.173  27.457  1.00  0.00    -0.248 OA
ATOM     15  N   UNL A   1      30.389  25.136  26.563  1.00  0.00    -0.308 N 
ATOM     16  H   UNL A   1      29.852  25.279  27.375  1.00  0.00     0.171 HD
BRANCH  15  17
ATOM     17  C   UNL A   1      30.432  26.297  25.798  1.00  0.00     0.044 A 
ATOM     18  C   UNL A   1      29.718  26.256  24.589  1.00  0.00     0.029 A 
ATOM     19  C   UNL A   1      31.296  27.358  26.056  1.00  0.00     0.049 A 
ATOM     20  C   UNL A   1      29.799  27.301  23.673  1.00  0.00     0.043 A 
ATOM     21  C   UNL A   1      31.443  28.362  25.085  1.00  0.00     0.078 A 
ATOM     22  C   UNL A   1      30.672  28.346  23.924  1.00  0.00     0.141 A 
ATOM     23  Cl  UNL A   1      32.652  29.576  25.244  1.00  0.00    -0.081 Cl
ATOM     24  F   UNL A   1      30.784  29.322  23.011  1.00  0.00    -0.205 F 
ENDBRANCH  15  17
ENDBRANCH  10  13
ENDBRANCH   5   7
ENDBRANCH   4   5
ENDBRANCH   3   4
ENDBRANCH   2   3
ENDBRANCH   1   2
BRANCH   1  25
ATOM     25  C   UNL A   1      38.907  21.637  25.898  1.00  0.00     0.202 C 
BRANCH  25  26
ATOM     26  C   UNL A   1      39.438  20.228  25.622  1.00  0.00     0.261 C 
BRANCH  26  27
ATOM     27  O   UNL A   1      40.443  19.775  26.551  1.00  0.00    -0.460 OA
BRANCH  27  28
ATOM     28  C   UNL A   1      41.708  19.849  26.067  1.00  0.00     0.338 C 
ATOM     29  O   UNL A   1      42.240  19.048  25.300  1.00  0.00    -0.246 OA
BRANCH  28  30
ATOM     30  C   UNL A   1      42.407  21.090  26.459  1.00  0.00     0.060 A 
ATOM     31  C   UNL A   1      42.539  21.325  27.833  1.00  0.00     0.016 A 
ATOM     32  C   UNL A   1      42.782  22.076  25.543  1.00  0.00     0.016 A 
ATOM     33  C   UNL A   1      42.964  22.568  28.292  1.00  0.00     0.010 A 
ATOM     34  C   UNL A   1      43.210  23.328  26.005  1.00  0.00     0.010 A 
ATOM     35  C   UNL A   1      43.258  23.592  27.382  1.00  0.00    -0.014 A 
BRANCH  35  36
ATOM     36  C   UNL A   1      43.521  24.952  27.910  1.00  0.00     0.031 A 
ATOM     37  C   UNL A   1      44.919  25.503  27.902  1.00  0.00     0.074 A 
ATOM     38  C   UNL A   1      42.492  25.720  28.308  1.00  0.00     0.049 A 
ATOM     39  N   UNL A   1      45.328  26.720  28.160  1.00  0.00    -0.248 NA
ATOM     40  C   UNL A   1      45.998  24.566  27.557  1.00  0.00     0.031 C 
ATOM     41  C   UNL A   1      41.096  25.290  28.367  1.00  0.00     0.029 A 
ATOM     42  N   UNL A   1      42.462  27.028  28.715  1.00  0.00    -0.354 N 
ATOM     43  C   UNL A   1      46.709  26.698  27.997  1.00  0.00     0.074 A 
ATOM     44  C   UNL A   1      47.071  25.338  27.659  1.00  0.00     0.031 C 
ATOM     45  C   UNL A   1      40.339  26.324  28.768  1.00  0.00     0.029 A 
ATOM     46  C   UNL A   1      41.199  27.484  28.996  1.00  0.00     0.049 A 
ATOM     47  H   UNL A   1      43.269  27.586  28.800  1.00  0.00     0.167 HD
ATOM     48  C   UNL A   1      47.589  27.722  28.103  1.00  0.00     0.037 A 
ATOM     49  C   UNL A   1      40.781  28.706  29.375  1.00  0.00     0.037 A 
ATOM     50  C   UNL A   1      47.226  29.074  28.441  1.00  0.00     0.049 A 
ATOM     51  C   UNL A   1      41.777  29.825  29.489  1.00  0.00     0.074 A 
ATOM     52  C   UNL A   1      48.040  30.188  28.545  1.00  0.00     0.029 A 
ATOM     53  N   UNL A   1      45.937  29.492  28.737  1.00  0.00    -0.354 N 
ATOM     54  N   UNL A   1      43.070  29.807  29.268  1.00  0.00    -0.248 NA
ATOM     55  C   UNL A   1      41.252  31.139  29.886  1.00  0.00     0.031 C 
ATOM     56  C   UNL A   1      47.249  31.274  28.937  1.00  0.00     0.029 A 
ATOM     57  C   UNL A   1      45.936  30.843  29.041  1.00  0.00     0.049 A 
ATOM     58  H   UNL A   1      45.140  28.914  28.732  1.00  0.00     0.167 HD
ATOM     59  C   UNL A   1      43.509  31.106  29.479  1.00  0.00     0.074 A 
ATOM     60  C   UNL A   1      42.342  31.891  29.828  1.00  0.00     0.031 C 
ATOM     61  C   UNL A   1      44.766  31.607  29.390  1.00  0.00     0.037 A 
BRANCH  48  62
ATOM     62  C   UNL A   1      49.036  27.418  27.851  1.00  0.00     0.057 A 
ATOM     63  C   UNL A   1      49.594  27.506  26.569  1.00  0.00     0.134 A 
ATOM     64  C   UNL A   1      49.891  27.073  28.905  1.00  0.00     0.134 A 
ATOM     65  F   UNL A   1      48.827  27.822  25.514  1.00  0.00    -0.206 F 
ATOM     66  C   UNL A   1      50.947  27.243  26.342  1.00  0.00     0.040 A 
ATOM     67  C   UNL A   1      51.249  26.829  28.694  1.00  0.00     0.040 A 
ATOM     68  F   UNL A   1      49.422  26.978  30.159  1.00  0.00    -0.206 F 
ATOM     69  C   UNL A   1      51.780  26.909  27.407  1.00  0.00     0.006 A 
ENDBRANCH  48  62
BRANCH  49  70
ATOM     70  C   UNL A   1      39.340  28.939  29.636  1.00  0.00     0.057 A 
ATOM     71  C   UNL A   1      38.470  29.327  28.611  1.00  0.00     0.134 A 
ATOM     72  C   UNL A   1      38.799  28.768  30.915  1.00  0.00     0.134 A 
ATOM     73  F   UNL A   1      38.936  29.523  27.369  1.00  0.00    -0.206 F 
ATOM     74  C   UNL A   1      37.114  29.548  28.852  1.00  0.00     0.040 A 
ATOM     75  C   UNL A   1      37.441  28.965  31.166  1.00  0.00     0.040 A 
ATOM     76  F   UNL A   1      39.583  28.389  31.936  1.00  0.00    -0.206 F 
ATOM     77  C   UNL A   1      36.595  29.362  30.131  1.00  0.00     0.006 A 
ENDBRANCH  49  70
BRANCH  61  78
ATOM     78  C   UNL A   1      44.934  33.072  29.660  1.00  0.00     0.057 A 
ATOM     79  C   UNL A   1      44.800  34.028  28.645  1.00  0.00     0.134 A 
ATOM     80  C   UNL A   1      45.217  33.532  30.952  1.00  0.00     0.134 A 
ATOM     81  F   UNL A   1      44.540  33.649  27.385  1.00  0.00    -0.206 F 
ATOM     82  C   UNL A   1      44.967  35.389  28.901  1.00  0.00     0.040 A 
ATOM     83  C   UNL A   1      45.366  34.893  31.224  1.00  0.00     0.040 A 
ATOM     84  F   UNL A   1      45.352  32.668  31.969  1.00  0.00    -0.206 F 
ATOM     85  C   UNL A   1      45.247  35.825  30.195  1.00  0.00     0.006 A 
ENDBRANCH  61  78
ENDBRANCH  35  36
ENDBRANCH  28  30
ENDBRANCH  27  28
ENDBRANCH  26  27
ENDBRANCH  25  26
ENDBRANCH   1  25
TORSDOF 16
ENDMDL
