MODEL 1
REMARK VINA RESULT:     -10.6      0.000      0.000
REMARK SMILES CC[NH2+][C@]1(C(=O)OCCOCCOC(=O)c2ccc(-c3c4nc(c(-c5c(F)cccc5F)c5ccc([nH]5)c(-c5c(F)cccc5F)c5nc(c(-c6c(F)cccc6F)c6ccc3[nH]6)C=C5)C=C4)cc2)CCC[C@H]([N@@H+]2CCC[C@@H]2C(C)C)C1
REMARK SMILES IDX 10 1 9 2 8 3 7 4 5 5 6 6 4 7 70 8 82 9 71 10 73 11 72 12
REMARK SMILES IDX 3 13 2 16 1 17 74 18 75 19 78 20 76 22 77 23 79 24 80 25
REMARK SMILES IDX 81 26 11 27 12 28 13 29 14 30 15 31 16 32 17 33 69 34 18 35
REMARK SMILES IDX 68 36 19 37 20 38 21 39 62 40 22 41 67 42 61 43 63 44 23 45
REMARK SMILES IDX 66 46 60 47 59 48 24 50 50 51 33 52 49 53 34 54 37 55 48 56
REMARK SMILES IDX 64 57 35 58 36 59 47 61 65 62 38 63 25 64 26 65 31 66 27 67
REMARK SMILES IDX 28 68 30 69 32 70 29 71 51 72 52 73 57 74 53 75 54 76 56 77
REMARK SMILES IDX 58 78 55 79 39 80 40 81 45 82 41 83 42 84 44 85 46 86 43 87
REMARK H PARENT 3 14 3 15 74 21 63 49 37 60
REMARK Flexibility Score: inf
ROOT
ATOM      1  O   UNL A   1      31.824  30.080  26.997  1.00  0.00    -0.374 OA
ENDROOT
BRANCH   1   2
ATOM      2  C   UNL A   1      32.434  28.973  26.320  1.00  0.00     0.202 C 
BRANCH   2   3
ATOM      3  C   UNL A   1      31.438  28.117  25.524  1.00  0.00     0.261 C 
BRANCH   3   4
ATOM      4  O   UNL A   1      32.085  26.874  25.242  1.00  0.00    -0.459 OA
BRANCH   4   5
ATOM      5  C   UNL A   1      31.393  25.696  25.287  1.00  0.00     0.368 C 
ATOM      6  O   UNL A   1      30.203  25.576  25.535  1.00  0.00    -0.245 OA
BRANCH   5   7
ATOM      7  C   UNL A   1      32.411  24.566  24.976  1.00  0.00     0.200 C 
ATOM      8  C   UNL A   1      31.546  23.591  24.052  1.00  0.00     0.081 C 
ATOM      9  C   UNL A   1      33.656  24.889  24.167  1.00  0.00     0.146 C 
ATOM     10  C   UNL A   1      32.179  22.584  23.087  1.00  0.00     0.013 C 
ATOM     11  C   UNL A   1      34.381  23.559  23.728  1.00  0.00     0.191 C 
ATOM     12  C   UNL A   1      33.566  22.923  22.620  1.00  0.00     0.065 C 
BRANCH   7  13
ATOM     13  N   UNL A   1      32.959  24.058  26.264  1.00  0.00    -0.332 N 
ATOM     14  H   UNL A   1      33.819  23.555  26.044  1.00  0.00     0.347 HD
ATOM     15  H   UNL A   1      33.049  24.898  26.835  1.00  0.00     0.347 HD
BRANCH  13  16
ATOM     16  C   UNL A   1      32.148  23.168  27.092  1.00  0.00     0.257 C 
ATOM     17  C   UNL A   1      33.076  22.300  27.946  1.00  0.00     0.071 C 
ENDBRANCH  13  16
ENDBRANCH   7  13
BRANCH  11  18
ATOM     18  N   UNL A   1      34.899  22.668  24.820  1.00  0.00    -0.330 N 
ATOM     19  C   UNL A   1      36.305  23.069  25.121  1.00  0.00     0.262 C 
ATOM     20  C   UNL A   1      34.912  21.147  25.003  1.00  0.00     0.187 C 
ATOM     21  H   UNL A   1      34.066  22.850  25.379  1.00  0.00     0.348 HD
ATOM     22  C   UNL A   1      37.158  22.011  24.468  1.00  0.00     0.067 C 
ATOM     23  C   UNL A   1      36.382  20.748  24.716  1.00  0.00     0.071 C 
BRANCH  20  24
ATOM     24  C   UNL A   1      34.010  19.862  24.615  1.00  0.00     0.041 C 
ATOM     25  C   UNL A   1      34.881  18.569  24.614  1.00  0.00     0.014 C 
ATOM     26  C   UNL A   1      32.816  19.401  25.458  1.00  0.00     0.014 C 
ENDBRANCH  20  24
ENDBRANCH  11  18
ENDBRANCH   5   7
ENDBRANCH   4   5
ENDBRANCH   3   4
ENDBRANCH   2   3
ENDBRANCH   1   2
BRANCH   1  27
ATOM     27  C   UNL A   1      31.584  31.244  26.197  1.00  0.00     0.202 C 
BRANCH  27  28
ATOM     28  C   UNL A   1      31.452  32.525  27.022  1.00  0.00     0.261 C 
BRANCH  28  29
ATOM     29  O   UNL A   1      32.666  33.291  26.931  1.00  0.00    -0.460 OA
BRANCH  29  30
ATOM     30  C   UNL A   1      33.226  33.613  28.105  1.00  0.00     0.338 C 
ATOM     31  O   UNL A   1      32.725  34.263  29.029  1.00  0.00    -0.246 OA
BRANCH  30  32
ATOM     32  C   UNL A   1      34.519  32.937  28.245  1.00  0.00     0.060 A 
ATOM     33  C   UNL A   1      34.492  31.565  28.514  1.00  0.00     0.016 A 
ATOM     34  C   UNL A   1      35.725  33.644  28.240  1.00  0.00     0.016 A 
ATOM     35  C   UNL A   1      35.663  30.908  28.873  1.00  0.00     0.010 A 
ATOM     36  C   UNL A   1      36.904  32.979  28.600  1.00  0.00     0.010 A 
ATOM     37  C   UNL A   1      36.864  31.623  28.975  1.00  0.00    -0.014 A 
BRANCH  37  38
ATOM     38  C   UNL A   1      38.009  30.993  29.679  1.00  0.00     0.031 A 
ATOM     39  C   UNL A   1      38.227  31.313  31.136  1.00  0.00     0.074 A 
ATOM     40  C   UNL A   1      38.788  30.085  29.066  1.00  0.00     0.049 A 
ATOM     41  N   UNL A   1      39.148  30.876  31.955  1.00  0.00    -0.248 NA
ATOM     42  C   UNL A   1      37.272  32.249  31.751  1.00  0.00     0.031 C 
ATOM     43  C   UNL A   1      38.639  29.644  27.681  1.00  0.00     0.029 A 
ATOM     44  N   UNL A   1      39.856  29.363  29.538  1.00  0.00    -0.354 N 
ATOM     45  C   UNL A   1      38.887  31.486  33.178  1.00  0.00     0.074 A 
ATOM     46  C   UNL A   1      37.743  32.350  32.984  1.00  0.00     0.031 C 
ATOM     47  C   UNL A   1      39.584  28.725  27.414  1.00  0.00     0.029 A 
ATOM     48  C   UNL A   1      40.422  28.539  28.597  1.00  0.00     0.049 A 
ATOM     49  H   UNL A   1      40.185  29.431  30.464  1.00  0.00     0.167 HD
ATOM     50  C   UNL A   1      39.533  31.331  34.357  1.00  0.00     0.037 A 
ATOM     51  C   UNL A   1      41.504  27.740  28.680  1.00  0.00     0.037 A 
ATOM     52  C   UNL A   1      40.663  30.463  34.552  1.00  0.00     0.049 A 
ATOM     53  C   UNL A   1      42.256  27.646  29.981  1.00  0.00     0.074 A 
ATOM     54  C   UNL A   1      41.388  30.237  35.709  1.00  0.00     0.029 A 
ATOM     55  N   UNL A   1      41.236  29.681  33.560  1.00  0.00    -0.354 N 
ATOM     56  N   UNL A   1      41.999  28.225  31.130  1.00  0.00    -0.248 NA
ATOM     57  C   UNL A   1      43.447  26.785  30.000  1.00  0.00     0.031 C 
ATOM     58  C   UNL A   1      42.429  29.354  35.405  1.00  0.00     0.029 A 
ATOM     59  C   UNL A   1      42.319  28.988  34.073  1.00  0.00     0.049 A 
ATOM     60  H   UNL A   1      40.919  29.628  32.630  1.00  0.00     0.167 HD
ATOM     61  C   UNL A   1      42.971  27.771  32.013  1.00  0.00     0.074 A 
ATOM     62  C   UNL A   1      43.821  26.865  31.270  1.00  0.00     0.031 C 
ATOM     63  C   UNL A   1      43.143  28.074  33.324  1.00  0.00     0.037 A 
BRANCH  50  64
ATOM     64  C   UNL A   1      39.046  32.140  35.524  1.00  0.00     0.057 A 
ATOM     65  C   UNL A   1      38.238  31.587  36.527  1.00  0.00     0.134 A 
ATOM     66  C   UNL A   1      39.413  33.485  35.660  1.00  0.00     0.134 A 
ATOM     67  F   UNL A   1      37.838  30.309  36.450  1.00  0.00    -0.206 F 
ATOM     68  C   UNL A   1      37.795  32.349  37.611  1.00  0.00     0.040 A 
ATOM     69  C   UNL A   1      39.000  34.249  36.753  1.00  0.00     0.040 A 
ATOM     70  F   UNL A   1      40.189  34.076  34.739  1.00  0.00    -0.206 F 
ATOM     71  C   UNL A   1      38.182  33.683  37.728  1.00  0.00     0.006 A 
ENDBRANCH  50  64
BRANCH  51  72
ATOM     72  C   UNL A   1      41.956  26.976  27.489  1.00  0.00     0.057 A 
ATOM     73  C   UNL A   1      41.599  25.635  27.304  1.00  0.00     0.134 A 
ATOM     74  C   UNL A   1      42.779  27.563  26.520  1.00  0.00     0.134 A 
ATOM     75  F   UNL A   1      40.834  25.009  28.210  1.00  0.00    -0.206 F 
ATOM     76  C   UNL A   1      42.057  24.901  26.208  1.00  0.00     0.040 A 
ATOM     77  C   UNL A   1      43.222  26.850  25.405  1.00  0.00     0.040 A 
ATOM     78  F   UNL A   1      43.157  28.845  26.638  1.00  0.00    -0.206 F 
ATOM     79  C   UNL A   1      42.867  25.511  25.251  1.00  0.00     0.006 A 
ENDBRANCH  51  72
BRANCH  63  80
ATOM     80  C   UNL A   1      44.256  27.383  34.056  1.00  0.00     0.057 A 
ATOM     81  C   UNL A   1      44.082  26.137  34.670  1.00  0.00     0.134 A 
ATOM     82  C   UNL A   1      45.537  27.952  34.096  1.00  0.00     0.134 A 
ATOM     83  F   UNL A   1      42.879  25.543  34.675  1.00  0.00    -0.206 F 
ATOM     84  C   UNL A   1      45.138  25.489  35.314  1.00  0.00     0.040 A 
ATOM     85  C   UNL A   1      46.605  27.301  34.714  1.00  0.00     0.040 A 
ATOM     86  F   UNL A   1      45.773  29.139  33.518  1.00  0.00    -0.206 F 
ATOM     87  C   UNL A   1      46.406  26.068  35.329  1.00  0.00     0.006 A 
ENDBRANCH  63  80
ENDBRANCH  37  38
ENDBRANCH  30  32
ENDBRANCH  29  30
ENDBRANCH  28  29
ENDBRANCH  27  28
ENDBRANCH   1  27
TORSDOF 18
ENDMDL
MODEL 2
REMARK VINA RESULT:     -10.5      4.318      7.596
REMARK SMILES CC[NH2+][C@]1(C(=O)OCCOCCOC(=O)c2ccc(-c3c4nc(c(-c5c(F)cccc5F)c5ccc([nH]5)c(-c5c(F)cccc5F)c5nc(c(-c6c(F)cccc6F)c6ccc3[nH]6)C=C5)C=C4)cc2)CCC[C@H]([N@@H+]2CCC[C@@H]2C(C)C)C1
REMARK SMILES IDX 10 1 9 2 8 3 7 4 5 5 6 6 4 7 70 8 82 9 71 10 73 11 72 12
REMARK SMILES IDX 3 13 2 16 1 17 74 18 75 19 78 20 76 22 77 23 79 24 80 25
REMARK SMILES IDX 81 26 11 27 12 28 13 29 14 30 15 31 16 32 17 33 69 34 18 35
REMARK SMILES IDX 68 36 19 37 20 38 21 39 62 40 22 41 67 42 61 43 63 44 23 45
REMARK SMILES IDX 66 46 60 47 59 48 24 50 50 51 33 52 49 53 34 54 37 55 48 56
REMARK SMILES IDX 64 57 35 58 36 59 47 61 65 62 38 63 25 64 26 65 31 66 27 67
REMARK SMILES IDX 28 68 30 69 32 70 29 71 51 72 52 73 57 74 53 75 54 76 56 77
REMARK SMILES IDX 58 78 55 79 39 80 40 81 45 82 41 83 42 84 44 85 46 86 43 87
REMARK H PARENT 3 14 3 15 74 21 63 49 37 60
REMARK Flexibility Score: inf
ROOT
ATOM      1  O   UNL A   1      36.061  20.893  25.351  1.00  0.00    -0.374 OA
ENDROOT
BRANCH   1   2
ATOM      2  C   UNL A   1      34.677  20.842  25.720  1.00  0.00     0.202 C 
BRANCH   2   3
ATOM      3  C   UNL A   1      33.760  20.341  24.594  1.00  0.00     0.261 C 
BRANCH   3   4
ATOM      4  O   UNL A   1      32.674  21.264  24.495  1.00  0.00    -0.459 OA
BRANCH   4   5
ATOM      5  C   UNL A   1      32.449  21.964  23.343  1.00  0.00     0.368 C 
ATOM      6  O   UNL A   1      32.131  21.483  22.266  1.00  0.00    -0.245 OA
BRANCH   5   7
ATOM      7  C   UNL A   1      32.688  23.461  23.674  1.00  0.00     0.200 C 
ATOM      8  C   UNL A   1      32.617  23.458  25.270  1.00  0.00     0.081 C 
ATOM      9  C   UNL A   1      34.026  24.095  23.331  1.00  0.00     0.146 C 
ATOM     10  C   UNL A   1      33.247  24.558  26.131  1.00  0.00     0.013 C 
ATOM     11  C   UNL A   1      34.150  25.511  24.013  1.00  0.00     0.191 C 
ATOM     12  C   UNL A   1      34.387  25.301  25.494  1.00  0.00     0.065 C 
BRANCH   7  13
ATOM     13  N   UNL A   1      31.712  24.278  22.899  1.00  0.00    -0.332 N 
ATOM     14  H   UNL A   1      32.024  25.247  22.957  1.00  0.00     0.347 HD
ATOM     15  H   UNL A   1      31.717  23.845  21.976  1.00  0.00     0.347 HD
BRANCH  13  16
ATOM     16  C   UNL A   1      30.301  24.263  23.276  1.00  0.00     0.257 C 
ATOM     17  C   UNL A   1      29.929  25.626  23.866  1.00  0.00     0.071 C 
ENDBRANCH  13  16
ENDBRANCH   7  13
BRANCH  11  18
ATOM     18  N   UNL A   1      33.156  26.558  23.601  1.00  0.00    -0.330 N 
ATOM     19  C   UNL A   1      33.430  26.930  22.182  1.00  0.00     0.262 C 
ATOM     20  C   UNL A   1      32.712  27.879  24.238  1.00  0.00     0.187 C 
ATOM     21  H   UNL A   1      32.390  25.988  23.959  1.00  0.00     0.348 HD
ATOM     22  C   UNL A   1      34.130  28.263  22.259  1.00  0.00     0.067 C 
ATOM     23  C   UNL A   1      33.405  28.963  23.374  1.00  0.00     0.071 C 
BRANCH  20  24
ATOM     24  C   UNL A   1      32.528  28.523  25.711  1.00  0.00     0.041 C 
ATOM     25  C   UNL A   1      31.563  27.648  26.567  1.00  0.00     0.014 C 
ATOM     26  C   UNL A   1      33.693  28.705  26.690  1.00  0.00     0.014 C 
ENDBRANCH  20  24
ENDBRANCH  11  18
ENDBRANCH   5   7
ENDBRANCH   4   5
ENDBRANCH   3   4
ENDBRANCH   2   3
ENDBRANCH   1   2
BRANCH   1  27
ATOM     27  C   UNL A   1      36.591  19.702  24.756  1.00  0.00     0.202 C 
BRANCH  27  28
ATOM     28  C   UNL A   1      38.094  19.531  24.985  1.00  0.00     0.261 C 
BRANCH  28  29
ATOM     29  O   UNL A   1      38.655  20.760  25.478  1.00  0.00    -0.460 OA
BRANCH  29  30
ATOM     30  C   UNL A   1      39.753  20.621  26.234  1.00  0.00     0.338 C 
ATOM     31  O   UNL A   1      40.494  19.636  26.317  1.00  0.00    -0.246 OA
BRANCH  30  32
ATOM     32  C   UNL A   1      40.085  21.898  26.873  1.00  0.00     0.060 A 
ATOM     33  C   UNL A   1      39.427  23.036  26.396  1.00  0.00     0.016 A 
ATOM     34  C   UNL A   1      41.104  22.004  27.824  1.00  0.00     0.016 A 
ATOM     35  C   UNL A   1      39.847  24.298  26.799  1.00  0.00     0.010 A 
ATOM     36  C   UNL A   1      41.524  23.277  28.231  1.00  0.00     0.010 A 
ATOM     37  C   UNL A   1      40.936  24.427  27.673  1.00  0.00    -0.014 A 
BRANCH  37  38
ATOM     38  C   UNL A   1      41.578  25.758  27.817  1.00  0.00     0.031 A 
ATOM     39  C   UNL A   1      40.838  26.839  28.562  1.00  0.00     0.074 A 
ATOM     40  C   UNL A   1      42.828  25.979  27.377  1.00  0.00     0.049 A 
ATOM     41  N   UNL A   1      41.202  28.069  28.823  1.00  0.00    -0.248 NA
ATOM     42  C   UNL A   1      39.511  26.482  29.089  1.00  0.00     0.031 C 
ATOM     43  C   UNL A   1      43.670  24.995  26.699  1.00  0.00     0.029 A 
ATOM     44  N   UNL A   1      43.611  27.104  27.445  1.00  0.00    -0.354 N 
ATOM     45  C   UNL A   1      40.150  28.631  29.537  1.00  0.00     0.074 A 
ATOM     46  C   UNL A   1      39.119  27.621  29.639  1.00  0.00     0.031 C 
ATOM     47  C   UNL A   1      44.855  25.562  26.412  1.00  0.00     0.029 A 
ATOM     48  C   UNL A   1      44.843  26.955  26.856  1.00  0.00     0.049 A 
ATOM     49  H   UNL A   1      43.317  27.940  27.875  1.00  0.00     0.167 HD
ATOM     50  C   UNL A   1      40.055  29.872  30.070  1.00  0.00     0.037 A 
ATOM     51  C   UNL A   1      45.836  27.847  26.680  1.00  0.00     0.037 A 
ATOM     52  C   UNL A   1      41.084  30.872  29.977  1.00  0.00     0.049 A 
ATOM     53  C   UNL A   1      45.675  29.247  27.212  1.00  0.00     0.074 A 
ATOM     54  C   UNL A   1      41.084  32.160  30.484  1.00  0.00     0.029 A 
ATOM     55  N   UNL A   1      42.298  30.696  29.330  1.00  0.00    -0.354 N 
ATOM     56  N   UNL A   1      44.677  29.767  27.887  1.00  0.00    -0.248 NA
ATOM     57  C   UNL A   1      46.779  30.185  26.961  1.00  0.00     0.031 C 
ATOM     58  C   UNL A   1      42.278  32.779  30.102  1.00  0.00     0.029 A 
ATOM     59  C   UNL A   1      43.046  31.859  29.405  1.00  0.00     0.049 A 
ATOM     60  H   UNL A   1      42.584  29.867  28.883  1.00  0.00     0.167 HD
ATOM     61  C   UNL A   1      45.048  31.076  28.171  1.00  0.00     0.074 A 
ATOM     62  C   UNL A   1      46.364  31.270  27.600  1.00  0.00     0.031 C 
ATOM     63  C   UNL A   1      44.363  32.030  28.848  1.00  0.00     0.037 A 
BRANCH  50  64
ATOM     64  C   UNL A   1      38.780  30.225  30.780  1.00  0.00     0.057 A 
ATOM     65  C   UNL A   1      38.613  30.018  32.155  1.00  0.00     0.134 A 
ATOM     66  C   UNL A   1      37.714  30.805  30.080  1.00  0.00     0.134 A 
ATOM     67  F   UNL A   1      39.589  29.453  32.881  1.00  0.00    -0.206 F 
ATOM     68  C   UNL A   1      37.423  30.354  32.805  1.00  0.00     0.040 A 
ATOM     69  C   UNL A   1      36.530  31.171  30.724  1.00  0.00     0.040 A 
ATOM     70  F   UNL A   1      37.809  31.035  28.762  1.00  0.00    -0.206 F 
ATOM     71  C   UNL A   1      36.380  30.939  32.089  1.00  0.00     0.006 A 
ENDBRANCH  50  64
BRANCH  51  72
ATOM     72  C   UNL A   1      47.070  27.453  25.953  1.00  0.00     0.057 A 
ATOM     73  C   UNL A   1      47.164  27.566  24.561  1.00  0.00     0.134 A 
ATOM     74  C   UNL A   1      48.176  26.928  26.633  1.00  0.00     0.134 A 
ATOM     75  F   UNL A   1      46.129  28.038  23.851  1.00  0.00    -0.206 F 
ATOM     76  C   UNL A   1      48.306  27.157  23.870  1.00  0.00     0.040 A 
ATOM     77  C   UNL A   1      49.335  26.540  25.958  1.00  0.00     0.040 A 
ATOM     78  F   UNL A   1      48.150  26.794  27.968  1.00  0.00    -0.206 F 
ATOM     79  C   UNL A   1      49.399  26.647  24.571  1.00  0.00     0.006 A 
ENDBRANCH  51  72
BRANCH  63  80
ATOM     80  C   UNL A   1      45.039  33.354  29.057  1.00  0.00     0.057 A 
ATOM     81  C   UNL A   1      45.893  33.590  30.141  1.00  0.00     0.134 A 
ATOM     82  C   UNL A   1      44.874  34.388  28.125  1.00  0.00     0.134 A 
ATOM     83  F   UNL A   1      46.086  32.644  31.074  1.00  0.00    -0.206 F 
ATOM     84  C   UNL A   1      46.545  34.814  30.302  1.00  0.00     0.040 A 
ATOM     85  C   UNL A   1      45.541  35.606  28.261  1.00  0.00     0.040 A 
ATOM     86  F   UNL A   1      44.078  34.223  27.059  1.00  0.00    -0.206 F 
ATOM     87  C   UNL A   1      46.376  35.823  29.355  1.00  0.00     0.006 A 
ENDBRANCH  63  80
ENDBRANCH  37  38
ENDBRANCH  30  32
ENDBRANCH  29  30
ENDBRANCH  28  29
ENDBRANCH  27  28
ENDBRANCH   1  27
TORSDOF 18
ENDMDL
MODEL 3
REMARK VINA RESULT:     -10.4      4.167      7.418
REMARK SMILES CC[NH2+][C@]1(C(=O)OCCOCCOC(=O)c2ccc(-c3c4nc(c(-c5c(F)cccc5F)c5ccc([nH]5)c(-c5c(F)cccc5F)c5nc(c(-c6c(F)cccc6F)c6ccc3[nH]6)C=C5)C=C4)cc2)CCC[C@H]([N@@H+]2CCC[C@@H]2C(C)C)C1
REMARK SMILES IDX 10 1 9 2 8 3 7 4 5 5 6 6 4 7 70 8 82 9 71 10 73 11 72 12
REMARK SMILES IDX 3 13 2 16 1 17 74 18 75 19 78 20 76 22 77 23 79 24 80 25
REMARK SMILES IDX 81 26 11 27 12 28 13 29 14 30 15 31 16 32 17 33 69 34 18 35
REMARK SMILES IDX 68 36 19 37 20 38 21 39 62 40 22 41 67 42 61 43 63 44 23 45
REMARK SMILES IDX 66 46 60 47 59 48 24 50 50 51 33 52 49 53 34 54 37 55 48 56
REMARK SMILES IDX 64 57 35 58 36 59 47 61 65 62 38 63 25 64 26 65 31 66 27 67
REMARK SMILES IDX 28 68 30 69 32 70 29 71 51 72 52 73 57 74 53 75 54 76 56 77
REMARK SMILES IDX 58 78 55 79 39 80 40 81 45 82 41 83 42 84 44 85 46 86 43 87
REMARK H PARENT 3 14 3 15 74 21 63 49 37 60
REMARK Flexibility Score: inf
ROOT
ATOM      1  O   UNL A   1      34.638  20.409  25.360  1.00  0.00    -0.374 OA
ENDROOT
BRANCH   1   2
ATOM      2  C   UNL A   1      33.476  20.526  24.528  1.00  0.00     0.202 C 
BRANCH   2   3
ATOM      3  C   UNL A   1      32.166  20.659  25.320  1.00  0.00     0.261 C 
BRANCH   3   4
ATOM      4  O   UNL A   1      31.525  21.854  24.872  1.00  0.00    -0.459 OA
BRANCH   4   5
ATOM      5  C   UNL A   1      30.722  22.578  25.709  1.00  0.00     0.368 C 
ATOM      6  O   UNL A   1      29.915  22.114  26.501  1.00  0.00    -0.245 OA
BRANCH   5   7
ATOM      7  C   UNL A   1      31.031  24.075  25.444  1.00  0.00     0.200 C 
ATOM      8  C   UNL A   1      30.690  24.208  23.888  1.00  0.00     0.081 C 
ATOM      9  C   UNL A   1      30.195  25.141  26.132  1.00  0.00     0.146 C 
ATOM     10  C   UNL A   1      30.362  25.549  23.222  1.00  0.00     0.013 C 
ATOM     11  C   UNL A   1      30.485  26.556  25.499  1.00  0.00     0.191 C 
ATOM     12  C   UNL A   1      29.818  26.608  24.139  1.00  0.00     0.065 C 
BRANCH   7  13
ATOM     13  N   UNL A   1      32.414  24.363  25.917  1.00  0.00    -0.332 N 
ATOM     14  H   UNL A   1      32.430  25.340  26.211  1.00  0.00     0.347 HD
ATOM     15  H   UNL A   1      32.570  23.661  26.641  1.00  0.00     0.347 HD
BRANCH  13  16
ATOM     16  C   UNL A   1      33.541  24.174  25.008  1.00  0.00     0.257 C 
ATOM     17  C   UNL A   1      34.783  24.835  25.612  1.00  0.00     0.071 C 
ENDBRANCH  13  16
ENDBRANCH   7  13
BRANCH  11  18
ATOM     18  N   UNL A   1      31.885  27.085  25.617  1.00  0.00    -0.330 N 
ATOM     19  C   UNL A   1      31.971  27.905  26.860  1.00  0.00     0.262 C 
ATOM     20  C   UNL A   1      32.804  27.821  24.637  1.00  0.00     0.187 C 
ATOM     21  H   UNL A   1      32.263  26.151  25.459  1.00  0.00     0.348 HD
ATOM     22  C   UNL A   1      31.949  29.335  26.384  1.00  0.00     0.067 C 
ATOM     23  C   UNL A   1      32.781  29.289  25.133  1.00  0.00     0.071 C 
BRANCH  20  24
ATOM     24  C   UNL A   1      33.095  27.885  23.047  1.00  0.00     0.041 C 
ATOM     25  C   UNL A   1      34.305  28.823  22.755  1.00  0.00     0.014 C 
ATOM     26  C   UNL A   1      33.484  26.652  22.224  1.00  0.00     0.014 C 
ENDBRANCH  20  24
ENDBRANCH  11  18
ENDBRANCH   5   7
ENDBRANCH   4   5
ENDBRANCH   3   4
ENDBRANCH   2   3
ENDBRANCH   1   2
BRANCH   1  27
ATOM     27  C   UNL A   1      35.790  21.141  24.925  1.00  0.00     0.202 C 
BRANCH  27  28
ATOM     28  C   UNL A   1      37.088  20.337  25.024  1.00  0.00     0.261 C 
BRANCH  28  29
ATOM     29  O   UNL A   1      38.217  21.227  24.993  1.00  0.00    -0.460 OA
BRANCH  29  30
ATOM     30  C   UNL A   1      39.185  20.951  25.879  1.00  0.00     0.338 C 
ATOM     31  O   UNL A   1      39.779  19.880  26.040  1.00  0.00    -0.246 OA
BRANCH  30  32
ATOM     32  C   UNL A   1      39.593  22.176  26.572  1.00  0.00     0.060 A 
ATOM     33  C   UNL A   1      38.991  23.369  26.160  1.00  0.00     0.016 A 
ATOM     34  C   UNL A   1      40.628  22.182  27.512  1.00  0.00     0.016 A 
ATOM     35  C   UNL A   1      39.484  24.586  26.616  1.00  0.00     0.010 A 
ATOM     36  C   UNL A   1      41.121  23.409  27.972  1.00  0.00     0.010 A 
ATOM     37  C   UNL A   1      40.589  24.615  27.478  1.00  0.00    -0.014 A 
BRANCH  37  38
ATOM     38  C   UNL A   1      41.303  25.902  27.675  1.00  0.00     0.031 A 
ATOM     39  C   UNL A   1      40.614  27.000  28.443  1.00  0.00     0.074 A 
ATOM     40  C   UNL A   1      42.572  26.063  27.262  1.00  0.00     0.049 A 
ATOM     41  N   UNL A   1      41.043  28.197  28.749  1.00  0.00    -0.248 NA
ATOM     42  C   UNL A   1      39.259  26.704  28.937  1.00  0.00     0.031 C 
ATOM     43  C   UNL A   1      43.368  25.054  26.566  1.00  0.00     0.029 A 
ATOM     44  N   UNL A   1      43.417  27.139  27.379  1.00  0.00    -0.354 N 
ATOM     45  C   UNL A   1      40.012  28.798  29.464  1.00  0.00     0.074 A 
ATOM     46  C   UNL A   1      38.923  27.846  29.517  1.00  0.00     0.031 C 
ATOM     47  C   UNL A   1      44.588  25.561  26.316  1.00  0.00     0.029 A 
ATOM     48  C   UNL A   1      44.648  26.937  26.805  1.00  0.00     0.049 A 
ATOM     49  H   UNL A   1      43.164  27.976  27.831  1.00  0.00     0.167 HD
ATOM     50  C   UNL A   1      39.979  30.024  30.035  1.00  0.00     0.037 A 
ATOM     51  C   UNL A   1      45.694  27.775  26.674  1.00  0.00     0.037 A 
ATOM     52  C   UNL A   1      41.066  30.966  29.991  1.00  0.00     0.049 A 
ATOM     53  C   UNL A   1      45.604  29.165  27.248  1.00  0.00     0.074 A 
ATOM     54  C   UNL A   1      41.131  32.235  30.539  1.00  0.00     0.029 A 
ATOM     55  N   UNL A   1      42.278  30.740  29.357  1.00  0.00    -0.354 N 
ATOM     56  N   UNL A   1      44.626  29.720  27.924  1.00  0.00    -0.248 NA
ATOM     57  C   UNL A   1      46.764  30.045  27.044  1.00  0.00     0.031 C 
ATOM     58  C   UNL A   1      42.365  32.795  30.196  1.00  0.00     0.029 A 
ATOM     59  C   UNL A   1      43.090  31.855  29.482  1.00  0.00     0.049 A 
ATOM     60  H   UNL A   1      42.525  29.910  28.889  1.00  0.00     0.167 HD
ATOM     61  C   UNL A   1      45.066  30.996  28.255  1.00  0.00     0.074 A 
ATOM     62  C   UNL A   1      46.401  31.132  27.711  1.00  0.00     0.031 C 
ATOM     63  C   UNL A   1      44.425  31.966  28.952  1.00  0.00     0.037 A 
BRANCH  50  64
ATOM     64  C   UNL A   1      38.714  30.428  30.736  1.00  0.00     0.057 A 
ATOM     65  C   UNL A   1      37.676  31.094  30.072  1.00  0.00     0.134 A 
ATOM     66  C   UNL A   1      38.522  30.120  32.089  1.00  0.00     0.134 A 
ATOM     67  F   UNL A   1      37.802  31.431  28.779  1.00  0.00    -0.206 F 
ATOM     68  C   UNL A   1      36.502  31.460  30.734  1.00  0.00     0.040 A 
ATOM     69  C   UNL A   1      37.342  30.457  32.754  1.00  0.00     0.040 A 
ATOM     70  F   UNL A   1      39.473  29.479  32.784  1.00  0.00    -0.206 F 
ATOM     71  C   UNL A   1      36.331  31.135  32.078  1.00  0.00     0.006 A 
ENDBRANCH  50  64
BRANCH  51  72
ATOM     72  C   UNL A   1      46.916  27.333  25.954  1.00  0.00     0.057 A 
ATOM     73  C   UNL A   1      47.067  27.542  24.578  1.00  0.00     0.134 A 
ATOM     74  C   UNL A   1      47.951  26.668  26.623  1.00  0.00     0.134 A 
ATOM     75  F   UNL A   1      46.100  28.151  23.877  1.00  0.00    -0.206 F 
ATOM     76  C   UNL A   1      48.195  27.090  23.890  1.00  0.00     0.040 A 
ATOM     77  C   UNL A   1      49.096  26.235  25.953  1.00  0.00     0.040 A 
ATOM     78  F   UNL A   1      47.867  26.437  27.941  1.00  0.00    -0.206 F 
ATOM     79  C   UNL A   1      49.217  26.439  24.580  1.00  0.00     0.006 A 
ENDBRANCH  51  72
BRANCH  63  80
ATOM     80  C   UNL A   1      45.172  33.242  29.214  1.00  0.00     0.057 A 
ATOM     81  C   UNL A   1      46.003  33.401  30.329  1.00  0.00     0.134 A 
ATOM     82  C   UNL A   1      45.099  34.305  28.304  1.00  0.00     0.134 A 
ATOM     83  F   UNL A   1      46.109  32.424  31.244  1.00  0.00    -0.206 F 
ATOM     84  C   UNL A   1      46.722  34.579  30.540  1.00  0.00     0.040 A 
ATOM     85  C   UNL A   1      45.833  35.477  28.490  1.00  0.00     0.040 A 
ATOM     86  F   UNL A   1      44.329  34.213  27.209  1.00  0.00    -0.206 F 
ATOM     87  C   UNL A   1      46.644  35.618  29.613  1.00  0.00     0.006 A 
ENDBRANCH  63  80
ENDBRANCH  37  38
ENDBRANCH  30  32
ENDBRANCH  29  30
ENDBRANCH  28  29
ENDBRANCH  27  28
ENDBRANCH   1  27
TORSDOF 18
ENDMDL
