MODEL 1
REMARK VINA RESULT:     -10.7      0.000      0.000
REMARK SMILES CC(C)(C)OC(=O)N1C[C@@H](Oc2cccnc2)C[C@H]1C(=O)OCCOCCOC(=O)c1ccc(-c2c3nc(c(-c4c(F)cccc4F)c4ccc([nH]4)c(-c4c(F)cccc4F)c4nc(c(-c5c(F)cccc5F)c5ccc2[nH]5)C=C4)C=C3)cc1
REMARK SMILES IDX 24 1 23 2 22 3 20 4 21 5 19 6 8 7 9 8 10 9 18 10 6 11 7 12
REMARK SMILES IDX 5 13 2 14 1 15 3 16 4 17 11 18 12 19 13 20 17 21 14 22 16 23
REMARK SMILES IDX 15 24 25 25 26 26 27 27 28 28 29 29 30 30 31 31 32 32 84 33
REMARK SMILES IDX 33 34 83 35 34 36 35 37 36 38 77 39 37 40 82 41 76 42 78 43
REMARK SMILES IDX 38 44 81 45 75 46 74 47 39 49 65 50 48 51 64 52 49 53 52 54
REMARK SMILES IDX 63 55 79 56 50 57 51 58 62 60 80 61 53 62 40 63 41 64 46 65
REMARK SMILES IDX 42 66 43 67 45 68 47 69 44 70 66 71 67 72 72 73 68 74 69 75
REMARK SMILES IDX 71 76 73 77 70 78 54 79 55 80 60 81 56 82 57 83 59 84 61 85
REMARK SMILES IDX 58 86
REMARK H PARENT 78 48 52 59
REMARK Flexibility Score: inf
ROOT
ATOM      1  C   UNL A   1      33.341  29.898  26.403  1.00  0.00     0.202 C 
ENDROOT
BRANCH   1   2
ATOM      2  C   UNL A   1      33.710  28.483  26.866  1.00  0.00     0.261 C 
BRANCH   2   3
ATOM      3  O   UNL A   1      33.307  27.479  25.914  1.00  0.00    -0.462 OA
BRANCH   3   4
ATOM      4  C   UNL A   1      31.963  27.348  25.731  1.00  0.00     0.329 C 
ATOM      5  O   UNL A   1      31.127  27.349  26.629  1.00  0.00    -0.250 OA
BRANCH   4   6
ATOM      6  C   UNL A   1      31.619  27.310  24.235  1.00  0.00     0.202 C 
ATOM      7  N   UNL A   1      30.773  26.143  24.041  1.00  0.00    -0.291 N 
ATOM      8  C   UNL A   1      29.378  26.505  23.852  1.00  0.00     0.169 C 
ATOM      9  C   UNL A   1      29.471  27.906  23.252  1.00  0.00     0.195 C 
ATOM     10  C   UNL A   1      30.779  28.510  23.786  1.00  0.00     0.084 C 
BRANCH   7  11
ATOM     11  C   UNL A   1      31.313  24.901  24.223  1.00  0.00     0.411 C 
ATOM     12  O   UNL A   1      32.422  24.614  23.775  1.00  0.00    -0.224 OA
BRANCH  11  13
ATOM     13  O   UNL A   1      30.519  24.073  24.934  1.00  0.00    -0.444 OA
BRANCH  13  14
ATOM     14  C   UNL A   1      31.098  23.199  25.939  1.00  0.00     0.106 C 
ATOM     15  C   UNL A   1      29.940  22.878  26.891  1.00  0.00     0.056 C 
ATOM     16  C   UNL A   1      32.186  23.973  26.692  1.00  0.00     0.056 C 
ATOM     17  C   UNL A   1      31.644  21.869  25.394  1.00  0.00     0.056 C 
ENDBRANCH  13  14
ENDBRANCH  11  13
ENDBRANCH   7  11
BRANCH   9  18
ATOM     18  O   UNL A   1      28.302  28.717  23.290  1.00  0.00    -0.487 OA
BRANCH  18  19
ATOM     19  C   UNL A   1      28.245  29.994  22.831  1.00  0.00     0.138 A 
ATOM     20  C   UNL A   1      28.175  31.156  23.584  1.00  0.00     0.050 A 
ATOM     21  C   UNL A   1      28.198  30.142  21.444  1.00  0.00     0.157 A 
ATOM     22  C   UNL A   1      28.086  32.396  22.937  1.00  0.00     0.024 A 
ATOM     23  N   UNL A   1      28.132  31.327  20.788  1.00  0.00    -0.261 NA
ATOM     24  C   UNL A   1      28.076  32.432  21.553  1.00  0.00     0.111 A 
ENDBRANCH  18  19
ENDBRANCH   9  18
ENDBRANCH   4   6
ENDBRANCH   3   4
ENDBRANCH   2   3
ENDBRANCH   1   2
BRANCH   1  25
ATOM     25  O   UNL A   1      32.199  30.498  27.022  1.00  0.00    -0.374 OA
BRANCH  25  26
ATOM     26  C   UNL A   1      31.679  31.651  26.372  1.00  0.00     0.202 C 
BRANCH  26  27
ATOM     27  C   UNL A   1      31.616  32.934  27.198  1.00  0.00     0.261 C 
BRANCH  27  28
ATOM     28  O   UNL A   1      32.885  33.597  27.144  1.00  0.00    -0.460 OA
BRANCH  28  29
ATOM     29  C   UNL A   1      33.360  33.934  28.364  1.00  0.00     0.338 C 
ATOM     30  O   UNL A   1      32.806  34.607  29.217  1.00  0.00    -0.246 OA
BRANCH  29  31
ATOM     31  C   UNL A   1      34.605  33.191  28.617  1.00  0.00     0.060 A 
ATOM     32  C   UNL A   1      34.468  31.867  29.050  1.00  0.00     0.016 A 
ATOM     33  C   UNL A   1      35.867  33.769  28.458  1.00  0.00     0.016 A 
ATOM     34  C   UNL A   1      35.591  31.136  29.403  1.00  0.00     0.010 A 
ATOM     35  C   UNL A   1      36.996  33.035  28.820  1.00  0.00     0.010 A 
ATOM     36  C   UNL A   1      36.854  31.736  29.339  1.00  0.00    -0.014 A 
BRANCH  36  37
ATOM     37  C   UNL A   1      37.994  31.068  29.999  1.00  0.00     0.031 A 
ATOM     38  C   UNL A   1      38.248  31.360  31.450  1.00  0.00     0.074 A 
ATOM     39  C   UNL A   1      38.744  30.177  29.331  1.00  0.00     0.049 A 
ATOM     40  N   UNL A   1      39.194  30.912  32.234  1.00  0.00    -0.248 NA
ATOM     41  C   UNL A   1      37.308  32.284  32.107  1.00  0.00     0.031 C 
ATOM     42  C   UNL A   1      38.545  29.781  27.937  1.00  0.00     0.029 A 
ATOM     43  N   UNL A   1      39.825  29.443  29.741  1.00  0.00    -0.354 N 
ATOM     44  C   UNL A   1      38.965  31.503  33.471  1.00  0.00     0.074 A 
ATOM     45  C   UNL A   1      37.817  32.369  33.327  1.00  0.00     0.031 C 
ATOM     46  C   UNL A   1      39.482  28.878  27.605  1.00  0.00     0.029 A 
ATOM     47  C   UNL A   1      40.363  28.661  28.750  1.00  0.00     0.049 A 
ATOM     48  H   UNL A   1      40.183  29.474  30.658  1.00  0.00     0.167 HD
ATOM     49  C   UNL A   1      39.650  31.328  34.624  1.00  0.00     0.037 A 
ATOM     50  C   UNL A   1      41.460  27.879  28.767  1.00  0.00     0.037 A 
ATOM     51  C   UNL A   1      40.792  30.464  34.754  1.00  0.00     0.049 A 
ATOM     52  C   UNL A   1      42.254  27.768  30.041  1.00  0.00     0.074 A 
ATOM     53  C   UNL A   1      41.557  30.205  35.876  1.00  0.00     0.029 A 
ATOM     54  N   UNL A   1      41.338  29.722  33.715  1.00  0.00    -0.354 N 
ATOM     55  N   UNL A   1      42.026  28.318  31.210  1.00  0.00    -0.248 NA
ATOM     56  C   UNL A   1      43.459  26.928  29.997  1.00  0.00     0.031 C 
ATOM     57  C   UNL A   1      42.598  29.349  35.504  1.00  0.00     0.029 A 
ATOM     58  C   UNL A   1      42.447  29.026  34.164  1.00  0.00     0.049 A 
ATOM     59  H   UNL A   1      40.987  29.694  32.795  1.00  0.00     0.167 HD
ATOM     60  C   UNL A   1      43.039  27.867  32.049  1.00  0.00     0.074 A 
ATOM     61  C   UNL A   1      43.874  26.989  31.255  1.00  0.00     0.031 C 
ATOM     62  C   UNL A   1      43.258  28.151  33.356  1.00  0.00     0.037 A 
BRANCH  49  63
ATOM     63  C   UNL A   1      39.198  32.109  35.824  1.00  0.00     0.057 A 
ATOM     64  C   UNL A   1      39.669  33.402  36.091  1.00  0.00     0.134 A 
ATOM     65  C   UNL A   1      38.259  31.569  36.712  1.00  0.00     0.134 A 
ATOM     66  F   UNL A   1      40.583  33.972  35.290  1.00  0.00    -0.206 F 
ATOM     67  C   UNL A   1      39.240  34.119  37.210  1.00  0.00     0.040 A 
ATOM     68  C   UNL A   1      37.802  32.287  37.819  1.00  0.00     0.040 A 
ATOM     69  F   UNL A   1      37.766  30.337  36.516  1.00  0.00    -0.206 F 
ATOM     70  C   UNL A   1      38.299  33.564  38.074  1.00  0.00     0.006 A 
ENDBRANCH  49  63
BRANCH  50  71
ATOM     71  C   UNL A   1      41.875  27.154  27.541  1.00  0.00     0.057 A 
ATOM     72  C   UNL A   1      41.500  25.825  27.320  1.00  0.00     0.134 A 
ATOM     73  C   UNL A   1      42.671  27.769  26.565  1.00  0.00     0.134 A 
ATOM     74  F   UNL A   1      40.756  25.174  28.226  1.00  0.00    -0.206 F 
ATOM     75  C   UNL A   1      41.915  25.126  26.184  1.00  0.00     0.040 A 
ATOM     76  C   UNL A   1      43.070  27.093  25.411  1.00  0.00     0.040 A 
ATOM     77  F   UNL A   1      43.061  29.044  26.714  1.00  0.00    -0.206 F 
ATOM     78  C   UNL A   1      42.697  25.763  25.223  1.00  0.00     0.006 A 
ENDBRANCH  50  71
BRANCH  62  79
ATOM     79  C   UNL A   1      44.424  27.476  34.019  1.00  0.00     0.057 A 
ATOM     80  C   UNL A   1      44.313  26.208  34.601  1.00  0.00     0.134 A 
ATOM     81  C   UNL A   1      45.686  28.085  34.027  1.00  0.00     0.134 A 
ATOM     82  F   UNL A   1      43.130  25.577  34.636  1.00  0.00    -0.206 F 
ATOM     83  C   UNL A   1      45.412  25.579  35.190  1.00  0.00     0.040 A 
ATOM     84  C   UNL A   1      46.798  27.454  34.586  1.00  0.00     0.040 A 
ATOM     85  F   UNL A   1      45.863  29.295  33.475  1.00  0.00    -0.206 F 
ATOM     86  C   UNL A   1      46.660  26.199  35.175  1.00  0.00     0.006 A 
ENDBRANCH  62  79
ENDBRANCH  36  37
ENDBRANCH  29  31
ENDBRANCH  28  29
ENDBRANCH  27  28
ENDBRANCH  26  27
ENDBRANCH  25  26
ENDBRANCH   1  25
TORSDOF 19
ENDMDL
MODEL 2
REMARK VINA RESULT:     -10.5      3.823      6.808
REMARK SMILES CC(C)(C)OC(=O)N1C[C@@H](Oc2cccnc2)C[C@H]1C(=O)OCCOCCOC(=O)c1ccc(-c2c3nc(c(-c4c(F)cccc4F)c4ccc([nH]4)c(-c4c(F)cccc4F)c4nc(c(-c5c(F)cccc5F)c5ccc2[nH]5)C=C4)C=C3)cc1
REMARK SMILES IDX 24 1 23 2 22 3 20 4 21 5 19 6 8 7 9 8 10 9 18 10 6 11 7 12
REMARK SMILES IDX 5 13 2 14 1 15 3 16 4 17 11 18 12 19 13 20 17 21 14 22 16 23
REMARK SMILES IDX 15 24 25 25 26 26 27 27 28 28 29 29 30 30 31 31 32 32 84 33
REMARK SMILES IDX 33 34 83 35 34 36 35 37 36 38 77 39 37 40 82 41 76 42 78 43
REMARK SMILES IDX 38 44 81 45 75 46 74 47 39 49 65 50 48 51 64 52 49 53 52 54
REMARK SMILES IDX 63 55 79 56 50 57 51 58 62 60 80 61 53 62 40 63 41 64 46 65
REMARK SMILES IDX 42 66 43 67 45 68 47 69 44 70 66 71 67 72 72 73 68 74 69 75
REMARK SMILES IDX 71 76 73 77 70 78 54 79 55 80 60 81 56 82 57 83 59 84 61 85
REMARK SMILES IDX 58 86
REMARK H PARENT 78 48 52 59
REMARK Flexibility Score: inf
ROOT
ATOM      1  C   UNL A   1      34.275  23.317  23.414  1.00  0.00     0.202 C 
ENDROOT
BRANCH   1   2
ATOM      2  C   UNL A   1      33.177  23.994  22.584  1.00  0.00     0.261 C 
BRANCH   2   3
ATOM      3  O   UNL A   1      32.235  24.706  23.410  1.00  0.00    -0.462 OA
BRANCH   3   4
ATOM      4  C   UNL A   1      31.695  25.826  22.853  1.00  0.00     0.329 C 
ATOM      5  O   UNL A   1      31.706  26.093  21.655  1.00  0.00    -0.250 OA
BRANCH   4   6
ATOM      6  C   UNL A   1      30.967  26.665  23.913  1.00  0.00     0.202 C 
ATOM      7  N   UNL A   1      31.563  27.991  23.865  1.00  0.00    -0.291 N 
ATOM      8  C   UNL A   1      30.695  28.956  23.212  1.00  0.00     0.169 C 
ATOM      9  C   UNL A   1      29.301  28.388  23.471  1.00  0.00     0.195 C 
ATOM     10  C   UNL A   1      29.482  26.867  23.598  1.00  0.00     0.084 C 
BRANCH   7  11
ATOM     11  C   UNL A   1      32.865  28.141  24.251  1.00  0.00     0.411 C 
ATOM     12  O   UNL A   1      33.720  28.557  23.471  1.00  0.00    -0.224 OA
BRANCH  11  13
ATOM     13  O   UNL A   1      33.081  27.801  25.539  1.00  0.00    -0.444 OA
BRANCH  13  14
ATOM     14  C   UNL A   1      32.830  28.766  26.596  1.00  0.00     0.106 C 
ATOM     15  C   UNL A   1      34.163  28.879  27.346  1.00  0.00     0.056 C 
ATOM     16  C   UNL A   1      31.758  28.197  27.531  1.00  0.00     0.056 C 
ATOM     17  C   UNL A   1      32.445  30.171  26.102  1.00  0.00     0.056 C 
ENDBRANCH  13  14
ENDBRANCH  11  13
ENDBRANCH   7  11
BRANCH   9  18
ATOM     18  O   UNL A   1      28.235  28.864  22.658  1.00  0.00    -0.487 OA
BRANCH  18  19
ATOM     19  C   UNL A   1      28.123  30.145  22.223  1.00  0.00     0.138 A 
ATOM     20  C   UNL A   1      28.162  30.593  20.911  1.00  0.00     0.050 A 
ATOM     21  C   UNL A   1      28.012  31.120  23.214  1.00  0.00     0.157 A 
ATOM     22  C   UNL A   1      28.066  31.966  20.644  1.00  0.00     0.024 A 
ATOM     23  N   UNL A   1      27.898  32.453  22.989  1.00  0.00    -0.261 NA
ATOM     24  C   UNL A   1      27.929  32.847  21.703  1.00  0.00     0.111 A 
ENDBRANCH  18  19
ENDBRANCH   9  18
ENDBRANCH   4   6
ENDBRANCH   3   4
ENDBRANCH   2   3
ENDBRANCH   1   2
BRANCH   1  25
ATOM     25  O   UNL A   1      35.512  23.050  22.745  1.00  0.00    -0.374 OA
BRANCH  25  26
ATOM     26  C   UNL A   1      36.656  22.943  23.583  1.00  0.00     0.202 C 
BRANCH  26  27
ATOM     27  C   UNL A   1      36.812  21.641  24.365  1.00  0.00     0.261 C 
BRANCH  27  28
ATOM     28  O   UNL A   1      37.216  21.936  25.707  1.00  0.00    -0.460 OA
BRANCH  28  29
ATOM     29  C   UNL A   1      38.499  21.597  25.962  1.00  0.00     0.338 C 
ATOM     30  O   UNL A   1      39.089  20.593  25.599  1.00  0.00    -0.246 OA
BRANCH  29  31
ATOM     31  C   UNL A   1      39.179  22.734  26.602  1.00  0.00     0.060 A 
ATOM     32  C   UNL A   1      38.607  23.997  26.407  1.00  0.00     0.016 A 
ATOM     33  C   UNL A   1      40.349  22.582  27.350  1.00  0.00     0.016 A 
ATOM     34  C   UNL A   1      39.244  25.127  26.895  1.00  0.00     0.010 A 
ATOM     35  C   UNL A   1      40.994  23.721  27.835  1.00  0.00     0.010 A 
ATOM     36  C   UNL A   1      40.467  24.996  27.565  1.00  0.00    -0.014 A 
BRANCH  36  37
ATOM     37  C   UNL A   1      41.280  26.205  27.804  1.00  0.00     0.031 A 
ATOM     38  C   UNL A   1      40.672  27.329  28.593  1.00  0.00     0.074 A 
ATOM     39  C   UNL A   1      42.551  26.270  27.375  1.00  0.00     0.049 A 
ATOM     40  N   UNL A   1      41.180  28.490  28.911  1.00  0.00    -0.248 NA
ATOM     41  C   UNL A   1      39.302  27.114  29.091  1.00  0.00     0.031 C 
ATOM     42  C   UNL A   1      43.252  25.211  26.649  1.00  0.00     0.029 A 
ATOM     43  N   UNL A   1      43.477  27.272  27.491  1.00  0.00    -0.354 N 
ATOM     44  C   UNL A   1      40.193  29.143  29.640  1.00  0.00     0.074 A 
ATOM     45  C   UNL A   1      39.045  28.268  29.687  1.00  0.00     0.031 C 
ATOM     46  C   UNL A   1      44.501  25.625  26.378  1.00  0.00     0.029 A 
ATOM     47  C   UNL A   1      44.672  26.987  26.881  1.00  0.00     0.049 A 
ATOM     48  H   UNL A   1      43.302  28.116  27.967  1.00  0.00     0.167 HD
ATOM     49  C   UNL A   1      40.250  30.362  30.225  1.00  0.00     0.037 A 
ATOM     50  C   UNL A   1      45.768  27.754  26.728  1.00  0.00     0.037 A 
ATOM     51  C   UNL A   1      41.400  31.224  30.171  1.00  0.00     0.049 A 
ATOM     52  C   UNL A   1      45.774  29.140  27.316  1.00  0.00     0.074 A 
ATOM     53  C   UNL A   1      41.570  32.475  30.734  1.00  0.00     0.029 A 
ATOM     54  N   UNL A   1      42.579  30.920  29.503  1.00  0.00    -0.354 N 
ATOM     55  N   UNL A   1      44.844  29.747  28.015  1.00  0.00    -0.248 NA
ATOM     56  C   UNL A   1      46.980  29.948  27.093  1.00  0.00     0.031 C 
ATOM     57  C   UNL A   1      42.829  32.952  30.361  1.00  0.00     0.029 A 
ATOM     58  C   UNL A   1      43.469  31.973  29.616  1.00  0.00     0.049 A 
ATOM     59  H   UNL A   1      42.754  30.080  29.020  1.00  0.00     0.167 HD
ATOM     60  C   UNL A   1      45.364  30.994  28.342  1.00  0.00     0.074 A 
ATOM     61  C   UNL A   1      46.695  31.050  27.774  1.00  0.00     0.031 C 
ATOM     62  C   UNL A   1      44.794  32.001  29.048  1.00  0.00     0.037 A 
BRANCH  49  63
ATOM     63  C   UNL A   1      39.023  30.842  30.946  1.00  0.00     0.057 A 
ATOM     64  C   UNL A   1      38.019  31.575  30.299  1.00  0.00     0.134 A 
ATOM     65  C   UNL A   1      38.833  30.545  32.302  1.00  0.00     0.134 A 
ATOM     66  F   UNL A   1      38.147  31.909  29.005  1.00  0.00    -0.206 F 
ATOM     67  C   UNL A   1      36.883  32.015  30.980  1.00  0.00     0.040 A 
ATOM     68  C   UNL A   1      37.688  30.956  32.986  1.00  0.00     0.040 A 
ATOM     69  F   UNL A   1      39.754  29.846  32.982  1.00  0.00    -0.206 F 
ATOM     70  C   UNL A   1      36.711  31.700  32.326  1.00  0.00     0.006 A 
ENDBRANCH  49  63
BRANCH  50  71
ATOM     71  C   UNL A   1      46.940  27.237  25.979  1.00  0.00     0.057 A 
ATOM     72  C   UNL A   1      47.086  27.470  24.607  1.00  0.00     0.134 A 
ATOM     73  C   UNL A   1      47.936  26.484  26.614  1.00  0.00     0.134 A 
ATOM     74  F   UNL A   1      46.156  28.166  23.938  1.00  0.00    -0.206 F 
ATOM     75  C   UNL A   1      48.169  26.959  23.890  1.00  0.00     0.040 A 
ATOM     76  C   UNL A   1      49.039  25.990  25.915  1.00  0.00     0.040 A 
ATOM     77  F   UNL A   1      47.858  26.228  27.929  1.00  0.00    -0.206 F 
ATOM     78  C   UNL A   1      49.153  26.221  24.546  1.00  0.00     0.006 A 
ENDBRANCH  50  71
BRANCH  62  79
ATOM     79  C   UNL A   1      45.622  33.232  29.279  1.00  0.00     0.057 A 
ATOM     80  C   UNL A   1      46.494  33.344  30.368  1.00  0.00     0.134 A 
ATOM     81  C   UNL A   1      45.582  34.296  28.368  1.00  0.00     0.134 A 
ATOM     82  F   UNL A   1      46.571  32.366  31.282  1.00  0.00    -0.206 F 
ATOM     83  C   UNL A   1      47.280  34.483  30.556  1.00  0.00     0.040 A 
ATOM     84  C   UNL A   1      46.385  35.426  28.529  1.00  0.00     0.040 A 
ATOM     85  F   UNL A   1      44.776  34.246  27.296  1.00  0.00    -0.206 F 
ATOM     86  C   UNL A   1      47.232  35.523  29.630  1.00  0.00     0.006 A 
ENDBRANCH  62  79
ENDBRANCH  36  37
ENDBRANCH  29  31
ENDBRANCH  28  29
ENDBRANCH  27  28
ENDBRANCH  26  27
ENDBRANCH  25  26
ENDBRANCH   1  25
TORSDOF 19
ENDMDL
MODEL 3
REMARK VINA RESULT:     -10.5      3.124      5.945
REMARK SMILES CC(C)(C)OC(=O)N1C[C@@H](Oc2cccnc2)C[C@H]1C(=O)OCCOCCOC(=O)c1ccc(-c2c3nc(c(-c4c(F)cccc4F)c4ccc([nH]4)c(-c4c(F)cccc4F)c4nc(c(-c5c(F)cccc5F)c5ccc2[nH]5)C=C4)C=C3)cc1
REMARK SMILES IDX 24 1 23 2 22 3 20 4 21 5 19 6 8 7 9 8 10 9 18 10 6 11 7 12
REMARK SMILES IDX 5 13 2 14 1 15 3 16 4 17 11 18 12 19 13 20 17 21 14 22 16 23
REMARK SMILES IDX 15 24 25 25 26 26 27 27 28 28 29 29 30 30 31 31 32 32 84 33
REMARK SMILES IDX 33 34 83 35 34 36 35 37 36 38 77 39 37 40 82 41 76 42 78 43
REMARK SMILES IDX 38 44 81 45 75 46 74 47 39 49 65 50 48 51 64 52 49 53 52 54
REMARK SMILES IDX 63 55 79 56 50 57 51 58 62 60 80 61 53 62 40 63 41 64 46 65
REMARK SMILES IDX 42 66 43 67 45 68 47 69 44 70 66 71 67 72 72 73 68 74 69 75
REMARK SMILES IDX 71 76 73 77 70 78 54 79 55 80 60 81 56 82 57 83 59 84 61 85
REMARK SMILES IDX 58 86
REMARK H PARENT 78 48 52 59
REMARK Flexibility Score: inf
ROOT
ATOM      1  C   UNL A   1      31.980  26.575  26.246  1.00  0.00     0.202 C 
ENDROOT
BRANCH   1   2
ATOM      2  C   UNL A   1      31.314  25.208  26.048  1.00  0.00     0.261 C 
BRANCH   2   3
ATOM      3  O   UNL A   1      31.388  24.392  27.234  1.00  0.00    -0.462 OA
BRANCH   3   4
ATOM      4  C   UNL A   1      32.166  23.278  27.134  1.00  0.00     0.329 C 
ATOM      5  O   UNL A   1      32.555  22.603  28.082  1.00  0.00    -0.250 OA
BRANCH   4   6
ATOM      6  C   UNL A   1      32.402  22.910  25.662  1.00  0.00     0.202 C 
ATOM      7  N   UNL A   1      33.755  22.380  25.587  1.00  0.00    -0.291 N 
ATOM      8  C   UNL A   1      33.768  20.935  25.441  1.00  0.00     0.169 C 
ATOM      9  C   UNL A   1      32.438  20.652  24.745  1.00  0.00     0.195 C 
ATOM     10  C   UNL A   1      31.488  21.782  25.175  1.00  0.00     0.084 C 
BRANCH   7  11
ATOM     11  C   UNL A   1      34.805  23.222  25.825  1.00  0.00     0.411 C 
ATOM     12  O   UNL A   1      34.685  24.441  25.716  1.00  0.00    -0.224 OA
BRANCH  11  13
ATOM     13  O   UNL A   1      35.933  22.577  26.188  1.00  0.00    -0.444 OA
BRANCH  13  14
ATOM     14  C   UNL A   1      37.125  22.681  25.363  1.00  0.00     0.106 C 
ATOM     15  C   UNL A   1      37.866  23.910  25.902  1.00  0.00     0.056 C 
ATOM     16  C   UNL A   1      36.696  22.931  23.914  1.00  0.00     0.056 C 
ATOM     17  C   UNL A   1      38.077  21.476  25.458  1.00  0.00     0.056 C 
ENDBRANCH  13  14
ENDBRANCH  11  13
ENDBRANCH   7  11
BRANCH   9  18
ATOM     18  O   UNL A   1      31.943  19.318  24.786  1.00  0.00    -0.487 OA
BRANCH  18  19
ATOM     19  C   UNL A   1      32.713  18.216  24.599  1.00  0.00     0.138 A 
ATOM     20  C   UNL A   1      33.396  17.853  23.447  1.00  0.00     0.050 A 
ATOM     21  C   UNL A   1      32.774  17.324  25.670  1.00  0.00     0.157 A 
ATOM     22  C   UNL A   1      34.117  16.652  23.419  1.00  0.00     0.024 A 
ATOM     23  N   UNL A   1      33.479  16.165  25.681  1.00  0.00    -0.261 NA
ATOM     24  C   UNL A   1      34.136  15.854  24.550  1.00  0.00     0.111 A 
ENDBRANCH  18  19
ENDBRANCH   9  18
ENDBRANCH   4   6
ENDBRANCH   3   4
ENDBRANCH   2   3
ENDBRANCH   1   2
BRANCH   1  25
ATOM     25  O   UNL A   1      31.113  27.670  26.561  1.00  0.00    -0.374 OA
BRANCH  25  26
ATOM     26  C   UNL A   1      31.730  28.951  26.609  1.00  0.00     0.202 C 
BRANCH  26  27
ATOM     27  C   UNL A   1      33.228  29.001  26.319  1.00  0.00     0.261 C 
BRANCH  27  28
ATOM     28  O   UNL A   1      33.947  29.137  27.550  1.00  0.00    -0.460 OA
BRANCH  28  29
ATOM     29  C   UNL A   1      34.631  30.299  27.640  1.00  0.00     0.338 C 
ATOM     30  O   UNL A   1      34.241  31.416  27.342  1.00  0.00    -0.246 OA
BRANCH  29  31
ATOM     31  C   UNL A   1      35.895  30.060  28.355  1.00  0.00     0.060 A 
ATOM     32  C   UNL A   1      37.067  30.473  27.711  1.00  0.00     0.016 A 
ATOM     33  C   UNL A   1      35.941  29.436  29.604  1.00  0.00     0.016 A 
ATOM     34  C   UNL A   1      38.301  30.193  28.277  1.00  0.00     0.010 A 
ATOM     35  C   UNL A   1      37.184  29.149  30.170  1.00  0.00     0.010 A 
ATOM     36  C   UNL A   1      38.363  29.483  29.482  1.00  0.00    -0.014 A 
BRANCH  36  37
ATOM     37  C   UNL A   1      39.662  28.926  29.913  1.00  0.00     0.031 A 
ATOM     38  C   UNL A   1      40.338  29.536  31.108  1.00  0.00     0.074 A 
ATOM     39  C   UNL A   1      40.191  27.863  29.286  1.00  0.00     0.049 A 
ATOM     40  N   UNL A   1      41.485  29.233  31.657  1.00  0.00    -0.248 NA
ATOM     41  C   UNL A   1      39.624  30.639  31.773  1.00  0.00     0.031 C 
ATOM     42  C   UNL A   1      39.587  27.164  28.153  1.00  0.00     0.029 A 
ATOM     43  N   UNL A   1      41.359  27.188  29.518  1.00  0.00    -0.354 N 
ATOM     44  C   UNL A   1      41.630  30.109  32.726  1.00  0.00     0.074 A 
ATOM     45  C   UNL A   1      40.476  30.979  32.728  1.00  0.00     0.031 C 
ATOM     46  C   UNL A   1      40.396  26.157  27.783  1.00  0.00     0.029 A 
ATOM     47  C   UNL A   1      41.587  26.167  28.631  1.00  0.00     0.049 A 
ATOM     48  H   UNL A   1      41.977  27.413  30.252  1.00  0.00     0.167 HD
ATOM     49  C   UNL A   1      42.635  30.172  33.629  1.00  0.00     0.037 A 
ATOM     50  C   UNL A   1      42.651  25.350  28.507  1.00  0.00     0.037 A 
ATOM     51  C   UNL A   1      43.779  29.300  33.616  1.00  0.00     0.049 A 
ATOM     52  C   UNL A   1      43.796  25.497  29.474  1.00  0.00     0.074 A 
ATOM     53  C   UNL A   1      44.852  29.269  34.487  1.00  0.00     0.029 A 
ATOM     54  N   UNL A   1      43.998  28.306  32.672  1.00  0.00    -0.354 N 
ATOM     55  N   UNL A   1      43.922  26.318  30.490  1.00  0.00    -0.248 NA
ATOM     56  C   UNL A   1      44.947  24.605  29.276  1.00  0.00     0.031 C 
ATOM     57  C   UNL A   1      45.748  28.294  34.039  1.00  0.00     0.029 A 
ATOM     58  C   UNL A   1      45.204  27.675  32.923  1.00  0.00     0.049 A 
ATOM     59  H   UNL A   1      43.386  28.082  31.934  1.00  0.00     0.167 HD
ATOM     60  C   UNL A   1      45.149  26.021  31.071  1.00  0.00     0.074 A 
ATOM     61  C   UNL A   1      45.722  24.937  30.299  1.00  0.00     0.031 C 
ATOM     62  C   UNL A   1      45.749  26.591  32.145  1.00  0.00     0.037 A 
BRANCH  49  63
ATOM     63  C   UNL A   1      42.553  31.236  34.685  1.00  0.00     0.057 A 
ATOM     64  C   UNL A   1      41.971  30.999  35.938  1.00  0.00     0.134 A 
ATOM     65  C   UNL A   1      43.085  32.511  34.453  1.00  0.00     0.134 A 
ATOM     66  F   UNL A   1      41.426  29.805  36.219  1.00  0.00    -0.206 F 
ATOM     67  C   UNL A   1      41.901  31.997  36.911  1.00  0.00     0.040 A 
ATOM     68  C   UNL A   1      43.046  33.508  35.429  1.00  0.00     0.040 A 
ATOM     69  F   UNL A   1      43.658  32.807  33.276  1.00  0.00    -0.206 F 
ATOM     70  C   UNL A   1      42.446  33.254  36.661  1.00  0.00     0.006 A 
ENDBRANCH  49  63
BRANCH  50  71
ATOM     71  C   UNL A   1      42.690  24.337  27.424  1.00  0.00     0.057 A 
ATOM     72  C   UNL A   1      43.186  24.648  26.154  1.00  0.00     0.134 A 
ATOM     73  C   UNL A   1      42.218  23.034  27.629  1.00  0.00     0.134 A 
ATOM     74  F   UNL A   1      43.634  25.884  25.890  1.00  0.00    -0.206 F 
ATOM     75  C   UNL A   1      43.196  23.709  25.122  1.00  0.00     0.040 A 
ATOM     76  C   UNL A   1      42.246  22.076  26.614  1.00  0.00     0.040 A 
ATOM     77  F   UNL A   1      41.732  22.669  28.825  1.00  0.00    -0.206 F 
ATOM     78  C   UNL A   1      42.730  22.416  25.352  1.00  0.00     0.006 A 
ENDBRANCH  50  71
BRANCH  62  79
ATOM     79  C   UNL A   1      47.073  26.027  32.572  1.00  0.00     0.057 A 
ATOM     80  C   UNL A   1      48.284  26.508  32.060  1.00  0.00     0.134 A 
ATOM     81  C   UNL A   1      47.135  25.025  33.551  1.00  0.00     0.134 A 
ATOM     82  F   UNL A   1      48.292  27.458  31.113  1.00  0.00    -0.206 F 
ATOM     83  C   UNL A   1      49.510  25.994  32.487  1.00  0.00     0.040 A 
ATOM     84  C   UNL A   1      48.355  24.525  34.007  1.00  0.00     0.040 A 
ATOM     85  F   UNL A   1      46.011  24.530  34.091  1.00  0.00    -0.206 F 
ATOM     86  C   UNL A   1      49.547  25.006  33.470  1.00  0.00     0.006 A 
ENDBRANCH  62  79
ENDBRANCH  36  37
ENDBRANCH  29  31
ENDBRANCH  28  29
ENDBRANCH  27  28
ENDBRANCH  26  27
ENDBRANCH  25  26
ENDBRANCH   1  25
TORSDOF 19
ENDMDL
