MODEL 1
REMARK VINA RESULT:      -9.7      0.000      0.000
REMARK SMILES COCCCC(=O)N[C@H]1CC[C@@H](C(=O)OCCOCCOC(=O)c2ccc(-c3c4nc(c(-c5c(F)cccc5F)c5ccc([nH]5)c(-c5c(F)cccc5F)c5nc(c(-c6c(F)cccc6F)c6ccc3[nH]6)C=C5)C=C4)cc2)CC1
REMARK SMILES IDX 16 1 15 2 13 3 14 4 12 5 9 6 10 7 79 8 11 9 78 10 8 11 6 12
REMARK SMILES IDX 7 13 5 15 4 16 3 17 2 18 1 19 17 20 18 21 19 22 20 23 21 24
REMARK SMILES IDX 22 25 23 26 24 27 25 28 77 29 26 30 76 31 27 32 28 33 29 34
REMARK SMILES IDX 70 35 30 36 75 37 69 38 71 39 31 40 74 41 68 42 67 43 32 45
REMARK SMILES IDX 58 46 41 47 57 48 42 49 45 50 56 51 72 52 43 53 44 54 55 56
REMARK SMILES IDX 73 57 46 58 33 59 34 60 39 61 35 62 36 63 38 64 40 65 37 66
REMARK SMILES IDX 59 67 60 68 65 69 61 70 62 71 64 72 66 73 63 74 47 75 48 76
REMARK SMILES IDX 53 77 49 78 50 79 52 80 54 81 51 82
REMARK H PARENT 8 14 71 44 45 55
REMARK Flexibility Score: inf
ROOT
ATOM      1  C   UNL A   1      36.261  23.746  25.982  1.00  0.00     0.261 C 
ENDROOT
BRANCH   1   2
ATOM      2  O   UNL A   1      35.583  24.140  24.776  1.00  0.00    -0.463 OA
BRANCH   2   3
ATOM      3  C   UNL A   1      34.420  24.821  24.920  1.00  0.00     0.309 C 
ATOM      4  O   UNL A   1      34.284  25.860  25.553  1.00  0.00    -0.252 OA
BRANCH   3   5
ATOM      5  C   UNL A   1      33.261  24.115  24.232  1.00  0.00     0.099 C 
ATOM      6  C   UNL A   1      32.777  21.302  25.028  1.00  0.00     0.082 C 
ATOM      7  C   UNL A   1      32.510  22.455  26.002  1.00  0.00     0.026 C 
ATOM      8  C   UNL A   1      33.932  21.620  24.087  1.00  0.00     0.026 C 
ATOM      9  C   UNL A   1      32.197  23.754  25.266  1.00  0.00     0.017 C 
ATOM     10  C   UNL A   1      33.642  22.924  23.333  1.00  0.00     0.017 C 
BRANCH   6  11
ATOM     11  N   UNL A   1      32.953  20.077  25.775  1.00  0.00    -0.353 N 
ATOM     12  C   UNL A   1      32.589  18.815  25.408  1.00  0.00     0.220 C 
ATOM     13  O   UNL A   1      32.438  17.973  26.295  1.00  0.00    -0.275 OA
ATOM     14  H   UNL A   1      33.389  20.164  26.653  1.00  0.00     0.163 HD
BRANCH  12  15
ATOM     15  C   UNL A   1      32.490  18.429  23.941  1.00  0.00     0.102 C 
BRANCH  15  16
ATOM     16  C   UNL A   1      33.706  17.811  23.245  1.00  0.00     0.038 C 
BRANCH  16  17
ATOM     17  C   UNL A   1      33.965  16.300  23.273  1.00  0.00     0.160 C 
BRANCH  17  18
ATOM     18  O   UNL A   1      34.284  15.591  24.465  1.00  0.00    -0.385 OA
ATOM     19  C   UNL A   1      35.254  16.090  25.359  1.00  0.00     0.194 C 
ENDBRANCH  17  18
ENDBRANCH  16  17
ENDBRANCH  15  16
ENDBRANCH  12  15
ENDBRANCH   6  11
ENDBRANCH   3   5
ENDBRANCH   2   3
ENDBRANCH   1   2
BRANCH   1  20
ATOM     20  C   UNL A   1      37.523  22.951  25.645  1.00  0.00     0.202 C 
BRANCH  20  21
ATOM     21  O   UNL A   1      37.379  21.967  24.620  1.00  0.00    -0.374 OA
BRANCH  21  22
ATOM     22  C   UNL A   1      37.693  20.620  24.968  1.00  0.00     0.202 C 
BRANCH  22  23
ATOM     23  C   UNL A   1      38.882  20.431  25.917  1.00  0.00     0.261 C 
BRANCH  23  24
ATOM     24  O   UNL A   1      39.784  19.398  25.471  1.00  0.00    -0.460 OA
BRANCH  24  25
ATOM     25  C   UNL A   1      41.043  19.492  25.955  1.00  0.00     0.338 C 
ATOM     26  O   UNL A   1      41.951  18.676  25.830  1.00  0.00    -0.246 OA
BRANCH  25  27
ATOM     27  C   UNL A   1      41.267  20.827  26.533  1.00  0.00     0.060 A 
ATOM     28  C   UNL A   1      41.672  21.852  25.668  1.00  0.00     0.016 A 
ATOM     29  C   UNL A   1      41.161  21.060  27.906  1.00  0.00     0.016 A 
ATOM     30  C   UNL A   1      41.996  23.110  26.175  1.00  0.00     0.010 A 
ATOM     31  C   UNL A   1      41.501  22.319  28.414  1.00  0.00     0.010 A 
ATOM     32  C   UNL A   1      41.941  23.342  27.555  1.00  0.00    -0.014 A 
BRANCH  32  33
ATOM     33  C   UNL A   1      42.431  24.627  28.109  1.00  0.00     0.031 A 
ATOM     34  C   UNL A   1      41.458  25.744  28.365  1.00  0.00     0.074 A 
ATOM     35  C   UNL A   1      43.739  24.800  28.374  1.00  0.00     0.049 A 
ATOM     36  N   UNL A   1      41.688  26.971  28.755  1.00  0.00    -0.248 NA
ATOM     37  C   UNL A   1      40.034  25.436  28.152  1.00  0.00     0.031 C 
ATOM     38  C   UNL A   1      44.777  23.785  28.197  1.00  0.00     0.029 A 
ATOM     39  N   UNL A   1      44.420  25.903  28.824  1.00  0.00    -0.354 N 
ATOM     40  C   UNL A   1      40.445  27.588  28.818  1.00  0.00     0.074 A 
ATOM     41  C   UNL A   1      39.463  26.604  28.417  1.00  0.00     0.031 C 
ATOM     42  C   UNL A   1      45.970  24.324  28.501  1.00  0.00     0.029 A 
ATOM     43  C   UNL A   1      45.783  25.729  28.859  1.00  0.00     0.049 A 
ATOM     44  H   UNL A   1      43.976  26.738  29.096  1.00  0.00     0.167 HD
ATOM     45  C   UNL A   1      40.155  28.860  29.176  1.00  0.00     0.037 A 
ATOM     46  C   UNL A   1      46.768  26.613  29.106  1.00  0.00     0.037 A 
ATOM     47  C   UNL A   1      41.133  29.832  29.590  1.00  0.00     0.049 A 
ATOM     48  C   UNL A   1      46.420  28.042  29.428  1.00  0.00     0.074 A 
ATOM     49  C   UNL A   1      40.924  31.124  30.041  1.00  0.00     0.029 A 
ATOM     50  N   UNL A   1      42.502  29.624  29.590  1.00  0.00    -0.354 N 
ATOM     51  N   UNL A   1      45.239  28.599  29.545  1.00  0.00    -0.248 NA
ATOM     52  C   UNL A   1      47.542  28.968  29.646  1.00  0.00     0.031 C 
ATOM     53  C   UNL A   1      42.170  31.719  30.255  1.00  0.00     0.029 A 
ATOM     54  C   UNL A   1      43.153  30.780  29.985  1.00  0.00     0.049 A 
ATOM     55  H   UNL A   1      42.947  28.781  29.344  1.00  0.00     0.167 HD
ATOM     56  C   UNL A   1      45.476  29.932  29.861  1.00  0.00     0.074 A 
ATOM     57  C   UNL A   1      46.912  30.096  29.941  1.00  0.00     0.031 C 
ATOM     58  C   UNL A   1      44.584  30.931  30.061  1.00  0.00     0.037 A 
BRANCH  45  59
ATOM     59  C   UNL A   1      38.723  29.300  29.115  1.00  0.00     0.057 A 
ATOM     60  C   UNL A   1      38.112  29.673  27.913  1.00  0.00     0.134 A 
ATOM     61  C   UNL A   1      37.924  29.267  30.266  1.00  0.00     0.134 A 
ATOM     62  F   UNL A   1      38.824  29.733  26.777  1.00  0.00    -0.206 F 
ATOM     63  C   UNL A   1      36.756  30.003  27.857  1.00  0.00     0.040 A 
ATOM     64  C   UNL A   1      36.564  29.575  30.219  1.00  0.00     0.040 A 
ATOM     65  F   UNL A   1      38.449  28.912  31.449  1.00  0.00    -0.206 F 
ATOM     66  C   UNL A   1      35.977  29.944  29.012  1.00  0.00     0.006 A 
ENDBRANCH  45  59
BRANCH  46  67
ATOM     67  C   UNL A   1      48.189  26.196  28.995  1.00  0.00     0.057 A 
ATOM     68  C   UNL A   1      48.911  25.755  30.110  1.00  0.00     0.134 A 
ATOM     69  C   UNL A   1      48.870  26.270  27.774  1.00  0.00     0.134 A 
ATOM     70  F   UNL A   1      48.323  25.691  31.314  1.00  0.00    -0.206 F 
ATOM     71  C   UNL A   1      50.264  25.422  30.019  1.00  0.00     0.040 A 
ATOM     72  C   UNL A   1      50.214  25.911  27.662  1.00  0.00     0.040 A 
ATOM     73  F   UNL A   1      48.237  26.699  26.673  1.00  0.00    -0.206 F 
ATOM     74  C   UNL A   1      50.918  25.494  28.789  1.00  0.00     0.006 A 
ENDBRANCH  46  67
BRANCH  58  75
ATOM     75  C   UNL A   1      45.127  32.288  30.401  1.00  0.00     0.057 A 
ATOM     76  C   UNL A   1      45.409  32.656  31.721  1.00  0.00     0.134 A 
ATOM     77  C   UNL A   1      45.426  33.213  29.392  1.00  0.00     0.134 A 
ATOM     78  F   UNL A   1      45.133  31.821  32.735  1.00  0.00    -0.206 F 
ATOM     79  C   UNL A   1      45.957  33.902  32.029  1.00  0.00     0.040 A 
ATOM     80  C   UNL A   1      45.998  34.452  29.685  1.00  0.00     0.040 A 
ATOM     81  F   UNL A   1      45.188  32.918  28.105  1.00  0.00    -0.206 F 
ATOM     82  C   UNL A   1      46.262  34.800  31.008  1.00  0.00     0.006 A 
ENDBRANCH  58  75
ENDBRANCH  32  33
ENDBRANCH  25  27
ENDBRANCH  24  25
ENDBRANCH  23  24
ENDBRANCH  22  23
ENDBRANCH  21  22
ENDBRANCH  20  21
ENDBRANCH   1  20
TORSDOF 19
ENDMDL
MODEL 2
REMARK VINA RESULT:      -9.6      5.258     10.060
REMARK SMILES COCCCC(=O)N[C@H]1CC[C@@H](C(=O)OCCOCCOC(=O)c2ccc(-c3c4nc(c(-c5c(F)cccc5F)c5ccc([nH]5)c(-c5c(F)cccc5F)c5nc(c(-c6c(F)cccc6F)c6ccc3[nH]6)C=C5)C=C4)cc2)CC1
REMARK SMILES IDX 16 1 15 2 13 3 14 4 12 5 9 6 10 7 79 8 11 9 78 10 8 11 6 12
REMARK SMILES IDX 7 13 5 15 4 16 3 17 2 18 1 19 17 20 18 21 19 22 20 23 21 24
REMARK SMILES IDX 22 25 23 26 24 27 25 28 77 29 26 30 76 31 27 32 28 33 29 34
REMARK SMILES IDX 70 35 30 36 75 37 69 38 71 39 31 40 74 41 68 42 67 43 32 45
REMARK SMILES IDX 58 46 41 47 57 48 42 49 45 50 56 51 72 52 43 53 44 54 55 56
REMARK SMILES IDX 73 57 46 58 33 59 34 60 39 61 35 62 36 63 38 64 40 65 37 66
REMARK SMILES IDX 59 67 60 68 65 69 61 70 62 71 64 72 66 73 63 74 47 75 48 76
REMARK SMILES IDX 53 77 49 78 50 79 52 80 54 81 51 82
REMARK H PARENT 8 14 71 44 45 55
REMARK Flexibility Score: inf
ROOT
ATOM      1  C   UNL A   1      33.358  29.448  25.632  1.00  0.00     0.261 C 
ENDROOT
BRANCH   1   2
ATOM      2  O   UNL A   1      33.560  28.040  25.847  1.00  0.00    -0.463 OA
BRANCH   2   3
ATOM      3  C   UNL A   1      33.572  27.246  24.749  1.00  0.00     0.309 C 
ATOM      4  O   UNL A   1      33.998  27.571  23.648  1.00  0.00    -0.252 OA
BRANCH   3   5
ATOM      5  C   UNL A   1      32.941  25.890  25.023  1.00  0.00     0.099 C 
ATOM      6  C   UNL A   1      30.038  25.657  24.478  1.00  0.00     0.082 C 
ATOM      7  C   UNL A   1      31.044  25.823  23.334  1.00  0.00     0.026 C 
ATOM      8  C   UNL A   1      30.502  26.371  25.742  1.00  0.00     0.026 C 
ATOM      9  C   UNL A   1      32.424  25.294  23.716  1.00  0.00     0.017 C 
ATOM     10  C   UNL A   1      31.889  25.856  26.147  1.00  0.00     0.017 C 
BRANCH   6  11
ATOM     11  N   UNL A   1      28.728  26.066  24.025  1.00  0.00    -0.353 N 
ATOM     12  C   UNL A   1      28.343  27.298  23.582  1.00  0.00     0.220 C 
ATOM     13  O   UNL A   1      27.146  27.583  23.624  1.00  0.00    -0.275 OA
ATOM     14  H   UNL A   1      28.029  25.374  24.039  1.00  0.00     0.163 HD
BRANCH  12  15
ATOM     15  C   UNL A   1      29.349  28.242  22.942  1.00  0.00     0.102 C 
BRANCH  15  16
ATOM     16  C   UNL A   1      29.156  29.754  23.091  1.00  0.00     0.038 C 
BRANCH  16  17
ATOM     17  C   UNL A   1      29.097  30.681  21.871  1.00  0.00     0.160 C 
BRANCH  17  18
ATOM     18  O   UNL A   1      27.903  31.334  21.452  1.00  0.00    -0.385 OA
ATOM     19  C   UNL A   1      27.938  32.303  20.428  1.00  0.00     0.194 C 
ENDBRANCH  17  18
ENDBRANCH  16  17
ENDBRANCH  15  16
ENDBRANCH  12  15
ENDBRANCH   6  11
ENDBRANCH   3   5
ENDBRANCH   2   3
ENDBRANCH   1   2
BRANCH   1  20
ATOM     20  C   UNL A   1      31.884  29.732  25.338  1.00  0.00     0.202 C 
BRANCH  20  21
ATOM     21  O   UNL A   1      31.386  30.981  25.819  1.00  0.00    -0.374 OA
BRANCH  21  22
ATOM     22  C   UNL A   1      32.039  31.543  26.955  1.00  0.00     0.202 C 
BRANCH  22  23
ATOM     23  C   UNL A   1      32.152  33.072  26.976  1.00  0.00     0.261 C 
BRANCH  23  24
ATOM     24  O   UNL A   1      32.174  33.604  28.317  1.00  0.00    -0.460 OA
BRANCH  24  25
ATOM     25  C   UNL A   1      33.155  34.502  28.557  1.00  0.00     0.338 C 
ATOM     26  O   UNL A   1      33.052  35.725  28.589  1.00  0.00    -0.246 OA
BRANCH  25  27
ATOM     27  C   UNL A   1      34.389  33.811  28.965  1.00  0.00     0.060 A 
ATOM     28  C   UNL A   1      34.258  32.613  29.679  1.00  0.00     0.016 A 
ATOM     29  C   UNL A   1      35.651  34.359  28.725  1.00  0.00     0.016 A 
ATOM     30  C   UNL A   1      35.389  31.968  30.178  1.00  0.00     0.010 A 
ATOM     31  C   UNL A   1      36.784  33.718  29.239  1.00  0.00     0.010 A 
ATOM     32  C   UNL A   1      36.657  32.532  29.987  1.00  0.00    -0.014 A 
BRANCH  32  33
ATOM     33  C   UNL A   1      37.842  31.931  30.646  1.00  0.00     0.031 A 
ATOM     34  C   UNL A   1      38.610  30.846  29.944  1.00  0.00     0.074 A 
ATOM     35  C   UNL A   1      38.224  32.346  31.868  1.00  0.00     0.049 A 
ATOM     36  N   UNL A   1      39.612  30.126  30.379  1.00  0.00    -0.248 NA
ATOM     37  C   UNL A   1      38.192  30.529  28.569  1.00  0.00     0.031 C 
ATOM     38  C   UNL A   1      37.581  33.409  32.638  1.00  0.00     0.029 A 
ATOM     39  N   UNL A   1      39.233  31.901  32.685  1.00  0.00    -0.354 N 
ATOM     40  C   UNL A   1      39.934  29.261  29.342  1.00  0.00     0.074 A 
ATOM     41  C   UNL A   1      39.016  29.537  28.258  1.00  0.00     0.031 C 
ATOM     42  C   UNL A   1      38.188  33.511  33.832  1.00  0.00     0.029 A 
ATOM     43  C   UNL A   1      39.238  32.498  33.923  1.00  0.00     0.049 A 
ATOM     44  H   UNL A   1      39.890  31.221  32.411  1.00  0.00     0.167 HD
ATOM     45  C   UNL A   1      40.908  28.322  29.302  1.00  0.00     0.037 A 
ATOM     46  C   UNL A   1      39.973  32.226  35.018  1.00  0.00     0.037 A 
ATOM     47  C   UNL A   1      41.830  28.061  30.376  1.00  0.00     0.049 A 
ATOM     48  C   UNL A   1      40.998  31.124  34.970  1.00  0.00     0.074 A 
ATOM     49  C   UNL A   1      42.896  27.177  30.398  1.00  0.00     0.029 A 
ATOM     50  N   UNL A   1      41.788  28.669  31.619  1.00  0.00    -0.354 N 
ATOM     51  N   UNL A   1      41.336  30.353  33.965  1.00  0.00    -0.248 NA
ATOM     52  C   UNL A   1      41.738  30.848  36.211  1.00  0.00     0.031 C 
ATOM     53  C   UNL A   1      43.461  27.207  31.676  1.00  0.00     0.029 A 
ATOM     54  C   UNL A   1      42.778  28.144  32.433  1.00  0.00     0.049 A 
ATOM     55  H   UNL A   1      41.148  29.368  31.886  1.00  0.00     0.167 HD
ATOM     56  C   UNL A   1      42.334  29.513  34.447  1.00  0.00     0.074 A 
ATOM     57  C   UNL A   1      42.563  29.884  35.828  1.00  0.00     0.031 C 
ATOM     58  C   UNL A   1      42.996  28.522  33.806  1.00  0.00     0.037 A 
BRANCH  45  59
ATOM     59  C   UNL A   1      41.020  27.476  28.069  1.00  0.00     0.057 A 
ATOM     60  C   UNL A   1      40.265  26.311  27.897  1.00  0.00     0.134 A 
ATOM     61  C   UNL A   1      41.837  27.884  27.005  1.00  0.00     0.134 A 
ATOM     62  F   UNL A   1      39.471  25.863  28.881  1.00  0.00    -0.206 F 
ATOM     63  C   UNL A   1      40.321  25.577  26.710  1.00  0.00     0.040 A 
ATOM     64  C   UNL A   1      41.885  27.169  25.808  1.00  0.00     0.040 A 
ATOM     65  F   UNL A   1      42.582  28.995  27.106  1.00  0.00    -0.206 F 
ATOM     66  C   UNL A   1      41.125  26.012  25.658  1.00  0.00     0.006 A 
ENDBRANCH  45  59
BRANCH  46  67
ATOM     67  C   UNL A   1      39.728  32.965  36.283  1.00  0.00     0.057 A 
ATOM     68  C   UNL A   1      38.814  32.500  37.235  1.00  0.00     0.134 A 
ATOM     69  C   UNL A   1      40.373  34.179  36.546  1.00  0.00     0.134 A 
ATOM     70  F   UNL A   1      38.141  31.359  37.026  1.00  0.00    -0.206 F 
ATOM     71  C   UNL A   1      38.536  33.226  38.396  1.00  0.00     0.040 A 
ATOM     72  C   UNL A   1      40.129  34.899  37.716  1.00  0.00     0.040 A 
ATOM     73  F   UNL A   1      41.248  34.683  35.665  1.00  0.00    -0.206 F 
ATOM     74  C   UNL A   1      39.200  34.428  38.641  1.00  0.00     0.006 A 
ENDBRANCH  46  67
BRANCH  58  75
ATOM     75  C   UNL A   1      44.042  27.773  34.579  1.00  0.00     0.057 A 
ATOM     76  C   UNL A   1      45.383  28.175  34.578  1.00  0.00     0.134 A 
ATOM     77  C   UNL A   1      43.694  26.677  35.378  1.00  0.00     0.134 A 
ATOM     78  F   UNL A   1      45.783  29.209  33.823  1.00  0.00    -0.206 F 
ATOM     79  C   UNL A   1      46.345  27.504  35.335  1.00  0.00     0.040 A 
ATOM     80  C   UNL A   1      44.642  26.013  36.159  1.00  0.00     0.040 A 
ATOM     81  F   UNL A   1      42.425  26.247  35.431  1.00  0.00    -0.206 F 
ATOM     82  C   UNL A   1      45.973  26.425  36.135  1.00  0.00     0.006 A 
ENDBRANCH  58  75
ENDBRANCH  32  33
ENDBRANCH  25  27
ENDBRANCH  24  25
ENDBRANCH  23  24
ENDBRANCH  22  23
ENDBRANCH  21  22
ENDBRANCH  20  21
ENDBRANCH   1  20
TORSDOF 19
ENDMDL
MODEL 3
REMARK VINA RESULT:      -9.5      3.700      8.230
REMARK SMILES COCCCC(=O)N[C@H]1CC[C@@H](C(=O)OCCOCCOC(=O)c2ccc(-c3c4nc(c(-c5c(F)cccc5F)c5ccc([nH]5)c(-c5c(F)cccc5F)c5nc(c(-c6c(F)cccc6F)c6ccc3[nH]6)C=C5)C=C4)cc2)CC1
REMARK SMILES IDX 16 1 15 2 13 3 14 4 12 5 9 6 10 7 79 8 11 9 78 10 8 11 6 12
REMARK SMILES IDX 7 13 5 15 4 16 3 17 2 18 1 19 17 20 18 21 19 22 20 23 21 24
REMARK SMILES IDX 22 25 23 26 24 27 25 28 77 29 26 30 76 31 27 32 28 33 29 34
REMARK SMILES IDX 70 35 30 36 75 37 69 38 71 39 31 40 74 41 68 42 67 43 32 45
REMARK SMILES IDX 58 46 41 47 57 48 42 49 45 50 56 51 72 52 43 53 44 54 55 56
REMARK SMILES IDX 73 57 46 58 33 59 34 60 39 61 35 62 36 63 38 64 40 65 37 66
REMARK SMILES IDX 59 67 60 68 65 69 61 70 62 71 64 72 66 73 63 74 47 75 48 76
REMARK SMILES IDX 53 77 49 78 50 79 52 80 54 81 51 82
REMARK H PARENT 8 14 71 44 45 55
REMARK Flexibility Score: inf
ROOT
ATOM      1  C   UNL A   1      32.531  25.566  24.554  1.00  0.00     0.261 C 
ENDROOT
BRANCH   1   2
ATOM      2  O   UNL A   1      33.849  25.507  23.980  1.00  0.00    -0.463 OA
BRANCH   2   3
ATOM      3  C   UNL A   1      34.736  24.664  24.563  1.00  0.00     0.309 C 
ATOM      4  O   UNL A   1      35.238  24.822  25.668  1.00  0.00    -0.252 OA
BRANCH   3   5
ATOM      5  C   UNL A   1      35.085  23.493  23.657  1.00  0.00     0.099 C 
ATOM      6  C   UNL A   1      34.229  20.812  24.585  1.00  0.00     0.082 C 
ATOM      7  C   UNL A   1      33.201  21.857  24.135  1.00  0.00     0.026 C 
ATOM      8  C   UNL A   1      35.450  21.465  25.222  1.00  0.00     0.026 C 
ATOM      9  C   UNL A   1      33.801  22.847  23.141  1.00  0.00     0.017 C 
ATOM     10  C   UNL A   1      36.072  22.466  24.240  1.00  0.00     0.017 C 
BRANCH   6  11
ATOM     11  N   UNL A   1      33.580  19.838  25.432  1.00  0.00    -0.353 N 
ATOM     12  C   UNL A   1      33.062  18.629  25.071  1.00  0.00     0.220 C 
ATOM     13  O   UNL A   1      32.209  18.121  25.801  1.00  0.00    -0.275 OA
ATOM     14  H   UNL A   1      33.503  20.075  26.385  1.00  0.00     0.163 HD
BRANCH  12  15
ATOM     15  C   UNL A   1      33.609  17.876  23.868  1.00  0.00     0.102 C 
BRANCH  15  16
ATOM     16  C   UNL A   1      33.444  16.355  23.799  1.00  0.00     0.038 C 
BRANCH  16  17
ATOM     17  C   UNL A   1      33.814  15.452  24.981  1.00  0.00     0.160 C 
BRANCH  17  18
ATOM     18  O   UNL A   1      35.151  15.055  25.263  1.00  0.00    -0.385 OA
ATOM     19  C   UNL A   1      36.103  16.000  25.701  1.00  0.00     0.194 C 
ENDBRANCH  17  18
ENDBRANCH  16  17
ENDBRANCH  15  16
ENDBRANCH  12  15
ENDBRANCH   6  11
ENDBRANCH   3   5
ENDBRANCH   2   3
ENDBRANCH   1   2
BRANCH   1  20
ATOM     20  C   UNL A   1      32.263  26.959  25.125  1.00  0.00     0.202 C 
BRANCH  20  21
ATOM     21  O   UNL A   1      32.463  28.047  24.222  1.00  0.00    -0.374 OA
BRANCH  21  22
ATOM     22  C   UNL A   1      31.422  29.017  24.138  1.00  0.00     0.202 C 
BRANCH  22  23
ATOM     23  C   UNL A   1      31.409  30.087  25.238  1.00  0.00     0.261 C 
BRANCH  23  24
ATOM     24  O   UNL A   1      32.692  30.229  25.881  1.00  0.00    -0.460 OA
BRANCH  24  25
ATOM     25  C   UNL A   1      32.778  31.253  26.760  1.00  0.00     0.338 C 
ATOM     26  O   UNL A   1      31.959  32.149  26.940  1.00  0.00    -0.246 OA
BRANCH  25  27
ATOM     27  C   UNL A   1      33.945  31.072  27.639  1.00  0.00     0.060 A 
ATOM     28  C   UNL A   1      34.649  32.219  28.028  1.00  0.00     0.016 A 
ATOM     29  C   UNL A   1      34.391  29.804  28.015  1.00  0.00     0.016 A 
ATOM     30  C   UNL A   1      35.820  32.100  28.777  1.00  0.00     0.010 A 
ATOM     31  C   UNL A   1      35.574  29.687  28.755  1.00  0.00     0.010 A 
ATOM     32  C   UNL A   1      36.305  30.832  29.119  1.00  0.00    -0.014 A 
BRANCH  32  33
ATOM     33  C   UNL A   1      37.626  30.699  29.780  1.00  0.00     0.031 A 
ATOM     34  C   UNL A   1      38.723  29.930  29.098  1.00  0.00     0.074 A 
ATOM     35  C   UNL A   1      37.843  31.254  30.987  1.00  0.00     0.049 A 
ATOM     36  N   UNL A   1      39.914  29.617  29.539  1.00  0.00    -0.248 NA
ATOM     37  C   UNL A   1      38.439  29.450  27.736  1.00  0.00     0.031 C 
ATOM     38  C   UNL A   1      36.871  32.048  31.737  1.00  0.00     0.029 A 
ATOM     39  N   UNL A   1      38.945  31.212  31.803  1.00  0.00    -0.354 N 
ATOM     40  C   UNL A   1      40.516  28.890  28.520  1.00  0.00     0.074 A 
ATOM     41  C   UNL A   1      39.557  28.799  27.441  1.00  0.00     0.031 C 
ATOM     42  C   UNL A   1      37.407  32.388  32.921  1.00  0.00     0.029 A 
ATOM     43  C   UNL A   1      38.744  31.808  33.025  1.00  0.00     0.049 A 
ATOM     44  H   UNL A   1      39.797  30.796  31.539  1.00  0.00     0.167 HD
ATOM     45  C   UNL A   1      41.756  28.348  28.494  1.00  0.00     0.037 A 
ATOM     46  C   UNL A   1      39.530  31.839  34.118  1.00  0.00     0.037 A 
ATOM     47  C   UNL A   1      42.713  28.454  29.563  1.00  0.00     0.049 A 
ATOM     48  C   UNL A   1      40.874  31.162  34.086  1.00  0.00     0.074 A 
ATOM     49  C   UNL A   1      44.020  27.998  29.595  1.00  0.00     0.029 A 
ATOM     50  N   UNL A   1      42.464  29.044  30.791  1.00  0.00    -0.354 N 
ATOM     51  N   UNL A   1      41.459  30.530  33.098  1.00  0.00    -0.248 NA
ATOM     52  C   UNL A   1      41.667  31.197  35.325  1.00  0.00     0.031 C 
ATOM     53  C   UNL A   1      44.542  28.258  30.865  1.00  0.00     0.029 A 
ATOM     54  C   UNL A   1      43.576  28.920  31.606  1.00  0.00     0.049 A 
ATOM     55  H   UNL A   1      41.621  29.484  31.047  1.00  0.00     0.167 HD
ATOM     56  C   UNL A   1      42.687  30.104  33.590  1.00  0.00     0.074 A 
ATOM     57  C   UNL A   1      42.775  30.569  34.958  1.00  0.00     0.031 C 
ATOM     58  C   UNL A   1      43.652  29.388  32.966  1.00  0.00     0.037 A 
BRANCH  45  59
ATOM     59  C   UNL A   1      42.154  27.560  27.281  1.00  0.00     0.057 A 
ATOM     60  C   UNL A   1      42.722  28.166  26.156  1.00  0.00     0.134 A 
ATOM     61  C   UNL A   1      42.040  26.163  27.278  1.00  0.00     0.134 A 
ATOM     62  F   UNL A   1      42.852  29.500  26.093  1.00  0.00    -0.206 F 
ATOM     63  C   UNL A   1      43.161  27.411  25.066  1.00  0.00     0.040 A 
ATOM     64  C   UNL A   1      42.493  25.397  26.204  1.00  0.00     0.040 A 
ATOM     65  F   UNL A   1      41.507  25.521  28.329  1.00  0.00    -0.206 F 
ATOM     66  C   UNL A   1      43.055  26.021  25.094  1.00  0.00     0.006 A 
ENDBRANCH  45  59
BRANCH  46  67
ATOM     67  C   UNL A   1      39.045  32.481  35.367  1.00  0.00     0.057 A 
ATOM     68  C   UNL A   1      38.270  31.780  36.296  1.00  0.00     0.134 A 
ATOM     69  C   UNL A   1      39.312  33.830  35.636  1.00  0.00     0.134 A 
ATOM     70  F   UNL A   1      37.954  30.494  36.080  1.00  0.00    -0.206 F 
ATOM     71  C   UNL A   1      37.761  32.400  37.439  1.00  0.00     0.040 A 
ATOM     72  C   UNL A   1      38.836  34.454  36.789  1.00  0.00     0.040 A 
ATOM     73  F   UNL A   1      40.037  34.559  34.777  1.00  0.00    -0.206 F 
ATOM     74  C   UNL A   1      38.049  33.741  37.691  1.00  0.00     0.006 A 
ENDBRANCH  46  67
BRANCH  58  75
ATOM     75  C   UNL A   1      44.895  29.072  33.746  1.00  0.00     0.057 A 
ATOM     76  C   UNL A   1      45.978  29.958  33.792  1.00  0.00     0.134 A 
ATOM     77  C   UNL A   1      44.985  27.899  34.506  1.00  0.00     0.134 A 
ATOM     78  F   UNL A   1      45.959  31.093  33.075  1.00  0.00    -0.206 F 
ATOM     79  C   UNL A   1      47.113  29.683  34.555  1.00  0.00     0.040 A 
ATOM     80  C   UNL A   1      46.104  27.624  35.293  1.00  0.00     0.040 A 
ATOM     81  F   UNL A   1      43.978  27.012  34.513  1.00  0.00    -0.206 F 
ATOM     82  C   UNL A   1      47.174  28.517  35.316  1.00  0.00     0.006 A 
ENDBRANCH  58  75
ENDBRANCH  32  33
ENDBRANCH  25  27
ENDBRANCH  24  25
ENDBRANCH  23  24
ENDBRANCH  22  23
ENDBRANCH  21  22
ENDBRANCH  20  21
ENDBRANCH   1  20
TORSDOF 19
ENDMDL
