MODEL 1
REMARK VINA RESULT:     -11.3      0.000      0.000
REMARK SMILES Cc1nc(-c2ccc(S(=O)(=O)N3CC[NH2+][C@H](C(=O)OCCOCCOC(=O)c4ccc(-c5c6nc(c(-c7c(F)cccc7F)c7ccc([nH]7)c(-c7c(F)cccc7F)c7nc(c(-c8c(F)cccc8F)c8ccc5[nH]8)C=C7)C=C6)cc4)C3)s2)cs1
REMARK SMILES IDX 21 1 20 2 19 3 17 4 18 5 16 6 12 7 13 8 82 9 14 10 15 11
REMARK SMILES IDX 9 14 10 15 11 16 8 17 5 18 6 19 83 20 7 21 4 22 1 23 2 24
REMARK SMILES IDX 3 25 85 26 84 27 22 28 23 29 24 30 25 31 26 32 27 33 28 34
REMARK SMILES IDX 29 35 81 36 30 37 80 38 31 39 32 40 33 41 74 42 34 43 79 44
REMARK SMILES IDX 73 45 75 46 35 47 78 48 72 49 71 50 36 52 62 53 45 54 61 55
REMARK SMILES IDX 46 56 49 57 60 58 76 59 47 60 48 61 59 63 77 64 50 65 37 66
REMARK SMILES IDX 38 67 43 68 39 69 40 70 42 71 44 72 41 73 63 74 64 75 69 76
REMARK SMILES IDX 65 77 66 78 68 79 70 80 67 81 51 82 52 83 57 84 53 85 54 86
REMARK SMILES IDX 56 87 58 88 55 89
REMARK H PARENT 15 12 15 13 75 51 49 62
REMARK Flexibility Score: inf
ROOT
ATOM      1  C   UNL A   1      34.990  21.837  26.559  1.00  0.00     0.202 C 
ENDROOT
BRANCH   1   2
ATOM      2  C   UNL A   1      33.642  22.069  27.244  1.00  0.00     0.261 C 
BRANCH   2   3
ATOM      3  O   UNL A   1      32.556  22.201  26.307  1.00  0.00    -0.459 OA
BRANCH   3   4
ATOM      4  C   UNL A   1      31.978  23.431  26.315  1.00  0.00     0.366 C 
ATOM      5  O   UNL A   1      31.350  23.902  27.258  1.00  0.00    -0.245 OA
BRANCH   4   6
ATOM      6  C   UNL A   1      32.176  24.214  25.035  1.00  0.00     0.308 C 
ATOM      7  N   UNL A   1      31.057  25.292  23.173  1.00  0.00    -0.185 NA
ATOM      8  C   UNL A   1      32.323  25.326  22.388  1.00  0.00     0.164 C 
ATOM      9  C   UNL A   1      30.979  24.132  24.099  1.00  0.00     0.180 C 
ATOM     10  C   UNL A   1      33.589  24.976  23.219  1.00  0.00     0.278 C 
ATOM     11  N   UNL A   1      33.448  23.965  24.295  1.00  0.00    -0.332 N 
ATOM     12  H   UNL A   1      34.237  24.039  24.938  1.00  0.00     0.347 HD
ATOM     13  H   UNL A   1      33.433  23.030  23.890  1.00  0.00     0.347 HD
BRANCH   7  14
ATOM     14  S   UNL A   1      30.275  26.728  23.647  1.00  0.00     0.253 S 
ATOM     15  O   UNL A   1      28.965  26.340  24.115  1.00  0.00    -0.206 OA
ATOM     16  O   UNL A   1      30.450  27.695  22.582  1.00  0.00    -0.206 OA
BRANCH  14  17
ATOM     17  C   UNL A   1      31.088  27.488  25.059  1.00  0.00     0.135 A 
ATOM     18  C   UNL A   1      32.625  28.914  26.385  1.00  0.00     0.055 A 
ATOM     19  C   UNL A   1      31.818  28.138  27.182  1.00  0.00     0.023 A 
ATOM     20  S   UNL A   1      32.270  28.703  24.731  1.00  0.00    -0.121 S 
ATOM     21  C   UNL A   1      30.995  27.273  26.422  1.00  0.00     0.034 A 
BRANCH  18  22
ATOM     22  C   UNL A   1      33.692  29.767  26.997  1.00  0.00     0.091 A 
ATOM     23  C   UNL A   1      37.269  29.947  27.676  1.00  0.00     0.079 C 
ATOM     24  C   UNL A   1      35.803  30.163  27.551  1.00  0.00     0.090 A 
ATOM     25  N   UNL A   1      34.977  29.254  27.090  1.00  0.00    -0.241 NA
ATOM     26  S   UNL A   1      35.073  31.651  27.998  1.00  0.00    -0.127 S 
ATOM     27  C   UNL A   1      33.549  31.059  27.455  1.00  0.00     0.096 A 
ENDBRANCH  18  22
ENDBRANCH  14  17
ENDBRANCH   7  14
ENDBRANCH   4   6
ENDBRANCH   3   4
ENDBRANCH   2   3
ENDBRANCH   1   2
BRANCH   1  28
ATOM     28  O   UNL A   1      35.102  20.777  25.614  1.00  0.00    -0.374 OA
BRANCH  28  29
ATOM     29  C   UNL A   1      36.118  20.852  24.620  1.00  0.00     0.202 C 
BRANCH  29  30
ATOM     30  C   UNL A   1      37.562  20.517  25.027  1.00  0.00     0.261 C 
BRANCH  30  31
ATOM     31  O   UNL A   1      38.371  21.671  25.323  1.00  0.00    -0.460 OA
BRANCH  31  32
ATOM     32  C   UNL A   1      39.436  21.405  26.125  1.00  0.00     0.338 C 
ATOM     33  O   UNL A   1      40.108  20.388  26.148  1.00  0.00    -0.246 OA
BRANCH  32  34
ATOM     34  C   UNL A   1      39.830  22.600  26.892  1.00  0.00     0.060 A 
ATOM     35  C   UNL A   1      39.218  23.812  26.542  1.00  0.00     0.016 A 
ATOM     36  C   UNL A   1      40.874  22.573  27.819  1.00  0.00     0.016 A 
ATOM     37  C   UNL A   1      39.687  25.010  27.070  1.00  0.00     0.010 A 
ATOM     38  C   UNL A   1      41.354  23.782  28.339  1.00  0.00     0.010 A 
ATOM     39  C   UNL A   1      40.795  25.006  27.927  1.00  0.00    -0.014 A 
BRANCH  39  40
ATOM     40  C   UNL A   1      41.468  26.297  28.208  1.00  0.00     0.031 A 
ATOM     41  C   UNL A   1      42.840  26.535  27.636  1.00  0.00     0.074 A 
ATOM     42  C   UNL A   1      40.833  27.276  28.874  1.00  0.00     0.049 A 
ATOM     43  N   UNL A   1      43.587  27.609  27.687  1.00  0.00    -0.248 NA
ATOM     44  C   UNL A   1      43.448  25.414  26.902  1.00  0.00     0.031 C 
ATOM     45  C   UNL A   1      39.487  27.179  29.437  1.00  0.00     0.029 A 
ATOM     46  N   UNL A   1      41.236  28.551  29.178  1.00  0.00    -0.354 N 
ATOM     47  C   UNL A   1      44.748  27.293  26.993  1.00  0.00     0.074 A 
ATOM     48  C   UNL A   1      44.624  25.919  26.559  1.00  0.00     0.031 C 
ATOM     49  C   UNL A   1      39.175  28.350  30.017  1.00  0.00     0.029 A 
ATOM     50  C   UNL A   1      40.303  29.270  29.882  1.00  0.00     0.049 A 
ATOM     51  H   UNL A   1      42.112  28.916  28.915  1.00  0.00     0.167 HD
ATOM     52  C   UNL A   1      45.815  28.082  26.726  1.00  0.00     0.037 A 
ATOM     53  C   UNL A   1      40.357  30.526  30.363  1.00  0.00     0.037 A 
ATOM     54  C   UNL A   1      45.939  29.449  27.153  1.00  0.00     0.049 A 
ATOM     55  C   UNL A   1      41.579  31.366  30.102  1.00  0.00     0.074 A 
ATOM     56  C   UNL A   1      46.978  30.335  26.927  1.00  0.00     0.029 A 
ATOM     57  N   UNL A   1      44.989  30.129  27.901  1.00  0.00    -0.354 N 
ATOM     58  N   UNL A   1      42.661  31.065  29.423  1.00  0.00    -0.248 NA
ATOM     59  C   UNL A   1      41.584  32.723  30.665  1.00  0.00     0.031 C 
ATOM     60  C   UNL A   1      46.673  31.539  27.573  1.00  0.00     0.029 A 
ATOM     61  C   UNL A   1      45.426  31.416  28.162  1.00  0.00     0.049 A 
ATOM     62  H   UNL A   1      44.131  29.751  28.200  1.00  0.00     0.167 HD
ATOM     63  C   UNL A   1      43.460  32.201  29.456  1.00  0.00     0.074 A 
ATOM     64  C   UNL A   1      42.733  33.201  30.210  1.00  0.00     0.031 C 
ATOM     65  C   UNL A   1      44.686  32.400  28.910  1.00  0.00     0.037 A 
BRANCH  52  66
ATOM     66  C   UNL A   1      46.946  27.471  25.951  1.00  0.00     0.057 A 
ATOM     67  C   UNL A   1      47.026  27.570  24.556  1.00  0.00     0.134 A 
ATOM     68  C   UNL A   1      47.978  26.791  26.611  1.00  0.00     0.134 A 
ATOM     69  F   UNL A   1      46.060  28.194  23.863  1.00  0.00    -0.206 F 
ATOM     70  C   UNL A   1      48.080  26.997  23.842  1.00  0.00     0.040 A 
ATOM     71  C   UNL A   1      49.049  26.234  25.910  1.00  0.00     0.040 A 
ATOM     72  F   UNL A   1      47.963  26.660  27.945  1.00  0.00    -0.206 F 
ATOM     73  C   UNL A   1      49.099  26.332  24.521  1.00  0.00     0.006 A 
ENDBRANCH  52  66
BRANCH  53  74
ATOM     74  C   UNL A   1      39.218  31.073  31.143  1.00  0.00     0.057 A 
ATOM     75  C   UNL A   1      38.273  31.920  30.555  1.00  0.00     0.134 A 
ATOM     76  C   UNL A   1      39.061  30.774  32.501  1.00  0.00     0.134 A 
ATOM     77  F   UNL A   1      38.383  32.261  29.263  1.00  0.00    -0.206 F 
ATOM     78  C   UNL A   1      37.220  32.464  31.293  1.00  0.00     0.040 A 
ATOM     79  C   UNL A   1      38.000  31.291  33.245  1.00  0.00     0.040 A 
ATOM     80  F   UNL A   1      39.934  29.967  33.122  1.00  0.00    -0.206 F 
ATOM     81  C   UNL A   1      37.079  32.145  32.642  1.00  0.00     0.006 A 
ENDBRANCH  53  74
BRANCH  65  82
ATOM     82  C   UNL A   1      45.300  33.758  29.083  1.00  0.00     0.057 A 
ATOM     83  C   UNL A   1      45.061  34.798  28.176  1.00  0.00     0.134 A 
ATOM     84  C   UNL A   1      46.116  34.036  30.188  1.00  0.00     0.134 A 
ATOM     85  F   UNL A   1      44.298  34.593  27.093  1.00  0.00    -0.206 F 
ATOM     86  C   UNL A   1      45.632  36.061  28.350  1.00  0.00     0.040 A 
ATOM     87  C   UNL A   1      46.671  35.301  30.384  1.00  0.00     0.040 A 
ATOM     88  F   UNL A   1      46.376  33.085  31.098  1.00  0.00    -0.206 F 
ATOM     89  C   UNL A   1      46.436  36.315  29.458  1.00  0.00     0.006 A 
ENDBRANCH  65  82
ENDBRANCH  39  40
ENDBRANCH  32  34
ENDBRANCH  31  32
ENDBRANCH  30  31
ENDBRANCH  29  30
ENDBRANCH  28  29
ENDBRANCH   1  28
TORSDOF 17
ENDMDL
MODEL 2
REMARK VINA RESULT:     -11.3      4.321      9.307
REMARK SMILES Cc1nc(-c2ccc(S(=O)(=O)N3CC[NH2+][C@H](C(=O)OCCOCCOC(=O)c4ccc(-c5c6nc(c(-c7c(F)cccc7F)c7ccc([nH]7)c(-c7c(F)cccc7F)c7nc(c(-c8c(F)cccc8F)c8ccc5[nH]8)C=C7)C=C6)cc4)C3)s2)cs1
REMARK SMILES IDX 21 1 20 2 19 3 17 4 18 5 16 6 12 7 13 8 82 9 14 10 15 11
REMARK SMILES IDX 9 14 10 15 11 16 8 17 5 18 6 19 83 20 7 21 4 22 1 23 2 24
REMARK SMILES IDX 3 25 85 26 84 27 22 28 23 29 24 30 25 31 26 32 27 33 28 34
REMARK SMILES IDX 29 35 81 36 30 37 80 38 31 39 32 40 33 41 74 42 34 43 79 44
REMARK SMILES IDX 73 45 75 46 35 47 78 48 72 49 71 50 36 52 62 53 45 54 61 55
REMARK SMILES IDX 46 56 49 57 60 58 76 59 47 60 48 61 59 63 77 64 50 65 37 66
REMARK SMILES IDX 38 67 43 68 39 69 40 70 42 71 44 72 41 73 63 74 64 75 69 76
REMARK SMILES IDX 65 77 66 78 68 79 70 80 67 81 51 82 52 83 57 84 53 85 54 86
REMARK SMILES IDX 56 87 58 88 55 89
REMARK H PARENT 15 12 15 13 75 51 49 62
REMARK Flexibility Score: inf
ROOT
ATOM      1  C   UNL A   1      32.205  30.697  26.448  1.00  0.00     0.202 C 
ENDROOT
BRANCH   1   2
ATOM      2  C   UNL A   1      32.148  29.585  25.399  1.00  0.00     0.261 C 
BRANCH   2   3
ATOM      3  O   UNL A   1      32.106  28.270  25.984  1.00  0.00    -0.459 OA
BRANCH   3   4
ATOM      4  C   UNL A   1      33.320  27.662  26.043  1.00  0.00     0.366 C 
ATOM      5  O   UNL A   1      34.349  28.195  26.449  1.00  0.00    -0.245 OA
BRANCH   4   6
ATOM      6  C   UNL A   1      33.316  26.226  25.564  1.00  0.00     0.308 C 
ATOM      7  N   UNL A   1      31.922  24.373  24.859  1.00  0.00    -0.185 NA
ATOM      8  C   UNL A   1      33.043  23.410  25.056  1.00  0.00     0.164 C 
ATOM      9  C   UNL A   1      31.981  25.531  25.787  1.00  0.00     0.180 C 
ATOM     10  C   UNL A   1      34.423  24.089  25.280  1.00  0.00     0.278 C 
ATOM     11  N   UNL A   1      34.447  25.370  26.028  1.00  0.00    -0.332 N 
ATOM     12  H   UNL A   1      35.331  25.849  25.856  1.00  0.00     0.347 HD
ATOM     13  H   UNL A   1      34.354  25.188  27.027  1.00  0.00     0.347 HD
BRANCH   7  14
ATOM     14  S   UNL A   1      31.247  24.635  23.318  1.00  0.00     0.253 S 
ATOM     15  O   UNL A   1      30.391  23.503  23.053  1.00  0.00    -0.206 OA
ATOM     16  O   UNL A   1      32.326  25.002  22.423  1.00  0.00    -0.206 OA
BRANCH  14  17
ATOM     17  C   UNL A   1      30.167  26.072  23.306  1.00  0.00     0.135 A 
ATOM     18  C   UNL A   1      29.351  28.382  22.911  1.00  0.00     0.055 A 
ATOM     19  C   UNL A   1      28.424  27.607  23.566  1.00  0.00     0.023 A 
ATOM     20  S   UNL A   1      30.749  27.492  22.513  1.00  0.00    -0.121 S 
ATOM     21  C   UNL A   1      28.921  26.313  23.855  1.00  0.00     0.034 A 
BRANCH  18  22
ATOM     22  C   UNL A   1      29.085  29.835  22.672  1.00  0.00     0.091 A 
ATOM     23  C   UNL A   1      27.917  32.228  20.182  1.00  0.00     0.079 C 
ATOM     24  C   UNL A   1      28.430  31.518  21.384  1.00  0.00     0.090 A 
ATOM     25  N   UNL A   1      28.726  30.240  21.394  1.00  0.00    -0.241 NA
ATOM     26  S   UNL A   1      28.665  32.333  22.876  1.00  0.00    -0.127 S 
ATOM     27  C   UNL A   1      29.118  30.842  23.611  1.00  0.00     0.096 A 
ENDBRANCH  18  22
ENDBRANCH  14  17
ENDBRANCH   7  14
ENDBRANCH   4   6
ENDBRANCH   3   4
ENDBRANCH   2   3
ENDBRANCH   1   2
BRANCH   1  28
ATOM     28  O   UNL A   1      31.184  31.691  26.447  1.00  0.00    -0.374 OA
BRANCH  28  29
ATOM     29  C   UNL A   1      31.558  33.055  26.603  1.00  0.00     0.202 C 
BRANCH  29  30
ATOM     30  C   UNL A   1      32.660  33.396  27.621  1.00  0.00     0.261 C 
BRANCH  30  31
ATOM     31  O   UNL A   1      32.522  34.698  28.220  1.00  0.00    -0.460 OA
BRANCH  31  32
ATOM     32  C   UNL A   1      33.252  34.862  29.354  1.00  0.00     0.338 C 
ATOM     33  O   UNL A   1      32.965  35.540  30.327  1.00  0.00    -0.246 OA
BRANCH  32  34
ATOM     34  C   UNL A   1      34.413  33.954  29.371  1.00  0.00     0.060 A 
ATOM     35  C   UNL A   1      34.273  32.756  30.085  1.00  0.00     0.016 A 
ATOM     36  C   UNL A   1      35.649  34.323  28.839  1.00  0.00     0.016 A 
ATOM     37  C   UNL A   1      35.381  31.950  30.323  1.00  0.00     0.010 A 
ATOM     38  C   UNL A   1      36.768  33.519  29.092  1.00  0.00     0.010 A 
ATOM     39  C   UNL A   1      36.645  32.358  29.878  1.00  0.00    -0.014 A 
BRANCH  39  40
ATOM     40  C   UNL A   1      37.836  31.662  30.421  1.00  0.00     0.031 A 
ATOM     41  C   UNL A   1      38.236  31.923  31.849  1.00  0.00     0.074 A 
ATOM     42  C   UNL A   1      38.492  30.744  29.691  1.00  0.00     0.049 A 
ATOM     43  N   UNL A   1      39.192  31.377  32.558  1.00  0.00    -0.248 NA
ATOM     44  C   UNL A   1      37.447  32.929  32.577  1.00  0.00     0.031 C 
ATOM     45  C   UNL A   1      38.173  30.374  28.314  1.00  0.00     0.029 A 
ATOM     46  N   UNL A   1      39.559  29.945  30.018  1.00  0.00    -0.354 N 
ATOM     47  C   UNL A   1      39.116  31.971  33.812  1.00  0.00     0.074 A 
ATOM     48  C   UNL A   1      38.046  32.942  33.759  1.00  0.00     0.031 C 
ATOM     49  C   UNL A   1      39.026  29.416  27.913  1.00  0.00     0.029 A 
ATOM     50  C   UNL A   1      39.960  29.120  28.997  1.00  0.00     0.049 A 
ATOM     51  H   UNL A   1      39.994  29.963  30.900  1.00  0.00     0.167 HD
ATOM     52  C   UNL A   1      39.861  31.719  34.913  1.00  0.00     0.037 A 
ATOM     53  C   UNL A   1      40.969  28.229  28.947  1.00  0.00     0.037 A 
ATOM     54  C   UNL A   1      40.924  30.751  34.968  1.00  0.00     0.049 A 
ATOM     55  C   UNL A   1      41.820  28.007  30.169  1.00  0.00     0.074 A 
ATOM     56  C   UNL A   1      41.733  30.415  36.041  1.00  0.00     0.029 A 
ATOM     57  N   UNL A   1      41.327  29.963  33.901  1.00  0.00    -0.354 N 
ATOM     58  N   UNL A   1      41.724  28.556  31.356  1.00  0.00    -0.248 NA
ATOM     59  C   UNL A   1      42.913  27.033  30.046  1.00  0.00     0.031 C 
ATOM     60  C   UNL A   1      42.653  29.454  35.608  1.00  0.00     0.029 A 
ATOM     61  C   UNL A   1      42.387  29.158  34.282  1.00  0.00     0.049 A 
ATOM     62  H   UNL A   1      40.919  29.975  33.005  1.00  0.00     0.167 HD
ATOM     63  C   UNL A   1      42.725  27.977  32.126  1.00  0.00     0.074 A 
ATOM     64  C   UNL A   1      43.407  27.024  31.276  1.00  0.00     0.031 C 
ATOM     65  C   UNL A   1      43.050  28.211  33.422  1.00  0.00     0.037 A 
BRANCH  52  66
ATOM     66  C   UNL A   1      39.564  32.523  36.144  1.00  0.00     0.057 A 
ATOM     67  C   UNL A   1      38.626  32.100  37.096  1.00  0.00     0.134 A 
ATOM     68  C   UNL A   1      40.236  33.726  36.391  1.00  0.00     0.134 A 
ATOM     69  F   UNL A   1      37.935  30.964  36.911  1.00  0.00    -0.206 F 
ATOM     70  C   UNL A   1      38.352  32.856  38.238  1.00  0.00     0.040 A 
ATOM     71  C   UNL A   1      39.989  34.479  37.540  1.00  0.00     0.040 A 
ATOM     72  F   UNL A   1      41.147  34.188  35.521  1.00  0.00    -0.206 F 
ATOM     73  C   UNL A   1      39.041  34.046  38.465  1.00  0.00     0.006 A 
ENDBRANCH  52  66
BRANCH  53  74
ATOM     74  C   UNL A   1      41.233  27.477  27.695  1.00  0.00     0.057 A 
ATOM     75  C   UNL A   1      40.629  26.239  27.448  1.00  0.00     0.134 A 
ATOM     76  C   UNL A   1      42.112  27.971  26.726  1.00  0.00     0.134 A 
ATOM     77  F   UNL A   1      39.795  25.703  28.350  1.00  0.00    -0.206 F 
ATOM     78  C   UNL A   1      40.901  25.512  26.288  1.00  0.00     0.040 A 
ATOM     79  C   UNL A   1      42.376  27.266  25.550  1.00  0.00     0.040 A 
ATOM     80  F   UNL A   1      42.722  29.152  26.904  1.00  0.00    -0.206 F 
ATOM     81  C   UNL A   1      41.774  26.029  25.332  1.00  0.00     0.006 A 
ENDBRANCH  53  74
BRANCH  65  82
ATOM     82  C   UNL A   1      44.171  27.401  34.004  1.00  0.00     0.057 A 
ATOM     83  C   UNL A   1      43.950  26.151  34.596  1.00  0.00     0.134 A 
ATOM     84  C   UNL A   1      45.491  27.865  33.943  1.00  0.00     0.134 A 
ATOM     85  F   UNL A   1      42.708  25.656  34.695  1.00  0.00    -0.206 F 
ATOM     86  C   UNL A   1      45.001  25.402  35.128  1.00  0.00     0.040 A 
ATOM     87  C   UNL A   1      46.552  27.114  34.450  1.00  0.00     0.040 A 
ATOM     88  F   UNL A   1      45.772  29.051  33.380  1.00  0.00    -0.206 F 
ATOM     89  C   UNL A   1      46.307  25.882  35.052  1.00  0.00     0.006 A 
ENDBRANCH  65  82
ENDBRANCH  39  40
ENDBRANCH  32  34
ENDBRANCH  31  32
ENDBRANCH  30  31
ENDBRANCH  29  30
ENDBRANCH  28  29
ENDBRANCH   1  28
TORSDOF 17
ENDMDL
MODEL 3
REMARK VINA RESULT:     -11.1      4.394      7.968
REMARK SMILES Cc1nc(-c2ccc(S(=O)(=O)N3CC[NH2+][C@H](C(=O)OCCOCCOC(=O)c4ccc(-c5c6nc(c(-c7c(F)cccc7F)c7ccc([nH]7)c(-c7c(F)cccc7F)c7nc(c(-c8c(F)cccc8F)c8ccc5[nH]8)C=C7)C=C6)cc4)C3)s2)cs1
REMARK SMILES IDX 21 1 20 2 19 3 17 4 18 5 16 6 12 7 13 8 82 9 14 10 15 11
REMARK SMILES IDX 9 14 10 15 11 16 8 17 5 18 6 19 83 20 7 21 4 22 1 23 2 24
REMARK SMILES IDX 3 25 85 26 84 27 22 28 23 29 24 30 25 31 26 32 27 33 28 34
REMARK SMILES IDX 29 35 81 36 30 37 80 38 31 39 32 40 33 41 74 42 34 43 79 44
REMARK SMILES IDX 73 45 75 46 35 47 78 48 72 49 71 50 36 52 62 53 45 54 61 55
REMARK SMILES IDX 46 56 49 57 60 58 76 59 47 60 48 61 59 63 77 64 50 65 37 66
REMARK SMILES IDX 38 67 43 68 39 69 40 70 42 71 44 72 41 73 63 74 64 75 69 76
REMARK SMILES IDX 65 77 66 78 68 79 70 80 67 81 51 82 52 83 57 84 53 85 54 86
REMARK SMILES IDX 56 87 58 88 55 89
REMARK H PARENT 15 12 15 13 75 51 49 62
REMARK Flexibility Score: inf
ROOT
ATOM      1  C   UNL A   1      37.217  21.102  24.707  1.00  0.00     0.202 C 
ENDROOT
BRANCH   1   2
ATOM      2  C   UNL A   1      35.816  20.588  25.042  1.00  0.00     0.261 C 
BRANCH   2   3
ATOM      3  O   UNL A   1      34.817  21.625  24.993  1.00  0.00    -0.459 OA
BRANCH   3   4
ATOM      4  C   UNL A   1      34.167  21.809  26.172  1.00  0.00     0.366 C 
ATOM      5  O   UNL A   1      34.569  21.411  27.261  1.00  0.00    -0.245 OA
BRANCH   4   6
ATOM      6  C   UNL A   1      32.868  22.577  26.047  1.00  0.00     0.308 C 
ATOM      7  N   UNL A   1      31.862  24.684  25.396  1.00  0.00    -0.185 NA
ATOM      8  C   UNL A   1      30.606  24.349  26.125  1.00  0.00     0.164 C 
ATOM      9  C   UNL A   1      33.071  24.084  26.017  1.00  0.00     0.180 C 
ATOM     10  C   UNL A   1      30.524  22.868  26.588  1.00  0.00     0.278 C 
ATOM     11  N   UNL A   1      31.784  22.204  27.003  1.00  0.00    -0.332 N 
ATOM     12  H   UNL A   1      31.656  21.192  26.997  1.00  0.00     0.347 HD
ATOM     13  H   UNL A   1      32.037  22.504  27.944  1.00  0.00     0.347 HD
BRANCH   7  14
ATOM     14  S   UNL A   1      31.870  24.898  23.708  1.00  0.00     0.253 S 
ATOM     15  O   UNL A   1      30.711  24.198  23.206  1.00  0.00    -0.206 OA
ATOM     16  O   UNL A   1      33.207  24.599  23.234  1.00  0.00    -0.206 OA
BRANCH  14  17
ATOM     17  C   UNL A   1      31.627  26.621  23.258  1.00  0.00     0.135 A 
ATOM     18  C   UNL A   1      30.516  28.809  22.893  1.00  0.00     0.055 A 
ATOM     19  C   UNL A   1      31.838  28.828  22.517  1.00  0.00     0.023 A 
ATOM     20  S   UNL A   1      30.069  27.305  23.558  1.00  0.00    -0.121 S 
ATOM     21  C   UNL A   1      32.448  27.558  22.657  1.00  0.00     0.034 A 
BRANCH  18  22
ATOM     22  C   UNL A   1      29.648  30.005  22.655  1.00  0.00     0.091 A 
ATOM     23  C   UNL A   1      27.856  31.858  20.077  1.00  0.00     0.079 C 
ATOM     24  C   UNL A   1      28.473  31.336  21.326  1.00  0.00     0.090 A 
ATOM     25  N   UNL A   1      29.317  30.333  21.348  1.00  0.00    -0.241 NA
ATOM     26  S   UNL A   1      28.108  32.016  22.860  1.00  0.00    -0.127 S 
ATOM     27  C   UNL A   1      29.091  30.820  23.616  1.00  0.00     0.096 A 
ENDBRANCH  18  22
ENDBRANCH  14  17
ENDBRANCH   7  14
ENDBRANCH   4   6
ENDBRANCH   3   4
ENDBRANCH   2   3
ENDBRANCH   1   2
BRANCH   1  28
ATOM     28  O   UNL A   1      37.982  21.721  25.737  1.00  0.00    -0.374 OA
BRANCH  28  29
ATOM     29  C   UNL A   1      39.283  21.217  26.019  1.00  0.00     0.202 C 
BRANCH  29  30
ATOM     30  C   UNL A   1      40.284  22.142  26.731  1.00  0.00     0.261 C 
BRANCH  30  31
ATOM     31  O   UNL A   1      39.963  23.543  26.630  1.00  0.00    -0.460 OA
BRANCH  31  32
ATOM     32  C   UNL A   1      41.022  24.366  26.847  1.00  0.00     0.338 C 
ATOM     33  O   UNL A   1      42.149  24.256  26.393  1.00  0.00    -0.246 OA
BRANCH  32  34
ATOM     34  C   UNL A   1      40.611  25.571  27.589  1.00  0.00     0.060 A 
ATOM     35  C   UNL A   1      41.437  26.698  27.479  1.00  0.00     0.016 A 
ATOM     36  C   UNL A   1      39.540  25.559  28.485  1.00  0.00     0.016 A 
ATOM     37  C   UNL A   1      41.234  27.796  28.308  1.00  0.00     0.010 A 
ATOM     38  C   UNL A   1      39.347  26.659  29.330  1.00  0.00     0.010 A 
ATOM     39  C   UNL A   1      40.224  27.759  29.278  1.00  0.00    -0.014 A 
BRANCH  39  40
ATOM     40  C   UNL A   1      40.242  28.785  30.348  1.00  0.00     0.031 A 
ATOM     41  C   UNL A   1      39.228  29.896  30.300  1.00  0.00     0.074 A 
ATOM     42  C   UNL A   1      41.080  28.677  31.393  1.00  0.00     0.049 A 
ATOM     43  N   UNL A   1      39.007  30.858  31.160  1.00  0.00    -0.248 NA
ATOM     44  C   UNL A   1      38.338  29.922  29.128  1.00  0.00     0.031 C 
ATOM     45  C   UNL A   1      42.076  27.623  31.573  1.00  0.00     0.029 A 
ATOM     46  N   UNL A   1      41.213  29.463  32.510  1.00  0.00    -0.354 N 
ATOM     47  C   UNL A   1      37.956  31.599  30.635  1.00  0.00     0.074 A 
ATOM     48  C   UNL A   1      37.604  30.998  29.367  1.00  0.00     0.031 C 
ATOM     49  C   UNL A   1      42.718  27.826  32.735  1.00  0.00     0.029 A 
ATOM     50  C   UNL A   1      42.192  29.032  33.371  1.00  0.00     0.049 A 
ATOM     51  H   UNL A   1      40.660  30.259  32.677  1.00  0.00     0.167 HD
ATOM     52  C   UNL A   1      37.328  32.673  31.168  1.00  0.00     0.037 A 
ATOM     53  C   UNL A   1      42.613  29.556  34.537  1.00  0.00     0.037 A 
ATOM     54  C   UNL A   1      37.675  33.269  32.430  1.00  0.00     0.049 A 
ATOM     55  C   UNL A   1      41.937  30.786  35.083  1.00  0.00     0.074 A 
ATOM     56  C   UNL A   1      37.093  34.356  33.061  1.00  0.00     0.029 A 
ATOM     57  N   UNL A   1      38.700  32.829  33.254  1.00  0.00    -0.354 N 
ATOM     58  N   UNL A   1      40.927  31.463  34.590  1.00  0.00    -0.248 NA
ATOM     59  C   UNL A   1      42.452  31.317  36.352  1.00  0.00     0.031 C 
ATOM     60  C   UNL A   1      37.795  34.597  34.248  1.00  0.00     0.029 A 
ATOM     61  C   UNL A   1      38.782  33.634  34.377  1.00  0.00     0.049 A 
ATOM     62  H   UNL A   1      39.282  32.057  33.067  1.00  0.00     0.167 HD
ATOM     63  C   UNL A   1      40.671  32.482  35.499  1.00  0.00     0.074 A 
ATOM     64  C   UNL A   1      41.621  32.325  36.580  1.00  0.00     0.031 C 
ATOM     65  C   UNL A   1      39.732  33.459  35.446  1.00  0.00     0.037 A 
BRANCH  52  66
ATOM     66  C   UNL A   1      36.214  33.286  30.370  1.00  0.00     0.057 A 
ATOM     67  C   UNL A   1      34.868  33.082  30.702  1.00  0.00     0.134 A 
ATOM     68  C   UNL A   1      36.492  34.105  29.269  1.00  0.00     0.134 A 
ATOM     69  F   UNL A   1      34.535  32.294  31.736  1.00  0.00    -0.206 F 
ATOM     70  C   UNL A   1      33.837  33.653  29.953  1.00  0.00     0.040 A 
ATOM     71  C   UNL A   1      35.471  34.701  28.527  1.00  0.00     0.040 A 
ATOM     72  F   UNL A   1      37.759  34.341  28.898  1.00  0.00    -0.206 F 
ATOM     73  C   UNL A   1      34.138  34.471  28.865  1.00  0.00     0.006 A 
ENDBRANCH  52  66
BRANCH  53  74
ATOM     74  C   UNL A   1      43.735  28.922  35.274  1.00  0.00     0.057 A 
ATOM     75  C   UNL A   1      43.504  27.987  36.289  1.00  0.00     0.134 A 
ATOM     76  C   UNL A   1      45.065  29.252  34.991  1.00  0.00     0.134 A 
ATOM     77  F   UNL A   1      42.250  27.648  36.621  1.00  0.00    -0.206 F 
ATOM     78  C   UNL A   1      44.555  27.415  37.008  1.00  0.00     0.040 A 
ATOM     79  C   UNL A   1      46.127  28.670  35.685  1.00  0.00     0.040 A 
ATOM     80  F   UNL A   1      45.352  30.142  34.029  1.00  0.00    -0.206 F 
ATOM     81  C   UNL A   1      45.872  27.752  36.702  1.00  0.00     0.006 A 
ENDBRANCH  53  74
BRANCH  65  82
ATOM     82  C   UNL A   1      39.669  34.412  36.603  1.00  0.00     0.057 A 
ATOM     83  C   UNL A   1      40.307  35.658  36.571  1.00  0.00     0.134 A 
ATOM     84  C   UNL A   1      38.933  34.090  37.751  1.00  0.00     0.134 A 
ATOM     85  F   UNL A   1      41.036  36.020  35.505  1.00  0.00    -0.206 F 
ATOM     86  C   UNL A   1      40.237  36.540  37.650  1.00  0.00     0.040 A 
ATOM     87  C   UNL A   1      38.835  34.975  38.826  1.00  0.00     0.040 A 
ATOM     88  F   UNL A   1      38.289  32.916  37.842  1.00  0.00    -0.206 F 
ATOM     89  C   UNL A   1      39.495  36.201  38.780  1.00  0.00     0.006 A 
ENDBRANCH  65  82
ENDBRANCH  39  40
ENDBRANCH  32  34
ENDBRANCH  31  32
ENDBRANCH  30  31
ENDBRANCH  29  30
ENDBRANCH  28  29
ENDBRANCH   1  28
TORSDOF 17
ENDMDL
