MODEL 1
REMARK VINA RESULT:     -11.3      0.000      0.000
REMARK SMILES Cc1ccc([C@@H](CC(=O)OCCOCCOC(=O)c2ccc(-c3c4nc(c(-c5c(F)cccc5F)c5ccc([nH]5)c(-c5c(F)cccc5F)c5nc(c(-c6c(F)cccc6F)c6ccc3[nH]6)C=C5)C=C4)cc2)NC(=O)c2ccc(OC(F)F)cc2)cc1
REMARK SMILES IDX 11 1 10 2 8 3 9 4 7 5 6 6 5 7 1 8 2 9 3 10 87 11 4 12 86 13
REMARK SMILES IDX 73 14 74 15 75 17 76 18 77 19 85 20 78 21 84 22 79 23 80 24
REMARK SMILES IDX 81 25 82 26 83 27 12 28 13 29 14 30 15 31 16 32 17 33 18 34
REMARK SMILES IDX 19 35 20 36 72 37 21 38 71 39 22 40 23 41 24 42 65 43 25 44
REMARK SMILES IDX 70 45 64 46 66 47 26 48 69 49 63 50 62 51 27 53 53 54 36 55
REMARK SMILES IDX 52 56 37 57 40 58 51 59 67 60 38 61 39 62 50 64 68 65 41 66
REMARK SMILES IDX 28 67 29 68 34 69 30 70 31 71 33 72 35 73 32 74 54 75 55 76
REMARK SMILES IDX 60 77 56 78 57 79 59 80 61 81 58 82 42 83 43 84 48 85 44 86
REMARK SMILES IDX 45 87 47 88 49 89 46 90
REMARK H PARENT 73 16 66 52 40 63
REMARK Flexibility Score: inf
ROOT
ATOM      1  C   UNL A   1      32.111  28.138  23.145  1.00  0.00     0.261 C 
ENDROOT
BRANCH   1   2
ATOM      2  O   UNL A   1      31.917  26.769  22.802  1.00  0.00    -0.463 OA
BRANCH   2   3
ATOM      3  C   UNL A   1      32.988  26.117  22.273  1.00  0.00     0.308 C 
ATOM      4  O   UNL A   1      33.654  26.477  21.329  1.00  0.00    -0.252 OA
BRANCH   3   5
ATOM      5  C   UNL A   1      33.243  24.867  23.071  1.00  0.00     0.152 C 
BRANCH   5   6
ATOM      6  C   UNL A   1      33.947  25.175  24.416  1.00  0.00     0.123 C 
BRANCH   6   7
ATOM      7  C   UNL A   1      35.170  24.243  24.618  1.00  0.00    -0.025 A 
ATOM      8  C   UNL A   1      38.167  21.178  25.376  1.00  0.00     0.044 C 
ATOM      9  C   UNL A   1      37.171  22.264  25.088  1.00  0.00    -0.051 A 
ATOM     10  C   UNL A   1      36.987  23.311  25.984  1.00  0.00     0.004 A 
ATOM     11  C   UNL A   1      36.376  22.222  23.939  1.00  0.00     0.004 A 
ATOM     12  C   UNL A   1      36.035  24.303  25.729  1.00  0.00     0.006 A 
ATOM     13  C   UNL A   1      35.392  23.196  23.709  1.00  0.00     0.006 A 
ENDBRANCH   6   7
BRANCH   6  14
ATOM     14  N   UNL A   1      33.045  25.168  25.585  1.00  0.00    -0.345 N 
ATOM     15  C   UNL A   1      32.286  24.212  26.192  1.00  0.00     0.251 C 
ATOM     16  H   UNL A   1      32.976  26.048  26.021  1.00  0.00     0.164 HD
ATOM     17  O   UNL A   1      31.394  24.555  26.963  1.00  0.00    -0.269 OA
BRANCH  15  18
ATOM     18  C   UNL A   1      32.515  22.790  25.947  1.00  0.00     0.040 A 
ATOM     19  C   UNL A   1      33.415  22.100  26.756  1.00  0.00     0.017 A 
ATOM     20  C   UNL A   1      31.941  22.170  24.840  1.00  0.00     0.017 A 
ATOM     21  C   UNL A   1      33.653  20.747  26.511  1.00  0.00     0.047 A 
ATOM     22  C   UNL A   1      32.152  20.808  24.621  1.00  0.00     0.047 A 
ATOM     23  C   UNL A   1      32.994  20.085  25.468  1.00  0.00     0.126 A 
BRANCH  23  24
ATOM     24  O   UNL A   1      33.277  18.753  25.366  1.00  0.00    -0.435 OA
BRANCH  24  25
ATOM     25  C   UNL A   1      34.050  18.329  24.250  1.00  0.00     0.542 C 
ATOM     26  F   UNL A   1      34.796  17.249  24.583  1.00  0.00    -0.167 F 
ATOM     27  F   UNL A   1      33.234  17.986  23.225  1.00  0.00    -0.167 F 
ENDBRANCH  24  25
ENDBRANCH  23  24
ENDBRANCH  15  18
ENDBRANCH   6  14
ENDBRANCH   5   6
ENDBRANCH   3   5
ENDBRANCH   2   3
ENDBRANCH   1   2
BRANCH   1  28
ATOM     28  C   UNL A   1      31.733  28.443  24.566  1.00  0.00     0.202 C 
BRANCH  28  29
ATOM     29  O   UNL A   1      32.565  29.498  25.021  1.00  0.00    -0.374 OA
BRANCH  29  30
ATOM     30  C   UNL A   1      31.950  30.433  25.896  1.00  0.00     0.202 C 
BRANCH  30  31
ATOM     31  C   UNL A   1      32.657  30.626  27.250  1.00  0.00     0.261 C 
BRANCH  31  32
ATOM     32  O   UNL A   1      33.994  31.150  27.065  1.00  0.00    -0.460 OA
BRANCH  32  33
ATOM     33  C   UNL A   1      34.730  31.380  28.192  1.00  0.00     0.338 C 
ATOM     34  O   UNL A   1      34.818  32.450  28.772  1.00  0.00    -0.246 OA
BRANCH  33  35
ATOM     35  C   UNL A   1      35.677  30.238  28.408  1.00  0.00     0.060 A 
ATOM     36  C   UNL A   1      35.981  29.794  29.712  1.00  0.00     0.016 A 
ATOM     37  C   UNL A   1      36.538  29.934  27.364  1.00  0.00     0.016 A 
ATOM     38  C   UNL A   1      37.220  29.181  29.987  1.00  0.00     0.010 A 
ATOM     39  C   UNL A   1      37.809  29.510  27.678  1.00  0.00     0.010 A 
ATOM     40  C   UNL A   1      38.170  29.101  28.972  1.00  0.00    -0.014 A 
BRANCH  40  41
ATOM     41  C   UNL A   1      39.579  28.694  29.076  1.00  0.00     0.031 A 
ATOM     42  C   UNL A   1      39.927  27.285  28.735  1.00  0.00     0.074 A 
ATOM     43  C   UNL A   1      40.611  29.571  29.189  1.00  0.00     0.049 A 
ATOM     44  N   UNL A   1      41.035  26.722  29.086  1.00  0.00    -0.248 NA
ATOM     45  C   UNL A   1      39.047  26.382  27.990  1.00  0.00     0.031 C 
ATOM     46  C   UNL A   1      41.967  29.375  28.670  1.00  0.00     0.029 A 
ATOM     47  N   UNL A   1      40.690  30.816  29.816  1.00  0.00    -0.354 N 
ATOM     48  C   UNL A   1      41.154  25.577  28.338  1.00  0.00     0.074 A 
ATOM     49  C   UNL A   1      39.860  25.355  27.748  1.00  0.00     0.031 C 
ATOM     50  C   UNL A   1      42.785  30.307  29.180  1.00  0.00     0.029 A 
ATOM     51  C   UNL A   1      42.034  31.056  30.161  1.00  0.00     0.049 A 
ATOM     52  H   UNL A   1      39.933  31.423  29.988  1.00  0.00     0.167 HD
ATOM     53  C   UNL A   1      42.375  25.012  28.134  1.00  0.00     0.037 A 
ATOM     54  C   UNL A   1      42.400  31.414  31.422  1.00  0.00     0.037 A 
ATOM     55  C   UNL A   1      43.453  25.828  28.694  1.00  0.00     0.049 A 
ATOM     56  C   UNL A   1      43.340  30.414  32.024  1.00  0.00     0.074 A 
ATOM     57  C   UNL A   1      44.367  26.715  28.147  1.00  0.00     0.029 A 
ATOM     58  N   UNL A   1      43.493  26.060  30.056  1.00  0.00    -0.354 N 
ATOM     59  N   UNL A   1      43.906  29.454  31.351  1.00  0.00    -0.248 NA
ATOM     60  C   UNL A   1      43.579  30.315  33.459  1.00  0.00     0.031 C 
ATOM     61  C   UNL A   1      45.012  27.410  29.209  1.00  0.00     0.029 A 
ATOM     62  C   UNL A   1      44.498  26.944  30.406  1.00  0.00     0.049 A 
ATOM     63  H   UNL A   1      42.878  25.645  30.703  1.00  0.00     0.167 HD
ATOM     64  C   UNL A   1      44.341  28.503  32.226  1.00  0.00     0.074 A 
ATOM     65  C   UNL A   1      44.167  29.112  33.536  1.00  0.00     0.031 C 
ATOM     66  C   UNL A   1      44.702  27.250  31.819  1.00  0.00     0.037 A 
BRANCH  53  67
ATOM     67  C   UNL A   1      42.569  23.873  27.164  1.00  0.00     0.057 A 
ATOM     68  C   UNL A   1      42.358  22.540  27.552  1.00  0.00     0.134 A 
ATOM     69  C   UNL A   1      42.984  24.034  25.828  1.00  0.00     0.134 A 
ATOM     70  F   UNL A   1      41.854  22.226  28.751  1.00  0.00    -0.206 F 
ATOM     71  C   UNL A   1      42.654  21.452  26.723  1.00  0.00     0.040 A 
ATOM     72  C   UNL A   1      43.343  22.957  25.006  1.00  0.00     0.040 A 
ATOM     73  F   UNL A   1      43.027  25.244  25.249  1.00  0.00    -0.206 F 
ATOM     74  C   UNL A   1      43.190  21.656  25.459  1.00  0.00     0.006 A 
ENDBRANCH  53  67
BRANCH  54  75
ATOM     75  C   UNL A   1      41.288  32.110  32.126  1.00  0.00     0.057 A 
ATOM     76  C   UNL A   1      41.085  33.459  31.798  1.00  0.00     0.134 A 
ATOM     77  C   UNL A   1      40.181  31.384  32.590  1.00  0.00     0.134 A 
ATOM     78  F   UNL A   1      42.105  34.210  31.351  1.00  0.00    -0.206 F 
ATOM     79  C   UNL A   1      39.799  33.992  31.730  1.00  0.00     0.040 A 
ATOM     80  C   UNL A   1      38.895  31.930  32.558  1.00  0.00     0.040 A 
ATOM     81  F   UNL A   1      40.303  30.089  32.914  1.00  0.00    -0.206 F 
ATOM     82  C   UNL A   1      38.695  33.220  32.075  1.00  0.00     0.006 A 
ENDBRANCH  54  75
BRANCH  66  83
ATOM     83  C   UNL A   1      45.190  26.195  32.775  1.00  0.00     0.057 A 
ATOM     84  C   UNL A   1      46.515  25.739  32.769  1.00  0.00     0.134 A 
ATOM     85  C   UNL A   1      44.339  25.540  33.689  1.00  0.00     0.134 A 
ATOM     86  F   UNL A   1      47.388  26.146  31.835  1.00  0.00    -0.206 F 
ATOM     87  C   UNL A   1      46.995  24.816  33.703  1.00  0.00     0.040 A 
ATOM     88  C   UNL A   1      44.793  24.574  34.588  1.00  0.00     0.040 A 
ATOM     89  F   UNL A   1      43.029  25.801  33.773  1.00  0.00    -0.206 F 
ATOM     90  C   UNL A   1      46.135  24.236  34.624  1.00  0.00     0.006 A 
ENDBRANCH  66  83
ENDBRANCH  40  41
ENDBRANCH  33  35
ENDBRANCH  32  33
ENDBRANCH  31  32
ENDBRANCH  30  31
ENDBRANCH  29  30
ENDBRANCH  28  29
ENDBRANCH   1  28
TORSDOF 20
ENDMDL
MODEL 2
REMARK VINA RESULT:     -10.9      3.331      8.460
REMARK SMILES Cc1ccc([C@@H](CC(=O)OCCOCCOC(=O)c2ccc(-c3c4nc(c(-c5c(F)cccc5F)c5ccc([nH]5)c(-c5c(F)cccc5F)c5nc(c(-c6c(F)cccc6F)c6ccc3[nH]6)C=C5)C=C4)cc2)NC(=O)c2ccc(OC(F)F)cc2)cc1
REMARK SMILES IDX 11 1 10 2 8 3 9 4 7 5 6 6 5 7 1 8 2 9 3 10 87 11 4 12 86 13
REMARK SMILES IDX 73 14 74 15 75 17 76 18 77 19 85 20 78 21 84 22 79 23 80 24
REMARK SMILES IDX 81 25 82 26 83 27 12 28 13 29 14 30 15 31 16 32 17 33 18 34
REMARK SMILES IDX 19 35 20 36 72 37 21 38 71 39 22 40 23 41 24 42 65 43 25 44
REMARK SMILES IDX 70 45 64 46 66 47 26 48 69 49 63 50 62 51 27 53 53 54 36 55
REMARK SMILES IDX 52 56 37 57 40 58 51 59 67 60 38 61 39 62 50 64 68 65 41 66
REMARK SMILES IDX 28 67 29 68 34 69 30 70 31 71 33 72 35 73 32 74 54 75 55 76
REMARK SMILES IDX 60 77 56 78 57 79 59 80 61 81 58 82 42 83 43 84 48 85 44 86
REMARK SMILES IDX 45 87 47 88 49 89 46 90
REMARK H PARENT 73 16 66 52 40 63
REMARK Flexibility Score: inf
ROOT
ATOM      1  C   UNL A   1      34.660  24.042  23.736  1.00  0.00     0.261 C 
ENDROOT
BRANCH   1   2
ATOM      2  O   UNL A   1      34.040  24.007  22.455  1.00  0.00    -0.463 OA
BRANCH   2   3
ATOM      3  C   UNL A   1      33.460  25.163  22.028  1.00  0.00     0.308 C 
ATOM      4  O   UNL A   1      33.303  25.505  20.878  1.00  0.00    -0.252 OA
BRANCH   3   5
ATOM      5  C   UNL A   1      33.010  25.956  23.224  1.00  0.00     0.152 C 
BRANCH   5   6
ATOM      6  C   UNL A   1      31.532  25.665  23.587  1.00  0.00     0.123 C 
BRANCH   6   7
ATOM      7  C   UNL A   1      30.642  26.897  23.280  1.00  0.00    -0.025 A 
ATOM      8  C   UNL A   1      28.365  30.595  22.985  1.00  0.00     0.044 C 
ATOM      9  C   UNL A   1      29.139  29.311  23.035  1.00  0.00    -0.051 A 
ATOM     10  C   UNL A   1      28.515  28.122  23.397  1.00  0.00     0.004 A 
ATOM     11  C   UNL A   1      30.510  29.287  22.763  1.00  0.00     0.004 A 
ATOM     12  C   UNL A   1      29.247  26.932  23.474  1.00  0.00     0.006 A 
ATOM     13  C   UNL A   1      31.248  28.100  22.884  1.00  0.00     0.006 A 
ENDBRANCH   6   7
BRANCH   6  14
ATOM     14  N   UNL A   1      31.335  25.167  24.962  1.00  0.00    -0.345 N 
ATOM     15  C   UNL A   1      31.736  25.595  26.193  1.00  0.00     0.251 C 
ATOM     16  H   UNL A   1      30.796  24.344  24.999  1.00  0.00     0.164 HD
ATOM     17  O   UNL A   1      31.688  24.818  27.143  1.00  0.00    -0.269 OA
BRANCH  15  18
ATOM     18  C   UNL A   1      32.219  26.958  26.405  1.00  0.00     0.040 A 
ATOM     19  C   UNL A   1      31.294  27.974  26.640  1.00  0.00     0.017 A 
ATOM     20  C   UNL A   1      33.569  27.255  26.243  1.00  0.00     0.017 A 
ATOM     21  C   UNL A   1      31.750  29.280  26.820  1.00  0.00     0.047 A 
ATOM     22  C   UNL A   1      34.024  28.555  26.461  1.00  0.00     0.047 A 
ATOM     23  C   UNL A   1      33.118  29.571  26.770  1.00  0.00     0.126 A 
BRANCH  23  24
ATOM     24  O   UNL A   1      33.435  30.877  27.012  1.00  0.00    -0.435 OA
BRANCH  24  25
ATOM     25  C   UNL A   1      34.577  31.137  27.819  1.00  0.00     0.542 C 
ATOM     26  F   UNL A   1      35.235  32.228  27.358  1.00  0.00    -0.167 F 
ATOM     27  F   UNL A   1      34.197  31.375  29.097  1.00  0.00    -0.167 F 
ENDBRANCH  24  25
ENDBRANCH  23  24
ENDBRANCH  15  18
ENDBRANCH   6  14
ENDBRANCH   5   6
ENDBRANCH   3   5
ENDBRANCH   2   3
ENDBRANCH   1   2
BRANCH   1  28
ATOM     28  C   UNL A   1      35.925  23.235  23.795  1.00  0.00     0.202 C 
BRANCH  28  29
ATOM     29  O   UNL A   1      35.576  21.901  24.128  1.00  0.00    -0.374 OA
BRANCH  29  30
ATOM     30  C   UNL A   1      36.484  21.223  24.985  1.00  0.00     0.202 C 
BRANCH  30  31
ATOM     31  C   UNL A   1      37.929  21.753  24.959  1.00  0.00     0.261 C 
BRANCH  31  32
ATOM     32  O   UNL A   1      38.340  22.196  26.274  1.00  0.00    -0.460 OA
BRANCH  32  33
ATOM     33  C   UNL A   1      39.582  22.755  26.379  1.00  0.00     0.338 C 
ATOM     34  O   UNL A   1      40.622  22.139  26.543  1.00  0.00    -0.246 OA
BRANCH  33  35
ATOM     35  C   UNL A   1      39.444  24.229  26.614  1.00  0.00     0.060 A 
ATOM     36  C   UNL A   1      40.346  25.138  26.020  1.00  0.00     0.016 A 
ATOM     37  C   UNL A   1      38.711  24.620  27.725  1.00  0.00     0.016 A 
ATOM     38  C   UNL A   1      40.619  26.377  26.635  1.00  0.00     0.010 A 
ATOM     39  C   UNL A   1      39.124  25.741  28.409  1.00  0.00     0.010 A 
ATOM     40  C   UNL A   1      40.053  26.650  27.877  1.00  0.00    -0.014 A 
BRANCH  40  41
ATOM     41  C   UNL A   1      40.348  27.769  28.784  1.00  0.00     0.031 A 
ATOM     42  C   UNL A   1      39.371  28.893  28.849  1.00  0.00     0.074 A 
ATOM     43  C   UNL A   1      41.293  27.720  29.760  1.00  0.00     0.049 A 
ATOM     44  N   UNL A   1      39.655  30.054  29.339  1.00  0.00    -0.248 NA
ATOM     45  C   UNL A   1      37.998  28.814  28.346  1.00  0.00     0.031 C 
ATOM     46  C   UNL A   1      41.242  28.424  31.044  1.00  0.00     0.029 A 
ATOM     47  N   UNL A   1      42.522  27.058  29.811  1.00  0.00    -0.354 N 
ATOM     48  C   UNL A   1      38.463  30.705  29.537  1.00  0.00     0.074 A 
ATOM     49  C   UNL A   1      37.473  29.944  28.820  1.00  0.00     0.031 C 
ATOM     50  C   UNL A   1      42.440  28.361  31.641  1.00  0.00     0.029 A 
ATOM     51  C   UNL A   1      43.359  27.744  30.713  1.00  0.00     0.049 A 
ATOM     52  H   UNL A   1      42.762  26.250  29.303  1.00  0.00     0.167 HD
ATOM     53  C   UNL A   1      38.377  31.726  30.432  1.00  0.00     0.037 A 
ATOM     54  C   UNL A   1      44.615  28.138  30.369  1.00  0.00     0.037 A 
ATOM     55  C   UNL A   1      39.627  31.912  31.168  1.00  0.00     0.049 A 
ATOM     56  C   UNL A   1      44.767  29.626  30.462  1.00  0.00     0.074 A 
ATOM     57  C   UNL A   1      40.057  31.549  32.435  1.00  0.00     0.029 A 
ATOM     58  N   UNL A   1      40.776  32.258  30.481  1.00  0.00    -0.354 N 
ATOM     59  N   UNL A   1      43.887  30.412  31.013  1.00  0.00    -0.248 NA
ATOM     60  C   UNL A   1      45.836  30.358  29.792  1.00  0.00     0.031 C 
ATOM     61  C   UNL A   1      41.462  31.771  32.515  1.00  0.00     0.029 A 
ATOM     62  C   UNL A   1      41.890  32.276  31.301  1.00  0.00     0.049 A 
ATOM     63  H   UNL A   1      40.800  32.468  29.519  1.00  0.00     0.167 HD
ATOM     64  C   UNL A   1      44.102  31.685  30.574  1.00  0.00     0.074 A 
ATOM     65  C   UNL A   1      45.367  31.612  29.860  1.00  0.00     0.031 C 
ATOM     66  C   UNL A   1      43.173  32.675  30.732  1.00  0.00     0.037 A 
BRANCH  53  67
ATOM     67  C   UNL A   1      37.051  32.333  30.817  1.00  0.00     0.057 A 
ATOM     68  C   UNL A   1      36.523  33.433  30.122  1.00  0.00     0.134 A 
ATOM     69  C   UNL A   1      36.252  31.878  31.885  1.00  0.00     0.134 A 
ATOM     70  F   UNL A   1      37.101  33.912  29.015  1.00  0.00    -0.206 F 
ATOM     71  C   UNL A   1      35.364  34.104  30.531  1.00  0.00     0.040 A 
ATOM     72  C   UNL A   1      35.126  32.573  32.344  1.00  0.00     0.040 A 
ATOM     73  F   UNL A   1      36.514  30.719  32.509  1.00  0.00    -0.206 F 
ATOM     74  C   UNL A   1      34.683  33.702  31.671  1.00  0.00     0.006 A 
ENDBRANCH  53  67
BRANCH  54  75
ATOM     75  C   UNL A   1      45.182  27.261  29.307  1.00  0.00     0.057 A 
ATOM     76  C   UNL A   1      45.064  27.721  27.987  1.00  0.00     0.134 A 
ATOM     77  C   UNL A   1      46.247  26.398  29.599  1.00  0.00     0.134 A 
ATOM     78  F   UNL A   1      44.063  28.547  27.641  1.00  0.00    -0.206 F 
ATOM     79  C   UNL A   1      46.082  27.500  27.061  1.00  0.00     0.040 A 
ATOM     80  C   UNL A   1      47.250  26.145  28.658  1.00  0.00     0.040 A 
ATOM     81  F   UNL A   1      46.423  25.928  30.842  1.00  0.00    -0.206 F 
ATOM     82  C   UNL A   1      47.196  26.742  27.403  1.00  0.00     0.006 A 
ENDBRANCH  54  75
BRANCH  66  83
ATOM     83  C   UNL A   1      43.404  34.085  30.258  1.00  0.00     0.057 A 
ATOM     84  C   UNL A   1      43.457  35.171  31.144  1.00  0.00     0.134 A 
ATOM     85  C   UNL A   1      43.506  34.426  28.894  1.00  0.00     0.134 A 
ATOM     86  F   UNL A   1      43.197  35.015  32.452  1.00  0.00    -0.206 F 
ATOM     87  C   UNL A   1      43.746  36.471  30.722  1.00  0.00     0.040 A 
ATOM     88  C   UNL A   1      43.736  35.730  28.454  1.00  0.00     0.040 A 
ATOM     89  F   UNL A   1      43.401  33.522  27.913  1.00  0.00    -0.206 F 
ATOM     90  C   UNL A   1      43.895  36.754  29.372  1.00  0.00     0.006 A 
ENDBRANCH  66  83
ENDBRANCH  40  41
ENDBRANCH  33  35
ENDBRANCH  32  33
ENDBRANCH  31  32
ENDBRANCH  30  31
ENDBRANCH  29  30
ENDBRANCH  28  29
ENDBRANCH   1  28
TORSDOF 20
ENDMDL
MODEL 3
REMARK VINA RESULT:     -10.7      3.032      7.930
REMARK SMILES Cc1ccc([C@@H](CC(=O)OCCOCCOC(=O)c2ccc(-c3c4nc(c(-c5c(F)cccc5F)c5ccc([nH]5)c(-c5c(F)cccc5F)c5nc(c(-c6c(F)cccc6F)c6ccc3[nH]6)C=C5)C=C4)cc2)NC(=O)c2ccc(OC(F)F)cc2)cc1
REMARK SMILES IDX 11 1 10 2 8 3 9 4 7 5 6 6 5 7 1 8 2 9 3 10 87 11 4 12 86 13
REMARK SMILES IDX 73 14 74 15 75 17 76 18 77 19 85 20 78 21 84 22 79 23 80 24
REMARK SMILES IDX 81 25 82 26 83 27 12 28 13 29 14 30 15 31 16 32 17 33 18 34
REMARK SMILES IDX 19 35 20 36 72 37 21 38 71 39 22 40 23 41 24 42 65 43 25 44
REMARK SMILES IDX 70 45 64 46 66 47 26 48 69 49 63 50 62 51 27 53 53 54 36 55
REMARK SMILES IDX 52 56 37 57 40 58 51 59 67 60 38 61 39 62 50 64 68 65 41 66
REMARK SMILES IDX 28 67 29 68 34 69 30 70 31 71 33 72 35 73 32 74 54 75 55 76
REMARK SMILES IDX 60 77 56 78 57 79 59 80 61 81 58 82 42 83 43 84 48 85 44 86
REMARK SMILES IDX 45 87 47 88 49 89 46 90
REMARK H PARENT 73 16 66 52 40 63
REMARK Flexibility Score: inf
ROOT
ATOM      1  C   UNL A   1      35.316  23.657  23.513  1.00  0.00     0.261 C 
ENDROOT
BRANCH   1   2
ATOM      2  O   UNL A   1      34.423  23.211  22.497  1.00  0.00    -0.463 OA
BRANCH   2   3
ATOM      3  C   UNL A   1      33.199  23.806  22.459  1.00  0.00     0.308 C 
ATOM      4  O   UNL A   1      32.955  24.920  22.054  1.00  0.00    -0.252 OA
BRANCH   3   5
ATOM      5  C   UNL A   1      32.169  22.841  22.981  1.00  0.00     0.152 C 
BRANCH   5   6
ATOM      6  C   UNL A   1      32.616  22.184  24.311  1.00  0.00     0.123 C 
BRANCH   6   7
ATOM      7  C   UNL A   1      32.798  20.655  24.131  1.00  0.00    -0.025 A 
ATOM      8  C   UNL A   1      33.883  16.513  23.348  1.00  0.00     0.044 C 
ATOM      9  C   UNL A   1      33.470  17.923  23.650  1.00  0.00    -0.051 A 
ATOM     10  C   UNL A   1      32.531  18.572  22.856  1.00  0.00     0.004 A 
ATOM     11  C   UNL A   1      34.051  18.630  24.707  1.00  0.00     0.004 A 
ATOM     12  C   UNL A   1      32.172  19.897  23.121  1.00  0.00     0.006 A 
ATOM     13  C   UNL A   1      33.720  19.974  24.943  1.00  0.00     0.006 A 
ENDBRANCH   6   7
BRANCH   6  14
ATOM     14  N   UNL A   1      31.752  22.508  25.463  1.00  0.00    -0.345 N 
ATOM     15  C   UNL A   1      31.560  23.625  26.221  1.00  0.00     0.251 C 
ATOM     16  H   UNL A   1      31.192  21.750  25.748  1.00  0.00     0.164 HD
ATOM     17  O   UNL A   1      31.003  23.522  27.311  1.00  0.00    -0.269 OA
BRANCH  15  18
ATOM     18  C   UNL A   1      31.999  24.941  25.761  1.00  0.00     0.040 A 
ATOM     19  C   UNL A   1      33.293  25.364  26.058  1.00  0.00     0.017 A 
ATOM     20  C   UNL A   1      31.095  25.807  25.152  1.00  0.00     0.017 A 
ATOM     21  C   UNL A   1      33.709  26.628  25.640  1.00  0.00     0.047 A 
ATOM     22  C   UNL A   1      31.526  27.055  24.703  1.00  0.00     0.047 A 
ATOM     23  C   UNL A   1      32.841  27.464  24.927  1.00  0.00     0.126 A 
BRANCH  23  24
ATOM     24  O   UNL A   1      33.386  28.653  24.534  1.00  0.00    -0.435 OA
BRANCH  24  25
ATOM     25  C   UNL A   1      33.626  28.836  23.144  1.00  0.00     0.542 C 
ATOM     26  F   UNL A   1      34.067  27.681  22.589  1.00  0.00    -0.167 F 
ATOM     27  F   UNL A   1      32.480  29.200  22.520  1.00  0.00    -0.167 F 
ENDBRANCH  24  25
ENDBRANCH  23  24
ENDBRANCH  15  18
ENDBRANCH   6  14
ENDBRANCH   5   6
ENDBRANCH   3   5
ENDBRANCH   2   3
ENDBRANCH   1   2
BRANCH   1  28
ATOM     28  C   UNL A   1      36.642  22.953  23.476  1.00  0.00     0.202 C 
BRANCH  28  29
ATOM     29  O   UNL A   1      36.466  21.662  24.038  1.00  0.00    -0.374 OA
BRANCH  29  30
ATOM     30  C   UNL A   1      37.591  21.129  24.722  1.00  0.00     0.202 C 
BRANCH  30  31
ATOM     31  C   UNL A   1      38.108  21.982  25.896  1.00  0.00     0.261 C 
BRANCH  31  32
ATOM     32  O   UNL A   1      39.530  22.222  25.774  1.00  0.00    -0.460 OA
BRANCH  32  33
ATOM     33  C   UNL A   1      40.172  22.706  26.877  1.00  0.00     0.338 C 
ATOM     34  O   UNL A   1      40.664  22.025  27.763  1.00  0.00    -0.246 OA
BRANCH  33  35
ATOM     35  C   UNL A   1      39.881  24.169  27.019  1.00  0.00     0.060 A 
ATOM     36  C   UNL A   1      40.660  25.126  26.334  1.00  0.00     0.016 A 
ATOM     37  C   UNL A   1      39.142  24.555  28.128  1.00  0.00     0.016 A 
ATOM     38  C   UNL A   1      40.814  26.426  26.856  1.00  0.00     0.010 A 
ATOM     39  C   UNL A   1      39.449  25.759  28.721  1.00  0.00     0.010 A 
ATOM     40  C   UNL A   1      40.257  26.723  28.097  1.00  0.00    -0.014 A 
BRANCH  40  41
ATOM     41  C   UNL A   1      40.454  27.928  28.917  1.00  0.00     0.031 A 
ATOM     42  C   UNL A   1      39.450  29.023  28.803  1.00  0.00     0.074 A 
ATOM     43  C   UNL A   1      41.320  27.995  29.963  1.00  0.00     0.049 A 
ATOM     44  N   UNL A   1      39.668  30.231  29.204  1.00  0.00    -0.248 NA
ATOM     45  C   UNL A   1      38.123  28.858  28.205  1.00  0.00     0.031 C 
ATOM     46  C   UNL A   1      41.150  28.810  31.169  1.00  0.00     0.029 A 
ATOM     47  N   UNL A   1      42.555  27.377  30.169  1.00  0.00    -0.354 N 
ATOM     48  C   UNL A   1      38.449  30.862  29.249  1.00  0.00     0.074 A 
ATOM     49  C   UNL A   1      37.537  30.010  28.531  1.00  0.00     0.031 C 
ATOM     50  C   UNL A   1      42.299  28.837  31.860  1.00  0.00     0.029 A 
ATOM     51  C   UNL A   1      43.302  28.166  31.066  1.00  0.00     0.049 A 
ATOM     52  H   UNL A   1      42.853  26.534  29.758  1.00  0.00     0.167 HD
ATOM     53  C   UNL A   1      38.269  31.956  30.036  1.00  0.00     0.037 A 
ATOM     54  C   UNL A   1      44.572  28.565  30.785  1.00  0.00     0.037 A 
ATOM     55  C   UNL A   1      39.453  32.245  30.846  1.00  0.00     0.049 A 
ATOM     56  C   UNL A   1      44.682  30.060  30.752  1.00  0.00     0.074 A 
ATOM     57  C   UNL A   1      39.788  32.011  32.171  1.00  0.00     0.029 A 
ATOM     58  N   UNL A   1      40.644  32.562  30.221  1.00  0.00    -0.354 N 
ATOM     59  N   UNL A   1      43.744  30.865  31.159  1.00  0.00    -0.248 NA
ATOM     60  C   UNL A   1      45.785  30.759  30.102  1.00  0.00     0.031 C 
ATOM     61  C   UNL A   1      41.177  32.281  32.338  1.00  0.00     0.029 A 
ATOM     62  C   UNL A   1      41.689  32.687  31.119  1.00  0.00     0.049 A 
ATOM     63  H   UNL A   1      40.739  32.685  29.249  1.00  0.00     0.167 HD
ATOM     64  C   UNL A   1      43.964  32.099  30.622  1.00  0.00     0.074 A 
ATOM     65  C   UNL A   1      45.283  32.000  30.018  1.00  0.00     0.031 C 
ATOM     66  C   UNL A   1      43.004  33.072  30.616  1.00  0.00     0.037 A 
BRANCH  53  67
ATOM     67  C   UNL A   1      36.903  32.556  30.261  1.00  0.00     0.057 A 
ATOM     68  C   UNL A   1      36.301  33.380  29.296  1.00  0.00     0.134 A 
ATOM     69  C   UNL A   1      36.137  32.365  31.427  1.00  0.00     0.134 A 
ATOM     70  F   UNL A   1      36.846  33.568  28.090  1.00  0.00    -0.206 F 
ATOM     71  C   UNL A   1      35.097  34.058  29.523  1.00  0.00     0.040 A 
ATOM     72  C   UNL A   1      34.964  33.083  31.694  1.00  0.00     0.040 A 
ATOM     73  F   UNL A   1      36.477  31.447  32.345  1.00  0.00    -0.206 F 
ATOM     74  C   UNL A   1      34.444  33.946  30.742  1.00  0.00     0.006 A 
ENDBRANCH  53  67
BRANCH  54  75
ATOM     75  C   UNL A   1      45.241  27.614  29.855  1.00  0.00     0.057 A 
ATOM     76  C   UNL A   1      45.728  26.425  30.419  1.00  0.00     0.134 A 
ATOM     77  C   UNL A   1      44.891  27.590  28.498  1.00  0.00     0.134 A 
ATOM     78  F   UNL A   1      46.084  26.382  31.713  1.00  0.00    -0.206 F 
ATOM     79  C   UNL A   1      45.663  25.223  29.717  1.00  0.00     0.040 A 
ATOM     80  C   UNL A   1      44.862  26.391  27.781  1.00  0.00     0.040 A 
ATOM     81  F   UNL A   1      44.412  28.689  27.899  1.00  0.00    -0.206 F 
ATOM     82  C   UNL A   1      45.196  25.194  28.407  1.00  0.00     0.006 A 
ENDBRANCH  54  75
BRANCH  66  83
ATOM     83  C   UNL A   1      43.239  34.440  30.034  1.00  0.00     0.057 A 
ATOM     84  C   UNL A   1      43.393  34.648  28.656  1.00  0.00     0.134 A 
ATOM     85  C   UNL A   1      43.398  35.592  30.831  1.00  0.00     0.134 A 
ATOM     86  F   UNL A   1      43.443  33.618  27.798  1.00  0.00    -0.206 F 
ATOM     87  C   UNL A   1      43.535  35.923  28.101  1.00  0.00     0.040 A 
ATOM     88  C   UNL A   1      43.599  36.863  30.293  1.00  0.00     0.040 A 
ATOM     89  F   UNL A   1      43.356  35.558  32.168  1.00  0.00    -0.206 F 
ATOM     90  C   UNL A   1      43.631  37.039  28.920  1.00  0.00     0.006 A 
ENDBRANCH  66  83
ENDBRANCH  40  41
ENDBRANCH  33  35
ENDBRANCH  32  33
ENDBRANCH  31  32
ENDBRANCH  30  31
ENDBRANCH  29  30
ENDBRANCH  28  29
ENDBRANCH   1  28
TORSDOF 20
ENDMDL
